data_image0
_chemical_formula_structural       HFeHC3HSCSH2SH2SCH2CHC2H4C3HCHC2H4NC3HSH4SH3CH2C2NHCH2CNCH2C2H2C5SHC2H3FeCSC2HC2H2SH2C2H3C4HC2NCH2CHC2SHNH3CNC2H2CHC3H5C3HNCHCHFeC2H2CH4C2H2C8FeCHC2H3SHCHCH2CSH2CS4C2Fe2CHSFeSCHCH2CFeC2H3CH2S2H2C6H2SHC2H9CHFeC2H3CHCH4CNSCH2SH3SCH3CHSHCH2CHCHSC2HC2HCFeSH2CHC4H3CHCHFeC2H2CNC4HFeNFeCHCHC3HCH2CSNH3CH3CHCHSCS3H2FeCSHC2HC2H2CSH3C2H4C3H2C2H2C2HCH3NSCHCH3CH2C3H2SH3CSHCHSCHC2H3CHCHC3HC3H2CFe2CHCHS3CHCFeSCHCFeS2FeS2FeSFeS3CHFeH2CH3SCSH2C3H2C3HCHFeS2FeSFeSCHCH3SFeHCHSCFeS2FeS2FeSFeS3HC6H3C6H8CH2C6H4SH2C3SFeSCSHC4HCH6CSCH2SC6H4C6H6SCFeS2HC6H5SHC2HCH3C6H6FeH2CNH2C2H3FeCH3NCH3NC9H19CH2SCH4SHC2H3NHCH2FeSFeC2H2CSFeSHSC2HCHC2S2HCFeH3C2NHC9NCH2C4H6C2SCSCHSFeCS2CSH2CHC4HNC9H11C5HCHNC5H4C2H3CH4NC9H7CH5SC7H3SCFeHC2H5CSCHFeCHNH2CFeNH4CH5C2H4CSCHC2H2SFeCHCH2CH6FeH2CH3CH3CSCH2C2HSH2CNFeCSHCNCHFeH2FeH2FeSCH6C2H2CNHNHC4H2FeHC3H3FeH2C2SCH3CH3CHCHC2HNFeCSCH2FeCHS2C2FeH3C4H3C3H2S2HCH2C3H5CSCHCSHC2HC2FeHCHC2HS2H2CHSC3H4FeSHSCH2CH2CHCH2CFeS2FeS2FeSFeS3H2SCHFeSHFeHCHSFeHCHCH3C2HC6H3C6H5C2HSCHC2H2C6H4C2SNH4C8H4CH2CH5C2HCH4CH3CHCH3CH3NC5H10SHC2FeHCHC2HCHFeH3SHCFeCHCH3C4H2CH2NCH4S2HSFeH2CHC2H5C2NHC2H2CH2NSH2NC7HCH4CSCH2CHCFeCNC4SCHC3HCHCH2CH4SCH3CSHFeHC2H2CNCSC3HNS2C2HC3H3CH3NHFeHSHSC2HC3HCH2CH2CFeH2FeS3FeSHCH8C3SFeCSHC2SCHFeHCHCH3SC8H4C5H6NSHFeHCNH2CH8C2NSHC2H3C3SH2CNSC2H3FeHCH5C2HC2SHCH3C2HCHSHCHCHC2HC3SH2CFeH3CH2C2SH2C2HCHCH3CHSHCH2CHC3HS2HCHCHCFeS2HC5H3CHCH4C2FeSFe2H2SCH3FeSHCH2CFeCSFeS2FeSCHS2HCHCHCSC4HCHFeS2FeS2FeSFeS3C6H2CHCHC2HC6H2SH2CH3CHCHC7H4C4HCH2C3HSFeNHCH2FeH3CHSHFeHC5HC3HCH2FeC3H5FeHSH2CH3CSH2C2HNHCH2NH2CH2CSHNCSHCHSC2HSHCHC4SH6NHNHC3H3SH8FeCNCHNH2SCHC6H2CHCH3C3HSH4SH3CHCHCSHS2CH3SH2C2HCH2CH2FeC3HC3H4NC8H2CH12NC7HCHCHCH6SC3HC5HC2FeH4SHNCHCHC2HCFeC2H4SCH3SCFeS2FeSCHS3HCFeHSH2FeSHSCH2C2HFeH2CHC2SCHCHFeS3C2HSCH2SH2FeS2FeHFeHS2C6H4C4FeHFeH3C6H4CHC2HCHCH7NHCH2CSH2CH2SCH2CHC2H3CHCHC6H4CH2C2H2NC3HCNHC6H13SC4SHC2HCHC2HSCHC2HFeC3SNHCH3CHSHCHFe2H2C2H4SNCS3CHFeHCHCH4CSHCHSH7NC3H2CH3C2HCH5SNC2H2C2H4CFeCH2C3HCNCSCH2SNH3CHCHC2HCH3CH2C4HCH2NCH4C2SH2CH2FeHCHCHCFeS2H2C4FeCHFeSHCHFeSCHSHCH2CHC3H2CH3FeH4CSCHSCH3C2HSC3SC2H2SHFeCH2SHC2HFeC4SHC4HCSC2HC2H2C2SCNCH2CFe2C3HC2FeCFeHC2HSCFeSC2FeHCSH2CSCFeCH2CNHCNCHCH4CSCSH4C2H3C2H2CHCHSH2SH2CHC2SHSH2FeS2FeS2FeSFeS3FeHSFeSHFeSCS2HS3HSH3FeS2HSC2HCHCH4SH3FeH5SH5NC3SFeCHC2NSFeH2C4H2C2HC6H4C6H4C6H4CH2CHCHC4FeH3CSCNCH2CHCHSH4SH3CHC2HCH4Fe2H3FeC3NC9H18SHC2H2CH2FeHCH2S2H3C2HC3FeH3C2NC6HC2H4NH3CH3CNC6SC2H8CHC2HNC7HSHC2HCH2CFeC2HSH4SHNC2S2C4H4C2H6FeH2C2FeCHSFeC2HSH3CHNC8H3SH5C2H3SHC4HC2HCHCHCH2CH3FeHFeS3C2S2FeSFeSHSHFeHCH2C2HFeSFeS2FeSFeS3C4H3C3H2C2HC2H2CH2SCH3C2H3C6H4C4H2C6H4FeSHNCHCFeHCH2CHC2H3CH3CH2S2H4CHSHC2SCH2CSCH3C2HCHCN2HSC3H2CH2CH3CFeH2CH3CHSHSC3HCH2CHFeHC2HCH4SH2CHCSH4FeHCH3SCHCSHC2HCHCNH2CH3CHCFeHCHS2H2CH3C3H2CH2C2HCH3C2HCH4FeH2CSHCSHNC2HCHSH2SC2HSCHCH2C3NC9H14SCSHCHCHCS2CH2C2HSCHC3HFeH2NFeCHC2HCHSC4H3CSHC4FeCH2Fe2HSHCSC6SFeCFeH2CHCNCSC4HCSFeH2S3H2CNCHCHC4HC13HSH2CH3FeC2H3CH2C2H2SC2HC2H2CFeHCHCH2C2H2CHCN2H4C2NH2CHCH3SFeH4CH4SCHCHCHCHCHCHNHNCH4CHCH2CH3C2H2NHC2H2FeHC2SC2H4C2H5FeH2CH3C2HFeH2C2H2SH3CH2NCH2FeC5H4FeH6CHCHC2FeS2CSHFeHCSCSHSHFeHSHFeS3FeS2FeS2FeSFeS3CNCFeSC2HCHFeSCHC2FeS2FeCFeSHSH2CHC5SCH4C2FeC2H4C7H4C6H6CHSC6H4CHCHCHCH2C3SFeH3CHCSCH2SFeSCHS2CSC3H6CHCHNH2SCSHCH4SCNH3CH2SH4C2HCHCH4FeHS2NC8H9C7H2CHCHSH2C2HSFeSHSHC3HFeCHFeCHC3SHCHFeNC9H14CNHCSHFeCH2SC2HC2H2C3FeH2C2H2CHCHCSCH3C4H2CH2CNCH2SC2HCH3SCHCH2C4HFeHCHNH3CHCHFeHC2S2HFeHCS2H5CHC2H2SHCHFeS2HSFe2CSH2CFeHCHFeSHSFeS2FeS2Fe2S3FeHSFeS2FeS2Fe2S5CFeSHCHCSH3CH2FeHCH2NH4FeCH3SHCH2C4H2FeH4C6H4C6H4FeNC2FeCHC2HC6H4CSC4HCH2C6H5C2HC3HC2H2CNC2H2SNC9H13SHC2H5NH5CH3C3HFeHC2HCHFeH2CH2CHCH3CHCHC2HCNHC3H2CH2C5H5SC7HSCHCHCNCFeHC2SCH2CHCSH2CH4C2H2C2HCHC2H2SH2CH2C2H2SFeCH3SHCHCH2C2HC2H5SNSFeCSHCHC4HSHCH2CH3SHSHNCHC3SC2HCH2CH3SC2H6SH2CH3SNCH4CHCHC2HCH3CHCFeHCHC2HCSCHCH3CHFeS2FeSFeSC3HSCHCFeS3CFeSCSC6FeCH2CHFeSHCH4FeC6H4C6H7C2HCFeCH3CHCHSHCH3C2H4SH5SCNHCHC2NFe2HNC9H2CH7SH2SFeC3H2CH5C2HFeC2H2SC4HSHCH2CHSFeH4FeCSC2NC3H6CHCHC2H2CH3CH2CHCSH3C3HCH2CFeC3HCHCSH11SH8CSHCHNCHCHC2H2C3H2SCH2SH2C2SHCH5SCHC3HC2HC2HSCH3CSNH3CHCSC2SH3S2CH2C2NHCHC6H3SCSCH3C2H2C4HC2HCHNH4NSFeSC3FeHC2FeHC2HC2SC2HFeSHS2CH2C2HFeH4SHFeCHCSC2H3CNHC3HS2CSCHSNFeCNCH2CH7CSC3H2C3SC2SHC3H2CHC3H2SH3C3H3NHC2H2CH5CFeC3H2CH2CFeHC2HCHSC2HCHNH5CH3CHC2SC3HSFeS2FeS2CHFeS3CH3CSCSH8FeS2FeS2FeSFeS3H4FeSCSHSHC4HC3SCH2CFeCFeHCH2SFeC6H3C6H4FeC2H5C3H2SH2C6H5SC2SHC2H2C2HC6S2H2C6H4NHCH3C3FeHC2HNC9H16CH3SCSFeHC2H6CH2NHCHSH4NCH5CNCHC3H2FeCHCSH4C2HCH3CNC2HFeC2NHCHC4HCH7CSH4SHCHCHC7H5CHNC5H2FeCH2C2H3CHCNHCHCH2FeH2C3H3SNCH3S2FeSFeSCFeSFeS3NHSCHCH2CHSFeC3H2SCH5CFeC2NHCH2CH3CHC2SHCH2CHCHC2H2CHNHC2SHC2HSC2HC3H4C6FeCH2C2H2C2H2CHC4H2C6H5Fe2SHC2HNSCHCSH2C2H3C2H2CH2CH2CSHC2HCHSH3C2H4C2H3C2NH2CH2C2H2C5NCHSCH3SH6CH2C2H2CHC2FeSHC3S2HSHFeH2CSHCHCH2C3FeC3H3C2HSHCSC2HCFeH3CHC2H3SH4C4FeCH2CH2FeC3H2SFeC4HCH3C2SH4CHCNHC2H5CHCHCHSH4CH2SHC2H6CH2C2H3C2H3CHFeSH3CH2C2HC2HCFe2S2FeS2FeSFeS3CFeS2FeS2FeSFeS3HC6H9C7H4CSFeHSH2CH2C6H3SNH3SCHCH2CH3C6H5SC2HC2H3C2HCHSH2C2SHCHCH4CHNC2H2C2FeHSCHCHSCS2H3CH2CSHCH6SH2C2HFeH2CH2C2H2SHNCH8CFeH2NC5HCHC3H2NSH4FeCHC3HC2H2CHC2SC2HCFeC2H4CNC5H2CH3CHCH4C2HCH6CHNC10H2CHCHSCH2SH2CH2CH3CNH2CHFe2CH4C2H2CHCH2C2H3CSC2H2CH3CH8CSC3H4CSCHCFeH2C2H2C2H2SCHNHCHC2H2C2SH2CHCHC2H2CHCHC2HCS2H7SHCHCHCHC3HCHC4SC2SCH5CH2CHCHSFeS2Fe2SHSFeS2FeSFe2S3C6H4SH2CH2CH2C7H6CNC4HC3H2C6H4C2HCH4CHC2H2C2HCH4NCHC8H6FeH6CHC2HC2HCHCH2C2HCH2CHCHCH2SCHCHCHSH2C2HC2NH2C2H2CH2CSH6CNSCFeCNHCHCHCHC2SCSCHNHC2H6NHSCSHSC2NH3FeC2HC3HC3H2CHCSC6H3CH3C4H4SFeHC5H3C2SCNFeH2CH2SH2NH11C2FeC3HC2HCH2NC3H2C2HFeCSH2C2FeSC2SFeSFeCSHCFeSHFeSHFeSFeS4C6H8FeH2C6H4CHSCNCHCHSH4CH4NHCFeCS2CH5CHC2HCHCHC2FeNHC2H2C3HSCH3CHCH3SH4CHNC9H14CHCSC3H3C2H2CHC4H3NC6H2NH5CHC3HCH2C2HNCSHS2NH3CHCHSH4CSH3SHCH3C3SHC2HCNC2FeC2H2C3H2C3H2CHC2H4NSC2HCSCHCNHC3HC2HCH4C2H3CSFeC2H2NC3H2C2HSHCHS2CH3CHC3H2Fe2C3HC3H2S2H2C3HCHFeHCFeSC2HCHCHCH2NCFeHCFeSHCH2C2HSCSCHCHCHCHCHCFeH2C3HCH2C3H3SHCHSHCH6FeHCHFeCHC2HFeH2CHC2SNCFeCH4CH6C3H2SC2HSH3CH2CSCHSCH3SH8SH2CFeC3HSH2SCFeHSFeHS2C2S4FeS2FeS2FeSFeS3FeS2FeSHFeSH2SCH2CH2CHCH6CNH4CHC4HFeHNHCH2CH5SC5FeC2HC4HSH2C3H2C6H7C6H2SH3CH2C6H7CH4C4H2NC9H2FeH9FeH2CHCHCH2C4H2CH4NS2H2CSFeH3C7HCNHCH3CHC2SHNC9H15CH3C2H3C2H5FeCHSNHSHFeHCH2CH5C3HC2HFeC2NC2H4C3H2CHSC3NC5H2SHSCH4CH2SC2H3FeCH3CH2C2HCH2C2S3H3CHC2H2C2H2S2CFeC3HC3HNCFeCH3FeHC2S2HFeH3SC3NHC2FeH2CH2C3H2CNCSCHCH3CSC2H4CFeS2FeS2FeSCS2CH3FeHSH2SCH3NC2H3SFeH3CHC2SFeSHSHCSHC2H2C7H4C6H4CH5SHSCH2SCH4C4HCH3SC2FeHCHC6H6CH4C7HCHSCHNCH2C2NH3FeSCNHCH4CH2SHCH2CFeH4C3NC9H14C2H4CH2C2HC2SFeC2H3S2HC2H5CHCHCFeHCHCHC2SH4CH5
_chemical_formula_sum              "H3456 Fe384 C2880 S768 N192"
_cell_length_a       80.2044
_cell_length_b       81.0333
_cell_length_c       81.4286
_cell_angle_alpha    73.8239
_cell_angle_beta     73.8228
_cell_angle_gamma    73.7572

_space_group_name_H-M_alt    "P 1"
_space_group_IT_number       1

loop_
  _space_group_symop_operation_xyz
  'x, y, z'

loop_
  _atom_site_type_symbol
  _atom_site_label
  _atom_site_symmetry_multiplicity
  _atom_site_fract_x
  _atom_site_fract_y
  _atom_site_fract_z
  _atom_site_occupancy
  H   H1        1.0  0.49483  0.06599  0.03768  1.0000
  Fe  Fe1       1.0  0.01160  0.09313  0.23481  1.0000
  H   H2        1.0  0.13397  0.02177  0.15059  1.0000
  C   C1        1.0  0.45993  0.07920  0.99500  1.0000
  C   C2        1.0  0.38576  0.04460  0.05041  1.0000
  C   C3        1.0  0.44004  0.06595  0.98020  1.0000
  H   H3        1.0  0.01126  0.19675  0.14341  1.0000
  S   S1        1.0  0.03469  0.23170  0.09123  1.0000
  C   C4        1.0  0.36792  0.03672  0.03536  1.0000
  S   S2        1.0  0.26861  0.14529  0.98134  1.0000
  H   H4        1.0  0.33773  0.01989  0.05983  1.0000
  H   H5        1.0  0.48027  0.00241  0.01000  1.0000
  S   S3        1.0  0.23661  0.00049  0.11505  1.0000
  H   H6        1.0  0.04896  0.03233  0.28323  1.0000
  H   H7        1.0  0.00123  0.04868  0.28310  1.0000
  S   S4        1.0  0.00119  0.11110  0.21164  1.0000
  C   C5        1.0  0.43926  0.04360  0.06775  1.0000
  H   H8        1.0  0.29068  0.02850  0.09822  1.0000
  H   H9        1.0  0.19637  0.20971  0.00723  1.0000
  C   C6        1.0  0.30169  0.15032  0.97831  1.0000
  H   H10       1.0  0.31203  0.99001  0.06124  1.0000
  C   C7        1.0  0.08482  0.00371  0.30045  1.0000
  C   C8        1.0  0.28127  0.06171  0.06417  1.0000
  H   H11       1.0  0.03565  0.21272  0.03855  1.0000
  H   H12       1.0  0.25518  0.17503  0.00207  1.0000
  H   H13       1.0  0.30023  0.07300  0.04275  1.0000
  H   H14       1.0  0.33501  0.01212  0.10795  1.0000
  C   C9        1.0  0.16615  0.19247  0.98807  1.0000
  C   C10       1.0  0.31166  0.00051  0.04961  1.0000
  C   C11       1.0  0.04318  0.21643  0.04557  1.0000
  H   H15       1.0  0.03704  0.19107  0.09996  1.0000
  C   C12       1.0  0.31117  0.04019  0.07776  1.0000
  H   H16       1.0  0.01245  0.16935  0.16158  1.0000
  C   C13       1.0  0.24224  0.05322  0.04103  1.0000
  C   C14       1.0  0.06118  0.21672  0.03830  1.0000
  H   H17       1.0  0.22102  0.06184  0.02711  1.0000
  H   H18       1.0  0.08482  0.22133  0.04216  1.0000
  H   H19       1.0  0.20229  0.15978  0.97846  1.0000
  H   H20       1.0  0.45541  0.00666  0.99838  1.0000
  N   N1        1.0  0.13495  0.02301  0.17638  1.0000
  C   C15       1.0  0.44127  0.08316  0.99976  1.0000
  C   C16       1.0  0.44996  0.01891  0.00352  1.0000
  C   C17       1.0  0.37417  0.04957  0.03892  1.0000
  H   H21       1.0  0.36941  0.06336  0.03351  1.0000
  S   S5        1.0  0.25481  0.06869  0.02768  1.0000
  H   H22       1.0  0.32421  0.00643  0.07634  1.0000
  H   H23       1.0  0.23938  0.17683  0.02254  1.0000
  H   H24       1.0  0.32770  0.02762  0.98462  1.0000
  H   H25       1.0  0.42248  0.00307  0.04104  1.0000
  S   S6        1.0  0.03984  0.07729  0.23372  1.0000
  H   H26       1.0  0.02606  0.02284  0.23099  1.0000
  H   H27       1.0  0.15159  0.15578  0.01305  1.0000
  H   H28       1.0  0.00995  0.18176  0.11334  1.0000
  C   C18       1.0  0.17777  0.15564  0.99647  1.0000
  H   H29       1.0  0.33722  0.04079  0.99263  1.0000
  H   H30       1.0  0.20689  0.99591  0.05172  1.0000
  C   C19       1.0  0.15455  0.18214  0.99955  1.0000
  C   C20       1.0  0.03200  0.04706  0.23149  1.0000
  N   N2        1.0  0.02997  0.17917  0.12755  1.0000
  H   H31       1.0  0.33825  0.01436  0.01090  1.0000
  C   C21       1.0  0.22622  0.05248  0.03784  1.0000
  H   H32       1.0  0.29407  0.06250  0.01745  1.0000
  H   H33       1.0  0.21625  0.15290  0.01766  1.0000
  C   C22       1.0  0.01935  0.07113  0.28569  1.0000
  N   N3        1.0  0.22756  0.18348  0.00015  1.0000
  C   C23       1.0  0.22976  0.20198  0.99439  1.0000
  H   H34       1.0  0.28355  0.03719  0.03323  1.0000
  H   H35       1.0  0.01953  0.05102  0.26499  1.0000
  C   C24       1.0  0.44540  0.05647  0.05379  1.0000
  C   C25       1.0  0.03585  0.02882  0.23257  1.0000
  H   H36       1.0  0.28481  0.01334  0.05940  1.0000
  H   H37       1.0  0.13893  0.04764  0.15875  1.0000
  C   C26       1.0  0.24174  0.17313  0.00978  1.0000
  C   C27       1.0  0.47625  0.03958  0.05257  1.0000
  C   C28       1.0  0.01599  0.04514  0.27921  1.0000
  C   C29       1.0  0.45127  0.02870  0.07418  1.0000
  C   C30       1.0  0.06494  0.02610  0.23761  1.0000
  S   S7        1.0  0.47232  0.08866  0.00317  1.0000
  H   H38       1.0  0.13854  0.01753  0.20277  1.0000
  C   C31       1.0  0.46952  0.02665  0.06681  1.0000
  C   C32       1.0  0.48835  0.98817  0.03358  1.0000
  H   H39       1.0  0.34711  0.04261  0.06764  1.0000
  H   H40       1.0  0.42514  0.04510  0.07359  1.0000
  H   H41       1.0  0.43604  0.06808  0.04877  1.0000
  Fe  Fe2       1.0  0.40116  0.99341  0.08925  1.0000
  C   C33       1.0  0.46596  0.98780  0.06040  1.0000
  S   S8        1.0  0.37896  0.07937  0.99447  1.0000
  C   C34       1.0  0.33419  0.01439  0.07418  1.0000
  C   C35       1.0  0.38603  0.01400  0.05331  1.0000
  H   H42       1.0  0.26985  0.06986  0.05892  1.0000
  C   C36       1.0  0.22373  0.02724  0.06244  1.0000
  C   C37       1.0  0.07088  0.22141  0.04749  1.0000
  H   H43       1.0  0.31779  0.05940  0.01343  1.0000
  H   H44       1.0  0.16768  0.20539  0.02499  1.0000
  S   S9        1.0  0.35201  0.04284  0.02271  1.0000
  H   H45       1.0  0.35242  0.02979  0.08753  1.0000
  H   H46       1.0  0.33564  0.04995  0.08756  1.0000
  C   C38       1.0  0.21696  0.03950  0.04857  1.0000
  C   C39       1.0  0.32282  0.02012  0.10314  1.0000
  H   H47       1.0  0.01924  0.05508  0.22920  1.0000
  H   H48       1.0  0.46027  0.02690  0.99937  1.0000
  H   H49       1.0  0.28072  0.04630  0.00549  1.0000
  C   C40       1.0  0.16038  0.16373  0.00375  1.0000
  C   C41       1.0  0.34102  0.03820  0.08162  1.0000
  C   C42       1.0  0.05561  0.15749  0.14015  1.0000
  C   C43       1.0  0.19536  0.19633  0.01361  1.0000
  H   H50       1.0  0.38997  0.05454  0.05384  1.0000
  C   C44       1.0  0.01531  0.17311  0.12480  1.0000
  C   C45       1.0  0.06115  0.04433  0.23638  1.0000
  N   N4        1.0  0.32697  0.02847  0.08417  1.0000
  C   C46       1.0  0.04461  0.05481  0.23354  1.0000
  H   H51       1.0  0.26097  0.04166  0.05775  1.0000
  H   H52       1.0  0.42552  0.04047  0.02133  1.0000
  C   C47       1.0  0.20628  0.16470  0.01954  1.0000
  H   H53       1.0  0.07596  0.13885  0.15258  1.0000
  C   C48       1.0  0.06207  0.14560  0.15432  1.0000
  C   C49       1.0  0.20980  0.18165  0.01128  1.0000
  S   S10       1.0  0.00384  0.11425  0.25019  1.0000
  H   H54       1.0  0.01800  0.20678  0.12095  1.0000
  N   N5        1.0  0.49546  0.03800  0.04439  1.0000
  H   H55       1.0  0.20456  0.03897  0.04611  1.0000
  H   H56       1.0  0.32609  0.05412  0.05351  1.0000
  H   H57       1.0  0.14134  0.18837  0.00565  1.0000
  C   C50       1.0  0.29629  0.01365  0.04851  1.0000
  N   N6        1.0  0.02462  0.05159  0.28936  1.0000
  C   C51       1.0  0.23038  0.17671  0.98424  1.0000
  C   C52       1.0  0.07777  0.03730  0.19380  1.0000
  H   H58       1.0  0.43454  0.09167  0.00888  1.0000
  H   H59       1.0  0.15858  0.03366  0.16549  1.0000
  C   C53       1.0  0.03291  0.15107  0.17312  1.0000
  H   H60       1.0  0.43405  0.99239  0.02331  1.0000
  C   C54       1.0  0.37411  0.01894  0.04226  1.0000
  C   C55       1.0  0.32660  0.00108  0.03592  1.0000
  C   C56       1.0  0.04462  0.22570  0.07096  1.0000
  H   H61       1.0  0.02523  0.07721  0.27196  1.0000
  H   H62       1.0  0.44635  0.01866  0.08498  1.0000
  H   H63       1.0  0.00476  0.07604  0.28703  1.0000
  H   H64       1.0  0.07098  0.05028  0.23793  1.0000
  H   H65       1.0  0.44662  0.03949  0.02563  1.0000
  C   C57       1.0  0.46358  0.05450  0.04627  1.0000
  C   C58       1.0  0.05074  0.14239  0.17075  1.0000
  C   C59       1.0  0.18957  0.16257  0.02984  1.0000
  H   H66       1.0  0.34634  0.00529  0.07814  1.0000
  N   N7        1.0  0.44354  0.01493  0.02286  1.0000
  C   C60       1.0  0.03484  0.22114  0.06177  1.0000
  H   H67       1.0  0.29282  0.05286  0.98390  1.0000
  C   C61       1.0  0.29352  0.03837  0.08643  1.0000
  H   H68       1.0  0.11298  0.05650  0.17964  1.0000
  Fe  Fe3       1.0  0.36402  0.05872  0.99746  1.0000
  C   C62       1.0  0.31314  0.05271  0.06156  1.0000
  C   C63       1.0  0.27886  0.04912  0.07975  1.0000
  H   H69       1.0  0.13512  0.00102  0.16600  1.0000
  H   H70       1.0  0.18709  0.14943  0.03551  1.0000
  C   C64       1.0  0.29838  0.06343  0.05505  1.0000
  H   H71       1.0  0.08089  0.06362  0.18991  1.0000
  H   H72       1.0  0.22725  0.20801  0.00582  1.0000
  H   H73       1.0  0.46768  0.06488  0.03552  1.0000
  H   H74       1.0  0.46345  0.00063  0.10811  1.0000
  C   C65       1.0  0.24880  0.04106  0.05502  1.0000
  C   C66       1.0  0.05231  0.01831  0.23565  1.0000
  H   H75       1.0  0.24501  0.01872  0.07626  1.0000
  H   H76       1.0  0.13840  0.14653  0.99177  1.0000
  C   C67       1.0  0.39125  0.02680  0.05800  1.0000
  C   C68       1.0  0.45321  0.99858  0.05103  1.0000
  C   C69       1.0  0.08631  0.01994  0.19308  1.0000
  C   C70       1.0  0.08767  0.05021  0.18889  1.0000
  C   C71       1.0  0.23969  0.02806  0.06560  1.0000
  C   C72       1.0  0.10618  0.04587  0.18304  1.0000
  C   C73       1.0  0.11532  0.02827  0.18195  1.0000
  C   C74       1.0  0.10478  0.01545  0.18721  1.0000
  Fe  Fe4       1.0  0.24386  0.09025  0.00645  1.0000
  C   C75       1.0  0.45754  0.00418  0.03250  1.0000
  H   H77       1.0  0.07858  0.00984  0.19748  1.0000
  C   C76       1.0  0.14225  0.01113  0.19141  1.0000
  C   C77       1.0  0.17867  0.19405  0.02392  1.0000
  H   H78       1.0  0.47803  0.01485  0.07259  1.0000
  H   H79       1.0  0.14206  0.04507  0.18064  1.0000
  H   H80       1.0  0.07762  0.01811  0.24006  1.0000
  S   S11       1.0  0.23391  0.11788  0.01061  1.0000
  H   H81       1.0  0.13721  0.99883  0.19606  1.0000
  C   C78       1.0  0.02277  0.19671  0.13202  1.0000
  H   H82       1.0  0.36973  0.00897  0.03904  1.0000
  C   C79       1.0  0.04419  0.04671  0.28277  1.0000
  H   H83       1.0  0.42987  0.03023  0.04254  1.0000
  H   H84       1.0  0.43984  0.00237  0.05848  1.0000
  C   C80       1.0  0.29567  0.02719  0.03350  1.0000
  S   S12       1.0  0.18490  0.13262  0.00240  1.0000
  H   H85       1.0  0.24349  0.20283  0.98673  1.0000
  H   H86       1.0  0.22069  0.21022  0.98559  1.0000
  C   C81       1.0  0.17580  0.17722  0.03207  1.0000
  S   S13       1.0  0.40395  0.02056  0.07391  1.0000
  S   S14       1.0  0.22270  0.09214  0.99239  1.0000
  S   S15       1.0  0.07143  0.21074  0.01802  1.0000
  S   S16       1.0  0.26391  0.09749  0.98175  1.0000
  C   C82       1.0  0.18905  0.16595  0.98442  1.0000
  C   C83       1.0  0.43610  0.03199  0.02834  1.0000
  Fe  Fe5       1.0  0.09248  0.22546  0.00111  1.0000
  Fe  Fe6       1.0  0.25255  0.12521  0.98488  1.0000
  C   C84       1.0  0.01873  0.04416  0.30828  1.0000
  H   H87       1.0  0.31420  0.01067  0.10600  1.0000
  S   S17       1.0  0.05685  0.99554  0.23686  1.0000
  Fe  Fe7       1.0  0.22765  0.99223  0.09541  1.0000
  S   S18       1.0  0.38479  0.04403  0.97880  1.0000
  C   C85       1.0  0.03743  0.16652  0.14213  1.0000
  H   H88       1.0  0.03312  0.20134  0.13515  1.0000
  C   C86       1.0  0.42898  0.00547  0.02690  1.0000
  H   H89       1.0  0.26552  0.04745  0.08655  1.0000
  H   H90       1.0  0.06510  0.15941  0.12782  1.0000
  C   C87       1.0  0.04316  0.18145  0.11060  1.0000
  Fe  Fe8       1.0  0.21426  0.12058  0.99449  1.0000
  C   C88       1.0  0.11482  0.98915  0.28827  1.0000
  C   C89       1.0  0.18322  0.18433  0.98024  1.0000
  H   H91       1.0  0.02090  0.22110  0.06715  1.0000
  H   H92       1.0  0.16269  0.17551  0.03957  1.0000
  H   H93       1.0  0.04826  0.05333  0.26879  1.0000
  C   C90       1.0  0.02634  0.16294  0.15906  1.0000
  H   H94       1.0  0.07132  0.00969  0.29908  1.0000
  H   H95       1.0  0.09340  0.99824  0.27457  1.0000
  S   S19       1.0  0.10928  0.99158  0.22834  1.0000
  S   S20       1.0  0.16022  0.21556  0.98410  1.0000
  H   H96       1.0  0.02363  0.07653  0.29462  1.0000
  H   H97       1.0  0.41820  0.01310  0.01982  1.0000
  C   C91       1.0  0.09729  0.99703  0.28662  1.0000
  C   C92       1.0  0.43131  0.07645  0.99243  1.0000
  C   C93       1.0  0.31040  0.02792  0.01905  1.0000
  C   C94       1.0  0.13979  0.01353  0.16193  1.0000
  C   C95       1.0  0.32517  0.04025  0.98874  1.0000
  C   C96       1.0  0.29363  0.04275  0.99631  1.0000
  H   H98       1.0  0.31617  0.03015  0.11121  1.0000
  H   H99       1.0  0.43900  0.02679  0.99674  1.0000
  S   S21       1.0  0.21240  0.01080  0.07569  1.0000
  H   H100      1.0  0.24281  0.15869  0.01241  1.0000
  C   C97       1.0  0.14391  0.03809  0.17004  1.0000
  C   C98       1.0  0.46765  0.98693  0.10730  1.0000
  H   H101      1.0  0.05414  0.18686  0.11147  1.0000
  H   H102      1.0  0.39134  0.00022  0.05799  1.0000
  H   H103      1.0  0.41694  0.07959  0.99607  1.0000
  H   H104      1.0  0.15705  0.00702  0.18793  1.0000
  H   H105      1.0  0.11077  0.00171  0.18725  1.0000
  H   H106      1.0  0.06347  0.04069  0.19856  1.0000
  H   H107      1.0  0.01990  0.15947  0.12253  1.0000
  H   H108      1.0  0.04882  0.16886  0.10609  1.0000
  H   H109      1.0  0.02408  0.14865  0.18595  1.0000
  C   C99       1.0  0.47563  0.99879  0.02402  1.0000
  H   H110      1.0  0.15449  0.00970  0.15722  1.0000
  Fe  Fe9       1.0  0.13097  0.22791  0.98713  1.0000
  C   C100      1.0  0.06267  0.22567  0.06386  1.0000
  C   C101      1.0  0.13237  0.14548  0.98140  1.0000
  H   H111      1.0  0.05574  0.13319  0.18173  1.0000
  H   H112      1.0  0.48278  0.06389  0.98061  1.0000
  H   H113      1.0  0.02011  0.03056  0.28092  1.0000
  C   C102      1.0  0.20387  0.98548  0.04727  1.0000
  H   H114      1.0  0.00376  0.17316  0.13618  1.0000
  C   C103      1.0  0.11981  0.98793  0.30380  1.0000
  H   H115      1.0  0.07034  0.22907  0.07097  1.0000
  H   H116      1.0  0.22988  0.16255  0.98748  1.0000
  H   H117      1.0  0.29478  0.16301  0.98129  1.0000
  H   H118      1.0  0.13300  0.13126  0.98280  1.0000
  C   C104      1.0  0.30669  0.05938  0.00773  1.0000
  N   N8        1.0  0.30914  0.04224  0.00318  1.0000
  S   S22       1.0  0.34765  0.07443  0.97801  1.0000
  C   C105      1.0  0.32609  0.01457  0.02084  1.0000
  H   H119      1.0  0.05150  0.05071  0.29027  1.0000
  H   H120      1.0  0.49170  0.04994  0.01796  1.0000
  S   S23       1.0  0.11328  0.21654  0.97839  1.0000
  H   H121      1.0  0.11809  0.15219  0.98439  1.0000
  H   H122      1.0  0.33873  0.99109  0.03701  1.0000
  H   H123      1.0  0.18983  0.99029  0.04580  1.0000
  S   S24       1.0  0.28995  0.98795  0.09689  1.0000
  C   C106      1.0  0.46851  0.06784  0.98361  1.0000
  H   H124      1.0  0.30616  0.07051  0.99606  1.0000
  H   H125      1.0  0.49360  0.02653  0.02432  1.0000
  H   H126      1.0  0.29435  0.02976  0.99372  1.0000
  C   C107      1.0  0.29198  0.13867  0.97767  1.0000
  H   H127      1.0  0.28861  0.98519  0.13373  1.0000
  S   S25       1.0  0.11095  0.23447  0.01130  1.0000
  H   H128      1.0  0.01086  0.11050  0.31058  1.0000
  C   C108      1.0  0.04520  0.02121  0.59083  1.0000
  H   H129      1.0  0.05515  0.03367  0.54529  1.0000
  H   H130      1.0  0.04637  0.03893  0.35973  1.0000
  C   C109      1.0  0.05619  0.06761  0.40057  1.0000
  H   H131      1.0  0.04316  0.07354  0.61540  1.0000
  C   C110      1.0  0.00158  0.02776  0.46832  1.0000
  H   H132      1.0  0.00775  0.01432  0.56312  1.0000
  S   S26       1.0  0.08433  0.01111  0.50539  1.0000
  C   C111      1.0  0.09869  0.00933  0.58198  1.0000
  C   C112      1.0  0.03697  0.03336  0.45678  1.0000
  H   H133      1.0  0.08880  0.02132  0.58339  1.0000
  C   C113      1.0  0.05176  0.02518  0.60316  1.0000
  C   C114      1.0  0.05576  0.06494  0.55221  1.0000
  H   H134      1.0  0.07893  0.03386  0.43244  1.0000
  C   C115      1.0  0.04254  0.07617  0.39171  1.0000
  Fe  Fe10      1.0  0.06116  0.99844  0.51142  1.0000
  S   S27       1.0  0.01013  0.07369  0.43368  1.0000
  H   H135      1.0  0.02362  0.08908  0.52937  1.0000
  H   H136      1.0  0.01150  0.05703  0.58544  1.0000
  C   C116      1.0  0.07137  0.05686  0.39262  1.0000
  H   H137      1.0  0.07929  0.03565  0.34983  1.0000
  C   C117      1.0  0.11799  0.99304  0.45459  1.0000
  C   C118      1.0  0.01911  0.00404  0.39886  1.0000
  C   C119      1.0  0.06941  0.05597  0.51721  1.0000
  C   C120      1.0  0.10281  0.99043  0.45124  1.0000
  H   H138      1.0  0.02549  0.02948  0.57514  1.0000
  H   H139      1.0  0.02266  0.99482  0.44667  1.0000
  H   H140      1.0  0.00987  0.04634  0.50125  1.0000
  C   C121      1.0  0.04678  0.04048  0.53554  1.0000
  H   H141      1.0  0.06879  0.01955  0.41509  1.0000
  C   C122      1.0  0.00923  0.03924  0.51473  1.0000
  H   H142      1.0  0.06631  0.05321  0.55336  1.0000
  Fe  Fe11      1.0  0.08014  0.99686  0.35997  1.0000
  C   C123      1.0  0.05209  0.07550  0.56431  1.0000
  C   C124      1.0  0.00814  0.02130  0.54965  1.0000
  H   H143      1.0  0.05984  0.07196  0.57422  1.0000
  H   H144      1.0  0.05487  0.06924  0.41369  1.0000
  C   C125      1.0  0.12966  0.00175  0.44103  1.0000
  N   N9        1.0  0.05031  0.05805  0.52613  1.0000
  C   C126      1.0  0.06556  0.03153  0.43647  1.0000
  C   C127      1.0  0.10728  0.99442  0.31770  1.0000
  C   C128      1.0  0.02914  0.05223  0.60291  1.0000
  C   C129      1.0  0.05414  0.03652  0.45144  1.0000
  H   H145      1.0  0.11130  0.99350  0.32955  1.0000
  Fe  Fe12      1.0  0.09391  0.99790  0.39063  1.0000
  N   N10       1.0  0.05991  0.06033  0.34897  1.0000
  Fe  Fe13      1.0  0.08712  0.99763  0.53294  1.0000
  C   C130      1.0  0.03031  0.03152  0.31847  1.0000
  H   H146      1.0  0.08852  0.05506  0.34022  1.0000
  C   C131      1.0  0.00340  0.01654  0.39659  1.0000
  H   H147      1.0  0.05900  0.07617  0.32292  1.0000
  C   C132      1.0  0.03060  0.03260  0.58465  1.0000
  C   C133      1.0  0.10839  0.00057  0.59508  1.0000
  C   C134      1.0  0.04404  0.04089  0.60948  1.0000
  H   H148      1.0  0.02524  0.06621  0.51805  1.0000
  C   C135      1.0  0.02840  0.09513  0.55102  1.0000
  H   H149      1.0  0.03153  0.00589  0.38995  1.0000
  H   H150      1.0  0.07840  0.04811  0.52620  1.0000
  C   C136      1.0  0.07283  0.05436  0.37592  1.0000
  S   S28       1.0  0.00548  0.09420  0.34725  1.0000
  N   N11       1.0  0.01299  0.02052  0.45300  1.0000
  H   H151      1.0  0.05165  0.00932  0.58586  1.0000
  H   H152      1.0  0.00554  0.08842  0.58967  1.0000
  H   H153      1.0  0.06315  0.01596  0.60752  1.0000
  C   C137      1.0  0.03847  0.09058  0.56370  1.0000
  H   H154      1.0  0.03200  0.06002  0.35398  1.0000
  H   H155      1.0  0.02257  0.99524  0.46862  1.0000
  H   H156      1.0  0.08811  0.99380  0.43159  1.0000
  C   C138      1.0  0.04283  0.01985  0.43211  1.0000
  H   H157      1.0  0.01009  0.02180  0.42699  1.0000
  C   C139      1.0  0.07705  0.04923  0.34159  1.0000
  H   H158      1.0  0.03926  0.01302  0.42436  1.0000
  S   S29       1.0  0.07379  0.01028  0.33348  1.0000
  C   C140      1.0  0.05906  0.06284  0.36655  1.0000
  S   S30       1.0  0.08849  0.01326  0.55146  1.0000
  S   S31       1.0  0.10704  0.01379  0.39955  1.0000
  S   S32       1.0  0.03641  0.01409  0.50183  1.0000
  H   H159      1.0  0.07736  0.04760  0.32835  1.0000
  H   H160      1.0  0.04948  0.03158  0.52641  1.0000
  Fe  Fe14      1.0  0.10064  0.98568  0.49829  1.0000
  C   C141      1.0  0.07069  0.04631  0.61346  1.0000
  S   S33       1.0  0.06733  0.00889  0.38349  1.0000
  H   H161      1.0  0.07274  0.04887  0.50642  1.0000
  C   C142      1.0  0.03973  0.06508  0.51233  1.0000
  C   C143      1.0  0.03078  0.02485  0.44727  1.0000
  H   H162      1.0  0.10594  0.00578  0.60659  1.0000
  C   C144      1.0  0.01870  0.98946  0.41291  1.0000
  C   C145      1.0  0.10175  0.00262  0.56703  1.0000
  H   H163      1.0  0.07303  0.06900  0.51145  1.0000
  H   H164      1.0  0.02832  0.06237  0.63348  1.0000
  C   C146      1.0  0.05756  0.07765  0.33646  1.0000
  S   S34       1.0  0.13471  0.00340  0.64040  1.0000
  H   H165      1.0  0.02888  0.03759  0.46850  1.0000
  H   H166      1.0  0.03073  0.08450  0.39797  1.0000
  H   H167      1.0  0.08485  0.04558  0.37079  1.0000
  C   C147      1.0  0.99869  0.07926  0.46726  1.0000
  C   C148      1.0  0.04391  0.07387  0.37497  1.0000
  H   H168      1.0  0.17276  0.05594  0.64021  1.0000
  H   H169      1.0  0.07180  0.05516  0.60023  1.0000
  H   H170      1.0  0.03268  0.04165  0.54270  1.0000
  H   H171      1.0  0.04200  0.07821  0.50446  1.0000
  C   C149      1.0  0.04599  0.06937  0.53890  1.0000
  C   C150      1.0  0.02020  0.02253  0.51862  1.0000
  C   C151      1.0  0.01917  0.01334  0.53603  1.0000
  H   H172      1.0  0.03283  0.08065  0.36876  1.0000
  H   H173      1.0  0.02691  0.00010  0.53903  1.0000
  C   C152      1.0  0.08976  0.00237  0.31605  1.0000
  C   C153      1.0  0.04252  0.06223  0.62689  1.0000
  H   H174      1.0  0.14147  0.00368  0.44354  1.0000
  H   H175      1.0  0.01770  0.10683  0.55069  1.0000
  C   C154      1.0  0.04544  0.05174  0.35003  1.0000
  C   C155      1.0  0.01516  0.00112  0.45789  1.0000
  H   H176      1.0  0.04413  0.08614  0.33986  1.0000
  C   C156      1.0  0.12599  0.00827  0.42429  1.0000
  H   H177      1.0  0.03558  0.09872  0.57315  1.0000
  H   H178      1.0  0.03327  0.01487  0.34374  1.0000
  H   H179      1.0  0.04322  0.05618  0.50303  1.0000
  N   N12       1.0  0.05193  0.04521  0.62177  1.0000
  S   S35       1.0  0.01012  0.09918  0.61836  1.0000
  C   C157      1.0  0.05984  0.02337  0.42675  1.0000
  H   H180      1.0  0.13491  0.01534  0.41397  1.0000
  C   C158      1.0  0.02418  0.02455  0.33625  1.0000
  H   H181      1.0  0.06750  0.08502  0.33614  1.0000
  H   H182      1.0  0.04601  0.04901  0.33720  1.0000
  H   H183      1.0  0.08204  0.05020  0.39950  1.0000
  C   C159      1.0  0.03201  0.08474  0.53877  1.0000
  H   H184      1.0  0.05864  0.04275  0.45908  1.0000
  H   H185      1.0  0.15240  0.04648  0.63086  1.0000
  C   C160      1.0  0.11107  0.00541  0.42077  1.0000
  C   C161      1.0  0.02263  0.04808  0.59062  1.0000
  C   C162      1.0  0.09961  0.99620  0.43420  1.0000
  H   H186      1.0  0.02245  0.06452  0.60687  1.0000
  H   H187      1.0  0.00974  0.06866  0.47044  1.0000
  S   S36       1.0  0.10731  0.98796  0.36606  1.0000
  H   H188      1.0  0.04419  0.02670  0.31306  1.0000
  H   H189      1.0  0.00746  0.02208  0.48013  1.0000
  H   H190      1.0  0.00379  0.02801  0.38599  1.0000
  C   C163      1.0  0.11512  0.98757  0.56484  1.0000
  S   S37       1.0  0.06260  0.98686  0.53955  1.0000
  H   H191      1.0  0.13484  0.06385  0.63825  1.0000
  C   C164      1.0  0.99817  0.04723  0.52834  1.0000
  H   H192      1.0  0.07951  0.03324  0.61211  1.0000
  S   S38       1.0  0.00324  0.06121  0.39259  1.0000
  C   C165      1.0  0.00645  0.02992  0.34438  1.0000
  H   H193      1.0  0.07646  0.05164  0.62128  1.0000
  C   C166      1.0  0.00332  0.02769  0.43852  1.0000
  C   C167      1.0  0.00248  0.98691  0.42419  1.0000
  H   H194      1.0  0.00171  0.02442  0.35813  1.0000
  H   H195      1.0  0.05948  0.01819  0.63572  1.0000
  H   H196      1.0  0.04848  0.06496  0.63639  1.0000
  C   C168      1.0  0.00070  0.04913  0.31696  1.0000
  H   H197      1.0  0.00209  0.99723  0.46236  1.0000
  C   C169      1.0  0.05158  0.03128  0.63810  1.0000
  H   H198      1.0  0.00212  0.04214  0.43396  1.0000
  C   C170      1.0  0.12144  0.98522  0.59310  1.0000
  C   C171      1.0  0.14193  0.04997  0.64237  1.0000
  C   C172      1.0  0.99968  0.10430  0.31390  1.0000
  H   H199      1.0  0.99955  0.04238  0.46539  1.0000
  C   C173      1.0  0.99805  0.03845  0.54580  1.0000
  C   C174      1.0  0.99613  0.08459  0.45003  1.0000
  C   C175      1.0  0.99617  0.10070  0.59095  1.0000
  H   H200      1.0  0.07453  0.07652  0.64361  1.0000
  H   H201      1.0  0.32570  0.09312  0.75574  1.0000
  C   C176      1.0  0.07747  0.05102  0.66119  1.0000
  Fe  Fe15      1.0  0.36983  0.06177  0.95884  1.0000
  Fe  Fe16      1.0  0.33361  0.01575  0.79785  1.0000
  C   C177      1.0  0.01181  0.14356  0.79189  1.0000
  H   H202      1.0  0.12320  0.99493  0.74323  1.0000
  C   C178      1.0  0.00769  0.13416  0.78206  1.0000
  H   H203      1.0  0.44527  0.11613  0.93706  1.0000
  S   S39       1.0  0.47054  0.08593  0.85494  1.0000
  S   S40       1.0  0.48509  0.11520  0.80812  1.0000
  S   S41       1.0  0.25268  0.99658  0.73397  1.0000
  C   C179      1.0  0.40484  0.99311  0.75582  1.0000
  H   H204      1.0  0.16520  0.02588  0.67340  1.0000
  C   C180      1.0  0.40007  0.13255  0.84905  1.0000
  Fe  Fe17      1.0  0.48148  0.00302  0.78226  1.0000
  S   S42       1.0  0.47093  0.10064  0.89633  1.0000
  C   C181      1.0  0.45545  0.13488  0.86307  1.0000
  H   H205      1.0  0.47317  0.00609  0.81732  1.0000
  C   C182      1.0  0.28866  0.02460  0.74561  1.0000
  Fe  Fe18      1.0  0.37390  0.08431  0.83359  1.0000
  S   S43       1.0  0.37116  0.10303  0.80789  1.0000
  S   S44       1.0  0.38325  0.05539  0.83434  1.0000
  Fe  Fe19      1.0  0.36408  0.11356  0.85308  1.0000
  S   S45       1.0  0.36001  0.13457  0.82927  1.0000
  S   S46       1.0  0.36022  0.12126  0.87836  1.0000
  Fe  Fe20      1.0  0.34624  0.11682  0.82378  1.0000
  S   S47       1.0  0.32048  0.12783  0.81469  1.0000
  Fe  Fe21      1.0  0.38533  0.11864  0.81615  1.0000
  S   S48       1.0  0.40562  0.13397  0.79897  1.0000
  S   S49       1.0  0.34803  0.09711  0.84907  1.0000
  S   S50       1.0  0.39029  0.09863  0.84046  1.0000
  C   C183      1.0  0.43766  0.00259  0.74813  1.0000
  H   H206      1.0  0.45649  0.06183  0.90651  1.0000
  Fe  Fe22      1.0  0.49052  0.06032  0.85537  1.0000
  H   H207      1.0  0.42712  0.02348  0.88182  1.0000
  H   H208      1.0  0.11188  0.14777  0.91405  1.0000
  C   C184      1.0  0.47588  0.03275  0.80514  1.0000
  H   H209      1.0  0.00721  0.14858  0.72196  1.0000
  H   H210      1.0  0.39062  0.16712  0.86821  1.0000
  H   H211      1.0  0.00285  0.09036  0.72732  1.0000
  S   S51       1.0  0.36449  0.05265  0.93772  1.0000
  C   C185      1.0  0.02808  0.10567  0.73118  1.0000
  S   S52       1.0  0.38549  0.08257  0.95209  1.0000
  H   H212      1.0  0.38213  0.99044  0.83213  1.0000
  H   H213      1.0  0.26590  0.04634  0.74694  1.0000
  C   C186      1.0  0.45363  0.13630  0.84620  1.0000
  C   C187      1.0  0.01390  0.16104  0.67552  1.0000
  C   C188      1.0  0.42983  0.05963  0.92014  1.0000
  H   H214      1.0  0.10102  0.06433  0.71517  1.0000
  H   H215      1.0  0.38677  0.14500  0.87752  1.0000
  C   C189      1.0  0.11066  0.06120  0.70355  1.0000
  C   C190      1.0  0.03237  0.20809  0.81840  1.0000
  C   C191      1.0  0.11584  0.15976  0.94940  1.0000
  H   H216      1.0  0.01919  0.15332  0.66557  1.0000
  C   C192      1.0  0.47473  0.01822  0.81920  1.0000
  H   H217      1.0  0.07837  0.18568  0.79415  1.0000
  Fe  Fe23      1.0  0.10907  0.21305  0.83114  1.0000
  S   S53       1.0  0.09607  0.19299  0.85183  1.0000
  S   S54       1.0  0.12951  0.20737  0.80713  1.0000
  Fe  Fe24      1.0  0.07051  0.21293  0.84920  1.0000
  S   S55       1.0  0.04497  0.20885  0.84616  1.0000
  Fe  Fe25      1.0  0.09802  0.20842  0.87007  1.0000
  S   S56       1.0  0.10759  0.19523  0.89500  1.0000
  C   C193      1.0  0.11783  0.14838  0.92425  1.0000
  H   H218      1.0  0.01761  0.11018  0.70183  1.0000
  C   C194      1.0  0.27232  0.98893  0.78687  1.0000
  H   H219      1.0  0.19235  0.16582  0.92467  1.0000
  H   H220      1.0  0.40302  0.05607  0.93057  1.0000
  H   H221      1.0  0.22153  0.01639  0.82687  1.0000
  S   S57       1.0  0.24802  0.09383  0.94250  1.0000
  Fe  Fe26      1.0  0.00853  0.09472  0.68054  1.0000
  H   H222      1.0  0.04744  0.08994  0.66294  1.0000
  C   C195      1.0  0.44399  0.05976  0.90563  1.0000
  H   H223      1.0  0.07474  0.22144  0.77223  1.0000
  S   S58       1.0  0.10919  0.99602  0.68034  1.0000
  C   C196      1.0  0.05381  0.07632  0.66704  1.0000
  Fe  Fe27      1.0  0.23175  0.09913  0.85389  1.0000
  S   S59       1.0  0.21198  0.08539  0.87429  1.0000
  S   S60       1.0  0.25990  0.08682  0.85663  1.0000
  Fe  Fe28      1.0  0.20272  0.12512  0.83664  1.0000
  S   S61       1.0  0.18072  0.11371  0.85608  1.0000
  S   S62       1.0  0.19839  0.14629  0.81277  1.0000
  Fe  Fe29      1.0  0.19611  0.11270  0.87580  1.0000
  S   S63       1.0  0.18563  0.12147  0.90144  1.0000
  Fe  Fe30      1.0  0.19916  0.08771  0.85238  1.0000
  S   S64       1.0  0.19198  0.06368  0.84980  1.0000
  S   S65       1.0  0.21666  0.12638  0.85649  1.0000
  S   S66       1.0  0.22031  0.09919  0.83175  1.0000
  H   H224      1.0  0.17710  0.12611  0.77646  1.0000
  C   C197      1.0  0.19258  0.06214  0.82849  1.0000
  C   C198      1.0  0.18959  0.04691  0.82582  1.0000
  C   C199      1.0  0.19015  0.04543  0.80885  1.0000
  C   C200      1.0  0.19345  0.05931  0.79456  1.0000
  C   C201      1.0  0.19648  0.07449  0.79725  1.0000
  C   C202      1.0  0.19616  0.07586  0.81414  1.0000
  H   H225      1.0  0.18677  0.03628  0.83691  1.0000
  H   H226      1.0  0.18780  0.03369  0.80683  1.0000
  H   H227      1.0  0.19864  0.08753  0.81604  1.0000
  C   C203      1.0  0.23057  0.10212  0.93129  1.0000
  C   C204      1.0  0.23345  0.09941  0.91441  1.0000
  C   C205      1.0  0.21985  0.10590  0.90510  1.0000
  C   C206      1.0  0.20303  0.11461  0.91280  1.0000
  C   C207      1.0  0.20016  0.11754  0.92964  1.0000
  C   C208      1.0  0.21394  0.11138  0.93887  1.0000
  H   H228      1.0  0.24617  0.09210  0.90852  1.0000
  H   H229      1.0  0.22248  0.10396  0.89200  1.0000
  H   H230      1.0  0.18728  0.12430  0.93565  1.0000
  H   H231      1.0  0.21161  0.11347  0.95195  1.0000
  H   H232      1.0  0.28200  0.05572  0.84511  1.0000
  H   H233      1.0  0.24275  0.06293  0.84579  1.0000
  H   H234      1.0  0.11071  0.18298  0.78095  1.0000
  H   H235      1.0  0.12746  0.16351  0.76044  1.0000
  C   C209      1.0  0.15961  0.12039  0.82012  1.0000
  H   H236      1.0  0.11544  0.17541  0.81107  1.0000
  H   H237      1.0  0.14912  0.13680  0.76960  1.0000
  C   C210      1.0  0.14829  0.19018  0.80977  1.0000
  C   C211      1.0  0.14973  0.17843  0.82591  1.0000
  C   C212      1.0  0.16504  0.16473  0.82720  1.0000
  C   C213      1.0  0.17888  0.16298  0.81236  1.0000
  C   C214      1.0  0.17724  0.17468  0.79636  1.0000
  C   C215      1.0  0.16201  0.18813  0.79505  1.0000
  H   H238      1.0  0.13898  0.17980  0.83726  1.0000
  H   H239      1.0  0.16611  0.15552  0.83953  1.0000
  H   H240      1.0  0.18782  0.17337  0.78485  1.0000
  H   H241      1.0  0.16092  0.19706  0.78255  1.0000
  S   S67       1.0  0.32317  0.02688  0.82197  1.0000
  H   H242      1.0  0.41089  0.15738  0.82300  1.0000
  H   H243      1.0  0.24606  0.03080  0.74148  1.0000
  C   C216      1.0  0.02547  0.16561  0.68280  1.0000
  C   C217      1.0  0.12875  0.05646  0.70351  1.0000
  C   C218      1.0  0.41390  0.05666  0.91913  1.0000
  S   S68       1.0  0.47633  0.03111  0.78406  1.0000
  Fe  Fe31      1.0  0.10632  0.01259  0.65370  1.0000
  S   S69       1.0  0.01752  0.18058  0.75517  1.0000
  C   C219      1.0  0.04728  0.20418  0.82574  1.0000
  S   S70       1.0  0.31820  0.00132  0.78983  1.0000
  H   H244      1.0  0.15504  0.04780  0.68967  1.0000
  C   C220      1.0  0.10163  0.22917  0.89841  1.0000
  C   C221      1.0  0.10685  0.21133  0.90595  1.0000
  C   C222      1.0  0.11158  0.20642  0.92222  1.0000
  C   C223      1.0  0.11036  0.21929  0.93127  1.0000
  H   H245      1.0  0.09481  0.16608  0.93544  1.0000
  C   C224      1.0  0.44037  0.13800  0.87628  1.0000
  H   H246      1.0  0.11608  0.19269  0.92785  1.0000
  H   H247      1.0  0.11378  0.21540  0.94390  1.0000
  H   H248      1.0  0.47790  0.05994  0.79700  1.0000
  H   H249      1.0  0.14783  0.17443  0.97064  1.0000
  H   H250      1.0  0.02571  0.14141  0.79194  1.0000
  H   H251      1.0  0.11203  0.05813  0.66277  1.0000
  C   C225      1.0  0.01871  0.17555  0.69576  1.0000
  S   S71       1.0  0.02741  0.07587  0.69680  1.0000
  C   C226      1.0  0.28423  0.99902  0.73886  1.0000
  H   H252      1.0  0.99857  0.14522  0.83513  1.0000
  H   H253      1.0  0.47542  0.00789  0.84649  1.0000
  S   S72       1.0  0.23198  0.13057  0.96905  1.0000
  C   C227      1.0  0.30348  0.11678  0.82685  1.0000
  C   C228      1.0  0.28571  0.12487  0.82615  1.0000
  C   C229      1.0  0.27210  0.11585  0.83532  1.0000
  C   C230      1.0  0.27629  0.09875  0.84525  1.0000
  C   C231      1.0  0.29402  0.09068  0.84594  1.0000
  C   C232      1.0  0.30759  0.09961  0.83663  1.0000
  H   H254      1.0  0.28248  0.13812  0.81845  1.0000
  H   H255      1.0  0.25840  0.12211  0.83472  1.0000
  H   H256      1.0  0.29731  0.07737  0.85348  1.0000
  H   H257      1.0  0.32125  0.09296  0.83655  1.0000
  C   C233      1.0  0.35925  0.10226  0.89495  1.0000
  C   C234      1.0  0.35497  0.10348  0.91245  1.0000
  C   C235      1.0  0.35578  0.08817  0.92569  1.0000
  C   C236      1.0  0.36061  0.07165  0.92144  1.0000
  C   C237      1.0  0.36374  0.07046  0.90400  1.0000
  C   C238      1.0  0.36328  0.08579  0.89072  1.0000
  H   H258      1.0  0.35125  0.11619  0.91583  1.0000
  H   H259      1.0  0.35278  0.08921  0.93919  1.0000
  H   H260      1.0  0.36721  0.05769  0.90074  1.0000
  H   H261      1.0  0.36647  0.08476  0.87722  1.0000
  H   H262      1.0  0.28944  0.98604  0.73604  1.0000
  H   H263      1.0  0.12612  0.17921  0.96674  1.0000
  S   S73       1.0  0.01564  0.11650  0.65767  1.0000
  C   C239      1.0  0.27777  0.05501  0.83345  1.0000
  Fe  Fe32      1.0  0.24182  0.10206  0.96805  1.0000
  S   S74       1.0  0.09595  0.04176  0.64657  1.0000
  S   S75       1.0  0.36014  0.99796  0.79066  1.0000
  H   H264      1.0  0.40054  0.12191  0.86110  1.0000
  C   C240      1.0  0.46319  0.11919  0.80539  1.0000
  C   C241      1.0  0.45691  0.13455  0.79380  1.0000
  C   C242      1.0  0.43932  0.13869  0.79184  1.0000
  C   C243      1.0  0.42785  0.12744  0.80132  1.0000
  C   C244      1.0  0.43421  0.11172  0.81256  1.0000
  C   C245      1.0  0.45187  0.10765  0.81468  1.0000
  H   H265      1.0  0.46561  0.14344  0.78648  1.0000
  H   H266      1.0  0.43456  0.15076  0.78301  1.0000
  H   H267      1.0  0.42561  0.10271  0.81953  1.0000
  H   H268      1.0  0.45678  0.09550  0.82326  1.0000
  H   H269      1.0  0.19069  0.99597  0.71234  1.0000
  S   S76       1.0  0.48259  0.03520  0.85796  1.0000
  H   H270      1.0  0.13321  0.05566  0.71521  1.0000
  C   C246      1.0  0.25976  0.02426  0.74185  1.0000
  C   C247      1.0  0.03415  0.20438  0.80204  1.0000
  H   H271      1.0  0.16317  0.12996  0.96385  1.0000
  C   C248      1.0  0.27097  0.03301  0.74500  1.0000
  H   H272      1.0  0.01950  0.21419  0.82530  1.0000
  H   H273      1.0  0.17525  0.19358  0.93396  1.0000
  H   H274      1.0  0.47335  0.09706  0.93162  1.0000
  C   C249      1.0  0.33984  0.03418  0.82620  1.0000
  C   C250      1.0  0.33522  0.04852  0.83418  1.0000
  C   C251      1.0  0.34853  0.05507  0.83670  1.0000
  C   C252      1.0  0.36646  0.04699  0.83174  1.0000
  C   C253      1.0  0.37106  0.03225  0.82435  1.0000
  C   C254      1.0  0.35777  0.02605  0.82131  1.0000
  H   H275      1.0  0.32137  0.05474  0.83815  1.0000
  H   H276      1.0  0.34488  0.06615  0.84277  1.0000
  H   H277      1.0  0.38488  0.02581  0.82069  1.0000
  H   H278      1.0  0.02850  0.16776  0.79680  1.0000
  H   H279      1.0  0.05020  0.04112  0.70123  1.0000
  H   H280      1.0  0.40679  0.17414  0.83515  1.0000
  Fe  Fe33      1.0  0.00013  0.10665  0.64462  1.0000
  H   H281      1.0  0.25244  0.09413  0.80222  1.0000
  H   H282      1.0  0.43611  0.14119  0.82929  1.0000
  C   C255      1.0  0.40652  0.11023  0.96548  1.0000
  N   N13       1.0  0.15837  0.12387  0.80154  1.0000
  H   H283      1.0  0.02382  0.17139  0.81842  1.0000
  H   H284      1.0  0.44791  0.09110  0.78110  1.0000
  C   C256      1.0  0.40564  0.01088  0.75096  1.0000
  C   C257      1.0  0.15852  0.02877  0.66231  1.0000
  H   H285      1.0  0.15646  0.13280  0.93774  1.0000
  H   H286      1.0  0.19194  0.19237  0.97102  1.0000
  H   H287      1.0  0.46539  0.13356  0.83600  1.0000
  Fe  Fe34      1.0  0.22398  0.00752  0.74497  1.0000
  C   C258      1.0  0.42108  0.14459  0.85548  1.0000
  H   H288      1.0  0.42316  0.11485  0.77186  1.0000
  H   H289      1.0  0.28212  0.02840  0.78338  1.0000
  H   H290      1.0  0.99645  0.16662  0.83899  1.0000
  N   N14       1.0  0.40332  0.14876  0.85133  1.0000
  C   C259      1.0  0.30107  0.12238  0.97356  1.0000
  H   H291      1.0  0.37545  0.15911  0.86138  1.0000
  H   H292      1.0  0.38882  0.16672  0.83220  1.0000
  H   H293      1.0  0.44684  0.06032  0.78598  1.0000
  N   N15       1.0  0.29565  0.11057  0.89316  1.0000
  C   C260      1.0  0.31114  0.09551  0.89149  1.0000
  C   C261      1.0  0.27927  0.10348  0.89851  1.0000
  C   C262      1.0  0.29554  0.12261  0.87568  1.0000
  C   C263      1.0  0.29711  0.12005  0.90568  1.0000
  C   C264      1.0  0.28450  0.12140  0.92174  1.0000
  C   C265      1.0  0.31172  0.12811  0.90204  1.0000
  C   C266      1.0  0.28652  0.13027  0.93332  1.0000
  C   C267      1.0  0.31363  0.13692  0.91371  1.0000
  C   C268      1.0  0.30106  0.13799  0.92932  1.0000
  H   H294      1.0  0.31189  0.08635  0.90446  1.0000
  H   H295      1.0  0.31041  0.08785  0.88237  1.0000
  H   H296      1.0  0.32398  0.09980  0.88636  1.0000
  H   H297      1.0  0.27881  0.09359  0.91118  1.0000
  H   H298      1.0  0.27833  0.09669  0.88872  1.0000
  H   H299      1.0  0.26703  0.11415  0.89990  1.0000
  H   H300      1.0  0.30840  0.12670  0.86949  1.0000
  H   H301      1.0  0.29314  0.11631  0.86627  1.0000
  H   H302      1.0  0.28486  0.13474  0.87661  1.0000
  H   H303      1.0  0.27297  0.11566  0.92576  1.0000
  H   H304      1.0  0.32191  0.12751  0.89019  1.0000
  H   H305      1.0  0.27682  0.13105  0.94556  1.0000
  H   H306      1.0  0.32503  0.14278  0.91068  1.0000
  H   H307      1.0  0.30263  0.14472  0.93841  1.0000
  H   H308      1.0  0.02966  0.12678  0.69838  1.0000
  H   H309      1.0  0.39654  0.10764  0.76856  1.0000
  H   H310      1.0  0.02984  0.13915  0.72205  1.0000
  H   H311      1.0  0.02781  0.14949  0.81568  1.0000
  H   H312      1.0  0.45388  0.05634  0.87952  1.0000
  C   C269      1.0  0.29524  0.00747  0.74282  1.0000
  H   H313      1.0  0.02272  0.20761  0.79631  1.0000
  H   H314      1.0  0.30895  0.00100  0.74311  1.0000
  S   S77       1.0  0.16415  0.02491  0.72547  1.0000
  C   C270      1.0  0.42416  0.03654  0.80011  1.0000
  H   H315      1.0  0.42284  0.02266  0.80282  1.0000
  H   H316      1.0  0.41487  0.04265  0.81085  1.0000
  H   H317      1.0  0.40010  0.04978  0.76864  1.0000
  H   H318      1.0  0.40337  0.02955  0.78408  1.0000
  S   S78       1.0  0.19403  0.05834  0.77313  1.0000
  H   H319      1.0  0.42190  0.14438  0.93592  1.0000
  C   C271      1.0  0.48570  0.10655  0.90478  1.0000
  C   C272      1.0  0.14637  0.00007  0.69944  1.0000
  H   H320      1.0  0.25156  0.07867  0.78032  1.0000
  H   H321      1.0  0.29380  0.11351  0.97248  1.0000
  H   H322      1.0  0.36140  0.01481  0.81546  1.0000
  N   N16       1.0  0.14950  0.04756  0.65781  1.0000
  H   H323      1.0  0.01821  0.12519  0.77519  1.0000
  C   C273      1.0  0.06922  0.06872  0.65614  1.0000
  H   H324      1.0  0.25119  0.03758  0.77905  1.0000
  H   H325      1.0  0.02942  0.09349  0.72668  1.0000
  Fe  Fe35      1.0  0.19543  0.99364  0.77418  1.0000
  S   S79       1.0  0.03779  0.21230  0.73048  1.0000
  Fe  Fe36      1.0  0.02209  0.19495  0.72699  1.0000
  C   C274      1.0  0.32888  0.08582  0.76867  1.0000
  C   C275      1.0  0.02138  0.16336  0.81057  1.0000
  H   H326      1.0  0.44195  0.13635  0.88949  1.0000
  H   H327      1.0  0.99812  0.19268  0.81309  1.0000
  C   C276      1.0  0.06556  0.19213  0.80079  1.0000
  S   S80       1.0  0.30226  0.03595  0.74963  1.0000
  Fe  Fe37      1.0  0.48554  0.09084  0.87189  1.0000
  S   S81       1.0  0.09560  0.99355  0.64621  1.0000
  H   H328      1.0  0.02533  0.10239  0.74574  1.0000
  S   S82       1.0  0.11318  0.22702  0.84940  1.0000
  C   C277      1.0  0.26462  0.08951  0.79328  1.0000
  C   C278      1.0  0.11740  0.05745  0.67374  1.0000
  H   H329      1.0  0.09808  0.23315  0.88580  1.0000
  C   C279      1.0  0.27140  0.03341  0.79343  1.0000
  H   H330      1.0  0.42268  0.02930  0.74212  1.0000
  C   C280      1.0  0.17827  0.99696  0.70896  1.0000
  C   C281      1.0  0.17289  0.19031  0.92287  1.0000
  S   S83       1.0  0.21628  0.00754  0.77358  1.0000
  S   S84       1.0  0.46075  0.98686  0.79257  1.0000
  H   H331      1.0  0.10198  0.21934  0.78213  1.0000
  C   C282      1.0  0.43634  0.11010  0.94899  1.0000
  Fe  Fe38      1.0  0.03122  0.19947  0.75899  1.0000
  H   H332      1.0  0.43909  0.09565  0.94980  1.0000
  H   H333      1.0  0.46857  0.13105  0.86599  1.0000
  H   H334      1.0  0.10780  0.16793  0.95848  1.0000
  C   C283      1.0  0.47726  0.04859  0.80781  1.0000
  C   C284      1.0  0.13597  0.05243  0.67330  1.0000
  N   N17       1.0  0.41735  0.11851  0.94889  1.0000
  H   H335      1.0  0.14256  0.13082  0.91589  1.0000
  C   C285      1.0  0.14301  0.14030  0.93796  1.0000
  C   C286      1.0  0.10500  0.06168  0.68870  1.0000
  C   C287      1.0  0.41157  0.11669  0.93383  1.0000
  C   C288      1.0  0.39389  0.12445  0.93166  1.0000
  C   C289      1.0  0.42294  0.10710  0.92116  1.0000
  C   C290      1.0  0.38787  0.12241  0.91796  1.0000
  C   C291      1.0  0.41676  0.10516  0.90748  1.0000
  C   C292      1.0  0.39919  0.11257  0.90603  1.0000
  C   C293      1.0  0.16299  0.05849  0.65245  1.0000
  N   N18       1.0  0.01401  0.12041  0.72466  1.0000
  C   C294      1.0  0.07683  0.23282  0.77528  1.0000
  H   H336      1.0  0.09088  0.06520  0.68877  1.0000
  H   H337      1.0  0.40052  0.14429  0.95070  1.0000
  C   C295      1.0  0.42238  0.10120  0.77432  1.0000
  C   C296      1.0  0.48395  0.10307  0.92290  1.0000
  C   C297      1.0  0.20951  0.99657  0.82513  1.0000
  C   C298      1.0  0.16095  0.14452  0.96177  1.0000
  H   H338      1.0  0.38434  0.13169  0.94090  1.0000
  H   H339      1.0  0.43662  0.10073  0.92160  1.0000
  H   H340      1.0  0.37416  0.12811  0.91695  1.0000
  H   H341      1.0  0.42566  0.09765  0.89809  1.0000
  H   H342      1.0  0.39426  0.11056  0.89579  1.0000
  H   H343      1.0  0.13408  0.00159  0.69570  1.0000
  C   C299      1.0  0.38852  0.15534  0.86526  1.0000
  C   C300      1.0  0.41480  0.13743  0.94864  1.0000
  S   S85       1.0  0.03354  0.17930  0.70593  1.0000
  C   C301      1.0  0.40250  0.16235  0.83478  1.0000
  S   S86       1.0  0.00613  0.21957  0.76505  1.0000
  C   C302      1.0  0.24030  0.04507  0.80383  1.0000
  H   H344      1.0  0.49491  0.10395  0.94379  1.0000
  S   S87       1.0  0.17474  0.01866  0.76966  1.0000
  Fe  Fe39      1.0  0.18528  0.01795  0.74119  1.0000
  C   C303      1.0  0.42339  0.14282  0.87264  1.0000
  S   S88       1.0  0.05333  0.18982  0.77368  1.0000
  S   S89       1.0  0.07114  0.22648  0.86951  1.0000
  C   C304      1.0  0.16315  0.00935  0.71463  1.0000
  S   S90       1.0  0.20585  0.03357  0.73702  1.0000
  H   H345      1.0  0.38679  0.13499  0.84605  1.0000
  H   H346      1.0  0.47998  0.06179  0.82614  1.0000
  C   C305      1.0  0.15992  0.20151  0.91409  1.0000
  H   H347      1.0  0.04146  0.10892  0.72620  1.0000
  C   C306      1.0  0.43674  0.14089  0.84245  1.0000
  C   C307      1.0  0.10818  0.15864  0.93638  1.0000
  C   C308      1.0  0.26409  0.08081  0.78097  1.0000
  C   C309      1.0  0.01619  0.13673  0.72801  1.0000
  H   H348      1.0  0.41004  0.12744  0.83807  1.0000
  N   N19       1.0  0.16457  0.17788  0.87783  1.0000
  C   C310      1.0  0.15575  0.19353  0.86614  1.0000
  C   C311      1.0  0.18188  0.17030  0.86709  1.0000
  C   C312      1.0  0.15330  0.16476  0.88389  1.0000
  C   C313      1.0  0.16716  0.18218  0.89338  1.0000
  C   C314      1.0  0.15695  0.19751  0.89964  1.0000
  C   C315      1.0  0.17949  0.17053  0.90332  1.0000
  C   C316      1.0  0.05551  0.04883  0.68864  1.0000
  C   C317      1.0  0.18250  0.17474  0.91763  1.0000
  C   C318      1.0  0.07067  0.04106  0.67748  1.0000
  H   H349      1.0  0.16280  0.20450  0.86250  1.0000
  H   H350      1.0  0.15537  0.19051  0.85375  1.0000
  H   H351      1.0  0.14156  0.19838  0.87222  1.0000
  H   H352      1.0  0.18788  0.15673  0.87353  1.0000
  H   H353      1.0  0.19165  0.17870  0.86420  1.0000
  H   H354      1.0  0.18051  0.16898  0.85431  1.0000
  H   H355      1.0  0.14025  0.16983  0.89217  1.0000
  H   H356      1.0  0.15061  0.16132  0.87270  1.0000
  H   H357      1.0  0.15969  0.15237  0.89196  1.0000
  H   H358      1.0  0.14649  0.20659  0.89364  1.0000
  H   H359      1.0  0.18693  0.15804  0.90016  1.0000
  C   C319      1.0  0.05072  0.19609  0.79339  1.0000
  C   C320      1.0  0.06393  0.19648  0.81675  1.0000
  C   C321      1.0  0.14712  0.01051  0.71022  1.0000
  C   C322      1.0  0.42207  0.01558  0.74656  1.0000
  C   C323      1.0  0.04689  0.06640  0.68329  1.0000
  H   H360      1.0  0.27117  0.06857  0.82764  1.0000
  C   C324      1.0  0.25406  0.03861  0.79094  1.0000
  H   H361      1.0  0.30821  0.08221  0.81155  1.0000
  N   N20       1.0  0.31378  0.09015  0.78335  1.0000
  C   C325      1.0  0.40743  0.09707  0.77236  1.0000
  C   C326      1.0  0.27974  0.07471  0.76959  1.0000
  C   C327      1.0  0.26647  0.00738  0.73846  1.0000
  C   C328      1.0  0.43632  0.08780  0.77949  1.0000
  C   C329      1.0  0.26133  0.04143  0.82214  1.0000
  H   H362      1.0  0.16947  0.10800  0.82378  1.0000
  H   H363      1.0  0.22685  0.04891  0.80185  1.0000
  H   H364      1.0  0.43126  0.06158  0.93228  1.0000
  H   H365      1.0  0.13666  0.14917  0.82098  1.0000
  C   C330      1.0  0.14124  0.05203  0.68869  1.0000
  C   C331      1.0  0.13511  0.13903  0.92520  1.0000
  H   H366      1.0  0.28881  0.03084  0.80987  1.0000
  H   H367      1.0  0.27932  0.06769  0.76017  1.0000
  H   H368      1.0  0.23233  0.05177  0.82859  1.0000
  C   C332      1.0  0.24975  0.04937  0.85121  1.0000
  H   H369      1.0  0.25345  0.05033  0.86308  1.0000
  H   H370      1.0  0.24011  0.04062  0.85573  1.0000
  H   H371      1.0  0.27740  0.02563  0.85948  1.0000
  H   H372      1.0  0.26631  0.01537  0.84994  1.0000
  N   N21       1.0  0.42436  0.05140  0.87182  1.0000
  C   C333      1.0  0.40558  0.05404  0.87066  1.0000
  C   C334      1.0  0.43280  0.06346  0.85630  1.0000
  C   C335      1.0  0.43344  0.03299  0.87076  1.0000
  C   C336      1.0  0.42594  0.05457  0.88835  1.0000
  C   C337      1.0  0.41191  0.05413  0.90356  1.0000
  C   C338      1.0  0.44222  0.05697  0.89005  1.0000
  C   C339      1.0  0.22359  0.00475  0.82182  1.0000
  C   C340      1.0  0.47589  0.01928  0.83573  1.0000
  C   C341      1.0  0.24021  0.99815  0.81188  1.0000
  H   H373      1.0  0.39776  0.06726  0.87276  1.0000
  H   H374      1.0  0.40460  0.05301  0.85763  1.0000
  H   H375      1.0  0.39887  0.04384  0.88025  1.0000
  H   H376      1.0  0.42784  0.07741  0.85760  1.0000
  H   H377      1.0  0.43013  0.06258  0.84389  1.0000
  H   H378      1.0  0.44754  0.06026  0.85416  1.0000
  H   H379      1.0  0.44764  0.03020  0.87146  1.0000
  C   C342      1.0  0.01699  0.12258  0.70548  1.0000
  H   H380      1.0  0.43315  0.03006  0.85827  1.0000
  H   H381      1.0  0.39931  0.05157  0.90393  1.0000
  H   H382      1.0  0.13529  0.01978  0.71487  1.0000
  H   H383      1.0  0.07549  0.19346  0.82233  1.0000
  H   H384      1.0  0.03971  0.16128  0.67851  1.0000
  S   S91       1.0  0.20455  0.99207  0.74593  1.0000
  C   C343      1.0  0.15379  0.10829  0.79911  1.0000
  C   C344      1.0  0.14502  0.13998  0.79630  1.0000
  C   C345      1.0  0.13504  0.15145  0.80776  1.0000
  C   C346      1.0  0.14190  0.14478  0.77908  1.0000
  C   C347      1.0  0.12272  0.16667  0.80222  1.0000
  C   C348      1.0  0.12958  0.16005  0.77368  1.0000
  C   C349      1.0  0.12006  0.17101  0.78522  1.0000
  H   H385      1.0  0.15507  0.10852  0.78511  1.0000
  H   H386      1.0  0.13991  0.10740  0.80614  1.0000
  H   H387      1.0  0.16269  0.09575  0.80422  1.0000
  S   S92       1.0  0.33687  0.03511  0.77235  1.0000
  C   C350      1.0  0.32033  0.14555  0.97533  1.0000
  Fe  Fe40      1.0  0.36209  0.01618  0.76425  1.0000
  H   H388      1.0  0.19928  0.08511  0.78615  1.0000
  C   C351      1.0  0.27462  0.02521  0.84696  1.0000
  C   C352      1.0  0.43548  0.07020  0.78243  1.0000
  H   H389      1.0  0.05736  0.03428  0.64763  1.0000
  H   H390      1.0  0.32421  0.11212  0.78330  1.0000
  H   H391      1.0  0.43796  0.03570  0.80101  1.0000
  H   H392      1.0  0.43179  0.04629  0.75567  1.0000
  H   H393      1.0  0.30704  0.11766  0.77111  1.0000
  C   C353      1.0  0.40318  0.04381  0.78184  1.0000
  S   S93       1.0  0.08338  0.23172  0.82702  1.0000
  C   C354      1.0  0.24372  0.04655  0.81923  1.0000
  H   H394      1.0  0.18689  0.11447  0.79477  1.0000
  Fe  Fe41      1.0  0.01146  0.23098  0.73623  1.0000
  C   C355      1.0  0.31159  0.10905  0.78302  1.0000
  H   H395      1.0  0.30186  0.11325  0.79454  1.0000
  N   N22       1.0  0.26562  0.04278  0.83820  1.0000
  H   H396      1.0  0.28776  0.02014  0.83884  1.0000
  H   H397      1.0  0.45033  0.00627  0.74510  1.0000
  C   C356      1.0  0.47858  0.04960  0.82428  1.0000
  Fe  Fe42      1.0  0.19662  0.03254  0.76598  1.0000
  N   N23       1.0  0.42038  0.04667  0.78280  1.0000
  H   H398      1.0  0.43533  0.02502  0.77055  1.0000
  H   H399      1.0  0.39200  0.04926  0.79190  1.0000
  H   H400      1.0  0.40822  0.09597  0.96617  1.0000
  H   H401      1.0  0.33259  0.07152  0.76891  1.0000
  C   C357      1.0  0.43437  0.03934  0.76887  1.0000
  H   H402      1.0  0.39442  0.07724  0.77360  1.0000
  H   H403      1.0  0.07703  0.02739  0.68150  1.0000
  H   H404      1.0  0.33114  0.08175  0.80160  1.0000
  H   H405      1.0  0.34114  0.08926  0.76940  1.0000
  H   H406      1.0  0.28045  0.09883  0.80416  1.0000
  C   C358      1.0  0.42050  0.06545  0.78044  1.0000
  C   C359      1.0  0.40638  0.07948  0.77537  1.0000
  H   H407      1.0  0.44774  0.04075  0.76880  1.0000
  H   H408      1.0  0.29014  0.05103  0.82386  1.0000
  H   H409      1.0  0.30754  0.07217  0.76114  1.0000
  H   H410      1.0  0.39218  0.98944  0.75890  1.0000
  C   C360      1.0  0.31875  0.07934  0.79993  1.0000
  S   S94       1.0  0.38619  0.02737  0.75084  1.0000
  C   C361      1.0  0.17618  0.12564  0.79044  1.0000
  H   H411      1.0  0.17949  0.13793  0.79099  1.0000
  C   C362      1.0  0.29690  0.08677  0.78233  1.0000
  C   C363      1.0  0.28075  0.09232  0.79411  1.0000
  H   H412      1.0  0.32098  0.06501  0.80045  1.0000
  H   H413      1.0  0.41231  0.14484  0.88353  1.0000
  S   S95       1.0  0.34952  0.00161  0.75298  1.0000
  Fe  Fe43      1.0  0.32384  0.01921  0.76340  1.0000
  C   C364      1.0  0.27506  0.03483  0.80872  1.0000
  H   H414      1.0  0.16415  0.13107  0.82261  1.0000
  C   C365      1.0  0.47846  0.03477  0.83809  1.0000
  H   H415      1.0  0.15204  0.21339  0.91850  1.0000
  H   H416      1.0  0.14666  0.11885  0.82927  1.0000
  C   C366      1.0  0.29596  0.07749  0.77024  1.0000
  H   H417      1.0  0.16882  0.14976  0.94870  1.0000
  H   H418      1.0  0.16678  0.14669  0.97169  1.0000
  H   H419      1.0  0.44031  0.11149  0.96053  1.0000
  H   H420      1.0  0.01355  0.13625  0.74225  1.0000
  H   H421      1.0  0.00591  0.13255  0.70032  1.0000
  H   H422      1.0  0.41993  0.13925  0.95927  1.0000
  Fe  Fe44      1.0  0.36431  0.09405  0.97293  1.0000
  H   H423      1.0  0.25057  0.00496  0.81003  1.0000
  H   H424      1.0  0.40714  0.98668  0.84600  1.0000
  C   C367      1.0  0.09219  0.23170  0.78072  1.0000
  H   H425      1.0  0.16893  0.02452  0.65109  1.0000
  H   H426      1.0  0.46545  0.05308  0.96680  1.0000
  H   H427      1.0  0.32768  0.15452  0.97615  1.0000
  C   C368      1.0  0.17751  0.98644  0.69816  1.0000
  H   H428      1.0  0.14884  0.02013  0.66614  1.0000
  H   H429      1.0  0.13246  0.04127  0.64514  1.0000
  H   H430      1.0  0.14487  0.17899  0.94862  1.0000
  C   C369      1.0  0.45863  0.06145  0.97604  1.0000
  S   S96       1.0  0.35287  0.12325  0.96847  1.0000
  C   C370      1.0  0.16166  0.98833  0.69302  1.0000
  H   H431      1.0  0.15655  0.07278  0.65017  1.0000
  H   H432      1.0  0.03772  0.02990  0.64469  1.0000
  C   C371      1.0  0.13366  0.15098  0.95033  1.0000
  C   C372      1.0  0.00030  0.18111  0.70127  1.0000
  H   H433      1.0  0.26563  0.00163  0.77938  1.0000
  S   S97       1.0  0.42848  0.05839  0.96943  1.0000
  H   H434      1.0  0.17095  0.05576  0.66250  1.0000
  H   H435      1.0  0.99968  0.18918  0.79180  1.0000
  C   C373      1.0  0.99830  0.15547  0.80104  1.0000
  N   N24       1.0  0.14175  0.15318  0.96366  1.0000
  Fe  Fe45      1.0  0.13683  0.98518  0.66646  1.0000
  C   C374      1.0  0.32945  0.12912  0.97156  1.0000
  S   S98       1.0  0.49242  0.99430  0.75672  1.0000
  H   H436      1.0  0.19656  0.00189  0.83256  1.0000
  C   C375      1.0  0.31977  0.11775  0.97027  1.0000
  N   N25       1.0  0.00207  0.16551  0.81177  1.0000
  C   C376      1.0  0.14007  0.17222  0.96234  1.0000
  H   H437      1.0  0.32662  0.10560  0.96625  1.0000
  Fe  Fe46      1.0  0.39862  0.06595  0.97401  1.0000
  H   H438      1.0  0.27694  0.99145  0.79742  1.0000
  H   H439      1.0  0.39205  0.11628  0.96697  1.0000
  Fe  Fe47      1.0  0.49122  0.09644  0.83275  1.0000
  H   H440      1.0  0.22012  0.18410  0.97656  1.0000
  H   H441      1.0  0.24360  0.17783  0.97544  1.0000
  Fe  Fe48      1.0  0.34512  0.98504  0.78039  1.0000
  S   S99       1.0  0.99624  0.21488  0.73002  1.0000
  C   C377      1.0  0.99613  0.11663  0.73288  1.0000
  H   H442      1.0  0.41043  0.11135  0.97715  1.0000
  H   H443      1.0  0.32378  0.05100  0.97686  1.0000
  H   H444      1.0  0.05691  0.38701  0.06275  1.0000
  H   H445      1.0  0.02396  0.27900  0.03321  1.0000
  H   H446      1.0  0.01195  0.30484  0.06290  1.0000
  H   H447      1.0  0.99800  0.28460  0.10595  1.0000
  C   C378      1.0  0.11253  0.47953  0.04876  1.0000
  C   C379      1.0  0.02640  0.27482  0.04673  1.0000
  H   H448      1.0  0.06938  0.27807  0.03774  1.0000
  H   H449      1.0  0.07771  0.37283  0.06602  1.0000
  C   C380      1.0  0.03639  0.30162  0.04272  1.0000
  N   N26       1.0  0.05541  0.47283  0.02510  1.0000
  H   H450      1.0  0.01366  0.27896  0.05587  1.0000
  N   N27       1.0  0.04093  0.28213  0.04795  1.0000
  H   H451      1.0  0.05936  0.30530  0.02084  1.0000
  C   C381      1.0  0.03061  0.39904  0.01513  1.0000
  C   C382      1.0  0.12847  0.48035  0.03627  1.0000
  C   C383      1.0  0.06632  0.48327  0.02826  1.0000
  C   C384      1.0  0.09851  0.31683  0.00196  1.0000
  H   H452      1.0  0.10420  0.34124  0.00177  1.0000
  H   H453      1.0  0.01660  0.30692  0.09306  1.0000
  Fe  Fe49      1.0  0.10243  0.26051  0.99362  1.0000
  H   H454      1.0  0.04294  0.36586  0.08639  1.0000
  C   C385      1.0  0.02199  0.40898  0.02792  1.0000
  C   C386      1.0  0.10252  0.32991  0.04298  1.0000
  C   C387      1.0  0.04266  0.32991  0.02435  1.0000
  H   H455      1.0  0.08429  0.32202  0.00421  1.0000
  H   H456      1.0  0.06787  0.44755  0.03882  1.0000
  H   H457      1.0  0.13521  0.46853  0.03142  1.0000
  Fe  Fe50      1.0  0.08886  0.38332  0.98909  1.0000
  H   H458      1.0  0.04458  0.45008  0.04034  1.0000
  H   H459      1.0  0.04533  0.34389  0.08457  1.0000
  C   C388      1.0  0.12822  0.32126  0.99767  1.0000
  C   C389      1.0  0.12394  0.29274  0.99746  1.0000
  S   S100      1.0  0.08271  0.25193  0.98496  1.0000
  C   C390      1.0  0.11178  0.45057  0.01385  1.0000
  H   H460      1.0  0.11643  0.33024  0.03728  1.0000
  H   H461      1.0  0.05676  0.27709  0.02288  1.0000
  H   H462      1.0  0.07281  0.37991  0.04442  1.0000
  C   C391      1.0  0.05884  0.40353  0.01617  1.0000
  H   H463      1.0  0.05803  0.41830  0.03469  1.0000
  H   H464      1.0  0.07308  0.40138  0.01192  1.0000
  H   H465      1.0  0.05123  0.46074  0.05283  1.0000
  C   C392      1.0  0.04313  0.27670  0.06633  1.0000
  H   H466      1.0  0.04780  0.26218  0.07035  1.0000
  C   C393      1.0  0.04427  0.36550  0.05306  1.0000
  H   H467      1.0  0.07391  0.30331  0.05122  1.0000
  C   C394      1.0  0.02722  0.33903  0.03372  1.0000
  C   C395      1.0  0.00239  0.31109  0.09759  1.0000
  H   H468      1.0  0.00444  0.33694  0.05502  1.0000
  N   N28       1.0  0.05941  0.35992  0.06196  1.0000
  Fe  Fe51      1.0  0.11366  0.39940  0.99836  1.0000
  C   C396      1.0  0.05519  0.45500  0.00432  1.0000
  S   S101      1.0  0.10446  0.37413  0.01003  1.0000
  C   C397      1.0  0.11686  0.43636  0.00557  1.0000
  H   H469      1.0  0.10444  0.44898  0.02730  1.0000
  H   H470      1.0  0.06053  0.25927  0.04093  1.0000
  Fe  Fe52      1.0  0.00485  0.23628  0.09969  1.0000
  C   C398      1.0  0.05760  0.27390  0.03689  1.0000
  H   H471      1.0  0.10770  0.46745  0.05307  1.0000
  S   S102      1.0  0.02173  0.42528  0.05330  1.0000
  S   S103      1.0  0.09082  0.28644  0.00167  1.0000
  C   C399      1.0  0.03189  0.41558  0.03529  1.0000
  C   C400      1.0  0.10554  0.29937  0.00033  1.0000
  Fe  Fe53      1.0  0.12675  0.36332  0.98964  1.0000
  H   H472      1.0  0.02965  0.26013  0.05013  1.0000
  H   H473      1.0  0.09643  0.35541  0.04787  1.0000
  H   H474      1.0  0.03046  0.28023  0.07586  1.0000
  C   C401      1.0  0.06662  0.32929  0.05664  1.0000
  C   C402      1.0  0.01634  0.32979  0.04755  1.0000
  C   C403      1.0  0.12589  0.46860  0.98737  1.0000
  C   C404      1.0  0.04723  0.31148  0.02867  1.0000
  H   H475      1.0  0.14954  0.29863  0.99399  1.0000
  H   H476      1.0  0.05304  0.28289  0.06816  1.0000
  H   H477      1.0  0.04910  0.36772  0.03857  1.0000
  C   C405      1.0  0.11603  0.46681  0.00463  1.0000
  C   C406      1.0  0.06243  0.46725  0.00815  1.0000
  C   C407      1.0  0.05027  0.41323  0.02908  1.0000
  H   H478      1.0  0.17299  0.48280  0.99992  1.0000
  H   H479      1.0  0.11186  0.47789  0.01085  1.0000
  S   S104      1.0  0.00825  0.34454  0.08733  1.0000
  S   S105      1.0  0.11123  0.41625  0.01701  1.0000
  H   H480      1.0  0.02796  0.47644  0.02417  1.0000
  C   C408      1.0  0.07233  0.34468  0.05573  1.0000
  H   H481      1.0  0.05286  0.32841  0.06192  1.0000
  H   H482      1.0  0.06354  0.35009  0.08826  1.0000
  C   C409      1.0  0.06216  0.44888  0.98881  1.0000
  C   C410      1.0  0.10981  0.32776  0.00055  1.0000
  C   C411      1.0  0.05254  0.35471  0.08110  1.0000
  H   H483      1.0  0.05117  0.33721  0.01366  1.0000
  H   H484      1.0  0.03512  0.37794  0.05614  1.0000
  H   H485      1.0  0.00768  0.41156  0.03204  1.0000
  H   H486      1.0  0.03583  0.35567  0.05714  1.0000
  H   H487      1.0  0.16466  0.46986  0.02078  1.0000
  C   C412      1.0  0.04911  0.39604  0.00949  1.0000
  S   S106      1.0  0.06027  0.38201  0.99507  1.0000
  C   C413      1.0  0.05479  0.45716  0.03985  1.0000
  H   H488      1.0  0.02300  0.39353  0.00979  1.0000
  C   C414      1.0  0.13529  0.30368  0.99627  1.0000
  S   S107      1.0  0.00862  0.38976  0.09556  1.0000
  H   H489      1.0  0.04419  0.44988  0.01339  1.0000
  C   C415      1.0  0.06713  0.37553  0.05863  1.0000
  C   C416      1.0  0.07855  0.31480  0.05070  1.0000
  H   H490      1.0  0.02375  0.35332  0.03030  1.0000
  C   C417      1.0  0.09075  0.34445  0.04895  1.0000
  C   C418      1.0  0.09644  0.31513  0.04386  1.0000
  Fe  Fe54      1.0  0.00224  0.40958  0.07146  1.0000
  H   H491      1.0  0.10562  0.30403  0.03893  1.0000
  C   C419      1.0  0.02080  0.31138  0.05201  1.0000
  H   H492      1.0  0.12941  0.27922  0.99621  1.0000
  C   C420      1.0  0.07622  0.47394  0.99492  1.0000
  C   C421      1.0  0.12645  0.43829  0.98821  1.0000
  H   H493      1.0  0.08028  0.47580  0.02787  1.0000
  S   S108      1.0  0.14227  0.33538  0.99500  1.0000
  S   S109      1.0  0.09624  0.40950  0.97887  1.0000
  H   H494      1.0  0.13045  0.42733  0.98180  1.0000
  H   H495      1.0  0.05685  0.43898  0.98653  1.0000
  C   C422      1.0  0.03717  0.48381  0.02546  1.0000
  H   H496      1.0  0.15190  0.47761  0.00388  1.0000
  S   S110      1.0  0.13771  0.38788  0.97953  1.0000
  C   C423      1.0  0.13125  0.45431  0.97923  1.0000
  C   C424      1.0  0.16068  0.48119  0.01018  1.0000
  C   C425      1.0  0.08305  0.46780  0.97940  1.0000
  H   H497      1.0  0.08221  0.48371  0.99629  1.0000
  H   H498      1.0  0.06390  0.27250  0.93422  1.0000
  H   H499      1.0  0.05107  0.42386  0.90466  1.0000
  H   H500      1.0  0.02543  0.35802  0.68170  1.0000
  Fe  Fe55      1.0  0.03661  0.33819  0.77684  1.0000
  S   S111      1.0  0.03827  0.32973  0.80502  1.0000
  H   H501      1.0  0.09805  0.30633  0.89048  1.0000
  S   S112      1.0  0.00349  0.47984  0.79713  1.0000
  C   C426      1.0  0.03733  0.42593  0.73857  1.0000
  H   H502      1.0  0.06806  0.32649  0.89371  1.0000
  H   H503      1.0  0.05974  0.30427  0.92916  1.0000
  C   C427      1.0  0.01647  0.28889  0.72917  1.0000
  H   H504      1.0  0.08551  0.44123  0.86848  1.0000
  H   H505      1.0  0.03555  0.39861  0.74762  1.0000
  C   C428      1.0  0.02081  0.27074  0.72995  1.0000
  H   H506      1.0  0.09210  0.33658  0.66255  1.0000
  C   C429      1.0  0.08185  0.44581  0.92222  1.0000
  H   H507      1.0  0.04118  0.24696  0.73282  1.0000
  H   H508      1.0  0.05497  0.35845  0.68398  1.0000
  C   C430      1.0  0.03768  0.26094  0.73230  1.0000
  Fe  Fe56      1.0  0.07889  0.38066  0.84123  1.0000
  S   S113      1.0  0.10729  0.37035  0.82897  1.0000
  S   S114      1.0  0.05886  0.39022  0.82437  1.0000
  Fe  Fe57      1.0  0.08691  0.37605  0.87626  1.0000
  S   S115      1.0  0.11599  0.36522  0.86715  1.0000
  S   S116      1.0  0.07498  0.37915  0.90385  1.0000
  Fe  Fe58      1.0  0.11345  0.38708  0.84335  1.0000
  S   S117      1.0  0.13512  0.40200  0.82978  1.0000
  Fe  Fe59      1.0  0.10702  0.34958  0.85375  1.0000
  S   S118      1.0  0.12067  0.32101  0.85471  1.0000
  S   S119      1.0  0.08501  0.39919  0.85356  1.0000
  S   S120      1.0  0.07798  0.35854  0.86500  1.0000
  H   H509      1.0  0.03263  0.45567  0.89794  1.0000
  H   H510      1.0  0.06126  0.47993  0.88533  1.0000
  S   S121      1.0  0.02410  0.36511  0.76310  1.0000
  C   C431      1.0  0.05627  0.26459  0.89239  1.0000
  H   H511      1.0  0.13150  0.46421  0.90175  1.0000
  Fe  Fe60      1.0  0.11912  0.39574  0.96109  1.0000
  S   S122      1.0  0.12462  0.40756  0.93220  1.0000
  H   H512      1.0  0.17216  0.39070  0.89826  1.0000
  Fe  Fe61      1.0  0.01296  0.35014  0.75097  1.0000
  H   H513      1.0  0.01304  0.36596  0.80307  1.0000
  C   C432      1.0  0.06255  0.27942  0.89111  1.0000
  H   H514      1.0  0.13896  0.45567  0.96589  1.0000
  S   S123      1.0  0.07657  0.27344  0.84284  1.0000
  Fe  Fe62      1.0  0.08611  0.24394  0.84731  1.0000
  H   H515      1.0  0.02196  0.39611  0.79692  1.0000
  C   C433      1.0  0.06680  0.26333  0.77761  1.0000
  H   H516      1.0  0.07272  0.41855  0.89054  1.0000
  C   C434      1.0  0.05962  0.31393  0.69107  1.0000
  H   H517      1.0  0.06813  0.30112  0.69439  1.0000
  H   H518      1.0  0.00094  0.24681  0.78757  1.0000
  H   H519      1.0  0.14317  0.43530  0.85332  1.0000
  C   C435      1.0  0.03038  0.32985  0.68617  1.0000
  C   C436      1.0  0.06157  0.27116  0.92227  1.0000
  H   H520      1.0  0.13485  0.29385  0.89240  1.0000
  C   C437      1.0  0.10933  0.30816  0.84944  1.0000
  C   C438      1.0  0.11642  0.29002  0.85087  1.0000
  C   C439      1.0  0.10663  0.27918  0.84861  1.0000
  C   C440      1.0  0.08988  0.28653  0.84462  1.0000
  C   C441      1.0  0.08312  0.30473  0.84258  1.0000
  C   C442      1.0  0.09275  0.31554  0.84507  1.0000
  H   H521      1.0  0.12923  0.28426  0.85430  1.0000
  H   H522      1.0  0.07024  0.31044  0.83934  1.0000
  H   H523      1.0  0.08725  0.32952  0.84378  1.0000
  C   C443      1.0  0.08832  0.38808  0.91121  1.0000
  C   C444      1.0  0.08355  0.39024  0.92846  1.0000
  C   C445      1.0  0.09449  0.39673  0.93471  1.0000
  C   C446      1.0  0.11025  0.40100  0.92376  1.0000
  C   C447      1.0  0.11462  0.39955  0.90628  1.0000
  C   C448      1.0  0.10364  0.39313  0.89999  1.0000
  H   H524      1.0  0.07150  0.38674  0.93709  1.0000
  H   H525      1.0  0.09060  0.39852  0.94802  1.0000
  H   H526      1.0  0.12673  0.40287  0.89771  1.0000
  H   H527      1.0  0.10715  0.39199  0.88650  1.0000
  H   H528      1.0  0.06570  0.28758  0.87817  1.0000
  C   C449      1.0  0.06350  0.31461  0.89399  1.0000
  C   C450      1.0  0.02879  0.29714  0.73117  1.0000
  H   H529      1.0  0.10818  0.31350  0.69430  1.0000
  S   S124      1.0  0.06109  0.29751  0.73616  1.0000
  C   C451      1.0  0.06817  0.28523  0.80057  1.0000
  H   H530      1.0  0.07289  0.44014  0.75435  1.0000
  C   C452      1.0  0.09557  0.38413  0.78520  1.0000
  C   C453      1.0  0.04567  0.28735  0.73345  1.0000
  H   H531      1.0  0.09890  0.28719  0.76217  1.0000
  H   H532      1.0  0.06837  0.43426  0.78496  1.0000
  C   C454      1.0  0.12761  0.46189  0.81896  1.0000
  C   C455      1.0  0.11444  0.45389  0.83129  1.0000
  C   C456      1.0  0.11624  0.43547  0.83457  1.0000
  C   C457      1.0  0.13139  0.42511  0.82580  1.0000
  C   C458      1.0  0.14454  0.43320  0.81378  1.0000
  C   C459      1.0  0.14255  0.45147  0.81021  1.0000
  H   H533      1.0  0.10276  0.46188  0.83793  1.0000
  H   H534      1.0  0.10607  0.42923  0.84386  1.0000
  H   H535      1.0  0.15630  0.42528  0.80703  1.0000
  H   H536      1.0  0.15276  0.45753  0.80068  1.0000
  C   C460      1.0  0.10077  0.24201  0.90727  1.0000
  C   C461      1.0  0.03512  0.34572  0.68402  1.0000
  S   S125      1.0  0.04113  0.46049  0.72671  1.0000
  N   N29       1.0  0.07338  0.29830  0.90398  1.0000
  H   H537      1.0  0.11007  0.46102  0.88763  1.0000
  H   H538      1.0  0.09317  0.29070  0.88185  1.0000
  H   H539      1.0  0.10532  0.34121  0.67466  1.0000
  H   H540      1.0  0.15782  0.46131  0.86628  1.0000
  C   C462      1.0  0.08163  0.46361  0.91948  1.0000
  C   C463      1.0  0.01890  0.28507  0.81827  1.0000
  C   C464      1.0  0.05461  0.37259  0.81900  1.0000
  C   C465      1.0  0.05145  0.35754  0.83182  1.0000
  C   C466      1.0  0.04676  0.34411  0.82748  1.0000
  C   C467      1.0  0.04584  0.34549  0.81023  1.0000
  C   C468      1.0  0.04967  0.36023  0.79733  1.0000
  C   C469      1.0  0.05364  0.37392  0.80180  1.0000
  H   H541      1.0  0.05197  0.35656  0.84519  1.0000
  H   H542      1.0  0.04351  0.33283  0.83754  1.0000
  H   H543      1.0  0.04920  0.36132  0.78395  1.0000
  H   H544      1.0  0.05598  0.38553  0.79188  1.0000
  C   C470      1.0  0.06492  0.32990  0.68892  1.0000
  H   H545      1.0  0.07536  0.42606  0.91436  1.0000
  H   H546      1.0  0.08793  0.43635  0.93246  1.0000
  C   C471      1.0  0.08823  0.39595  0.77120  1.0000
  H   H547      1.0  0.06293  0.42239  0.75646  1.0000
  H   H548      1.0  0.09853  0.26391  0.80857  1.0000
  H   H549      1.0  0.01315  0.29083  0.76593  1.0000
  H   H550      1.0  0.08180  0.45014  0.96459  1.0000
  H   H551      1.0  0.03877  0.30165  0.69164  1.0000
  C   C472      1.0  0.05690  0.40218  0.72492  1.0000
  C   C473      1.0  0.06595  0.41436  0.71256  1.0000
  H   H552      1.0  0.09671  0.34473  0.77731  1.0000
  C   C474      1.0  0.09207  0.29460  0.89417  1.0000
  H   H553      1.0  0.05332  0.42338  0.88226  1.0000
  H   H554      1.0  0.11192  0.26514  0.85025  1.0000
  H   H555      1.0  0.08447  0.42363  0.74206  1.0000
  H   H556      1.0  0.07273  0.35193  0.70406  1.0000
  C   C475      1.0  0.08082  0.33820  0.70557  1.0000
  H   H557      1.0  0.07917  0.39617  0.74799  1.0000
  H   H558      1.0  0.02524  0.31113  0.73078  1.0000
  H   H559      1.0  0.05627  0.29081  0.79472  1.0000
  C   C476      1.0  0.10135  0.42071  0.76716  1.0000
  H   H560      1.0  0.11260  0.27063  0.78739  1.0000
  C   C477      1.0  0.07589  0.42572  0.75497  1.0000
  H   H561      1.0  0.06332  0.26172  0.73532  1.0000
  H   H562      1.0  0.01776  0.29616  0.82384  1.0000
  H   H563      1.0  0.09907  0.43521  0.76569  1.0000
  C   C478      1.0  0.08206  0.26253  0.78366  1.0000
  H   H564      1.0  0.02420  0.24503  0.79867  1.0000
  H   H565      1.0  0.06498  0.27474  0.81230  1.0000
  H   H566      1.0  0.07857  0.41438  0.79763  1.0000
  N   N30       1.0  0.10726  0.32846  0.94523  1.0000
  C   C479      1.0  0.10033  0.34769  0.93954  1.0000
  C   C480      1.0  0.09252  0.32118  0.95819  1.0000
  C   C481      1.0  0.12193  0.32601  0.95402  1.0000
  C   C482      1.0  0.11410  0.31921  0.93056  1.0000
  C   C483      1.0  0.05020  0.26930  0.73374  1.0000
  H   H567      1.0  0.17408  0.38409  0.86977  1.0000
  H   H568      1.0  0.08988  0.35043  0.93196  1.0000
  H   H569      1.0  0.05679  0.27540  0.77575  1.0000
  H   H570      1.0  0.11108  0.35464  0.93145  1.0000
  H   H571      1.0  0.08176  0.32161  0.95182  1.0000
  H   H572      1.0  0.09695  0.30607  0.68247  1.0000
  H   H573      1.0  0.09696  0.30737  0.96511  1.0000
  H   H574      1.0  0.13350  0.33086  0.94466  1.0000
  H   H575      1.0  0.08752  0.46806  0.92749  1.0000
  H   H576      1.0  0.12679  0.31193  0.96001  1.0000
  S   S126      1.0  0.03572  0.34798  0.72792  1.0000
  H   H577      1.0  0.11747  0.29267  0.94718  1.0000
  C   C484      1.0  0.09467  0.35886  0.77542  1.0000
  C   C485      1.0  0.11727  0.32831  0.91270  1.0000
  Fe  Fe63      1.0  0.03224  0.46850  0.78706  1.0000
  H   H578      1.0  0.07709  0.40998  0.70252  1.0000
  C   C486      1.0  0.06545  0.28319  0.90599  1.0000
  H   H579      1.0  0.12727  0.32631  0.88567  1.0000
  C   C487      1.0  0.08779  0.37007  0.76132  1.0000
  C   C488      1.0  0.04650  0.43806  0.72612  1.0000
  H   H580      1.0  0.09390  0.33877  0.70734  1.0000
  C   C489      1.0  0.09495  0.24633  0.78466  1.0000
  H   H581      1.0  0.03578  0.45172  0.87646  1.0000
  Fe  Fe64      1.0  0.04795  0.36088  0.74119  1.0000
  H   H582      1.0  0.14016  0.46253  0.85609  1.0000
  H   H583      1.0  0.10047  0.28355  0.90194  1.0000
  H   H584      1.0  0.11430  0.34252  0.90875  1.0000
  S   S127      1.0  0.06472  0.37981  0.72404  1.0000
  H   H585      1.0  0.07953  0.46856  0.81597  1.0000
  C   C490      1.0  0.09969  0.27450  0.79645  1.0000
  Fe  Fe65      1.0  0.02633  0.46733  0.75245  1.0000
  C   C491      1.0  0.11890  0.30052  0.93395  1.0000
  H   H586      1.0  0.99752  0.41775  0.74900  1.0000
  C   C492      1.0  0.08464  0.38834  0.75913  1.0000
  H   H587      1.0  0.12944  0.27720  0.92328  1.0000
  H   H588      1.0  0.02627  0.43041  0.74861  1.0000
  H   H589      1.0  0.99944  0.29919  0.80334  1.0000
  C   C493      1.0  0.10472  0.23713  0.92390  1.0000
  C   C494      1.0  0.07343  0.30187  0.92091  1.0000
  C   C495      1.0  0.12607  0.29150  0.92033  1.0000
  C   C496      1.0  0.08703  0.29201  0.77197  1.0000
  H   H590      1.0  0.09668  0.25571  0.90130  1.0000
  H   H591      1.0  0.06698  0.44512  0.85849  1.0000
  C   C497      1.0  0.07618  0.45516  0.97644  1.0000
  H   H592      1.0  0.04896  0.31679  0.89981  1.0000
  H   H593      1.0  0.07422  0.33034  0.71797  1.0000
  N   N31       1.0  0.08432  0.27819  0.78814  1.0000
  C   C498      1.0  0.12913  0.30081  0.90299  1.0000
  H   H594      1.0  0.04838  0.24121  0.90932  1.0000
  H   H595      1.0  0.07900  0.31362  0.91887  1.0000
  H   H596      1.0  0.10378  0.35714  0.79840  1.0000
  H   H597      1.0  0.05455  0.26190  0.88070  1.0000
  S   S128      1.0  0.02709  0.44733  0.77760  1.0000
  S   S129      1.0  0.02317  0.32357  0.76679  1.0000
  H   H598      1.0  0.08461  0.36461  0.75213  1.0000
  S   S130      1.0  0.05513  0.46294  0.79989  1.0000
  Fe  Fe66      1.0  0.04712  0.32277  0.74481  1.0000
  H   H599      1.0  0.11768  0.33333  0.96470  1.0000
  H   H600      1.0  0.05310  0.24695  0.93582  1.0000
  C   C499      1.0  0.12474  0.31914  0.89921  1.0000
  H   H601      1.0  0.06777  0.44154  0.70342  1.0000
  C   C500      1.0  0.05152  0.47374  0.81679  1.0000
  C   C501      1.0  0.06068  0.43223  0.71307  1.0000
  H   H602      1.0  0.07545  0.29612  0.76565  1.0000
  H   H603      1.0  0.06991  0.29613  0.80538  1.0000
  H   H604      1.0  0.10043  0.28624  0.80059  1.0000
  H   H605      1.0  0.11102  0.41705  0.75527  1.0000
  H   H606      1.0  0.09855  0.38896  0.79492  1.0000
  C   C502      1.0  0.04252  0.40796  0.73795  1.0000
  C   C503      1.0  0.09866  0.36588  0.78729  1.0000
  N   N32       1.0  0.08449  0.41521  0.76973  1.0000
  H   H607      1.0  0.10785  0.41447  0.77849  1.0000
  C   C504      1.0  0.07240  0.41981  0.78604  1.0000
  C   C505      1.0  0.00302  0.37120  0.81397  1.0000
  H   H608      1.0  0.06001  0.41485  0.78922  1.0000
  H   H609      1.0  0.08882  0.30403  0.77474  1.0000
  C   C506      1.0  0.01007  0.39953  0.80731  1.0000
  H   H610      1.0  0.08204  0.29075  0.92843  1.0000
  H   H611      1.0  0.04119  0.47064  0.87854  1.0000
  N   N33       1.0  0.08273  0.33038  0.69053  1.0000
  S   S131      1.0  0.06156  0.33534  0.75608  1.0000
  H   H612      1.0  0.11624  0.44739  0.87197  1.0000
  H   H613      1.0  0.15962  0.40659  0.84753  1.0000
  N   N34       1.0  0.13764  0.44769  0.88308  1.0000
  C   C507      1.0  0.11867  0.44843  0.88441  1.0000
  C   C508      1.0  0.13913  0.45089  0.89968  1.0000
  C   C509      1.0  0.14326  0.46229  0.86865  1.0000
  C   C510      1.0  0.14835  0.43046  0.87943  1.0000
  C   C511      1.0  0.15690  0.41720  0.89192  1.0000
  C   C512      1.0  0.14964  0.42612  0.86332  1.0000
  C   C513      1.0  0.16611  0.40072  0.88837  1.0000
  H   H614      1.0  0.08650  0.32867  0.96880  1.0000
  C   C514      1.0  0.16714  0.39695  0.87240  1.0000
  H   H615      1.0  0.11410  0.43745  0.89491  1.0000
  H   H616      1.0  0.04141  0.24268  0.81971  1.0000
  H   H617      1.0  0.00346  0.29655  0.72728  1.0000
  H   H618      1.0  0.15320  0.45006  0.89974  1.0000
  C   C515      1.0  0.09484  0.31271  0.69338  1.0000
  S   S132      1.0  0.10235  0.25358  0.93514  1.0000
  C   C516      1.0  0.00288  0.25930  0.77800  1.0000
  H   H619      1.0  0.13633  0.47543  0.87168  1.0000
  H   H620      1.0  0.00524  0.41409  0.80461  1.0000
  C   C517      1.0  0.02221  0.25658  0.80371  1.0000
  H   H621      1.0  0.08439  0.35544  0.67236  1.0000
  C   C518      1.0  0.99912  0.29052  0.77273  1.0000
  Fe  Fe67      1.0  0.10522  0.24413  0.96320  1.0000
  C   C519      1.0  0.99695  0.40626  0.77638  1.0000
  N   N35       1.0  0.05991  0.44615  0.88587  1.0000
  C   C520      1.0  0.04162  0.45649  0.88471  1.0000
  C   C521      1.0  0.07170  0.44901  0.86822  1.0000
  C   C522      1.0  0.05920  0.42722  0.89117  1.0000
  C   C523      1.0  0.06678  0.45197  0.89795  1.0000
  S   S133      1.0  0.99708  0.47905  0.75910  1.0000
  C   C524      1.0  0.06670  0.47004  0.89562  1.0000
  H   H622      1.0  0.06552  0.31431  0.87998  1.0000
  C   C525      1.0  0.07458  0.44001  0.91164  1.0000
  C   C526      1.0  0.15897  0.40964  0.85988  1.0000
  C   C527      1.0  0.05212  0.34581  0.68530  1.0000
  H   H623      1.0  0.15622  0.41898  0.90477  1.0000
  C   C528      1.0  0.04263  0.31402  0.68959  1.0000
  H   H624      1.0  0.00568  0.41424  0.77644  1.0000
  C   C529      1.0  0.00864  0.28673  0.80630  1.0000
  H   H625      1.0  0.13357  0.44138  0.91134  1.0000
  H   H626      1.0  0.09399  0.47267  0.96977  1.0000
  C   C530      1.0  0.06631  0.47510  0.82174  1.0000
  H   H627      1.0  0.07245  0.46303  0.86313  1.0000
  H   H628      1.0  0.02294  0.48051  0.82112  1.0000
  H   H629      1.0  0.05242  0.24950  0.76918  1.0000
  H   H630      1.0  0.09416  0.35416  0.95087  1.0000
  S   S134      1.0  0.11023  0.37021  0.96967  1.0000
  C   C531      1.0  0.05536  0.25628  0.92339  1.0000
  H   H631      1.0  0.03806  0.26772  0.83290  1.0000
  H   H632      1.0  0.08954  0.30405  0.70593  1.0000
  H   H633      1.0  0.01688  0.25747  0.77032  1.0000
  C   C532      1.0  0.09149  0.34136  0.67432  1.0000
  S   S135      1.0  0.00482  0.26058  0.72832  1.0000
  H   H634      1.0  0.01709  0.32979  0.68549  1.0000
  Fe  Fe68      1.0  0.99841  0.46050  0.78510  1.0000
  H   H635      1.0  0.01473  0.39587  0.81979  1.0000
  C   C533      1.0  0.03045  0.26914  0.82327  1.0000
  C   C534      1.0  0.07404  0.47571  0.90622  1.0000
  H   H636      1.0  0.10710  0.24438  0.78892  1.0000
  H   H637      1.0  0.00957  0.36801  0.82521  1.0000
  C   C535      1.0  0.06422  0.24863  0.77365  1.0000
  N   N36       1.0  0.99822  0.27433  0.78675  1.0000
  C   C536      1.0  0.05277  0.25297  0.90848  1.0000
  S   S136      1.0  0.12420  0.25505  0.97047  1.0000
  C   C537      1.0  0.00995  0.27253  0.79865  1.0000
  C   C538      1.0  0.03443  0.48181  0.82465  1.0000
  C   C539      1.0  0.03226  0.25502  0.81585  1.0000
  H   H638      1.0  0.08626  0.48363  0.78353  1.0000
  N   N37       1.0  0.99597  0.39041  0.80835  1.0000
  S   S137      1.0  0.12590  0.48486  0.81353  1.0000
  S   S138      1.0  0.15006  0.65504  0.98808  1.0000
  C   C540      1.0  0.14812  0.51193  0.00162  1.0000
  C   C541      1.0  0.07174  0.70657  0.21390  1.0000
  H   H639      1.0  0.04958  0.67478  0.25372  1.0000
  C   C542      1.0  0.17430  0.68382  0.03314  1.0000
  C   C543      1.0  0.06503  0.69361  0.21061  1.0000
  C   C544      1.0  0.05594  0.68353  0.24254  1.0000
  H   H640      1.0  0.06945  0.52412  0.03493  1.0000
  H   H641      1.0  0.01437  0.53036  0.03539  1.0000
  H   H642      1.0  0.04765  0.67749  0.08853  1.0000
  C   C545      1.0  0.08252  0.69851  0.04695  1.0000
  H   H643      1.0  0.07796  0.56280  0.03211  1.0000
  H   H644      1.0  0.04805  0.60526  0.07060  1.0000
  H   H645      1.0  0.03239  0.69108  0.06362  1.0000
  N   N38       1.0  0.02997  0.57780  0.07739  1.0000
  H   H646      1.0  0.02192  0.55807  0.10018  1.0000
  Fe  Fe69      1.0  0.07506  0.53201  0.99616  1.0000
  H   H647      1.0  0.13385  0.67283  0.04546  1.0000
  S   S139      1.0  0.99814  0.65151  0.13421  1.0000
  H   H648      1.0  0.02160  0.56515  0.13253  1.0000
  S   S140      1.0  0.02608  0.72349  0.22452  1.0000
  C   C546      1.0  0.08461  0.69082  0.18233  1.0000
  C   C547      1.0  0.05902  0.68356  0.08056  1.0000
  H   H649      1.0  0.05119  0.63089  0.02396  1.0000
  C   C548      1.0  0.06239  0.69662  0.24525  1.0000
  C   C549      1.0  0.02097  0.52390  0.06063  1.0000
  C   C550      1.0  0.00471  0.59088  0.13351  1.0000
  H   H650      1.0  0.26315  0.72824  0.04472  1.0000
  C   C551      1.0  0.10279  0.49416  0.05566  1.0000
  H   H651      1.0  0.05318  0.68696  0.04880  1.0000
  H   H652      1.0  0.08216  0.68568  0.04580  1.0000
  C   C552      1.0  0.07043  0.72465  0.05896  1.0000
  H   H653      1.0  0.10990  0.72730  0.02972  1.0000
  H   H654      1.0  0.06063  0.73273  0.06725  1.0000
  C   C553      1.0  0.18391  0.67197  0.02197  1.0000
  Fe  Fe70      1.0  0.00976  0.72326  0.20628  1.0000
  H   H655      1.0  0.00622  0.67007  0.18669  1.0000
  H   H656      1.0  0.09325  0.67899  0.18899  1.0000
  Fe  Fe71      1.0  0.01871  0.66651  0.11683  1.0000
  S   S141      1.0  0.00477  0.67682  0.09442  1.0000
  S   S142      1.0  0.02977  0.68629  0.12315  1.0000
  S   S143      1.0  0.00026  0.63680  0.09938  1.0000
  Fe  Fe72      1.0  0.02075  0.65255  0.08483  1.0000
  S   S144      1.0  0.03095  0.65269  0.05605  1.0000
  H   H657      1.0  0.05564  0.70980  0.17000  1.0000
  C   C554      1.0  0.05566  0.56919  0.05314  1.0000
  H   H658      1.0  0.43346  0.72587  0.03202  1.0000
  H   H659      1.0  0.04463  0.71440  0.08941  1.0000
  H   H660      1.0  0.06634  0.49595  0.01848  1.0000
  H   H661      1.0  0.13317  0.61661  0.99532  1.0000
  H   H662      1.0  0.04458  0.67949  0.19776  1.0000
  H   H663      1.0  0.00872  0.58940  0.09666  1.0000
  H   H664      1.0  0.18006  0.69342  0.03526  1.0000
  H   H665      1.0  0.06652  0.66525  0.19686  1.0000
  C   C555      1.0  0.01141  0.67991  0.17592  1.0000
  C   C556      1.0  0.12624  0.57709  0.99488  1.0000
  C   C557      1.0  0.13330  0.60558  0.99023  1.0000
  S   S145      1.0  0.11085  0.65397  0.98351  1.0000
  Fe  Fe73      1.0  0.12129  0.66386  0.00080  1.0000
  C   C558      1.0  0.14773  0.67256  0.03911  1.0000
  S   S146      1.0  0.11187  0.65680  0.03006  1.0000
  H   H666      1.0  0.21184  0.64973  0.03313  1.0000
  C   C559      1.0  0.17458  0.66041  0.01989  1.0000
  C   C560      1.0  0.15681  0.66070  0.02842  1.0000
  S   S147      1.0  0.04696  0.53085  0.01010  1.0000
  C   C561      1.0  0.09720  0.70544  0.03682  1.0000
  H   H667      1.0  0.00740  0.52413  0.06762  1.0000
  Fe  Fe74      1.0  0.10678  0.54589  0.99421  1.0000
  H   H668      1.0  0.02776  0.70586  0.08660  1.0000
  C   C562      1.0  0.16548  0.71794  0.00168  1.0000
  H   H669      1.0  0.03654  0.59147  0.00840  1.0000
  C   C563      1.0  0.17957  0.72672  0.99537  1.0000
  H   H670      1.0  0.09022  0.70240  0.18078  1.0000
  H   H671      1.0  0.03144  0.48851  0.03791  1.0000
  H   H672      1.0  0.15809  0.71732  0.01506  1.0000
  S   S148      1.0  0.27577  0.73162  0.99709  1.0000
  C   C564      1.0  0.05716  0.68199  0.22551  1.0000
  C   C565      1.0  0.06858  0.70793  0.05822  1.0000
  C   C566      1.0  0.05381  0.65225  0.04853  1.0000
  C   C567      1.0  0.06044  0.65940  0.03090  1.0000
  C   C568      1.0  0.07839  0.66044  0.02501  1.0000
  C   C569      1.0  0.08983  0.65407  0.03667  1.0000
  C   C570      1.0  0.08330  0.64647  0.05417  1.0000
  C   C571      1.0  0.06534  0.64555  0.06008  1.0000
  H   H673      1.0  0.05156  0.66475  0.02192  1.0000
  H   H674      1.0  0.08318  0.66675  0.01159  1.0000
  H   H675      1.0  0.09211  0.64150  0.06323  1.0000
  H   H676      1.0  0.06047  0.63964  0.07358  1.0000
  C   C572      1.0  0.01353  0.69522  0.17920  1.0000
  C   C573      1.0  0.02030  0.70783  0.16519  1.0000
  C   C574      1.0  0.02523  0.70496  0.14806  1.0000
  C   C575      1.0  0.02303  0.68968  0.14476  1.0000
  C   C576      1.0  0.01600  0.67720  0.15874  1.0000
  H   H677      1.0  0.15083  0.70216  0.99612  1.0000
  H   H678      1.0  0.02175  0.71979  0.16750  1.0000
  H   H679      1.0  0.03056  0.71472  0.13729  1.0000
  H   H680      1.0  0.18089  0.65110  0.01154  1.0000
  H   H681      1.0  0.14258  0.52503  0.00508  1.0000
  H   H682      1.0  0.14993  0.65176  0.02661  1.0000
  N   N39       1.0  0.15182  0.49751  0.01689  1.0000
  S   S149      1.0  0.02962  0.51441  0.09270  1.0000
  H   H683      1.0  0.06560  0.68571  0.08993  1.0000
  Fe  Fe75      1.0  0.01482  0.62942  0.12104  1.0000
  H   H684      1.0  0.03305  0.60890  0.03028  1.0000
  C   C577      1.0  0.05596  0.52397  0.04202  1.0000
  N   N40       1.0  0.05303  0.70033  0.06847  1.0000
  H   H685      1.0  0.06095  0.69810  0.25845  1.0000
  H   H686      1.0  0.99724  0.55190  0.13224  1.0000
  C   C578      1.0  0.01689  0.57637  0.06834  1.0000
  H   H687      1.0  0.22484  0.68330  0.00948  1.0000
  H   H688      1.0  0.05993  0.72144  0.18360  1.0000
  H   H689      1.0  0.17758  0.50207  0.01515  1.0000
  H   H690      1.0  0.12085  0.59142  0.01515  1.0000
  H   H691      1.0  0.05147  0.67185  0.22440  1.0000
  H   H692      1.0  0.05093  0.55768  0.05393  1.0000
  H   H693      1.0  0.21033  0.68184  0.03072  1.0000
  H   H694      1.0  0.03980  0.54951  0.08407  1.0000
  C   C579      1.0  0.05289  0.62325  0.01435  1.0000
  C   C580      1.0  0.00822  0.57308  0.13299  1.0000
  N   N41       1.0  0.06589  0.69296  0.19236  1.0000
  S   S150      1.0  0.11820  0.69165  0.98491  1.0000
  H   H695      1.0  0.10752  0.69795  0.02816  1.0000
  C   C581      1.0  0.02128  0.59198  0.08731  1.0000
  C   C582      1.0  0.07806  0.58642  0.03910  1.0000
  H   H696      1.0  0.01459  0.58799  0.05745  1.0000
  H   H697      1.0  0.01778  0.60501  0.07843  1.0000
  H   H698      1.0  0.06098  0.48688  0.04127  1.0000
  C   C583      1.0  0.05888  0.67831  0.19109  1.0000
  C   C584      1.0  0.05393  0.59561  0.06256  1.0000
  C   C585      1.0  0.21068  0.68407  0.01653  1.0000
  S   S151      1.0  0.03655  0.64354  0.10567  1.0000
  H   H699      1.0  0.03990  0.70891  0.04684  1.0000
  H   H700      1.0  0.01440  0.66531  0.15638  1.0000
  C   C586      1.0  0.05203  0.52002  0.06042  1.0000
  N   N42       1.0  0.20283  0.67120  0.01293  1.0000
  S   S152      1.0  0.02214  0.60052  0.13225  1.0000
  C   C587      1.0  0.08522  0.73147  0.04878  1.0000
  C   C588      1.0  0.16122  0.70953  0.99091  1.0000
  H   H701      1.0  0.05779  0.59596  0.98046  1.0000
  H   H702      1.0  0.07497  0.60944  0.04882  1.0000
  H   H703      1.0  0.14928  0.69346  0.04966  1.0000
  Fe  Fe76      1.0  0.11216  0.51270  0.98153  1.0000
  H   H704      1.0  0.07489  0.71859  0.23304  1.0000
  C   C589      1.0  0.04258  0.61089  0.01793  1.0000
  H   H705      1.0  0.02111  0.56430  0.06290  1.0000
  H   H706      1.0  0.07306  0.63548  0.99672  1.0000
  H   H707      1.0  0.04109  0.71151  0.19085  1.0000
  H   H708      1.0  0.12894  0.52312  0.03364  1.0000
  H   H709      1.0  0.22802  0.65246  0.01275  1.0000
  C   C590      1.0  0.07116  0.57196  0.04064  1.0000
  C   C591      1.0  0.03931  0.71197  0.07923  1.0000
  H   H710      1.0  0.06248  0.51715  0.06745  1.0000
  C   C592      1.0  0.05528  0.70965  0.18381  1.0000
  C   C593      1.0  0.06950  0.59819  0.05005  1.0000
  S   S153      1.0  0.00836  0.69777  0.20103  1.0000
  H   H711      1.0  0.13841  0.50940  0.99572  1.0000
  C   C594      1.0  0.07031  0.70809  0.23095  1.0000
  H   H712      1.0  0.09010  0.58846  0.02940  1.0000
  H   H713      1.0  0.29046  0.73074  0.05145  1.0000
  H   H714      1.0  0.04376  0.56158  0.09754  1.0000
  C   C595      1.0  0.16455  0.50158  0.02456  1.0000
  C   C596      1.0  0.06812  0.61569  0.98585  1.0000
  H   H715      1.0  0.08585  0.68930  0.16883  1.0000
  C   C597      1.0  0.04648  0.58098  0.06443  1.0000
  H   H716      1.0  0.10093  0.62257  0.97964  1.0000
  S   S154      1.0  0.09930  0.51993  0.00751  1.0000
  H   H717      1.0  0.03388  0.72477  0.07100  1.0000
  C   C598      1.0  0.03453  0.51978  0.06974  1.0000
  H   H718      1.0  0.10129  0.52113  0.05541  1.0000
  C   C599      1.0  0.04426  0.69670  0.05642  1.0000
  H   H719      1.0  0.21863  0.67440  0.98643  1.0000
  C   C600      1.0  0.12632  0.59132  0.00144  1.0000
  C   C601      1.0  0.03407  0.56106  0.09030  1.0000
  H   H720      1.0  0.03714  0.49571  0.01451  1.0000
  C   C602      1.0  0.02493  0.52753  0.04231  1.0000
  C   C603      1.0  0.04243  0.52741  0.03297  1.0000
  C   C604      1.0  0.20458  0.67488  0.99371  1.0000
  S   S155      1.0  0.11645  0.55985  0.00878  1.0000
  H   H721      1.0  0.02989  0.59301  0.09548  1.0000
  H   H722      1.0  0.07754  0.71614  0.20330  1.0000
  C   C605      1.0  0.15645  0.68408  0.04149  1.0000
  Fe  Fe77      1.0  0.99998  0.51878  0.10237  1.0000
  H   H723      1.0  0.05946  0.67833  0.17724  1.0000
  H   H724      1.0  0.00382  0.57550  0.07744  1.0000
  H   H725      1.0  0.06853  0.67358  0.07356  1.0000
  C   C606      1.0  0.21357  0.65334  0.01861  1.0000
  H   H726      1.0  0.31173  0.72448  0.00135  1.0000
  H   H727      1.0  0.16706  0.49144  0.03657  1.0000
  C   C607      1.0  0.09854  0.72192  0.03770  1.0000
  C   C608      1.0  0.06550  0.62570  0.99858  1.0000
  S   S156      1.0  0.08159  0.55852  0.98467  1.0000
  H   H728      1.0  0.09044  0.49344  0.06532  1.0000
  H   H729      1.0  0.19681  0.68823  0.98902  1.0000
  C   C609      1.0  0.12487  0.51068  0.03765  1.0000
  C   C610      1.0  0.10896  0.50970  0.05013  1.0000
  H   H730      1.0  0.20977  0.64305  0.01467  1.0000
  C   C611      1.0  0.05697  0.60361  0.98972  1.0000
  H   H731      1.0  0.15959  0.51460  0.02826  1.0000
  C   C612      1.0  0.13508  0.49607  0.03021  1.0000
  H   H732      1.0  0.16031  0.51316  0.99111  1.0000
  H   H733      1.0  0.19965  0.66550  0.98956  1.0000
  H   H734      1.0  0.20357  0.69786  0.01202  1.0000
  C   C613      1.0  0.04458  0.60110  0.00563  1.0000
  H   H735      1.0  0.46509  0.72386  0.01695  1.0000
  S   S157      1.0  0.18651  0.73447  0.01005  1.0000
  H   H736      1.0  0.46588  0.72861  0.97739  1.0000
  C   C614      1.0  0.18869  0.72800  0.97786  1.0000
  H   H737      1.0  0.09684  0.59197  0.97776  1.0000
  H   H738      1.0  0.01911  0.71316  0.41171  1.0000
  C   C615      1.0  0.07485  0.72313  0.40748  1.0000
  H   H739      1.0  0.08537  0.71339  0.40169  1.0000
  C   C616      1.0  0.06376  0.70982  0.57439  1.0000
  C   C617      1.0  0.04636  0.71584  0.58317  1.0000
  C   C618      1.0  0.09053  0.72883  0.34938  1.0000
  H   H740      1.0  0.02065  0.66955  0.63421  1.0000
  S   S158      1.0  0.04012  0.70830  0.60594  1.0000
  S   S159      1.0  0.04586  0.72945  0.49097  1.0000
  H   H741      1.0  0.07307  0.70015  0.58154  1.0000
  C   C619      1.0  0.05852  0.72849  0.40245  1.0000
  H   H742      1.0  0.08064  0.70617  0.35101  1.0000
  C   C620      1.0  0.01319  0.72046  0.43647  1.0000
  H   H743      1.0  0.08300  0.71245  0.54988  1.0000
  C   C621      1.0  0.03436  0.72839  0.57383  1.0000
  Fe  Fe78      1.0  0.02621  0.73143  0.61808  1.0000
  S   S160      1.0  0.02493  0.72491  0.35479  1.0000
  S   S161      1.0  0.05549  0.71875  0.38704  1.0000
  H   H744      1.0  0.02588  0.71305  0.43955  1.0000
  C   C622      1.0  0.05745  0.72931  0.54713  1.0000
  C   C623      1.0  0.08585  0.71731  0.34234  1.0000
  C   C624      1.0  0.00930  0.72049  0.42081  1.0000
  C   C625      1.0  0.00094  0.73031  0.44793  1.0000
  C   C626      1.0  0.06936  0.71676  0.55648  1.0000
  H   H745      1.0  0.02084  0.73296  0.58055  1.0000
  H   H746      1.0  0.09045  0.72634  0.42356  1.0000
  H   H747      1.0  0.08879  0.72571  0.36346  1.0000
  C   C627      1.0  0.08708  0.72049  0.32438  1.0000
  H   H748      1.0  0.04290  0.66589  0.63596  1.0000
  C   C628      1.0  0.07769  0.73039  0.41991  1.0000
  H   H749      1.0  0.09199  0.73356  0.48135  1.0000
  H   H750      1.0  0.00407  0.73034  0.46007  1.0000
  H   H751      1.0  0.01313  0.69758  0.64197  1.0000
  H   H752      1.0  0.08282  0.71189  0.31905  1.0000
  C   C629      1.0  0.03982  0.73485  0.55572  1.0000
  C   C630      1.0  0.02942  0.66416  0.64376  1.0000
  Fe  Fe79      1.0  0.07183  0.51080  0.85357  1.0000
  S   S162      1.0  0.13798  0.67388  0.95069  1.0000
  Fe  Fe80      1.0  0.46896  0.72306  0.89223  1.0000
  Fe  Fe81      1.0  0.00474  0.49744  0.77036  1.0000
  H   H753      1.0  0.12779  0.57563  0.89529  1.0000
  H   H754      1.0  0.14952  0.58047  0.88721  1.0000
  S   S163      1.0  0.09608  0.56190  0.93292  1.0000
  C   C631      1.0  0.00084  0.70260  0.70665  1.0000
  H   H755      1.0  0.40705  0.68494  0.88444  1.0000
  H   H756      1.0  0.30426  0.72310  0.85146  1.0000
  H   H757      1.0  0.41582  0.69235  0.96169  1.0000
  Fe  Fe82      1.0  0.10936  0.50096  0.83310  1.0000
  S   S164      1.0  0.21879  0.72114  0.87497  1.0000
  H   H758      1.0  0.12599  0.61412  0.77687  1.0000
  C   C632      1.0  0.10177  0.60502  0.78349  1.0000
  H   H759      1.0  0.48441  0.72868  0.81121  1.0000
  H   H760      1.0  0.14702  0.59070  0.95250  1.0000
  C   C633      1.0  0.42090  0.70258  0.96436  1.0000
  Fe  Fe83      1.0  0.02500  0.60795  0.75154  1.0000
  C   C634      1.0  0.08043  0.51075  0.75682  1.0000
  S   S165      1.0  0.03809  0.58122  0.74556  1.0000
  Fe  Fe84      1.0  0.02775  0.64656  0.74191  1.0000
  S   S166      1.0  0.00687  0.65308  0.76546  1.0000
  S   S167      1.0  0.04288  0.66618  0.72251  1.0000
  Fe  Fe85      1.0  0.02032  0.62715  0.78017  1.0000
  S   S168      1.0  0.02841  0.61883  0.80621  1.0000
  C   C635      1.0  0.17377  0.69653  0.91567  1.0000
  H   H761      1.0  0.17394  0.71411  0.88254  1.0000
  S   S169      1.0  0.04245  0.62195  0.75717  1.0000
  S   S170      1.0  0.01244  0.63200  0.73385  1.0000
  H   H762      1.0  0.18131  0.68883  0.90553  1.0000
  C   C636      1.0  0.03646  0.64572  0.87971  1.0000
  H   H763      1.0  0.09532  0.57250  0.77470  1.0000
  C   C637      1.0  0.13622  0.68691  0.89262  1.0000
  H   H764      1.0  0.49370  0.71520  0.82926  1.0000
  C   C638      1.0  0.00317  0.56730  0.80781  1.0000
  S   S171      1.0  0.19722  0.69293  0.85883  1.0000
  C   C639      1.0  0.00599  0.57107  0.75882  1.0000
  C   C640      1.0  0.07895  0.67037  0.77357  1.0000
  C   C641      1.0  0.10304  0.54541  0.92074  1.0000
  C   C642      1.0  0.00904  0.71401  0.69228  1.0000
  H   H765      1.0  0.07226  0.68436  0.76924  1.0000
  C   C643      1.0  0.03902  0.57610  0.79704  1.0000
  H   H766      1.0  0.01473  0.58562  0.82477  1.0000
  Fe  Fe86      1.0  0.11633  0.63670  0.84707  1.0000
  S   S172      1.0  0.08759  0.63750  0.85966  1.0000
  S   S173      1.0  0.13381  0.61035  0.84369  1.0000
  Fe  Fe87      1.0  0.11293  0.67523  0.84546  1.0000
  S   S174      1.0  0.08379  0.67917  0.85811  1.0000
  S   S175      1.0  0.12525  0.69893  0.83759  1.0000
  Fe  Fe88      1.0  0.09155  0.65335  0.87629  1.0000
  S   S176      1.0  0.08173  0.64600  0.90550  1.0000
  Fe  Fe89      1.0  0.08254  0.66303  0.84021  1.0000
  S   S177      1.0  0.06042  0.67237  0.82533  1.0000
  S   S178      1.0  0.12076  0.65064  0.86520  1.0000
  S   S179      1.0  0.11118  0.66103  0.82608  1.0000
  C   C644      1.0  0.08459  0.66043  0.91658  1.0000
  C   C645      1.0  0.07121  0.67531  0.91950  1.0000
  C   C646      1.0  0.07230  0.68546  0.93046  1.0000
  C   C647      1.0  0.08664  0.68063  0.93872  1.0000
  C   C648      1.0  0.10013  0.66585  0.93561  1.0000
  C   C649      1.0  0.09914  0.65582  0.92451  1.0000
  H   H767      1.0  0.05982  0.67881  0.91358  1.0000
  H   H768      1.0  0.06186  0.69690  0.93277  1.0000
  C   C650      1.0  0.27594  0.73457  0.94459  1.0000
  H   H769      1.0  0.10947  0.64430  0.92235  1.0000
  C   C651      1.0  0.16084  0.62922  0.87886  1.0000
  H   H770      1.0  0.00463  0.67897  0.72688  1.0000
  C   C652      1.0  0.15139  0.63238  0.90884  1.0000
  C   C653      1.0  0.04911  0.55087  0.81831  1.0000
  H   H771      1.0  0.42711  0.69648  0.97588  1.0000
  C   C654      1.0  0.17691  0.69458  0.85346  1.0000
  C   C655      1.0  0.17214  0.67926  0.85323  1.0000
  C   C656      1.0  0.15607  0.68035  0.84879  1.0000
  C   C657      1.0  0.14469  0.69677  0.84469  1.0000
  C   C658      1.0  0.14928  0.71199  0.84533  1.0000
  C   C659      1.0  0.16535  0.71091  0.84967  1.0000
  H   H772      1.0  0.18104  0.66659  0.85618  1.0000
  H   H773      1.0  0.15267  0.66856  0.84817  1.0000
  S   S180      1.0  0.13228  0.48838  0.97600  1.0000
  H   H774      1.0  0.45550  0.70596  0.97108  1.0000
  H   H775      1.0  0.09404  0.51141  0.74873  1.0000
  C   C660      1.0  0.14098  0.59099  0.96608  1.0000
  H   H776      1.0  0.07261  0.66598  0.78760  1.0000
  H   H777      1.0  0.03956  0.65250  0.67460  1.0000
  H   H778      1.0  0.05615  0.50019  0.78496  1.0000
  C   C661      1.0  0.11417  0.51459  0.91940  1.0000
  H   H779      1.0  0.10115  0.53868  0.88188  1.0000
  C   C662      1.0  0.04716  0.49343  0.84161  1.0000
  H   H780      1.0  0.14044  0.72467  0.84228  1.0000
  C   C663      1.0  0.19368  0.69665  0.80984  1.0000
  C   C664      1.0  0.03701  0.63378  0.81172  1.0000
  C   C665      1.0  0.02990  0.65187  0.80774  1.0000
  C   C666      1.0  0.03709  0.66353  0.81222  1.0000
  C   C667      1.0  0.05142  0.65718  0.82064  1.0000
  C   C668      1.0  0.05855  0.63906  0.82460  1.0000
  C   C669      1.0  0.05120  0.62740  0.82028  1.0000
  H   H781      1.0  0.01881  0.65687  0.80129  1.0000
  H   H782      1.0  0.03153  0.67755  0.80913  1.0000
  H   H783      1.0  0.06967  0.63408  0.83099  1.0000
  H   H784      1.0  0.05665  0.61340  0.82331  1.0000
  C   C670      1.0  0.02968  0.68475  0.71130  1.0000
  C   C671      1.0  0.03791  0.69638  0.69718  1.0000
  C   C672      1.0  0.02764  0.71080  0.68751  1.0000
  C   C673      1.0  0.45088  0.71946  0.96479  1.0000
  H   H785      1.0  0.16797  0.68741  0.92748  1.0000
  C   C674      1.0  0.01111  0.68786  0.71598  1.0000
  H   H786      1.0  0.05229  0.69399  0.69348  1.0000
  H   H787      1.0  0.03417  0.71946  0.67651  1.0000
  C   C675      1.0  0.00599  0.66989  0.66930  1.0000
  C   C676      1.0  0.16791  0.72206  0.89270  1.0000
  C   C677      1.0  0.08357  0.60976  0.78408  1.0000
  H   H788      1.0  0.06131  0.62997  0.77886  1.0000
  S   S181      1.0  0.45570  0.70051  0.89758  1.0000
  Fe  Fe90      1.0  0.10273  0.50958  0.86833  1.0000
  N   N43       1.0  0.15974  0.71155  0.90950  1.0000
  H   H789      1.0  0.01902  0.49756  0.84353  1.0000
  C   C678      1.0  0.02189  0.69235  0.65154  1.0000
  H   H790      1.0  0.43000  0.73368  0.88948  1.0000
  H   H791      1.0  0.43306  0.72352  0.92209  1.0000
  Fe  Fe91      1.0  0.09369  0.53870  0.83796  1.0000
  H   H792      1.0  0.12248  0.72105  0.92171  1.0000
  H   H793      1.0  0.17869  0.72727  0.89426  1.0000
  H   H794      1.0  0.46931  0.70609  0.81068  1.0000
  C   C679      1.0  0.14207  0.61009  0.90028  1.0000
  H   H795      1.0  0.11963  0.50120  0.92553  1.0000
  S   S182      1.0  0.12189  0.53761  0.96921  1.0000
  H   H796      1.0  0.06359  0.54615  0.76111  1.0000
  Fe  Fe92      1.0  0.14626  0.68219  0.97081  1.0000
  H   H797      1.0  0.05068  0.52358  0.77908  1.0000
  C   C680      1.0  0.09047  0.49572  0.78331  1.0000
  C   C681      1.0  0.43491  0.70565  0.89192  1.0000
  C   C682      1.0  0.29587  0.73460  0.85616  1.0000
  C   C683      1.0  0.03223  0.49141  0.83734  1.0000
  C   C684      1.0  0.07861  0.56073  0.76693  1.0000
  H   H798      1.0  0.06220  0.61966  0.95414  1.0000
  C   C685      1.0  0.11242  0.60491  0.90830  1.0000
  C   C686      1.0  0.24839  0.72695  0.93384  1.0000
  C   C687      1.0  0.16728  0.71839  0.80356  1.0000
  H   H799      1.0  0.16777  0.64803  0.88850  1.0000
  C   C688      1.0  0.42818  0.69195  0.89075  1.0000
  H   H800      1.0  0.03612  0.58018  0.82954  1.0000
  H   H801      1.0  0.02845  0.58794  0.79413  1.0000
  Fe  Fe93      1.0  0.20623  0.71808  0.85489  1.0000
  C   C689      1.0  0.02080  0.53673  0.75386  1.0000
  C   C690      1.0  0.03140  0.54920  0.74860  1.0000
  C   C691      1.0  0.02412  0.56629  0.75135  1.0000
  H   H802      1.0  0.07125  0.57325  0.76068  1.0000
  H   H803      1.0  0.10118  0.66459  0.74343  1.0000
  H   H804      1.0  0.02652  0.52371  0.75143  1.0000
  H   H805      1.0  0.04522  0.54565  0.74219  1.0000
  H   H806      1.0  0.07082  0.52147  0.75021  1.0000
  Fe  Fe94      1.0  0.13915  0.64763  0.96925  1.0000
  H   H807      1.0  0.10390  0.59515  0.91198  1.0000
  S   S183      1.0  0.08553  0.52110  0.82626  1.0000
  H   H808      1.0  0.13053  0.59507  0.87915  1.0000
  H   H809      1.0  0.10807  0.68928  0.89652  1.0000
  C   C692      1.0  0.10013  0.54924  0.90381  1.0000
  H   H810      1.0  0.15122  0.63889  0.91891  1.0000
  H   H811      1.0  0.06472  0.64042  0.95582  1.0000
  H   H812      1.0  0.06331  0.59372  0.84996  1.0000
  C   C693      1.0  0.41208  0.69561  0.88548  1.0000
  S   S184      1.0  0.04484  0.50619  0.85659  1.0000
  H   H813      1.0  0.09027  0.57837  0.87015  1.0000
  H   H814      1.0  0.06677  0.57186  0.86259  1.0000
  C   C694      1.0  0.14957  0.69261  0.89608  1.0000
  C   C695      1.0  0.46394  0.71080  0.85213  1.0000
  H   H815      1.0  0.08567  0.60149  0.86094  1.0000
  N   N44       1.0  0.03311  0.56410  0.81386  1.0000
  H   H816      1.0  0.11238  0.54398  0.78845  1.0000
  C   C696      1.0  0.07552  0.62717  0.77753  1.0000
  H   H817      1.0  0.02988  0.64979  0.64846  1.0000
  H   H818      1.0  0.30138  0.71466  0.91160  1.0000
  N   N45       1.0  0.07901  0.51200  0.77502  1.0000
  H   H819      1.0  0.03501  0.69558  0.64441  1.0000
  H   H820      1.0  0.15392  0.72050  0.80180  1.0000
  C   C697      1.0  0.15164  0.61574  0.88294  1.0000
  H   H821      1.0  0.13490  0.61574  0.92646  1.0000
  H   H822      1.0  0.05923  0.55719  0.81960  1.0000
  C   C698      1.0  0.16072  0.63752  0.89177  1.0000
  S   S185      1.0  0.08919  0.56758  0.82520  1.0000
  H   H823      1.0  0.08441  0.59301  0.96199  1.0000
  N   N46       1.0  0.28011  0.73131  0.92664  1.0000
  C   C699      1.0  0.40249  0.71298  0.88150  1.0000
  S   S186      1.0  0.08746  0.69312  0.95291  1.0000
  H   H824      1.0  0.16317  0.68737  0.89014  1.0000
  C   C700      1.0  0.12705  0.71163  0.91342  1.0000
  H   H825      1.0  0.00015  0.58433  0.76065  1.0000
  S   S187      1.0  0.11927  0.51956  0.84211  1.0000
  C   C701      1.0  0.26536  0.72685  0.92232  1.0000
  C   C702      1.0  0.02585  0.57431  0.82783  1.0000
  H   H826      1.0  0.05884  0.51265  0.79875  1.0000
  S   S188      1.0  0.14860  0.62341  0.95806  1.0000
  H   H827      1.0  0.45724  0.69480  0.83068  1.0000
  C   C703      1.0  0.00279  0.54130  0.76174  1.0000
  H   H828      1.0  0.17040  0.69040  0.80713  1.0000
  C   C704      1.0  0.10364  0.53568  0.89487  1.0000
  C   C705      1.0  0.10818  0.60712  0.82935  1.0000
  C   C706      1.0  0.01922  0.55628  0.81215  1.0000
  C   C707      1.0  0.02129  0.53784  0.81417  1.0000
  S   S189      1.0  0.03406  0.48752  0.76115  1.0000
  H   H829      1.0  0.43104  0.71246  0.84560  1.0000
  H   H830      1.0  0.01288  0.66030  0.69523  1.0000
  H   H831      1.0  0.00068  0.58142  0.80607  1.0000
  H   H832      1.0  0.10499  0.62137  0.82580  1.0000
  H   H833      1.0  0.14646  0.71591  0.93535  1.0000
  H   H834      1.0  0.05578  0.54326  0.80792  1.0000
  N   N47       1.0  0.13159  0.59636  0.90497  1.0000
  H   H835      1.0  0.03278  0.52835  0.81791  1.0000
  N   N48       1.0  0.43353  0.71006  0.94885  1.0000
  H   H836      1.0  0.45960  0.70105  0.93370  1.0000
  C   C708      1.0  0.11840  0.69366  0.89931  1.0000
  C   C709      1.0  0.18425  0.71986  0.96700  1.0000
  C   C710      1.0  0.00830  0.53107  0.81138  1.0000
  H   H837      1.0  0.16454  0.72672  0.92516  1.0000
  H   H838      1.0  0.03071  0.65950  0.87982  1.0000
  H   H839      1.0  0.10786  0.59159  0.78900  1.0000
  S   S190      1.0  0.47107  0.73358  0.91413  1.0000
  H   H840      1.0  0.09482  0.56260  0.89787  1.0000
  H   H841      1.0  0.11393  0.52515  0.94089  1.0000
  H   H842      1.0  0.10618  0.51650  0.78831  1.0000
  H   H843      1.0  0.01025  0.51703  0.81259  1.0000
  H   H844      1.0  0.13399  0.56590  0.97208  1.0000
  H   H845      1.0  0.10858  0.61214  0.91902  1.0000
  H   H846      1.0  0.47676  0.70283  0.85557  1.0000
  H   H847      1.0  0.16786  0.63347  0.86550  1.0000
  Fe  Fe95      1.0  0.11032  0.68080  0.96627  1.0000
  C   C711      1.0  0.11071  0.52817  0.92822  1.0000
  N   N49       1.0  0.46545  0.71715  0.83293  1.0000
  C   C712      1.0  0.09799  0.52845  0.78227  1.0000
  H   H848      1.0  0.45499  0.68790  0.95555  1.0000
  N   N50       1.0  0.02351  0.67317  0.65866  1.0000
  H   H849      1.0  0.21461  0.70657  0.81271  1.0000
  H   H850      1.0  0.44530  0.68605  0.93922  1.0000
  S   S191      1.0  0.22811  0.72615  0.83251  1.0000
  C   C713      1.0  0.26761  0.72258  0.90594  1.0000
  H   H851      1.0  0.10395  0.60137  0.95499  1.0000
  C   C714      1.0  0.25385  0.71835  0.90159  1.0000
  C   C715      1.0  0.07439  0.54505  0.76713  1.0000
  C   C716      1.0  0.23744  0.71845  0.91328  1.0000
  C   C717      1.0  0.00278  0.66322  0.68777  1.0000
  C   C718      1.0  0.03778  0.66688  0.66874  1.0000
  C   C719      1.0  0.44901  0.69570  0.94424  1.0000
  H   H852      1.0  0.09297  0.67017  0.77315  1.0000
  H   H853      1.0  0.19153  0.72063  0.95356  1.0000
  C   C720      1.0  0.07202  0.62677  0.95457  1.0000
  H   H854      1.0  0.10476  0.62874  0.95632  1.0000
  C   C721      1.0  0.11384  0.70598  0.90968  1.0000
  H   H855      1.0  0.25587  0.71522  0.88896  1.0000
  H   H856      1.0  0.16879  0.72270  0.84997  1.0000
  H   H857      1.0  0.22668  0.71550  0.90979  1.0000
  C   C722      1.0  0.10183  0.54425  0.78235  1.0000
  C   C723      1.0  0.09218  0.56034  0.77469  1.0000
  C   C724      1.0  0.44885  0.72976  0.82926  1.0000
  H   H858      1.0  0.07577  0.48684  0.83680  1.0000
  S   S192      1.0  0.16782  0.69777  0.96051  1.0000
  H   H859      1.0  0.03490  0.67398  0.67940  1.0000
  H   H860      1.0  0.05053  0.58115  0.79720  1.0000
  H   H861      1.0  0.45429  0.70214  0.85823  1.0000
  H   H862      1.0  0.02084  0.56582  0.84060  1.0000
  S   S193      1.0  0.07776  0.53008  0.86495  1.0000
  H   H863      1.0  0.27992  0.72275  0.89621  1.0000
  H   H864      1.0  0.45955  0.72200  0.85882  1.0000
  H   H865      1.0  0.48078  0.69204  0.82743  1.0000
  C   C725      1.0  0.12621  0.57986  0.84234  1.0000
  H   H866      1.0  0.11927  0.55605  0.84217  1.0000
  C   C726      1.0  0.05912  0.58555  0.86321  1.0000
  H   H867      1.0  0.20065  0.68300  0.81282  1.0000
  C   C727      1.0  0.29611  0.71671  0.92521  1.0000
  S   S194      1.0  0.11306  0.50077  0.89287  1.0000
  H   H868      1.0  0.11130  0.66206  0.94182  1.0000
  S   S195      1.0  0.00366  0.61153  0.77548  1.0000
  S   S196      1.0  0.26840  0.72440  0.85097  1.0000
  C   C728      1.0  0.17667  0.70086  0.80659  1.0000
  H   H869      1.0  0.04574  0.54159  0.83109  1.0000
  H   H870      1.0  0.15193  0.61023  0.87218  1.0000
  H   H871      1.0  0.04479  0.58551  0.86555  1.0000
  S   S197      1.0  0.38259  0.71697  0.87450  1.0000
  H   H872      1.0  0.15023  0.57821  0.91977  1.0000
  H   H873      1.0  0.04274  0.56947  0.78585  1.0000
  C   C729      1.0  0.12214  0.59831  0.83784  1.0000
  C   C730      1.0  0.10216  0.57911  0.83005  1.0000
  H   H874      1.0  0.08738  0.60448  0.81910  1.0000
  C   C731      1.0  0.09823  0.59753  0.82550  1.0000
  H   H875      1.0  0.43554  0.67847  0.89369  1.0000
  H   H876      1.0  0.13964  0.67739  0.88449  1.0000
  C   C732      1.0  0.09411  0.62829  0.96850  1.0000
  H   H877      1.0  0.11242  0.64465  0.76525  1.0000
  H   H878      1.0  0.13022  0.58871  0.93296  1.0000
  Fe  Fe96      1.0  0.09599  0.54761  0.96082  1.0000
  C   C733      1.0  0.15336  0.72289  0.92254  1.0000
  C   C734      1.0  0.11614  0.57026  0.83855  1.0000
  C   C735      1.0  0.11021  0.51824  0.90291  1.0000
  H   H879      1.0  0.02623  0.64653  0.85771  1.0000
  C   C736      1.0  0.09204  0.60029  0.96586  1.0000
  C   C737      1.0  0.13511  0.58649  0.89103  1.0000
  C   C738      1.0  0.13562  0.58326  0.92102  1.0000
  H   H880      1.0  0.40918  0.71303  0.96833  1.0000
  H   H881      1.0  0.42153  0.70590  0.92994  1.0000
  H   H882      1.0  0.05087  0.66914  0.66035  1.0000
  H   H883      1.0  0.15788  0.73346  0.88746  1.0000
  N   N51       1.0  0.06278  0.59189  0.87705  1.0000
  C   C739      1.0  0.42457  0.71669  0.93383  1.0000
  C   C740      1.0  0.08212  0.59131  0.87284  1.0000
  C   C741      1.0  0.05820  0.57941  0.89397  1.0000
  C   C742      1.0  0.05284  0.61004  0.87837  1.0000
  C   C743      1.0  0.04182  0.62075  0.86666  1.0000
  C   C744      1.0  0.05479  0.61786  0.89113  1.0000
  C   C745      1.0  0.03395  0.63837  0.86727  1.0000
  C   C746      1.0  0.04666  0.63542  0.89176  1.0000
  H   H884      1.0  0.07756  0.49817  0.75647  1.0000
  H   H885      1.0  0.13700  0.57299  0.84895  1.0000
  C   C747      1.0  0.06038  0.51221  0.78486  1.0000
  H   H886      1.0  0.18387  0.70102  0.91938  1.0000
  H   H887      1.0  0.12960  0.57168  0.92371  1.0000
  H   H888      1.0  0.10893  0.61475  0.89644  1.0000
  H   H889      1.0  0.08651  0.59385  0.88352  1.0000
  H   H890      1.0  0.04357  0.58041  0.89816  1.0000
  H   H891      1.0  0.06465  0.56549  0.89309  1.0000
  H   H892      1.0  0.06266  0.58179  0.90472  1.0000
  H   H893      1.0  0.03940  0.61604  0.85657  1.0000
  H   H894      1.0  0.06314  0.61066  0.90034  1.0000
  H   H895      1.0  0.22171  0.72354  0.93811  1.0000
  H   H896      1.0  0.05292  0.67582  0.75647  1.0000
  H   H897      1.0  0.04875  0.64128  0.90129  1.0000
  N   N52       1.0  0.07755  0.65896  0.76281  1.0000
  C   C748      1.0  0.05848  0.66194  0.76254  1.0000
  C   C749      1.0  0.20150  0.70996  0.80985  1.0000
  C   C750      1.0  0.08709  0.66460  0.74446  1.0000
  C   C751      1.0  0.08559  0.64041  0.77001  1.0000
  C   C752      1.0  0.10403  0.63520  0.77007  1.0000
  C   C753      1.0  0.42523  0.72304  0.88816  1.0000
  C   C754      1.0  0.11195  0.61775  0.77668  1.0000
  H   H898      1.0  0.08081  0.67823  0.73839  1.0000
  C   C755      1.0  0.14541  0.70512  0.90666  1.0000
  H   H899      1.0  0.05015  0.65925  0.77595  1.0000
  C   C756      1.0  0.14216  0.61893  0.91308  1.0000
  H   H900      1.0  0.05651  0.65358  0.75477  1.0000
  C   C757      1.0  0.46834  0.70185  0.82509  1.0000
  H   H901      1.0  0.07551  0.60001  0.79018  1.0000
  H   H902      1.0  0.29305  0.70409  0.93377  1.0000
  H   H903      1.0  0.08688  0.65577  0.73620  1.0000
  H   H904      1.0  0.07415  0.48954  0.90396  1.0000
  H   H905      1.0  0.08149  0.62779  0.94163  1.0000
  H   H906      1.0  0.09992  0.71102  0.91508  1.0000
  S   S198      1.0  0.08709  0.52208  0.97145  1.0000
  C   C758      1.0  0.08391  0.52839  0.77485  1.0000
  C   C759      1.0  0.23470  0.72282  0.92932  1.0000
  C   C760      1.0  0.17477  0.73231  0.80373  1.0000
  H   H907      1.0  0.27235  0.72297  0.95479  1.0000
  C   C761      1.0  0.17084  0.71023  0.97362  1.0000
  C   C762      1.0  0.43212  0.72504  0.83677  1.0000
  C   C763      1.0  0.48154  0.72476  0.82577  1.0000
  C   C764      1.0  0.40902  0.72670  0.88296  1.0000
  C   C765      1.0  0.43927  0.72396  0.95310  1.0000
  H   H908      1.0  0.24513  0.73078  0.94616  1.0000
  C   C766      1.0  0.45675  0.73235  0.96867  1.0000
  C   C767      1.0  0.19228  0.72755  0.80674  1.0000
  Fe  Fe97      1.0  0.23892  0.73204  0.85231  1.0000
  H   H909      1.0  0.01627  0.69981  0.66216  1.0000
  H   H910      1.0  0.08741  0.64230  0.96871  1.0000
  H   H911      1.0  0.30726  0.71933  0.92903  1.0000
  H   H912      1.0  0.40371  0.73251  0.83899  1.0000
  S   S199      1.0  0.09518  0.48927  0.85968  1.0000
  H   H913      1.0  0.10466  0.49426  0.77618  1.0000
  N   N53       1.0  0.08140  0.61779  0.96904  1.0000
  C   C768      1.0  0.06416  0.48538  0.83367  1.0000
  H   H914      1.0  0.08984  0.49554  0.79719  1.0000
  C   C769      1.0  0.14055  0.60544  0.97251  1.0000
  H   H915      1.0  0.41161  0.72587  0.93701  1.0000
  C   C770      1.0  0.13365  0.57694  0.97719  1.0000
  C   C771      1.0  0.15508  0.93553  0.28744  1.0000
  H   H916      1.0  0.20543  0.91412  0.14943  1.0000
  C   C772      1.0  0.26321  0.73970  0.04908  1.0000
  Fe  Fe98      1.0  0.22162  0.78127  0.99776  1.0000
  C   C773      1.0  0.13159  0.79752  0.13591  1.0000
  C   C774      1.0  0.16519  0.89646  0.18110  1.0000
  H   H917      1.0  0.23609  0.75209  0.04755  1.0000
  H   H918      1.0  0.38113  0.88624  0.14434  1.0000
  H   H919      1.0  0.19673  0.95856  0.08759  1.0000
  H   H920      1.0  0.18682  0.86805  0.14194  1.0000
  S   S200      1.0  0.45980  0.84165  0.12361  1.0000
  C   C775      1.0  0.12401  0.93570  0.29252  1.0000
  H   H921      1.0  0.41958  0.86610  0.98720  1.0000
  H   H922      1.0  0.45308  0.77810  0.99039  1.0000
  H   H923      1.0  0.08634  0.74430  0.04942  1.0000
  S   S201      1.0  0.25417  0.97558  0.08616  1.0000
  C   C776      1.0  0.41696  0.88257  0.11032  1.0000
  Fe  Fe99      1.0  0.36842  0.85800  0.09233  1.0000
  S   S202      1.0  0.37188  0.82969  0.10653  1.0000
  S   S203      1.0  0.36049  0.87969  0.10687  1.0000
  Fe  Fe100     1.0  0.39525  0.82495  0.08442  1.0000
  S   S204      1.0  0.42225  0.80801  0.08649  1.0000
  C   C777      1.0  0.30649  0.93204  0.14830  1.0000
  H   H924      1.0  0.12506  0.78982  0.13189  1.0000
  S   S205      1.0  0.39342  0.85343  0.07189  1.0000
  S   S206      1.0  0.35056  0.85640  0.07637  1.0000
  S   S207      1.0  0.20391  0.77719  0.98270  1.0000
  H   H925      1.0  0.27953  0.79630  0.03878  1.0000
  C   C778      1.0  0.17824  0.79530  0.17051  1.0000
  Fe  Fe101     1.0  0.41907  0.96004  0.11059  1.0000
  H   H926      1.0  0.15512  0.88276  0.15102  1.0000
  S   S208      1.0  0.44482  0.94528  0.11856  1.0000
  H   H927      1.0  0.12344  0.94391  0.27919  1.0000
  H   H928      1.0  0.30031  0.85394  0.02464  1.0000
  Fe  Fe102     1.0  0.39850  0.95816  0.08543  1.0000
  S   S209      1.0  0.39754  0.94319  0.06647  1.0000
  H   H929      1.0  0.05163  0.73737  0.26933  1.0000
  S   S210      1.0  0.39763  0.94593  0.11381  1.0000
  C   C779      1.0  0.00786  0.73639  0.27734  1.0000
  H   H930      1.0  0.32997  0.92781  0.07017  1.0000
  H   H931      1.0  0.11535  0.77012  0.15857  1.0000
  C   C780      1.0  0.46956  0.78886  0.02597  1.0000
  C   C781      1.0  0.33763  0.97029  0.10996  1.0000
  H   H932      1.0  0.41234  0.73674  0.08410  1.0000
  Fe  Fe103     1.0  0.38368  0.76393  0.01261  1.0000
  H   H933      1.0  0.39621  0.90730  0.14823  1.0000
  H   H934      1.0  0.33702  0.93283  0.11031  1.0000
  C   C782      1.0  0.28862  0.87944  0.13717  1.0000
  H   H935      1.0  0.39426  0.87058  0.12014  1.0000
  C   C783      1.0  0.20512  0.93654  0.06459  1.0000
  C   C784      1.0  0.32255  0.93288  0.13623  1.0000
  S   S211      1.0  0.19223  0.88917  0.10559  1.0000
  C   C785      1.0  0.40103  0.87962  0.12191  1.0000
  H   H936      1.0  0.40954  0.81655  0.97996  1.0000
  C   C786      1.0  0.43860  0.76395  0.08796  1.0000
  H   H937      1.0  0.05166  0.82097  0.27169  1.0000
  Fe  Fe104     1.0  0.24475  0.95350  0.10688  1.0000
  S   S212      1.0  0.25512  0.95853  0.12745  1.0000
  S   S213      1.0  0.25326  0.92685  0.10007  1.0000
  S   S214      1.0  0.42161  0.97013  0.08168  1.0000
  C   C787      1.0  0.05249  0.79774  0.30307  1.0000
  C   C788      1.0  0.20092  0.80842  0.06434  1.0000
  H   H938      1.0  0.22845  0.97461  0.06536  1.0000
  S   S215      1.0  0.21715  0.96945  0.11427  1.0000
  C   C789      1.0  0.46967  0.75383  0.07503  1.0000
  H   H939      1.0  0.33190  0.87420  0.13856  1.0000
  H   H940      1.0  0.34007  0.91803  0.08847  1.0000
  S   S216      1.0  0.12350  0.87012  0.21062  1.0000
  H   H941      1.0  0.23604  0.77829  0.05612  1.0000
  H   H942      1.0  0.31325  0.97952  0.14900  1.0000
  Fe  Fe105     1.0  0.10550  0.94356  0.25150  1.0000
  S   S217      1.0  0.13176  0.95129  0.24120  1.0000
  S   S218      1.0  0.10458  0.91601  0.26662  1.0000
  Fe  Fe106     1.0  0.11754  0.97472  0.25305  1.0000
  H   H943      1.0  0.35109  0.96544  0.10350  1.0000
  Fe  Fe107     1.0  0.12094  0.96700  0.21765  1.0000
  H   H944      1.0  0.42924  0.76960  0.09842  1.0000
  S   S219      1.0  0.09187  0.96589  0.26483  1.0000
  S   S220      1.0  0.09565  0.95715  0.22692  1.0000
  C   C790      1.0  0.12099  0.88166  0.22674  1.0000
  C   C791      1.0  0.11530  0.87432  0.24450  1.0000
  C   C792      1.0  0.11118  0.88457  0.25703  1.0000
  C   C793      1.0  0.11269  0.90218  0.25173  1.0000
  C   C794      1.0  0.11924  0.90920  0.23410  1.0000
  C   C795      1.0  0.12338  0.89897  0.22163  1.0000
  H   H945      1.0  0.11353  0.86093  0.24853  1.0000
  H   H946      1.0  0.10616  0.87907  0.27069  1.0000
  H   H947      1.0  0.12068  0.92270  0.22993  1.0000
  H   H948      1.0  0.12762  0.90481  0.20794  1.0000
  C   C796      1.0  0.26130  0.83303  0.02086  1.0000
  C   C797      1.0  0.18275  0.97138  0.15809  1.0000
  C   C798      1.0  0.16522  0.96900  0.16450  1.0000
  C   C799      1.0  0.15723  0.96774  0.18233  1.0000
  Fe  Fe108     1.0  0.20868  0.74929  0.99844  1.0000
  H   H949      1.0  0.24949  0.81278  0.06600  1.0000
  Fe  Fe109     1.0  0.48750  0.84265  0.10828  1.0000
  H   H950      1.0  0.29288  0.78463  0.05451  1.0000
  H   H951      1.0  0.26722  0.79317  0.08694  1.0000
  H   H952      1.0  0.16569  0.81872  0.11756  1.0000
  C   C800      1.0  0.20884  0.90025  0.10361  1.0000
  C   C801      1.0  0.22601  0.89486  0.09398  1.0000
  C   C802      1.0  0.23947  0.90329  0.09279  1.0000
  C   C803      1.0  0.23584  0.91718  0.10120  1.0000
  C   C804      1.0  0.21859  0.92286  0.11056  1.0000
  C   C805      1.0  0.20505  0.91444  0.11169  1.0000
  H   H953      1.0  0.22887  0.88436  0.08715  1.0000
  H   H954      1.0  0.25267  0.89913  0.08520  1.0000
  H   H955      1.0  0.21573  0.93346  0.11722  1.0000
  H   H956      1.0  0.19174  0.91873  0.11904  1.0000
  C   C806      1.0  0.20117  0.81072  0.16768  1.0000
  H   H957      1.0  0.17370  0.80788  0.20831  1.0000
  C   C807      1.0  0.27707  0.81670  0.99845  1.0000
  C   C808      1.0  0.09742  0.80902  0.17109  1.0000
  H   H958      1.0  0.19617  0.98157  0.08133  1.0000
  C   C809      1.0  0.46478  0.75007  0.06156  1.0000
  H   H959      1.0  0.41794  0.74253  0.06065  1.0000
  C   C810      1.0  0.07780  0.78586  0.21655  1.0000
  H   H960      1.0  0.28007  0.80617  0.05583  1.0000
  H   H961      1.0  0.08409  0.78121  0.28923  1.0000
  H   H962      1.0  0.48360  0.75151  0.07521  1.0000
  H   H963      1.0  0.29882  0.94120  0.07390  1.0000
  H   H964      1.0  0.33249  0.94166  0.08257  1.0000
  H   H965      1.0  0.31025  0.90820  0.08218  1.0000
  H   H966      1.0  0.40299  0.78284  0.08991  1.0000
  N   N54       1.0  0.20649  0.96819  0.05985  1.0000
  H   H967      1.0  0.42184  0.87534  0.10001  1.0000
  C   C811      1.0  0.32039  0.87218  0.13547  1.0000
  H   H968      1.0  0.33582  0.85237  0.12113  1.0000
  H   H969      1.0  0.45338  0.90465  0.11883  1.0000
  C   C812      1.0  0.30346  0.88188  0.14128  1.0000
  S   S221      1.0  0.48364  0.74815  0.99158  1.0000
  H   H970      1.0  0.30190  0.89130  0.14908  1.0000
  H   H971      1.0  0.43721  0.83578  0.06162  1.0000
  C   C813      1.0  0.31032  0.92857  0.11359  1.0000
  H   H972      1.0  0.42204  0.82400  0.02764  1.0000
  H   H973      1.0  0.32316  0.85087  0.01402  1.0000
  S   S222      1.0  0.01644  0.74762  0.18702  1.0000
  C   C814      1.0  0.32381  0.97388  0.10122  1.0000
  H   H974      1.0  0.27681  0.80938  0.98924  1.0000
  H   H975      1.0  0.03454  0.78701  0.20330  1.0000
  C   C815      1.0  0.27795  0.75978  0.00826  1.0000
  H   H976      1.0  0.26399  0.76479  0.00807  1.0000
  C   C816      1.0  0.03813  0.73706  0.27655  1.0000
  C   C817      1.0  0.15009  0.81775  0.14391  1.0000
  H   H977      1.0  0.31507  0.80538  0.03340  1.0000
  H   H978      1.0  0.16087  0.96759  0.20760  1.0000
  H   H979      1.0  0.29988  0.95469  0.08763  1.0000
  C   C818      1.0  0.29237  0.92924  0.14339  1.0000
  H   H980      1.0  0.41934  0.77349  0.04543  1.0000
  C   C819      1.0  0.44875  0.76677  0.99947  1.0000
  H   H981      1.0  0.32894  0.80943  0.00238  1.0000
  C   C820      1.0  0.37081  0.89724  0.09539  1.0000
  C   C821      1.0  0.36960  0.91048  0.10384  1.0000
  C   C822      1.0  0.37716  0.92497  0.09474  1.0000
  C   C823      1.0  0.38664  0.92591  0.07739  1.0000
  C   C824      1.0  0.38751  0.91287  0.06879  1.0000
  C   C825      1.0  0.37939  0.89866  0.07773  1.0000
  H   H982      1.0  0.36273  0.90959  0.11742  1.0000
  H   H983      1.0  0.37545  0.93546  0.10116  1.0000
  H   H984      1.0  0.39447  0.91375  0.05523  1.0000
  H   H985      1.0  0.37959  0.88901  0.07083  1.0000
  C   C826      1.0  0.46040  0.95867  0.11171  1.0000
  H   H986      1.0  0.08733  0.92729  0.20534  1.0000
  H   H987      1.0  0.07375  0.96115  0.30710  1.0000
  C   C827      1.0  0.49114  0.96181  0.10093  1.0000
  C   C828      1.0  0.47844  0.95136  0.10599  1.0000
  H   H988      1.0  0.13616  0.90497  0.28282  1.0000
  H   H989      1.0  0.48244  0.93766  0.10529  1.0000
  N   N55       1.0  0.05756  0.79389  0.28529  1.0000
  C   C829      1.0  0.01625  0.78056  0.27015  1.0000
  C   C830      1.0  0.29396  0.82794  0.01231  1.0000
  C   C831      1.0  0.24831  0.80067  0.06289  1.0000
  H   H990      1.0  0.05782  0.94102  0.21581  1.0000
  C   C832      1.0  0.17107  0.79755  0.18772  1.0000
  N   N56       1.0  0.17282  0.86954  0.16852  1.0000
  H   H991      1.0  0.19367  0.78367  0.06834  1.0000
  C   C833      1.0  0.44947  0.83169  0.11379  1.0000
  C   C834      1.0  0.45963  0.82013  0.10291  1.0000
  C   C835      1.0  0.45117  0.81235  0.09506  1.0000
  C   C836      1.0  0.43261  0.81673  0.09745  1.0000
  C   C837      1.0  0.42248  0.82845  0.10814  1.0000
  C   C838      1.0  0.43089  0.83559  0.11663  1.0000
  H   H992      1.0  0.47398  0.81695  0.10081  1.0000
  H   H993      1.0  0.45903  0.80310  0.08701  1.0000
  H   H994      1.0  0.40815  0.83182  0.11014  1.0000
  H   H995      1.0  0.42303  0.84427  0.12527  1.0000
  H   H996      1.0  0.09426  0.77662  0.17264  1.0000
  H   H997      1.0  0.16862  0.92759  0.28871  1.0000
  H   H998      1.0  0.27683  0.84193  0.03249  1.0000
  H   H999      1.0  0.09840  0.78840  0.15051  1.0000
  H   H1000     1.0  0.30268  0.82382  0.04290  1.0000
  H   H1001     1.0  0.08987  0.78549  0.22019  1.0000
  H   H1002     1.0  0.38738  0.77209  0.08795  1.0000
  H   H1003     1.0  0.23626  0.79677  0.07228  1.0000
  H   H1004     1.0  0.21863  0.83181  0.02469  1.0000
  S   S223      1.0  0.13478  0.96623  0.18955  1.0000
  C   C839      1.0  0.32932  0.92880  0.08370  1.0000
  C   C840      1.0  0.19428  0.81260  0.18504  1.0000
  C   C841      1.0  0.19120  0.89315  0.15746  1.0000
  C   C842      1.0  0.32446  0.93133  0.11909  1.0000
  S   S224      1.0  0.31591  0.77539  0.02035  1.0000
  H   H1005     1.0  0.29487  0.90848  0.10270  1.0000
  C   C843      1.0  0.11907  0.78444  0.18296  1.0000
  C   C844      1.0  0.14551  0.80397  0.12332  1.0000
  H   H1006     1.0  0.15753  0.82532  0.14707  1.0000
  C   C845      1.0  0.43314  0.76031  0.07440  1.0000
  H   H1007     1.0  0.24864  0.82231  0.00733  1.0000
  C   C846      1.0  0.19422  0.90909  0.15831  1.0000
  C   C847      1.0  0.42610  0.89440  0.11227  1.0000
  H   H1008     1.0  0.08610  0.80446  0.18121  1.0000
  S   S225      1.0  0.06633  0.81986  0.22160  1.0000
  C   C848      1.0  0.30497  0.76299  0.01396  1.0000
  H   H1009     1.0  0.03773  0.81286  0.21183  1.0000
  C   C849      1.0  0.43061  0.76776  0.00764  1.0000
  C   C850      1.0  0.24805  0.75322  0.05049  1.0000
  H   H1010     1.0  0.27979  0.78162  0.01722  1.0000
  Fe  Fe110     1.0  0.00164  0.73999  0.23784  1.0000
  C   C851      1.0  0.26113  0.82392  0.00873  1.0000
  C   C852      1.0  0.04599  0.78557  0.26366  1.0000
  C   C853      1.0  0.43764  0.73730  0.02292  1.0000
  S   S226      1.0  0.22450  0.75412  0.01500  1.0000
  N   N57       1.0  0.11224  0.79404  0.16690  1.0000
  H   H1011     1.0  0.16162  0.86277  0.19645  1.0000
  C   C854      1.0  0.40146  0.76996  0.08888  1.0000
  H   H1012     1.0  0.02714  0.87593  0.24766  1.0000
  H   H1013     1.0  0.08774  0.90406  0.30287  1.0000
  H   H1014     1.0  0.14420  0.87883  0.17384  1.0000
  C   C855      1.0  0.22513  0.96365  0.06200  1.0000
  H   H1015     1.0  0.07873  0.77580  0.27187  1.0000
  S   S227      1.0  0.40275  0.75387  0.03056  1.0000
  H   H1016     1.0  0.15584  0.94285  0.27354  1.0000
  C   C856      1.0  0.06314  0.80951  0.27260  1.0000
  H   H1017     1.0  0.15374  0.89214  0.19012  1.0000
  Fe  Fe111     1.0  0.37008  0.79637  0.98731  1.0000
  Fe  Fe112     1.0  0.34530  0.77206  0.00859  1.0000
  H   H1018     1.0  0.42093  0.77995  0.00508  1.0000
  H   H1019     1.0  0.20068  0.81900  0.19080  1.0000
  C   C857      1.0  0.47975  0.79552  0.04810  1.0000
  C   C858      1.0  0.19243  0.97240  0.16950  1.0000
  H   H1020     1.0  0.30513  0.81217  0.99215  1.0000
  H   H1021     1.0  0.08259  0.89945  0.24098  1.0000
  H   H1022     1.0  0.22776  0.95194  0.07274  1.0000
  H   H1023     1.0  0.25506  0.77618  0.09163  1.0000
  S   S228      1.0  0.05872  0.75336  0.20011  1.0000
  N   N58       1.0  0.41422  0.76380  0.07352  1.0000
  C   C859      1.0  0.07596  0.77120  0.21173  1.0000
  S   S229      1.0  0.35148  0.97127  0.13695  1.0000
  S   S230      1.0  0.37812  0.98253  0.09012  1.0000
  S   S231      1.0  0.23293  0.73924  0.97922  1.0000
  C   C860      1.0  0.16822  0.91245  0.18171  1.0000
  H   H1024     1.0  0.13339  0.81427  0.16942  1.0000
  Fe  Fe113     1.0  0.24829  0.74695  0.99393  1.0000
  H   H1025     1.0  0.44377  0.75079  0.05009  1.0000
  C   C861      1.0  0.27858  0.74115  0.05285  1.0000
  H   H1026     1.0  0.12062  0.79349  0.19019  1.0000
  C   C862      1.0  0.20132  0.92289  0.05986  1.0000
  H   H1027     1.0  0.24885  0.83855  0.02895  1.0000
  H   H1028     1.0  0.30493  0.93384  0.16139  1.0000
  H   H1029     1.0  0.33345  0.93535  0.13999  1.0000
  H   H1030     1.0  0.28293  0.92526  0.12313  1.0000
  C   C863      1.0  0.29427  0.92734  0.12636  1.0000
  S   S232      1.0  0.36075  0.78688  0.01615  1.0000
  H   H1031     1.0  0.31817  0.89896  0.10210  1.0000
  C   C864      1.0  0.13626  0.81132  0.15662  1.0000
  H   H1032     1.0  0.27978  0.92886  0.15274  1.0000
  S   S233      1.0  0.35277  0.78354  0.97990  1.0000
  H   H1033     1.0  0.02243  0.79254  0.30413  1.0000
  H   H1034     1.0  0.41287  0.84212  0.03794  1.0000
  H   H1035     1.0  0.28435  0.94072  0.09495  1.0000
  H   H1036     1.0  0.24657  0.87281  0.12522  1.0000
  H   H1037     1.0  0.42003  0.82063  0.05082  1.0000
  H   H1038     1.0  0.45865  0.84774  0.01494  1.0000
  H   H1039     1.0  0.09465  0.90409  0.20848  1.0000
  N   N59       1.0  0.31170  0.92726  0.09545  1.0000
  C   C865      1.0  0.30857  0.90999  0.09566  1.0000
  C   C866      1.0  0.29812  0.94154  0.08764  1.0000
  C   C867      1.0  0.32258  0.85990  0.12560  1.0000
  H   H1040     1.0  0.10889  0.89750  0.30901  1.0000
  H   H1041     1.0  0.27592  0.88743  0.14210  1.0000
  C   C868      1.0  0.30788  0.85720  0.12154  1.0000
  H   H1042     1.0  0.31036  0.84725  0.11409  1.0000
  H   H1043     1.0  0.43553  0.92596  0.09923  1.0000
  H   H1044     1.0  0.18509  0.85421  0.19001  1.0000
  C   C869      1.0  0.12666  0.80088  0.15307  1.0000
  C   C870      1.0  0.06409  0.80098  0.21647  1.0000
  H   H1045     1.0  0.15921  0.92010  0.19096  1.0000
  C   C871      1.0  0.48574  0.97958  0.10180  1.0000
  H   H1046     1.0  0.16919  0.84473  0.18605  1.0000
  H   H1047     1.0  0.06119  0.91198  0.24918  1.0000
  H   H1048     1.0  0.11371  0.92782  0.29619  1.0000
  H   H1049     1.0  0.14598  0.92126  0.26655  1.0000
  H   H1050     1.0  0.04423  0.85354  0.23032  1.0000
  S   S234      1.0  0.09438  0.83658  0.24306  1.0000
  N   N60       1.0  0.44293  0.89801  0.10021  1.0000
  C   C872      1.0  0.29040  0.86693  0.12714  1.0000
  C   C873      1.0  0.45669  0.89505  0.11034  1.0000
  H   H1051     1.0  0.42924  0.91948  0.08294  1.0000
  H   H1052     1.0  0.25801  0.88944  0.12328  1.0000
  C   C874      1.0  0.43984  0.91659  0.09040  1.0000
  C   C875      1.0  0.17218  0.85736  0.18599  1.0000
  H   H1053     1.0  0.45847  0.88151  0.11881  1.0000
  H   H1054     1.0  0.45216  0.91979  0.08099  1.0000
  H   H1055     1.0  0.27951  0.87992  0.09691  1.0000
  H   H1056     1.0  0.07982  0.91570  0.19389  1.0000
  C   C876      1.0  0.18275  0.91871  0.17037  1.0000
  Fe  Fe114     1.0  0.22808  0.97633  0.13348  1.0000
  C   C877      1.0  0.25777  0.87530  0.12907  1.0000
  H   H1057     1.0  0.46982  0.89658  0.10160  1.0000
  H   H1058     1.0  0.25426  0.87319  0.14361  1.0000
  C   C878      1.0  0.18448  0.97093  0.18739  1.0000
  C   C879      1.0  0.42507  0.75294  0.01934  1.0000
  C   C880      1.0  0.45028  0.88668  0.08718  1.0000
  H   H1059     1.0  0.44120  0.88912  0.07822  1.0000
  C   C881      1.0  0.19314  0.94295  0.03389  1.0000
  N   N61       1.0  0.27502  0.86361  0.12286  1.0000
  C   C882      1.0  0.27771  0.86634  0.10358  1.0000
  S   S235      1.0  0.11058  0.79552  0.23851  1.0000
  C   C883      1.0  0.41813  0.90319  0.12632  1.0000
  H   H1060     1.0  0.20385  0.78206  0.03692  1.0000
  H   H1061     1.0  0.45279  0.87247  0.09381  1.0000
  S   S236      1.0  0.36729  0.74777  0.00813  1.0000
  N   N62       1.0  0.14191  0.92421  0.29308  1.0000
  H   H1062     1.0  0.28955  0.85700  0.09797  1.0000
  H   H1063     1.0  0.26622  0.86431  0.09980  1.0000
  H   H1064     1.0  0.46323  0.88932  0.07870  1.0000
  C   C884      1.0  0.42334  0.82974  0.03798  1.0000
  H   H1065     1.0  0.43536  0.85680  0.01561  1.0000
  C   C885      1.0  0.39361  0.88843  0.13558  1.0000
  H   H1066     1.0  0.42410  0.91267  0.12838  1.0000
  C   C886      1.0  0.10484  0.78176  0.16182  1.0000
  C   C887      1.0  0.26380  0.77043  0.05904  1.0000
  H   H1067     1.0  0.12011  0.94513  0.30128  1.0000
  C   C888      1.0  0.41113  0.77760  0.05766  1.0000
  H   H1068     1.0  0.12984  0.85437  0.28671  1.0000
  H   H1069     1.0  0.07211  0.85793  0.20907  1.0000
  H   H1070     1.0  0.07355  0.81345  0.27639  1.0000
  C   C889      1.0  0.24824  0.76836  0.05540  1.0000
  H   H1071     1.0  0.44651  0.83752  0.00690  1.0000
  H   H1072     1.0  0.28543  0.83547  0.12613  1.0000
  C   C890      1.0  0.40212  0.90023  0.13775  1.0000
  C   C891      1.0  0.21227  0.80666  0.02873  1.0000
  C   C892      1.0  0.21354  0.82111  0.03422  1.0000
  C   C893      1.0  0.20290  0.95391  0.05417  1.0000
  H   H1073     1.0  0.30654  0.85719  0.00115  1.0000
  C   C894      1.0  0.27348  0.84514  0.13106  1.0000
  H   H1074     1.0  0.26192  0.84206  0.12841  1.0000
  H   H1075     1.0  0.46656  0.81918  0.05645  1.0000
  N   N63       1.0  0.44132  0.83307  0.03509  1.0000
  C   C895      1.0  0.44557  0.84428  0.01736  1.0000
  H   H1076     1.0  0.18866  0.97262  0.14430  1.0000
  H   H1077     1.0  0.20286  0.90977  0.06820  1.0000
  H   H1078     1.0  0.19981  0.85668  0.15844  1.0000
  H   H1079     1.0  0.20039  0.88660  0.14753  1.0000
  C   C896      1.0  0.12453  0.84287  0.29391  1.0000
  C   C897      1.0  0.19534  0.92609  0.04454  1.0000
  S   S237      1.0  0.39418  0.77454  0.98427  1.0000
  H   H1080     1.0  0.03544  0.77757  0.24620  1.0000
  H   H1081     1.0  0.32541  0.83097  0.98789  1.0000
  C   C898      1.0  0.46666  0.81111  0.04786  1.0000
  H   H1082     1.0  0.20966  0.93342  0.07660  1.0000
  H   H1083     1.0  0.32621  0.82117  0.03477  1.0000
  Fe  Fe115     1.0  0.20532  0.86139  0.10293  1.0000
  H   H1084     1.0  0.45336  0.84721  0.04590  1.0000
  C   C899      1.0  0.44053  0.84336  0.04793  1.0000
  H   H1085     1.0  0.27180  0.84244  0.14554  1.0000
  C   C900      1.0  0.17900  0.80637  0.19493  1.0000
  H   H1086     1.0  0.32788  0.83700  0.06953  1.0000
  C   C901      1.0  0.08292  0.91502  0.20659  1.0000
  Fe  Fe116     1.0  0.03071  0.74922  0.20660  1.0000
  S   S238      1.0  0.00716  0.76582  0.22142  1.0000
  S   S239      1.0  0.21583  0.85048  0.07866  1.0000
  H   H1087     1.0  0.15963  0.90435  0.27950  1.0000
  H   H1088     1.0  0.40312  0.76025  0.10134  1.0000
  C   C902      1.0  0.19299  0.80226  0.16035  1.0000
  C   C903      1.0  0.28694  0.76934  0.01347  1.0000
  C   C904      1.0  0.37086  0.85346  0.98630  1.0000
  C   C905      1.0  0.45470  0.81618  0.03642  1.0000
  Fe  Fe117     1.0  0.35600  0.82758  0.08878  1.0000
  C   C906      1.0  0.04309  0.78971  0.28022  1.0000
  H   H1089     1.0  0.03759  0.90258  0.24391  1.0000
  Fe  Fe118     1.0  0.37594  0.84943  0.05684  1.0000
  S   S240      1.0  0.23185  0.81307  0.10476  1.0000
  H   H1090     1.0  0.19235  0.91546  0.04099  1.0000
  C   C907      1.0  0.01285  0.78478  0.28640  1.0000
  H   H1091     1.0  0.06892  0.80705  0.25919  1.0000
  Fe  Fe119     1.0  0.11818  0.84301  0.22236  1.0000
  S   S241      1.0  0.21988  0.80601  0.00638  1.0000
  C   C908      1.0  0.46118  0.75086  0.00270  1.0000
  H   H1092     1.0  0.27272  0.81591  0.10191  1.0000
  S   S242      1.0  0.21429  0.97584  0.16185  1.0000
  H   H1093     1.0  0.46217  0.98337  0.07450  1.0000
  C   C909      1.0  0.03330  0.73767  0.29431  1.0000
  H   H1094     1.0  0.43015  0.85581  0.04681  1.0000
  H   H1095     1.0  0.12381  0.83540  0.27066  1.0000
  C   C910      1.0  0.02596  0.78945  0.29137  1.0000
  H   H1096     1.0  0.29118  0.75671  0.06054  1.0000
  C   C911      1.0  0.19437  0.97043  0.07695  1.0000
  C   C912      1.0  0.06035  0.77151  0.20699  1.0000
  C   C913      1.0  0.16693  0.96856  0.19382  1.0000
  H   H1097     1.0  0.18844  0.94537  0.02198  1.0000
  H   H1098     1.0  0.15155  0.94590  0.29511  1.0000
  C   C914      1.0  0.31012  0.84880  0.01358  1.0000
  H   H1099     1.0  0.04785  0.92921  0.20677  1.0000
  H   H1100     1.0  0.32694  0.97270  0.08774  1.0000
  H   H1101     1.0  0.07866  0.92302  0.23664  1.0000
  Fe  Fe120     1.0  0.37841  0.97112  0.11836  1.0000
  H   H1102     1.0  0.41444  0.78994  0.05798  1.0000
  H   H1103     1.0  0.18507  0.93111  0.17090  1.0000
  H   H1104     1.0  0.32786  0.74182  0.00986  1.0000
  H   H1105     1.0  0.24582  0.80452  0.04940  1.0000
  C   C915      1.0  0.30224  0.98074  0.12716  1.0000
  S   S243      1.0  0.21974  0.81936  0.15518  1.0000
  C   C916      1.0  0.26651  0.78155  0.08260  1.0000
  H   H1106     1.0  0.09224  0.81684  0.15926  1.0000
  S   S244      1.0  0.33477  0.81205  0.10128  1.0000
  C   C917      1.0  0.12110  0.83217  0.28481  1.0000
  H   H1107     1.0  0.49329  0.97417  0.05911  1.0000
  H   H1108     1.0  0.44807  0.80751  0.01636  1.0000
  H   H1109     1.0  0.39701  0.78072  0.05646  1.0000
  C   C918      1.0  0.45645  0.80444  0.02561  1.0000
  C   C919      1.0  0.07305  0.77872  0.28511  1.0000
  H   H1110     1.0  0.27886  0.77142  0.08444  1.0000
  S   S245      1.0  0.37971  0.86349  0.02853  1.0000
  C   C920      1.0  0.20510  0.79314  0.04107  1.0000
  C   C921      1.0  0.15477  0.81400  0.12733  1.0000
  C   C922      1.0  0.17660  0.88627  0.16901  1.0000
  S   S246      1.0  0.15244  0.78891  0.20007  1.0000
  C   C923      1.0  0.07263  0.91182  0.23772  1.0000
  C   C924      1.0  0.30483  0.73708  0.00460  1.0000
  H   H1111     1.0  0.08661  0.75954  0.21177  1.0000
  H   H1112     1.0  0.06917  0.76659  0.29410  1.0000
  S   S247      1.0  0.13810  0.82081  0.23444  1.0000
  H   H1113     1.0  0.37075  0.87627  0.99504  1.0000
  Fe  Fe121     1.0  0.37600  0.76050  0.97987  1.0000
  C   C925      1.0  0.27743  0.83500  0.02268  1.0000
  H   H1114     1.0  0.11002  0.77633  0.19251  1.0000
  H   H1115     1.0  0.14936  0.80109  0.11036  1.0000
  S   S248      1.0  0.04897  0.73917  0.30478  1.0000
  H   H1116     1.0  0.07363  0.93076  0.30801  1.0000
  C   C926      1.0  0.03923  0.87811  0.23811  1.0000
  C   C927      1.0  0.04883  0.86547  0.22839  1.0000
  H   H1117     1.0  0.13230  0.77545  0.17982  1.0000
  Fe  Fe122     1.0  0.08464  0.98063  0.23918  1.0000
  C   C928      1.0  0.27990  0.79363  0.05285  1.0000
  C   C929      1.0  0.37731  0.85235  0.01404  1.0000
  C   C930      1.0  0.04526  0.89341  0.23572  1.0000
  C   C931      1.0  0.31382  0.81968  0.03220  1.0000
  S   S249      1.0  0.19317  0.83854  0.11875  1.0000
  H   H1118     1.0  0.05861  0.78561  0.25442  1.0000
  C   C932      1.0  0.20804  0.82191  0.05196  1.0000
  C   C933      1.0  0.45661  0.76087  0.08812  1.0000
  C   C934      1.0  0.11448  0.81715  0.29406  1.0000
  C   C935      1.0  0.37287  0.86205  0.99812  1.0000
  H   H1119     1.0  0.38414  0.82641  0.02996  1.0000
  C   C936      1.0  0.44683  0.75345  0.06109  1.0000
  S   S250      1.0  0.23074  0.85097  0.11219  1.0000
  C   C937      1.0  0.06453  0.86803  0.21632  1.0000
  C   C938      1.0  0.14615  0.91314  0.28002  1.0000
  H   H1120     1.0  0.33909  0.82585  0.00341  1.0000
  C   C939      1.0  0.06106  0.89662  0.22331  1.0000
  C   C940      1.0  0.04841  0.80121  0.21191  1.0000
  H   H1121     1.0  0.04160  0.92937  0.22972  1.0000
  H   H1122     1.0  0.08319  0.88410  0.20453  1.0000
  C   C941      1.0  0.32667  0.82380  0.00146  1.0000
  C   C942      1.0  0.04652  0.78652  0.20720  1.0000
  S   S251      1.0  0.37979  0.82028  0.06769  1.0000
  C   C943      1.0  0.38027  0.83399  0.01790  1.0000
  N   N64       1.0  0.06737  0.91273  0.22138  1.0000
  C   C944      1.0  0.27888  0.75620  0.05789  1.0000
  H   H1123     1.0  0.30013  0.80435  0.11378  1.0000
  H   H1124     1.0  0.10156  0.81817  0.17635  1.0000
  C   C945      1.0  0.05302  0.92870  0.21830  1.0000
  Fe  Fe123     1.0  0.26264  0.98193  0.10726  1.0000
  Fe  Fe124     1.0  0.21932  0.82745  0.12663  1.0000
  C   C946      1.0  0.07069  0.88328  0.21380  1.0000
  C   C947      1.0  0.31396  0.74688  0.00939  1.0000
  C   C948      1.0  0.29330  0.81851  0.00022  1.0000
  H   H1125     1.0  0.15221  0.86102  0.16289  1.0000
  C   C949      1.0  0.28684  0.74359  0.00389  1.0000
  C   C950      1.0  0.31575  0.82000  0.09246  1.0000
  Fe  Fe125     1.0  0.11393  0.81305  0.25389  1.0000
  C   C951      1.0  0.31587  0.83244  0.07663  1.0000
  Fe  Fe126     1.0  0.13281  0.80564  0.21790  1.0000
  H   H1126     1.0  0.30059  0.84847  0.05761  1.0000
  C   C952      1.0  0.28472  0.82053  0.09483  1.0000
  C   C953      1.0  0.19928  0.79411  0.05884  1.0000
  H   H1127     1.0  0.18326  0.84746  0.15585  1.0000
  S   S252      1.0  0.11464  0.82845  0.20436  1.0000
  C   C954      1.0  0.30048  0.83879  0.06983  1.0000
  Fe  Fe127     1.0  0.24042  0.83806  0.08934  1.0000
  S   S253      1.0  0.11015  0.80330  0.28319  1.0000
  C   C955      1.0  0.37862  0.82536  0.00590  1.0000
  C   C956      1.0  0.15533  0.87323  0.16386  1.0000
  Fe  Fe128     1.0  0.20648  0.82623  0.09542  1.0000
  H   H1128     1.0  0.20899  0.83316  0.05597  1.0000
  C   C957      1.0  0.28495  0.83277  0.07888  1.0000
  S   S254      1.0  0.26614  0.84040  0.06978  1.0000
  H   H1129     1.0  0.13338  0.98196  0.30509  1.0000
  H   H1130     1.0  0.38161  0.81117  0.00866  1.0000
  C   C958      1.0  0.45497  0.97655  0.11209  1.0000
  S   S255      1.0  0.19428  0.80905  0.08674  1.0000
  C   C959      1.0  0.30612  0.97943  0.10966  1.0000
  Fe  Fe129     1.0  0.09283  0.81960  0.22621  1.0000
  C   C960      1.0  0.37361  0.83511  0.99023  1.0000
  H   H1131     1.0  0.19832  0.80065  0.14700  1.0000
  H   H1132     1.0  0.17231  0.78826  0.16497  1.0000
  C   C961      1.0  0.30020  0.81399  0.10151  1.0000
  N   N65       1.0  0.26449  0.78633  0.06421  1.0000
  H   H1133     1.0  0.19192  0.97169  0.19629  1.0000
  C   C962      1.0  0.18629  0.86015  0.15559  1.0000
  N   N66       1.0  0.31088  0.82999  0.01471  1.0000
  C   C963      1.0  0.03275  0.78106  0.25876  1.0000
  H   H1134     1.0  0.39579  0.74970  0.07171  1.0000
  C   C964      1.0  0.19680  0.95673  0.03856  1.0000
  H   H1135     1.0  0.15776  0.96838  0.15555  1.0000
  H   H1136     1.0  0.49187  0.77278  0.03688  1.0000
  H   H1137     1.0  0.06367  0.80079  0.30648  1.0000
  H   H1138     1.0  0.48566  0.84829  0.02273  1.0000
  C   C965      1.0  0.00310  0.73675  0.29513  1.0000
  S   S256      1.0  0.49001  0.82817  0.99709  1.0000
  C   C966      1.0  0.33399  0.97296  0.12695  1.0000
  S   S257      1.0  0.49050  0.85223  0.07935  1.0000
  H   H1139     1.0  0.44105  0.98226  0.11653  1.0000
  H   H1140     1.0  0.14753  0.88724  0.30612  1.0000
  H   H1141     1.0  0.09417  0.73743  0.29936  1.0000
  H   H1142     1.0  0.23471  0.96085  0.04974  1.0000
  C   C967      1.0  0.40993  0.74749  0.07250  1.0000
  C   C968      1.0  0.45555  0.73619  0.01444  1.0000
  H   H1143     1.0  0.00623  0.77653  0.26651  1.0000
  H   H1144     1.0  0.47495  0.74478  0.05125  1.0000
  H   H1145     1.0  0.46043  0.76418  0.09838  1.0000
  C   C969      1.0  0.31620  0.97767  0.13574  1.0000
  C   C970      1.0  0.01581  0.73743  0.30360  1.0000
  H   H1146     1.0  0.04121  0.80937  0.30415  1.0000
  H   H1147     1.0  0.19466  0.96946  0.02975  1.0000
  C   C971      1.0  0.48134  0.78455  0.03703  1.0000
  H   H1148     1.0  0.47091  0.78030  0.01732  1.0000
  C   C972      1.0  0.48350  0.98261  0.05172  1.0000
  H   H1149     1.0  0.00010  0.78406  0.29537  1.0000
  S   S258      1.0  0.13057  0.98059  0.27116  1.0000
  H   H1150     1.0  0.18019  0.97319  0.07615  1.0000
  H   H1151     1.0  0.48909  0.79227  0.05653  1.0000
  S   S259      1.0  0.39991  0.98430  0.11817  1.0000
  H   H1152     1.0  0.21289  0.98485  0.03420  1.0000
  H   H1153     1.0  0.02908  0.73643  0.25423  1.0000
  C   C973      1.0  0.42874  0.85808  0.97835  1.0000
  H   H1154     1.0  0.40885  0.84575  0.97776  1.0000
  C   C974      1.0  0.02537  0.73655  0.26802  1.0000
  C   C975      1.0  0.49582  0.83647  0.02509  1.0000
  S   S260      1.0  0.24646  0.77426  0.97777  1.0000
  H   H1155     1.0  0.43158  0.80296  0.97736  1.0000
  S   S261      1.0  0.01057  0.76631  0.33509  1.0000
  H   H1156     1.0  0.02312  0.81321  0.44982  1.0000
  H   H1157     1.0  0.02422  0.83483  0.43687  1.0000
  Fe  Fe130     1.0  0.07310  0.85043  0.49687  1.0000
  S   S262      1.0  0.08279  0.82323  0.51193  1.0000
  S   S263      1.0  0.04778  0.86145  0.48731  1.0000
  Fe  Fe131     1.0  0.10439  0.86358  0.49826  1.0000
  S   S264      1.0  0.11700  0.83755  0.51315  1.0000
  S   S265      1.0  0.11639  0.88731  0.48960  1.0000
  Fe  Fe132     1.0  0.10946  0.82638  0.49462  1.0000
  S   S266      1.0  0.12883  0.80415  0.48346  1.0000
  Fe  Fe133     1.0  0.08925  0.83705  0.52895  1.0000
  S   S267      1.0  0.08102  0.82951  0.55837  1.0000
  S   S268      1.0  0.09924  0.85260  0.47827  1.0000
  S   S269      1.0  0.07712  0.86400  0.51537  1.0000
  Fe  Fe134     1.0  0.08080  0.96358  0.52956  1.0000
  H   H1158     1.0  0.10257  0.75791  0.31112  1.0000
  S   S270      1.0  0.07852  0.93592  0.54340  1.0000
  Fe  Fe135     1.0  0.09609  0.85255  0.38583  1.0000
  S   S271      1.0  0.07687  0.87541  0.39572  1.0000
  H   H1159     1.0  0.13810  0.93891  0.45840  1.0000
  Fe  Fe136     1.0  0.13022  0.82538  0.38754  1.0000
  S   S272      1.0  0.15277  0.81292  0.40131  1.0000
  C   C976      1.0  0.06985  0.79570  0.37777  1.0000
  S   S273      1.0  0.10231  0.82592  0.40302  1.0000
  S   S274      1.0  0.08982  0.84258  0.36580  1.0000
  H   H1160     1.0  0.10637  0.74038  0.36971  1.0000
  S   S275      1.0  0.11687  0.93633  0.38227  1.0000
  S   S276      1.0  0.00338  0.77165  0.63956  1.0000
  S   S277      1.0  0.02462  0.75901  0.60248  1.0000
  H   H1161     1.0  0.08623  0.96783  0.32842  1.0000
  S   S278      1.0  0.12435  0.85303  0.37174  1.0000
  H   H1162     1.0  0.08598  0.96653  0.59507  1.0000
  H   H1163     1.0  0.09344  0.96637  0.56366  1.0000
  H   H1164     1.0  0.11737  0.79260  0.42747  1.0000
  Fe  Fe137     1.0  0.10905  0.85348  0.62640  1.0000
  S   S279      1.0  0.08124  0.86916  0.62851  1.0000
  S   S280      1.0  0.12474  0.85198  0.59911  1.0000
  H   H1165     1.0  0.02366  0.80009  0.63768  1.0000
  S   S281      1.0  0.04966  0.75382  0.34523  1.0000
  C   C977      1.0  0.14153  0.76253  0.42372  1.0000
  C   C978      1.0  0.06468  0.78413  0.57055  1.0000
  H   H1166     1.0  0.09696  0.89266  0.59126  1.0000
  C   C979      1.0  0.11576  0.77707  0.52600  1.0000
  H   H1167     1.0  0.14823  0.87143  0.33585  1.0000
  C   C980      1.0  0.06744  0.80133  0.62729  1.0000
  H   H1168     1.0  0.11185  0.93076  0.63647  1.0000
  H   H1169     1.0  0.05270  0.78000  0.57978  1.0000
  H   H1170     1.0  0.06824  0.79314  0.57649  1.0000
  H   H1171     1.0  0.03906  0.88171  0.62641  1.0000
  S   S282      1.0  0.06552  0.73935  0.52533  1.0000
  H   H1172     1.0  0.09202  0.93869  0.61670  1.0000
  H   H1173     1.0  0.01433  0.86545  0.47912  1.0000
  H   H1174     1.0  0.09018  0.78502  0.34593  1.0000
  Fe  Fe138     1.0  0.99664  0.76389  0.61813  1.0000
  H   H1175     1.0  0.09276  0.90381  0.56996  1.0000
  H   H1176     1.0  0.08806  0.76808  0.59063  1.0000
  H   H1177     1.0  0.04633  0.83890  0.40916  1.0000
  H   H1178     1.0  0.08021  0.79498  0.62046  1.0000
  H   H1179     1.0  0.14104  0.90213  0.58333  1.0000
  S   S283      1.0  0.08710  0.79234  0.38841  1.0000
  H   H1180     1.0  0.04203  0.82262  0.40100  1.0000
  H   H1181     1.0  0.13334  0.91244  0.45992  1.0000
  H   H1182     1.0  0.13514  0.96714  0.57614  1.0000
  H   H1183     1.0  0.13874  0.88258  0.57856  1.0000
  H   H1184     1.0  0.06119  0.75200  0.57166  1.0000
  N   N67       1.0  0.08638  0.90052  0.33063  1.0000
  C   C981      1.0  0.00842  0.80078  0.53088  1.0000
  C   C982      1.0  0.09731  0.75298  0.36506  1.0000
  C   C983      1.0  0.09572  0.88725  0.34367  1.0000
  S   S284      1.0  0.01692  0.75763  0.51366  1.0000
  Fe  Fe139     1.0  0.03489  0.74468  0.33127  1.0000
  C   C984      1.0  0.14580  0.88572  0.33280  1.0000
  H   H1185     1.0  0.07376  0.75370  0.59396  1.0000
  C   C985      1.0  0.04681  0.90587  0.62114  1.0000
  C   C986      1.0  0.02700  0.81766  0.54428  1.0000
  N   N68       1.0  0.07945  0.76880  0.56742  1.0000
  S   S285      1.0  0.00621  0.80611  0.48707  1.0000
  Fe  Fe140     1.0  0.04828  0.75260  0.46836  1.0000
  H   H1186     1.0  0.10878  0.93964  0.55337  1.0000
  H   H1187     1.0  0.10519  0.91088  0.60754  1.0000
  C   C987      1.0  0.08784  0.89212  0.39312  1.0000
  C   C988      1.0  0.10599  0.88820  0.39302  1.0000
  C   C989      1.0  0.11486  0.90182  0.38974  1.0000
  C   C990      1.0  0.10552  0.91937  0.38694  1.0000
  H   H1188     1.0  0.11315  0.87466  0.39576  1.0000
  H   H1189     1.0  0.12895  0.89873  0.38941  1.0000
  C   C991      1.0  0.05357  0.91943  0.60867  1.0000
  C   C992      1.0  0.01092  0.83921  0.48231  1.0000
  H   H1190     1.0  0.14608  0.77173  0.42851  1.0000
  C   C993      1.0  0.09387  0.83509  0.56947  1.0000
  C   C994      1.0  0.08937  0.83195  0.58779  1.0000
  C   C995      1.0  0.09881  0.83718  0.59689  1.0000
  C   C996      1.0  0.11315  0.84505  0.58777  1.0000
  C   C997      1.0  0.11787  0.84792  0.56946  1.0000
  C   C998      1.0  0.10806  0.84321  0.56031  1.0000
  H   H1191     1.0  0.07846  0.82563  0.59493  1.0000
  H   H1192     1.0  0.09517  0.83494  0.61100  1.0000
  H   H1193     1.0  0.12895  0.85403  0.56231  1.0000
  H   H1194     1.0  0.11151  0.84591  0.54619  1.0000
  C   C999      1.0  0.13592  0.80808  0.46053  1.0000
  C   C1000     1.0  0.15165  0.79743  0.45311  1.0000
  C   C1001     1.0  0.15705  0.79945  0.43488  1.0000
  C   C1002     1.0  0.14656  0.81188  0.42397  1.0000
  C   C1003     1.0  0.13100  0.82279  0.43132  1.0000
  C   C1004     1.0  0.12573  0.82094  0.44959  1.0000
  H   H1195     1.0  0.15962  0.78750  0.46150  1.0000
  H   H1196     1.0  0.14830  0.74889  0.42916  1.0000
  H   H1197     1.0  0.12309  0.83276  0.42296  1.0000
  H   H1198     1.0  0.11363  0.82925  0.45513  1.0000
  C   C1005     1.0  0.10785  0.90012  0.50540  1.0000
  C   C1006     1.0  0.10960  0.91758  0.50109  1.0000
  C   C1007     1.0  0.10100  0.92849  0.51300  1.0000
  C   C1008     1.0  0.09036  0.92202  0.52904  1.0000
  C   C1009     1.0  0.08946  0.90428  0.53374  1.0000
  C   C1010     1.0  0.09840  0.89329  0.52200  1.0000
  H   H1199     1.0  0.11724  0.92282  0.48842  1.0000
  H   H1200     1.0  0.10246  0.94195  0.50962  1.0000
  H   H1201     1.0  0.08170  0.89907  0.54631  1.0000
  H   H1202     1.0  0.09792  0.87954  0.52579  1.0000
  C   C1011     1.0  0.01527  0.80712  0.55611  1.0000
  H   H1203     1.0  0.14306  0.88728  0.35940  1.0000
  H   H1204     1.0  0.00506  0.79764  0.58404  1.0000
  C   C1012     1.0  0.11366  0.78333  0.42201  1.0000
  H   H1205     1.0  0.04299  0.82940  0.57297  1.0000
  C   C1013     1.0  0.01836  0.82120  0.48656  1.0000
  H   H1206     1.0  0.06216  0.93008  0.58123  1.0000
  C   C1014     1.0  0.02012  0.85151  0.48244  1.0000
  C   C1015     1.0  0.03669  0.84581  0.48702  1.0000
  C   C1016     1.0  0.04410  0.82779  0.49134  1.0000
  C   C1017     1.0  0.03500  0.81549  0.49099  1.0000
  Fe  Fe141     1.0  0.03762  0.73611  0.36929  1.0000
  H   H1207     1.0  0.04573  0.83354  0.54117  1.0000
  H   H1208     1.0  0.05693  0.82331  0.49472  1.0000
  H   H1209     1.0  0.04075  0.80164  0.49447  1.0000
  C   C1018     1.0  0.07251  0.75668  0.56163  1.0000
  S   S286      1.0  0.06835  0.75170  0.44299  1.0000
  C   C1019     1.0  0.11449  0.82368  0.32147  1.0000
  N   N69       1.0  0.09995  0.75746  0.34564  1.0000
  C   C1020     1.0  0.11971  0.76914  0.45859  1.0000
  H   H1210     1.0  0.01715  0.82000  0.42886  1.0000
  H   H1211     1.0  0.09650  0.74828  0.58226  1.0000
  C   C1021     1.0  0.04956  0.82454  0.40968  1.0000
  H   H1212     1.0  0.12166  0.75783  0.40488  1.0000
  C   C1022     1.0  0.04678  0.79562  0.42645  1.0000
  H   H1213     1.0  0.05106  0.84394  0.43293  1.0000
  S   S287      1.0  0.12770  0.81320  0.36701  1.0000
  H   H1214     1.0  0.06715  0.78683  0.44773  1.0000
  H   H1215     1.0  0.11667  0.77282  0.48453  1.0000
  H   H1216     1.0  0.09874  0.75010  0.49906  1.0000
  H   H1217     1.0  0.10963  0.93668  0.45525  1.0000
  S   S288      1.0  0.01359  0.75687  0.37657  1.0000
  H   H1218     1.0  0.05585  0.93009  0.61278  1.0000
  H   H1219     1.0  0.06433  0.91272  0.39097  1.0000
  H   H1220     1.0  0.12848  0.96898  0.41809  1.0000
  C   C1023     1.0  0.09231  0.95430  0.59077  1.0000
  H   H1221     1.0  0.08474  0.79006  0.46587  1.0000
  C   C1024     1.0  0.09391  0.94073  0.34117  1.0000
  C   C1025     1.0  0.08688  0.91884  0.32996  1.0000
  H   H1222     1.0  0.00225  0.77186  0.55249  1.0000
  C   C1026     1.0  0.08782  0.77469  0.34081  1.0000
  H   H1223     1.0  0.15757  0.94040  0.63059  1.0000
  H   H1224     1.0  0.07369  0.77385  0.34630  1.0000
  H   H1225     1.0  0.09888  0.78555  0.42527  1.0000
  H   H1226     1.0  0.13641  0.91598  0.55138  1.0000
  Fe  Fe142     1.0  0.02175  0.77826  0.48906  1.0000
  Fe  Fe143     1.0  0.11862  0.84098  0.35282  1.0000
  H   H1227     1.0  0.06072  0.90238  0.34825  1.0000
  H   H1228     1.0  0.10864  0.88317  0.57271  1.0000
  H   H1229     1.0  0.06089  0.79202  0.55805  1.0000
  Fe  Fe144     1.0  0.09853  0.96304  0.38127  1.0000
  C   C1027     1.0  0.07948  0.93304  0.31742  1.0000
  C   C1028     1.0  0.07843  0.90962  0.39069  1.0000
  C   C1029     1.0  0.03516  0.82342  0.56833  1.0000
  N   N70       1.0  0.07662  0.90791  0.45039  1.0000
  C   C1030     1.0  0.09601  0.90021  0.44693  1.0000
  C   C1031     1.0  0.06742  0.89501  0.46405  1.0000
  C   C1032     1.0  0.07046  0.91042  0.43409  1.0000
  C   C1033     1.0  0.07310  0.92444  0.45645  1.0000
  C   C1034     1.0  0.06620  0.94128  0.44657  1.0000
  C   C1035     1.0  0.07685  0.92407  0.47262  1.0000
  C   C1036     1.0  0.06317  0.95662  0.45266  1.0000
  C   C1037     1.0  0.07351  0.93948  0.47868  1.0000
  C   C1038     1.0  0.06673  0.95572  0.46870  1.0000
  H   H1230     1.0  0.09916  0.88768  0.44241  1.0000
  H   H1231     1.0  0.10346  0.90937  0.43657  1.0000
  H   H1232     1.0  0.10151  0.89702  0.45884  1.0000
  H   H1233     1.0  0.07274  0.89051  0.47616  1.0000
  H   H1234     1.0  0.06890  0.88284  0.45946  1.0000
  H   H1235     1.0  0.05289  0.90060  0.46787  1.0000
  H   H1236     1.0  0.07761  0.91917  0.42296  1.0000
  H   H1237     1.0  0.07298  0.89773  0.43000  1.0000
  H   H1238     1.0  0.05589  0.91608  0.43580  1.0000
  H   H1239     1.0  0.06288  0.94304  0.43412  1.0000
  H   H1240     1.0  0.08237  0.91182  0.48075  1.0000
  H   H1241     1.0  0.05784  0.96929  0.44492  1.0000
  H   H1242     1.0  0.07613  0.93881  0.49125  1.0000
  H   H1243     1.0  0.14651  0.76543  0.40923  1.0000
  H   H1244     1.0  0.10237  0.75570  0.42176  1.0000
  H   H1245     1.0  0.06150  0.77207  0.39341  1.0000
  H   H1246     1.0  0.12702  0.77945  0.45285  1.0000
  H   H1247     1.0  0.11666  0.91390  0.54635  1.0000
  S   S289      1.0  0.13356  0.97372  0.60944  1.0000
  H   H1248     1.0  0.12812  0.74657  0.34063  1.0000
  C   C1039     1.0  0.03561  0.80410  0.63712  1.0000
  C   C1040     1.0  0.05369  0.81220  0.35499  1.0000
  H   H1249     1.0  0.03827  0.77537  0.37748  1.0000
  H   H1250     1.0  0.09384  0.98355  0.46166  1.0000
  C   C1041     1.0  0.05927  0.78333  0.38277  1.0000
  H   H1251     1.0  0.14350  0.88176  0.45757  1.0000
  H   H1252     1.0  0.03688  0.75722  0.42924  1.0000
  Fe  Fe145     1.0  0.09930  0.81574  0.38141  1.0000
  H   H1253     1.0  0.13324  0.89489  0.55118  1.0000
  C   C1042     1.0  0.11708  0.75389  0.41935  1.0000
  H   H1254     1.0  0.06415  0.96766  0.47342  1.0000
  H   H1255     1.0  0.13710  0.91985  0.35260  1.0000
  S   S290      1.0  0.11593  0.86777  0.64265  1.0000
  S   S291      1.0  0.03844  0.97513  0.41736  1.0000
  H   H1256     1.0  0.11785  0.78731  0.40749  1.0000
  H   H1257     1.0  0.12257  0.80248  0.54927  1.0000
  H   H1258     1.0  0.12106  0.76482  0.32372  1.0000
  C   C1043     1.0  0.02378  0.81322  0.58026  1.0000
  C   C1044     1.0  0.09473  0.77507  0.55456  1.0000
  H   H1259     1.0  0.12539  0.88924  0.59773  1.0000
  C   C1045     1.0  0.13949  0.91295  0.34221  1.0000
  C   C1046     1.0  0.07943  0.95048  0.31680  1.0000
  C   C1047     1.0  0.09997  0.74336  0.47496  1.0000
  Fe  Fe146     1.0  0.12424  0.98314  0.63479  1.0000
  H   H1260     1.0  0.10986  0.88795  0.34105  1.0000
  H   H1261     1.0  0.01209  0.73771  0.31735  1.0000
  H   H1262     1.0  0.13405  0.79388  0.52058  1.0000
  C   C1048     1.0  0.09405  0.92324  0.34192  1.0000
  C   C1049     1.0  0.10161  0.77043  0.53795  1.0000
  N   N71       1.0  0.13139  0.94220  0.43342  1.0000
  C   C1050     1.0  0.14088  0.94629  0.44457  1.0000
  C   C1051     1.0  0.13348  0.95513  0.41637  1.0000
  C   C1052     1.0  0.11218  0.94488  0.44175  1.0000
  C   C1053     1.0  0.13820  0.92362  0.43173  1.0000
  C   C1054     1.0  0.13808  0.90977  0.44692  1.0000
  C   C1055     1.0  0.14436  0.91864  0.41527  1.0000
  H   H1263     1.0  0.09939  0.94378  0.35048  1.0000
  C   C1056     1.0  0.15009  0.90092  0.41423  1.0000
  C   C1057     1.0  0.14977  0.88767  0.42942  1.0000
  H   H1264     1.0  0.15553  0.94324  0.43943  1.0000
  H   H1265     1.0  0.14770  0.95386  0.40942  1.0000
  H   H1266     1.0  0.02893  0.81998  0.53021  1.0000
  H   H1267     1.0  0.12580  0.95361  0.40761  1.0000
  N   N72       1.0  0.00477  0.79835  0.55021  1.0000
  H   H1268     1.0  0.10466  0.94158  0.43395  1.0000
  H   H1269     1.0  0.14475  0.92815  0.40294  1.0000
  H   H1270     1.0  0.15474  0.89744  0.40154  1.0000
  C   C1058     1.0  0.06705  0.81013  0.36387  1.0000
  H   H1271     1.0  0.06746  0.76317  0.54942  1.0000
  H   H1272     1.0  0.07013  0.94796  0.63974  1.0000
  H   H1273     1.0  0.08331  0.75192  0.37156  1.0000
  C   C1059     1.0  0.12128  0.83859  0.31227  1.0000
  N   N73       1.0  0.04669  0.87560  0.59263  1.0000
  C   C1060     1.0  0.05983  0.87211  0.57633  1.0000
  C   C1061     1.0  0.04878  0.85896  0.60626  1.0000
  C   C1062     1.0  0.02858  0.87984  0.58931  1.0000
  C   C1063     1.0  0.04901  0.89064  0.59814  1.0000
  C   C1064     1.0  0.04429  0.89178  0.61603  1.0000
  C   C1065     1.0  0.05482  0.90526  0.58569  1.0000
  S   S292      1.0  0.07798  0.91102  0.64183  1.0000
  C   C1066     1.0  0.05730  0.91927  0.59096  1.0000
  C   C1067     1.0  0.13915  0.92245  0.32505  1.0000
  H   H1274     1.0  0.05939  0.85973  0.57319  1.0000
  H   H1275     1.0  0.05727  0.88245  0.56453  1.0000
  H   H1276     1.0  0.06144  0.85620  0.61064  1.0000
  H   H1277     1.0  0.04899  0.84730  0.60144  1.0000
  H   H1278     1.0  0.03767  0.85908  0.61802  1.0000
  H   H1279     1.0  0.02647  0.89202  0.57890  1.0000
  H   H1280     1.0  0.02614  0.86897  0.58503  1.0000
  H   H1281     1.0  0.01824  0.88215  0.60131  1.0000
  C   C1068     1.0  0.15945  0.93233  0.64328  1.0000
  H   H1282     1.0  0.05752  0.90621  0.57175  1.0000
  C   C1069     1.0  0.04747  0.74771  0.42319  1.0000
  C   C1070     1.0  0.05207  0.79577  0.62832  1.0000
  H   H1283     1.0  0.04239  0.78713  0.43945  1.0000
  N   N74       1.0  0.04536  0.81392  0.42779  1.0000
  C   C1071     1.0  0.01388  0.80527  0.57429  1.0000
  C   C1072     1.0  0.05727  0.81515  0.43821  1.0000
  C   C1073     1.0  0.05854  0.83186  0.43955  1.0000
  C   C1074     1.0  0.06730  0.80009  0.44782  1.0000
  C   C1075     1.0  0.06923  0.83333  0.44980  1.0000
  C   C1076     1.0  0.07773  0.80173  0.45821  1.0000
  C   C1077     1.0  0.07876  0.81828  0.45916  1.0000
  H   H1284     1.0  0.06396  0.82076  0.40367  1.0000
  S   S293      1.0  0.01904  0.76319  0.47106  1.0000
  H   H1285     1.0  0.07366  0.87076  0.57758  1.0000
  C   C1078     1.0  0.12334  0.78850  0.53009  1.0000
  C   C1079     1.0  0.11694  0.79326  0.54624  1.0000
  H   H1286     1.0  0.06973  0.84622  0.45087  1.0000
  C   C1080     1.0  0.12491  0.97887  0.57786  1.0000
  H   H1287     1.0  0.08658  0.81941  0.46754  1.0000
  H   H1288     1.0  0.08940  0.77959  0.32642  1.0000
  C   C1081     1.0  0.04611  0.78521  0.37373  1.0000
  Fe  Fe147     1.0  0.02461  0.77376  0.35118  1.0000
  C   C1082     1.0  0.08473  0.75930  0.58424  1.0000
  C   C1083     1.0  0.14284  0.89462  0.34607  1.0000
  H   H1289     1.0  0.11185  0.82030  0.33562  1.0000
  S   S294      1.0  0.12574  0.85179  0.32374  1.0000
  H   H1290     1.0  0.07564  0.81927  0.35935  1.0000
  H   H1291     1.0  0.02343  0.77353  0.55460  1.0000
  H   H1292     1.0  0.03831  0.79512  0.41792  1.0000
  H   H1293     1.0  0.08290  0.74468  0.55927  1.0000
  S   S295      1.0  0.07242  0.97108  0.37309  1.0000
  H   H1294     1.0  0.09622  0.76186  0.53376  1.0000
  N   N75       1.0  0.12190  0.76470  0.42863  1.0000
  C   C1084     1.0  0.11121  0.81297  0.31238  1.0000
  C   C1085     1.0  0.02666  0.82083  0.43612  1.0000
  S   S296      1.0  0.05136  0.76960  0.48426  1.0000
  S   S297      1.0  0.02823  0.80102  0.34728  1.0000
  C   C1086     1.0  0.11377  0.76545  0.47680  1.0000
  C   C1087     1.0  0.06395  0.74245  0.42800  1.0000
  C   C1088     1.0  0.10374  0.75270  0.48497  1.0000
  C   C1089     1.0  0.10615  0.74674  0.45675  1.0000
  H   H1295     1.0  0.15413  0.87394  0.42856  1.0000
  H   H1296     1.0  0.02273  0.81132  0.59421  1.0000
  H   H1297     1.0  0.16817  0.86106  0.62960  1.0000
  H   H1298     1.0  0.05184  0.82317  0.34398  1.0000
  C   C1090     1.0  0.06762  0.89878  0.33540  1.0000
  C   C1091     1.0  0.03674  0.82567  0.55041  1.0000
  H   H1299     1.0  0.02261  0.79523  0.52542  1.0000
  H   H1300     1.0  0.09823  0.79097  0.57057  1.0000
  H   H1301     1.0  0.06065  0.78939  0.42069  1.0000
  H   H1302     1.0  0.00494  0.81492  0.52427  1.0000
  H   H1303     1.0  0.07978  0.93652  0.38612  1.0000
  H   H1304     1.0  0.00039  0.79403  0.52679  1.0000
  Fe  Fe148     1.0  0.01657  0.74166  0.49529  1.0000
  H   H1305     1.0  0.11798  0.98263  0.55309  1.0000
  H   H1306     1.0  0.12193  0.76881  0.34383  1.0000
  C   C1092     1.0  0.09802  0.74668  0.32021  1.0000
  C   C1093     1.0  0.11595  0.76004  0.44795  1.0000
  Fe  Fe149     1.0  0.04651  0.74741  0.50727  1.0000
  C   C1094     1.0  0.14380  0.89210  0.44573  1.0000
  H   H1307     1.0  0.12076  0.77360  0.51332  1.0000
  S   S298      1.0  0.05407  0.77826  0.61859  1.0000
  Fe  Fe150     1.0  0.03168  0.76429  0.62499  1.0000
  C   C1095     1.0  0.08724  0.92318  0.38773  1.0000
  C   C1096     1.0  0.09634  0.74416  0.33853  1.0000
  H   H1308     1.0  0.16919  0.79110  0.42925  1.0000
  S   S299      1.0  0.07723  0.97417  0.50193  1.0000
  H   H1309     1.0  0.10273  0.73897  0.44987  1.0000
  H   H1310     1.0  0.13680  0.96047  0.44521  1.0000
  H   H1311     1.0  0.04391  0.90609  0.63494  1.0000
  C   C1097     1.0  0.04334  0.79962  0.35977  1.0000
  H   H1312     1.0  0.09591  0.87368  0.34313  1.0000
  N   N76       1.0  0.11756  0.90548  0.57379  1.0000
  C   C1098     1.0  0.13125  0.89453  0.58381  1.0000
  C   C1099     1.0  0.10337  0.89583  0.57709  1.0000
  C   C1100     1.0  0.12638  0.90775  0.55489  1.0000
  C   C1101     1.0  0.10944  0.92238  0.57940  1.0000
  C   C1102     1.0  0.10556  0.93864  0.56732  1.0000
  C   C1103     1.0  0.10385  0.92279  0.59746  1.0000
  C   C1104     1.0  0.09678  0.95422  0.57304  1.0000
  C   C1105     1.0  0.09586  0.93861  0.60293  1.0000
  H   H1313     1.0  0.09971  0.91346  0.35213  1.0000
  H   H1314     1.0  0.07842  0.81883  0.63477  1.0000
  H   H1315     1.0  0.13554  0.90886  0.62114  1.0000
  S   S300      1.0  0.08777  0.97215  0.40641  1.0000
  H   H1316     1.0  0.08913  0.88869  0.35734  1.0000
  H   H1317     1.0  0.19823  0.86728  0.62261  1.0000
  H   H1318     1.0  0.03056  0.74437  0.54847  1.0000
  H   H1319     1.0  0.09992  0.76330  0.37003  1.0000
  H   H1320     1.0  0.10631  0.95877  0.44287  1.0000
  C   C1106     1.0  0.19106  0.86452  0.63615  1.0000
  C   C1107     1.0  0.10294  0.78658  0.55836  1.0000
  H   H1321     1.0  0.14988  0.92340  0.61727  1.0000
  H   H1322     1.0  0.10620  0.80140  0.31956  1.0000
  H   H1323     1.0  0.05998  0.90737  0.32549  1.0000
  S   S301      1.0  0.10565  0.97319  0.52529  1.0000
  H   H1324     1.0  0.06670  0.88501  0.33656  1.0000
  C   C1108     1.0  0.11857  0.75945  0.33813  1.0000
  C   C1109     1.0  0.08655  0.95430  0.32872  1.0000
  C   C1110     1.0  0.04491  0.74104  0.41008  1.0000
  C   C1111     1.0  0.06645  0.81494  0.63528  1.0000
  H   H1325     1.0  0.15653  0.90064  0.62780  1.0000
  C   C1112     1.0  0.14536  0.89508  0.31561  1.0000
  C   C1113     1.0  0.12219  0.93239  0.64219  1.0000
  H   H1326     1.0  0.12736  0.94383  0.63340  1.0000
  C   C1114     1.0  0.00885  0.77911  0.55769  1.0000
  H   H1327     1.0  0.03229  0.74531  0.40619  1.0000
  C   C1115     1.0  0.14501  0.91207  0.62689  1.0000
  H   H1328     1.0  0.00214  0.97557  0.43500  1.0000
  C   C1116     1.0  0.09488  0.89595  0.31330  1.0000
  H   H1329     1.0  0.99800  0.84367  0.47897  1.0000
  H   H1330     1.0  0.13639  0.93666  0.32275  1.0000
  C   C1117     1.0  0.17414  0.86107  0.64002  1.0000
  H   H1331     1.0  0.09531  0.88198  0.31362  1.0000
  H   H1332     1.0  0.04867  0.78628  0.31337  1.0000
  H   H1333     1.0  0.00414  0.77586  0.57216  1.0000
  Fe  Fe151     1.0  0.00180  0.74736  0.35993  1.0000
  H   H1334     1.0  0.12307  0.73965  0.42339  1.0000
  Fe  Fe152     1.0  0.06226  0.98205  0.39724  1.0000
  S   S302      1.0  0.03600  0.73594  0.63928  1.0000
  S   S303      1.0  0.99764  0.73573  0.63205  1.0000
  S   S304      1.0  0.12359  0.98421  0.47510  1.0000
  C   C1118     1.0  0.14219  0.91381  0.31117  1.0000
  C   C1119     1.0  0.09337  0.73502  0.31331  1.0000
  S   S305      1.0  0.28404  0.88748  0.76261  1.0000
  S   S306      1.0  0.29130  0.88552  0.71234  1.0000
  Fe  Fe153     1.0  0.30177  0.90484  0.76191  1.0000
  S   S307      1.0  0.29122  0.93124  0.76891  1.0000
  Fe  Fe154     1.0  0.30555  0.86556  0.77249  1.0000
  S   S308      1.0  0.29942  0.84262  0.79428  1.0000
  H   H1335     1.0  0.01143  0.79117  0.66981  1.0000
  S   S309      1.0  0.36976  0.78835  0.80965  1.0000
  H   H1336     1.0  0.25592  0.93907  0.71312  1.0000
  Fe  Fe155     1.0  0.21131  0.75345  0.83145  1.0000
  H   H1337     1.0  0.19225  0.91380  0.77599  1.0000
  C   C1120     1.0  0.16426  0.91361  0.67663  1.0000
  H   H1338     1.0  0.45708  0.84921  0.84805  1.0000
  H   H1339     1.0  0.18083  0.76346  0.93011  1.0000
  C   C1121     1.0  0.17426  0.82762  0.87517  1.0000
  C   C1122     1.0  0.21152  0.83485  0.81232  1.0000
  H   H1340     1.0  0.33601  0.83884  0.77444  1.0000
  Fe  Fe156     1.0  0.16103  0.87894  0.73568  1.0000
  S   S310      1.0  0.15506  0.88952  0.75986  1.0000
  Fe  Fe157     1.0  0.20029  0.86434  0.73714  1.0000
  S   S311      1.0  0.19763  0.87398  0.76115  1.0000
  S   S312      1.0  0.22619  0.85143  0.72180  1.0000
  Fe  Fe158     1.0  0.17245  0.86382  0.77039  1.0000
  S   S313      1.0  0.16573  0.84834  0.79807  1.0000
  Fe  Fe159     1.0  0.18065  0.89855  0.74836  1.0000
  S   S314      1.0  0.18222  0.92682  0.74202  1.0000
  S   S315      1.0  0.17622  0.85238  0.74703  1.0000
  S   S316      1.0  0.18549  0.88970  0.72346  1.0000
  C   C1123     1.0  0.18212  0.93729  0.75820  1.0000
  C   C1124     1.0  0.17700  0.95566  0.75490  1.0000
  C   C1125     1.0  0.17840  0.96481  0.76650  1.0000
  C   C1126     1.0  0.18833  0.92801  0.77339  1.0000
  H   H1341     1.0  0.17203  0.96290  0.74324  1.0000
  H   H1342     1.0  0.40694  0.83299  0.85067  1.0000
  H   H1343     1.0  0.13974  0.76781  0.79690  1.0000
  C   C1127     1.0  0.19052  0.82115  0.78580  1.0000
  C   C1128     1.0  0.17799  0.82649  0.80016  1.0000
  C   C1129     1.0  0.17538  0.81434  0.81621  1.0000
  H   H1344     1.0  0.19298  0.83048  0.77354  1.0000
  H   H1345     1.0  0.16568  0.81852  0.82731  1.0000
  C   C1130     1.0  0.25344  0.92903  0.72549  1.0000
  C   C1131     1.0  0.43687  0.98483  0.75320  1.0000
  H   H1346     1.0  0.29907  0.77636  0.97410  1.0000
  C   C1132     1.0  0.17495  0.76141  0.78514  1.0000
  C   C1133     1.0  0.22957  0.76638  0.90720  1.0000
  H   H1347     1.0  0.15053  0.84901  0.72503  1.0000
  H   H1348     1.0  0.11622  0.89208  0.69778  1.0000
  C   C1134     1.0  0.45248  0.78879  0.82477  1.0000
  H   H1349     1.0  0.38320  0.97074  0.81408  1.0000
  H   H1350     1.0  0.26590  0.78687  0.93415  1.0000
  S   S317      1.0  0.42581  0.86843  0.81313  1.0000
  C   C1135     1.0  0.25109  0.95085  0.74126  1.0000
  H   H1351     1.0  0.41596  0.97551  0.71833  1.0000
  H   H1352     1.0  0.16932  0.80578  0.85782  1.0000
  H   H1353     1.0  0.33121  0.78164  0.91646  1.0000
  C   C1136     1.0  0.40313  0.88494  0.75574  1.0000
  C   C1137     1.0  0.14671  0.75367  0.79873  1.0000
  H   H1354     1.0  0.40591  0.78809  0.87548  1.0000
  H   H1355     1.0  0.42590  0.78333  0.88290  1.0000
  H   H1356     1.0  0.37508  0.87026  0.70213  1.0000
  C   C1138     1.0  0.27316  0.87585  0.71578  1.0000
  C   C1139     1.0  0.26031  0.87473  0.73153  1.0000
  C   C1140     1.0  0.24564  0.86748  0.73346  1.0000
  C   C1141     1.0  0.24409  0.86095  0.71983  1.0000
  C   C1142     1.0  0.25713  0.86180  0.70429  1.0000
  C   C1143     1.0  0.27143  0.86950  0.70217  1.0000
  H   H1357     1.0  0.26153  0.87968  0.74208  1.0000
  H   H1358     1.0  0.23576  0.86666  0.74559  1.0000
  H   H1359     1.0  0.25605  0.85675  0.69375  1.0000
  H   H1360     1.0  0.28127  0.87039  0.68997  1.0000
  C   C1144     1.0  0.31908  0.82738  0.79800  1.0000
  C   C1145     1.0  0.31839  0.81379  0.81298  1.0000
  C   C1146     1.0  0.33381  0.80118  0.81597  1.0000
  C   C1147     1.0  0.35013  0.80242  0.80430  1.0000
  H   H1361     1.0  0.30599  0.81311  0.82243  1.0000
  H   H1362     1.0  0.33304  0.79054  0.82740  1.0000
  C   C1148     1.0  0.30847  0.93760  0.77322  1.0000
  C   C1149     1.0  0.31077  0.95488  0.76649  1.0000
  C   C1150     1.0  0.32372  0.96045  0.77082  1.0000
  C   C1151     1.0  0.33454  0.94864  0.78178  1.0000
  C   C1152     1.0  0.33241  0.93129  0.78836  1.0000
  C   C1153     1.0  0.31936  0.92578  0.78409  1.0000
  H   H1363     1.0  0.30261  0.96394  0.75782  1.0000
  H   H1364     1.0  0.45834  0.93023  0.86244  1.0000
  H   H1365     1.0  0.34062  0.92221  0.79702  1.0000
  H   H1366     1.0  0.31738  0.91255  0.78965  1.0000
  Fe  Fe160     1.0  0.30078  0.88496  0.73602  1.0000
  S   S318      1.0  0.32186  0.88313  0.77427  1.0000
  H   H1367     1.0  0.20927  0.81618  0.87660  1.0000
  N   N77       1.0  0.41927  0.80977  0.86762  1.0000
  C   C1154     1.0  0.41957  0.79063  0.87165  1.0000
  H   H1368     1.0  0.42913  0.93496  0.78208  1.0000
  C   C1155     1.0  0.23630  0.89626  0.78722  1.0000
  Fe  Fe161     1.0  0.00713  0.74268  0.65217  1.0000
  H   H1369     1.0  0.41176  0.91475  0.80870  1.0000
  C   C1156     1.0  0.17277  0.85682  0.67094  1.0000
  H   H1370     1.0  0.30924  0.78268  0.80838  1.0000
  H   H1371     1.0  0.46072  0.75144  0.81140  1.0000
  C   C1157     1.0  0.26668  0.75301  0.86381  1.0000
  H   H1372     1.0  0.42770  0.84243  0.85731  1.0000
  C   C1158     1.0  0.46880  0.93231  0.83472  1.0000
  C   C1159     1.0  0.43947  0.92878  0.73923  1.0000
  H   H1373     1.0  0.16267  0.83306  0.86879  1.0000
  H   H1374     1.0  0.21582  0.79775  0.84392  1.0000
  H   H1375     1.0  0.13902  0.92976  0.75663  1.0000
  C   C1160     1.0  0.22296  0.76854  0.92448  1.0000
  H   H1376     1.0  0.25248  0.75568  0.86530  1.0000
  H   H1377     1.0  0.47800  0.81854  0.80232  1.0000
  H   H1378     1.0  0.26751  0.76756  0.82608  1.0000
  C   C1161     1.0  0.12753  0.90171  0.65513  1.0000
  H   H1379     1.0  0.25246  0.96108  0.72885  1.0000
  H   H1380     1.0  0.22405  0.76095  0.88510  1.0000
  S   S319      1.0  0.12911  0.96397  0.65963  1.0000
  S   S320      1.0  0.44646  0.78382  0.90549  1.0000
  H   H1381     1.0  0.24311  0.95809  0.75169  1.0000
  H   H1382     1.0  0.20964  0.83060  0.68348  1.0000
  H   H1383     1.0  0.22415  0.88568  0.77322  1.0000
  H   H1384     1.0  0.19537  0.88643  0.67782  1.0000
  C   C1162     1.0  0.19009  0.86003  0.66752  1.0000
  H   H1385     1.0  0.10861  0.96168  0.71305  1.0000
  S   S321      1.0  0.49409  0.88283  0.76164  1.0000
  H   H1386     1.0  0.13287  0.97837  0.77066  1.0000
  C   C1163     1.0  0.24705  0.79452  0.78201  1.0000
  C   C1164     1.0  0.39676  0.94731  0.79596  1.0000
  S   S322      1.0  0.23682  0.77321  0.93507  1.0000
  C   C1165     1.0  0.20547  0.76714  0.93286  1.0000
  H   H1387     1.0  0.34636  0.76104  0.95682  1.0000
  H   H1388     1.0  0.34506  0.75953  0.93584  1.0000
  C   C1166     1.0  0.35468  0.84441  0.71193  1.0000
  S   S323      1.0  0.35055  0.95564  0.78743  1.0000
  C   C1167     1.0  0.27431  0.76426  0.86834  1.0000
  H   H1389     1.0  0.15199  0.85414  0.66048  1.0000
  H   H1390     1.0  0.35227  0.90220  0.75878  1.0000
  H   H1391     1.0  0.17699  0.75843  0.81793  1.0000
  C   C1168     1.0  0.36645  0.89743  0.75778  1.0000
  C   C1169     1.0  0.03416  0.75904  0.67079  1.0000
  H   H1392     1.0  0.28954  0.74541  0.90053  1.0000
  C   C1170     1.0  0.18736  0.85604  0.69942  1.0000
  H   H1393     1.0  0.34308  0.87888  0.71192  1.0000
  C   C1171     1.0  0.41669  0.75278  0.82162  1.0000
  N   N78       1.0  0.18798  0.81441  0.86628  1.0000
  N   N79       1.0  0.35609  0.85934  0.69654  1.0000
  H   H1394     1.0  0.08011  0.78965  0.66621  1.0000
  S   S324      1.0  0.46931  0.85626  0.80626  1.0000
  C   C1172     1.0  0.30917  0.77594  0.93891  1.0000
  C   C1173     1.0  0.31291  0.77728  0.96703  1.0000
  C   C1174     1.0  0.37616  0.88559  0.74708  1.0000
  H   H1395     1.0  0.10434  0.93635  0.73921  1.0000
  H   H1396     1.0  0.20928  0.79959  0.77587  1.0000
  C   C1175     1.0  0.17926  0.80053  0.86624  1.0000
  H   H1397     1.0  0.18272  0.84351  0.70318  1.0000
  H   H1398     1.0  0.30380  0.74815  0.96651  1.0000
  C   C1176     1.0  0.45496  0.90279  0.83909  1.0000
  H   H1399     1.0  0.42668  0.78469  0.86014  1.0000
  H   H1400     1.0  0.46646  0.90429  0.81165  1.0000
  H   H1401     1.0  0.18344  0.78756  0.83024  1.0000
  C   C1177     1.0  0.24420  0.90975  0.78663  1.0000
  Fe  Fe162     1.0  0.44708  0.84848  0.80047  1.0000
  H   H1402     1.0  0.19444  0.85530  0.70966  1.0000
  H   H1403     1.0  0.40440  0.76155  0.81866  1.0000
  C   C1178     1.0  0.43720  0.81381  0.86192  1.0000
  H   H1404     1.0  0.45610  0.81756  0.89198  1.0000
  H   H1405     1.0  0.37044  0.97191  0.72456  1.0000
  H   H1406     1.0  0.41644  0.84453  0.93509  1.0000
  C   C1179     1.0  0.19765  0.79159  0.80328  1.0000
  H   H1407     1.0  0.07438  0.96552  0.65802  1.0000
  S   S325      1.0  0.38272  0.76714  0.85583  1.0000
  H   H1408     1.0  0.37362  0.80357  0.92039  1.0000
  S   S326      1.0  0.34326  0.79352  0.85632  1.0000
  C   C1180     1.0  0.25813  0.78655  0.79392  1.0000
  C   C1181     1.0  0.31774  0.74910  0.95982  1.0000
  C   C1182     1.0  0.43413  0.83596  0.96096  1.0000
  H   H1409     1.0  0.28352  0.77312  0.95646  1.0000
  C   C1183     1.0  0.12628  0.84867  0.69665  1.0000
  H   H1410     1.0  0.39146  0.97264  0.70950  1.0000
  H   H1411     1.0  0.18848  0.76119  0.78639  1.0000
  C   C1184     1.0  0.39332  0.89649  0.76670  1.0000
  H   H1412     1.0  0.17869  0.84834  0.84510  1.0000
  Fe  Fe163     1.0  0.36310  0.77709  0.83849  1.0000
  H   H1413     1.0  0.21571  0.95187  0.74781  1.0000
  C   C1185     1.0  0.44002  0.95879  0.72397  1.0000
  C   C1186     1.0  0.38904  0.93920  0.72502  1.0000
  H   H1414     1.0  0.39221  0.92543  0.73261  1.0000
  C   C1187     1.0  0.19629  0.82190  0.84800  1.0000
  H   H1415     1.0  0.17991  0.83866  0.87532  1.0000
  H   H1416     1.0  0.19192  0.85877  0.81470  1.0000
  H   H1417     1.0  0.38621  0.98031  0.72963  1.0000
  H   H1418     1.0  0.21687  0.83958  0.79853  1.0000
  S   S327      1.0  0.14075  0.88747  0.71885  1.0000
  H   H1419     1.0  0.21138  0.79489  0.87260  1.0000
  H   H1420     1.0  0.22857  0.80911  0.81335  1.0000
  C   C1188     1.0  0.20168  0.80643  0.87699  1.0000
  H   H1421     1.0  0.13847  0.74643  0.81045  1.0000
  C   C1189     1.0  0.19052  0.93730  0.78464  1.0000
  S   S328      1.0  0.19158  0.96784  0.79270  1.0000
  H   H1422     1.0  0.45202  0.80570  0.94804  1.0000
  H   H1423     1.0  0.36337  0.81654  0.77993  1.0000
  H   H1424     1.0  0.43437  0.76883  0.94483  1.0000
  H   H1425     1.0  0.16878  0.82171  0.88908  1.0000
  Fe  Fe164     1.0  0.10130  0.97586  0.67162  1.0000
  H   H1426     1.0  0.47754  0.93082  0.80759  1.0000
  C   C1190     1.0  0.30675  0.78973  0.90846  1.0000
  H   H1427     1.0  0.14669  0.74923  0.78697  1.0000
  H   H1428     1.0  0.26590  0.77562  0.87327  1.0000
  H   H1429     1.0  0.01733  0.76291  0.71295  1.0000
  S   S329      1.0  0.18712  0.75932  0.89466  1.0000
  C   C1191     1.0  0.46558  0.77494  0.83123  1.0000
  H   H1430     1.0  0.43887  0.78735  0.82791  1.0000
  C   C1192     1.0  0.24030  0.92342  0.75657  1.0000
  S   S330      1.0  0.38438  0.74523  0.95883  1.0000
  H   H1431     1.0  0.30358  0.78174  0.78881  1.0000
  C   C1193     1.0  0.30349  0.74579  0.86080  1.0000
  C   C1194     1.0  0.37548  0.78293  0.90762  1.0000
  H   H1432     1.0  0.39611  0.96081  0.78759  1.0000
  C   C1195     1.0  0.14962  0.91910  0.65221  1.0000
  H   H1433     1.0  0.39616  0.81328  0.88865  1.0000
  C   C1196     1.0  0.29274  0.76073  0.86674  1.0000
  N   N80       1.0  0.24241  0.93725  0.74030  1.0000
  H   H1434     1.0  0.41727  0.88005  0.75494  1.0000
  H   H1435     1.0  0.35646  0.86507  0.66886  1.0000
  C   C1197     1.0  0.45685  0.80465  0.81467  1.0000
  H   H1436     1.0  0.36337  0.84210  0.67860  1.0000
  H   H1437     1.0  0.47121  0.76866  0.92764  1.0000
  H   H1438     1.0  0.21786  0.93763  0.73369  1.0000
  C   C1198     1.0  0.33532  0.82835  0.78600  1.0000
  H   H1439     1.0  0.40161  0.74011  0.88012  1.0000
  C   C1199     1.0  0.35082  0.81576  0.78909  1.0000
  Fe  Fe165     1.0  0.48832  0.74852  0.86410  1.0000
  H   H1440     1.0  0.14423  0.73545  0.91792  1.0000
  C   C1200     1.0  0.42077  0.81058  0.97036  1.0000
  H   H1441     1.0  0.15605  0.77210  0.81502  1.0000
  S   S331      1.0  0.32092  0.86161  0.74590  1.0000
  S   S332      1.0  0.36535  0.87683  0.73654  1.0000
  H   H1442     1.0  0.47213  0.84973  0.95724  1.0000
  H   H1443     1.0  0.18162  0.93069  0.67396  1.0000
  C   C1201     1.0  0.34179  0.87476  0.70046  1.0000
  H   H1444     1.0  0.42370  0.74706  0.93794  1.0000
  H   H1445     1.0  0.41484  0.92120  0.74529  1.0000
  H   H1446     1.0  0.01523  0.74771  0.70177  1.0000
  C   C1202     1.0  0.36698  0.83838  0.72312  1.0000
  C   C1203     1.0  0.36487  0.82471  0.73793  1.0000
  C   C1204     1.0  0.35053  0.81668  0.74211  1.0000
  H   H1447     1.0  0.34205  0.88633  0.68923  1.0000
  H   H1448     1.0  0.37807  0.84435  0.72104  1.0000
  C   C1205     1.0  0.20613  0.87434  0.67891  1.0000
  H   H1449     1.0  0.18898  0.78924  0.86131  1.0000
  H   H1450     1.0  0.17220  0.79497  0.87966  1.0000
  C   C1206     1.0  0.18988  0.83937  0.83906  1.0000
  C   C1207     1.0  0.18537  0.79690  0.81785  1.0000
  H   H1451     1.0  0.28503  0.76080  0.80816  1.0000
  C   C1208     1.0  0.13437  0.87202  0.71170  1.0000
  H   H1452     1.0  0.48420  0.82557  0.84654  1.0000
  H   H1453     1.0  0.17404  0.97899  0.76398  1.0000
  H   H1454     1.0  0.38477  0.85347  0.68940  1.0000
  C   C1209     1.0  0.46189  0.79254  0.90981  1.0000
  C   C1210     1.0  0.35397  0.85467  0.68094  1.0000
  H   H1455     1.0  0.19892  0.73736  0.80698  1.0000
  C   C1211     1.0  0.19749  0.84566  0.82150  1.0000
  H   H1456     1.0  0.03978  0.81091  0.70646  1.0000
  H   H1457     1.0  0.28741  0.73746  0.94758  1.0000
  H   H1458     1.0  0.19568  0.80133  0.89099  1.0000
  H   H1459     1.0  0.36752  0.91216  0.77565  1.0000
  Fe  Fe166     1.0  0.33557  0.88117  0.74666  1.0000
  H   H1460     1.0  0.41632  0.81401  0.84126  1.0000
  H   H1461     1.0  0.44574  0.90434  0.86624  1.0000
  C   C1212     1.0  0.03351  0.79131  0.69721  1.0000
  S   S333      1.0  0.22369  0.76006  0.84956  1.0000
  H   H1462     1.0  0.16592  0.90650  0.68970  1.0000
  C   C1213     1.0  0.20111  0.76206  0.90642  1.0000
  S   S334      1.0  0.47659  0.95128  0.83198  1.0000
  H   H1463     1.0  0.16801  0.77556  0.78254  1.0000
  N   N81       1.0  0.41125  0.94218  0.80570  1.0000
  C   C1214     1.0  0.45292  0.90998  0.85347  1.0000
  C   C1215     1.0  0.19447  0.76416  0.92373  1.0000
  H   H1464     1.0  0.36845  0.95178  0.75278  1.0000
  C   C1216     1.0  0.34011  0.83603  0.71669  1.0000
  H   H1465     1.0  0.08549  0.90035  0.67692  1.0000
  S   S335      1.0  0.04870  0.83998  0.65469  1.0000
  H   H1466     1.0  0.19634  0.93024  0.79581  1.0000
  H   H1467     1.0  0.24317  0.76717  0.90079  1.0000
  S   S336      1.0  0.37111  0.82457  0.97526  1.0000
  C   C1217     1.0  0.15267  0.90957  0.66905  1.0000
  C   C1218     1.0  0.42257  0.96392  0.83581  1.0000
  H   H1468     1.0  0.26479  0.94503  0.74360  1.0000
  S   S337      1.0  0.40342  0.90322  0.77958  1.0000
  C   C1219     1.0  0.29952  0.78877  0.79973  1.0000
  H   H1469     1.0  0.11703  0.92282  0.72387  1.0000
  C   C1220     1.0  0.46001  0.92463  0.85132  1.0000
  H   H1470     1.0  0.46262  0.93985  0.73213  1.0000
  H   H1471     1.0  0.21204  0.87383  0.69000  1.0000
  C   C1221     1.0  0.04442  0.80189  0.69766  1.0000
  C   C1222     1.0  0.18599  0.95578  0.78089  1.0000
  C   C1223     1.0  0.21810  0.81769  0.82068  1.0000
  N   N82       1.0  0.38321  0.84368  0.80078  1.0000
  C   C1224     1.0  0.38450  0.84695  0.78171  1.0000
  C   C1225     1.0  0.39349  0.85472  0.80390  1.0000
  C   C1226     1.0  0.39199  0.82499  0.80667  1.0000
  C   C1227     1.0  0.36425  0.84832  0.80964  1.0000
  C   C1228     1.0  0.35473  0.83553  0.82093  1.0000
  C   C1229     1.0  0.35446  0.86602  0.80630  1.0000
  C   C1230     1.0  0.33654  0.84026  0.82815  1.0000
  C   C1231     1.0  0.33632  0.87060  0.81373  1.0000
  C   C1232     1.0  0.32733  0.85771  0.82448  1.0000
  H   H1472     1.0  0.39856  0.84419  0.77431  1.0000
  H   H1473     1.0  0.37721  0.83873  0.77870  1.0000
  H   H1474     1.0  0.37846  0.86079  0.77637  1.0000
  H   H1475     1.0  0.38932  0.86892  0.79800  1.0000
  H   H1476     1.0  0.40793  0.85094  0.79794  1.0000
  H   H1477     1.0  0.39209  0.85337  0.81816  1.0000
  H   H1478     1.0  0.38603  0.81591  0.80325  1.0000
  H   H1479     1.0  0.40637  0.82214  0.80019  1.0000
  H   H1480     1.0  0.39117  0.82147  0.82103  1.0000
  H   H1481     1.0  0.36090  0.82171  0.82405  1.0000
  H   H1482     1.0  0.36063  0.87645  0.79753  1.0000
  H   H1483     1.0  0.32941  0.83024  0.83633  1.0000
  H   H1484     1.0  0.32910  0.88417  0.81076  1.0000
  H   H1485     1.0  0.31315  0.86120  0.82979  1.0000
  S   S338      1.0  0.18846  0.74511  0.85233  1.0000
  C   C1233     1.0  0.44873  0.94219  0.73168  1.0000
  S   S339      1.0  0.31679  0.90430  0.73432  1.0000
  H   H1486     1.0  0.30115  0.80252  0.79392  1.0000
  C   C1234     1.0  0.21064  0.81129  0.83824  1.0000
  H   H1487     1.0  0.34878  0.80636  0.75382  1.0000
  C   C1235     1.0  0.20000  0.80367  0.78724  1.0000
  H   H1488     1.0  0.16500  0.85359  0.68401  1.0000
  C   C1236     1.0  0.03464  0.81775  0.64512  1.0000
  S   S340      1.0  0.10205  0.83121  0.64865  1.0000
  S   S341      1.0  0.35048  0.75387  0.84859  1.0000
  C   C1237     1.0  0.17095  0.93630  0.65103  1.0000
  H   H1489     1.0  0.27078  0.96791  0.76901  1.0000
  H   H1490     1.0  0.44725  0.96929  0.71856  1.0000
  C   C1238     1.0  0.40912  0.81843  0.85364  1.0000
  C   C1239     1.0  0.37508  0.90302  0.76738  1.0000
  H   H1491     1.0  0.32834  0.87187  0.70367  1.0000
  S   S342      1.0  0.21014  0.76993  0.80452  1.0000
  C   C1240     1.0  0.39460  0.87972  0.74572  1.0000
  H   H1492     1.0  0.40218  0.87058  0.73744  1.0000
  C   C1241     1.0  0.24624  0.92314  0.77157  1.0000
  C   C1242     1.0  0.37338  0.86474  0.69176  1.0000
  C   C1243     1.0  0.22466  0.94644  0.73648  1.0000
  H   H1493     1.0  0.22548  0.95764  0.72489  1.0000
  Fe  Fe167     1.0  0.08716  0.88156  0.64696  1.0000
  H   H1494     1.0  0.34025  0.85322  0.68225  1.0000
  H   H1495     1.0  0.37441  0.87540  0.67970  1.0000
  N   N83       1.0  0.19916  0.85839  0.68166  1.0000
  Fe  Fe168     1.0  0.42891  0.88573  0.78632  1.0000
  C   C1244     1.0  0.12243  0.87822  0.70052  1.0000
  H   H1496     1.0  0.38518  0.95916  0.75789  1.0000
  C   C1245     1.0  0.40959  0.95434  0.81698  1.0000
  C   C1246     1.0  0.48768  0.80559  0.91625  1.0000
  H   H1497     1.0  0.14840  0.92635  0.70855  1.0000
  C   C1247     1.0  0.25617  0.82184  0.77656  1.0000
  H   H1498     1.0  0.39868  0.93823  0.78720  1.0000
  S   S343      1.0  0.43991  0.82212  0.80781  1.0000
  C   C1248     1.0  0.38496  0.97001  0.72367  1.0000
  C   C1249     1.0  0.07677  0.95134  0.66220  1.0000
  C   C1250     1.0  0.42339  0.95230  0.82561  1.0000
  C   C1251     1.0  0.43898  0.75502  0.95044  1.0000
  H   H1499     1.0  0.26179  0.94971  0.80916  1.0000
  H   H1500     1.0  0.14041  0.94583  0.77724  1.0000
  H   H1501     1.0  0.10955  0.87160  0.68395  1.0000
  C   C1252     1.0  0.21428  0.84287  0.68155  1.0000
  S   S344      1.0  0.49318  0.95410  0.78061  1.0000
  H   H1502     1.0  0.19934  0.73502  0.97275  1.0000
  C   C1253     1.0  0.43913  0.83154  0.85706  1.0000
  C   C1254     1.0  0.42842  0.94163  0.79259  1.0000
  C   C1255     1.0  0.41094  0.92423  0.81667  1.0000
  C   C1256     1.0  0.11856  0.86664  0.69281  1.0000
  Fe  Fe169     1.0  0.36148  0.78118  0.87476  1.0000
  C   C1257     1.0  0.45219  0.83755  0.95542  1.0000
  H   H1503     1.0  0.22975  0.96316  0.80435  1.0000
  H   H1504     1.0  0.37911  0.75962  0.89811  1.0000
  Fe  Fe170     1.0  0.33170  0.76954  0.86766  1.0000
  Fe  Fe171     1.0  0.44799  0.87800  0.81617  1.0000
  H   H1505     1.0  0.45306  0.78676  0.86500  1.0000
  S   S345      1.0  0.36809  0.79730  0.88937  1.0000
  H   H1506     1.0  0.44009  0.93442  0.79847  1.0000
  C   C1258     1.0  0.38305  0.94971  0.75144  1.0000
  S   S346      1.0  0.44507  0.88527  0.84163  1.0000
  C   C1259     1.0  0.12942  0.95296  0.73757  1.0000
  C   C1260     1.0  0.14162  0.85395  0.71608  1.0000
  C   C1261     1.0  0.42191  0.96219  0.72403  1.0000
  C   C1262     1.0  0.45314  0.80054  0.86132  1.0000
  C   C1263     1.0  0.37647  0.78950  0.92140  1.0000
  C   C1264     1.0  0.44650  0.85935  0.97264  1.0000
  S   S347      1.0  0.07798  0.86180  0.67084  1.0000
  Fe  Fe172     1.0  0.20262  0.74875  0.87082  1.0000
  C   C1265     1.0  0.45822  0.84897  0.96137  1.0000
  Fe  Fe173     1.0  0.46946  0.87486  0.77995  1.0000
  H   H1507     1.0  0.22129  0.84096  0.69224  1.0000
  H   H1508     1.0  0.20032  0.76875  0.94624  1.0000
  C   C1266     1.0  0.13750  0.84228  0.70860  1.0000
  H   H1509     1.0  0.38352  0.94666  0.80494  1.0000
  C   C1267     1.0  0.46432  0.91008  0.82267  1.0000
  N   N84       1.0  0.02699  0.76916  0.68483  1.0000
  C   C1268     1.0  0.13149  0.97136  0.76171  1.0000
  S   S348      1.0  0.08671  0.95555  0.68997  1.0000
  C   C1269     1.0  0.24603  0.81212  0.77337  1.0000
  C   C1270     1.0  0.48323  0.77667  0.82711  1.0000
  C   C1271     1.0  0.44873  0.74660  0.81774  1.0000
  C   C1272     1.0  0.12254  0.95425  0.70928  1.0000
  H   H1510     1.0  0.14331  0.82834  0.71177  1.0000
  C   C1273     1.0  0.43306  0.74224  0.94641  1.0000
  S   S349      1.0  0.44889  0.86522  0.77318  1.0000
  Fe  Fe174     1.0  0.36821  0.74521  0.86787  1.0000
  H   H1511     1.0  0.37470  0.94185  0.72475  1.0000
  H   H1512     1.0  0.39847  0.92416  0.82699  1.0000
  S   S350      1.0  0.45622  0.96850  0.75540  1.0000
  S   S351      1.0  0.44940  0.89716  0.79035  1.0000
  S   S352      1.0  0.12277  0.83418  0.68599  1.0000
  H   H1513     1.0  0.48178  0.79437  0.85520  1.0000
  H   H1514     1.0  0.24903  0.90972  0.79782  1.0000
  C   C1274     1.0  0.38031  0.77784  0.93689  1.0000
  N   N85       1.0  0.39265  0.95202  0.73284  1.0000
  C   C1275     1.0  0.43283  0.75790  0.81410  1.0000
  H   H1515     1.0  0.46196  0.76291  0.83931  1.0000
  C   C1276     1.0  0.42142  0.93199  0.73921  1.0000
  H   H1516     1.0  0.41579  0.80110  0.96637  1.0000
  C   C1277     1.0  0.28088  0.76921  0.81795  1.0000
  C   C1278     1.0  0.37937  0.76476  0.90889  1.0000
  C   C1279     1.0  0.13480  0.94393  0.75352  1.0000
  C   C1280     1.0  0.47452  0.80639  0.81037  1.0000
  H   H1517     1.0  0.25806  0.77293  0.80020  1.0000
  C   C1281     1.0  0.03898  0.77993  0.68530  1.0000
  C   C1282     1.0  0.31707  0.78228  0.92108  1.0000
  C   C1283     1.0  0.41199  0.94883  0.73182  1.0000
  C   C1284     1.0  0.13568  0.95303  0.76543  1.0000
  C   C1285     1.0  0.47266  0.78198  0.92134  1.0000
  C   C1286     1.0  0.47125  0.82229  0.85098  1.0000
  C   C1287     1.0  0.40955  0.81649  0.88364  1.0000
  C   C1288     1.0  0.48776  0.79228  0.81638  1.0000
  C   C1289     1.0  0.46986  0.80478  0.85586  1.0000
  C   C1290     1.0  0.25796  0.97145  0.77835  1.0000
  C   C1291     1.0  0.16503  0.85722  0.65739  1.0000
  C   C1292     1.0  0.45592  0.83561  0.85173  1.0000
  C   C1293     1.0  0.47092  0.92500  0.82042  1.0000
  H   H1518     1.0  0.41699  0.81053  0.89432  1.0000
  S   S353      1.0  0.34805  0.75857  0.88815  1.0000
  H   H1519     1.0  0.38067  0.78295  0.94767  1.0000
  H   H1520     1.0  0.28050  0.79694  0.90324  1.0000
  C   C1294     1.0  0.21877  0.76283  0.89831  1.0000
  H   H1521     1.0  0.38733  0.93628  0.75922  1.0000
  H   H1522     1.0  0.43498  0.94168  0.82444  1.0000
  H   H1523     1.0  0.22441  0.84417  0.66905  1.0000
  Fe  Fe175     1.0  0.22925  0.76736  0.96450  1.0000
  C   C1295     1.0  0.46422  0.80953  0.90117  1.0000
  C   C1296     1.0  0.27619  0.79777  0.82369  1.0000
  H   H1524     1.0  0.37424  0.82056  0.74643  1.0000
  H   H1525     1.0  0.20109  0.97517  0.82145  1.0000
  H   H1526     1.0  0.43058  0.95513  0.78618  1.0000
  C   C1297     1.0  0.33819  0.82231  0.73149  1.0000
  H   H1527     1.0  0.08873  0.91821  0.69584  1.0000
  H   H1528     1.0  0.32538  0.97384  0.76560  1.0000
  C   C1298     1.0  0.38307  0.75312  0.92437  1.0000
  C   C1299     1.0  0.08292  0.91456  0.67286  1.0000
  H   H1529     1.0  0.34137  0.78085  0.94086  1.0000
  H   H1530     1.0  0.42226  0.91886  0.82342  1.0000
  S   S354      1.0  0.30178  0.77456  0.87337  1.0000
  C   C1300     1.0  0.08474  0.92466  0.68355  1.0000
  C   C1301     1.0  0.12493  0.97168  0.73432  1.0000
  H   H1531     1.0  0.38510  0.73910  0.92556  1.0000
  C   C1302     1.0  0.38305  0.75967  0.93855  1.0000
  C   C1303     1.0  0.29043  0.77771  0.94321  1.0000
  H   H1532     1.0  0.32965  0.84051  0.70945  1.0000
  H   H1533     1.0  0.27509  0.82208  0.79026  1.0000
  C   C1304     1.0  0.08208  0.94304  0.67799  1.0000
  Fe  Fe176     1.0  0.10648  0.84693  0.66537  1.0000
  H   H1534     1.0  0.12352  0.91943  0.74387  1.0000
  C   C1305     1.0  0.23221  0.90952  0.75766  1.0000
  H   H1535     1.0  0.03673  0.76790  0.65760  1.0000
  C   C1306     1.0  0.47730  0.81601  0.90426  1.0000
  H   H1536     1.0  0.28471  0.98391  0.77772  1.0000
  H   H1537     1.0  0.24706  0.91983  0.72276  1.0000
  C   C1307     1.0  0.45094  0.75008  0.96140  1.0000
  C   C1308     1.0  0.26876  0.79606  0.79738  1.0000
  H   H1538     1.0  0.25273  0.93299  0.77193  1.0000
  H   H1539     1.0  0.44628  0.91589  0.74532  1.0000
  C   C1309     1.0  0.28023  0.78546  0.93052  1.0000
  H   H1540     1.0  0.26662  0.92132  0.72829  1.0000
  C   C1310     1.0  0.48531  0.78863  0.92481  1.0000
  N   N86       1.0  0.16510  0.75101  0.80102  1.0000
  N   N87       1.0  0.28104  0.78798  0.80950  1.0000
  H   H1541     1.0  0.40668  0.82550  0.94186  1.0000
  H   H1542     1.0  0.14593  0.89923  0.67689  1.0000
  H   H1543     1.0  0.17558  0.86724  0.70040  1.0000
  H   H1544     1.0  0.23487  0.88585  0.79888  1.0000
  C   C1311     1.0  0.26737  0.81399  0.78837  1.0000
  C   C1312     1.0  0.23035  0.89613  0.77275  1.0000
  N   N88       1.0  0.12936  0.94299  0.72486  1.0000
  H   H1545     1.0  0.12231  0.94630  0.70019  1.0000
  H   H1546     1.0  0.04668  0.74922  0.67272  1.0000
  C   C1313     1.0  0.05628  0.77941  0.67427  1.0000
  H   H1547     1.0  0.12084  0.97972  0.72252  1.0000
  C   C1314     1.0  0.26955  0.96020  0.80461  1.0000
  H   H1548     1.0  0.22716  0.90896  0.74686  1.0000
  H   H1549     1.0  0.32675  0.81640  0.73505  1.0000
  H   H1550     1.0  0.25549  0.83550  0.76968  1.0000
  S   S355      1.0  0.48345  0.79912  0.96989  1.0000
  Fe  Fe177     1.0  0.47341  0.97612  0.76831  1.0000
  H   H1551     1.0  0.31303  0.79423  0.89486  1.0000
  H   H1552     1.0  0.06163  0.77139  0.66461  1.0000
  H   H1553     1.0  0.02461  0.75151  0.67055  1.0000
  H   H1554     1.0  0.13114  0.96364  0.70151  1.0000
  C   C1315     1.0  0.28839  0.79131  0.91315  1.0000
  H   H1555     1.0  0.02066  0.79228  0.70615  1.0000
  H   H1556     1.0  0.27756  0.81169  0.81862  1.0000
  H   H1557     1.0  0.26220  0.79791  0.83101  1.0000
  H   H1558     1.0  0.39568  0.81529  0.85743  1.0000
  S   S356      1.0  0.45938  0.74943  0.87576  1.0000
  C   C1316     1.0  0.39373  0.97983  0.83016  1.0000
  H   H1559     1.0  0.27254  0.75854  0.91397  1.0000
  C   C1317     1.0  0.39453  0.96835  0.81977  1.0000
  H   H1560     1.0  0.29033  0.76360  0.82689  1.0000
  C   C1318     1.0  0.11808  0.92988  0.73338  1.0000
  H   H1561     1.0  0.27157  0.96312  0.81640  1.0000
  C   C1319     1.0  0.41218  0.83414  0.94653  1.0000
  H   H1562     1.0  0.00066  0.77302  0.68038  1.0000
  C   C1320     1.0  0.16377  0.75822  0.81633  1.0000
  H   H1563     1.0  0.28489  0.79173  0.83336  1.0000
  C   C1321     1.0  0.07810  0.92293  0.65681  1.0000
  H   H1564     1.0  0.21693  0.87595  0.66701  1.0000
  N   N89       1.0  0.42719  0.82396  0.95507  1.0000
  H   H1565     1.0  0.15336  0.92369  0.72923  1.0000
  N   N90       1.0  0.31960  0.76760  0.95264  1.0000
  C   C1322     1.0  0.00959  0.78063  0.68187  1.0000
  H   H1566     1.0  0.25196  0.95981  0.78196  1.0000
  H   H1567     1.0  0.41999  0.96635  0.75989  1.0000
  H   H1568     1.0  0.40742  0.83102  0.88135  1.0000
  H   H1569     1.0  0.23917  0.78692  0.77954  1.0000
  C   C1323     1.0  0.02393  0.75633  0.70178  1.0000
  H   H1570     1.0  0.43496  0.80575  0.93787  1.0000
  C   C1324     1.0  0.06118  0.80121  0.68655  1.0000
  H   H1571     1.0  0.29502  0.75187  0.91714  1.0000
  H   H1572     1.0  0.28283  0.95452  0.79716  1.0000
  C   C1325     1.0  0.17320  0.92710  0.66776  1.0000
  H   H1573     1.0  0.00214  0.78715  0.69291  1.0000
  H   H1574     1.0  0.31765  0.74269  0.85997  1.0000
  H   H1575     1.0  0.12010  0.90452  0.66813  1.0000
  C   C1326     1.0  0.21209  0.98153  0.81886  1.0000
  C   C1327     1.0  0.06716  0.78987  0.67504  1.0000
  H   H1576     1.0  0.40080  0.84073  0.95557  1.0000
  H   H1577     1.0  0.45572  0.75997  0.96431  1.0000
  N   N91       1.0  0.26044  0.97622  0.79375  1.0000
  H   H1578     1.0  0.46201  0.83008  0.94653  1.0000
  C   C1328     1.0  0.33888  0.76731  0.94618  1.0000
  C   C1329     1.0  0.42053  0.98008  0.75656  1.0000
  H   H1579     1.0  0.43353  0.96217  0.84197  1.0000
  H   H1580     1.0  0.15685  0.94297  0.71260  1.0000
  Fe  Fe178     1.0  0.46369  0.75978  0.89658  1.0000
  H   H1581     1.0  0.32207  0.74157  0.94927  1.0000
  C   C1330     1.0  0.40777  0.97771  0.83805  1.0000
  C   C1331     1.0  0.28449  0.74746  0.91408  1.0000
  S   S357      1.0  0.49176  0.76136  0.88350  1.0000
  C   C1332     1.0  0.44065  0.81441  0.94230  1.0000
  C   C1333     1.0  0.14779  0.93360  0.71851  1.0000
  H   H1582     1.0  0.44589  0.82375  0.93034  1.0000
  H   H1583     1.0  0.23738  0.81822  0.76416  1.0000
  H   H1584     1.0  0.06942  0.80977  0.68660  1.0000
  H   H1585     1.0  0.47919  0.82913  0.89757  1.0000
  C   C1334     1.0  0.22862  0.97484  0.80887  1.0000
  C   C1335     1.0  0.12610  0.98066  0.74622  1.0000
  H   H1586     1.0  0.31318  0.79148  0.96195  1.0000
  H   H1587     1.0  0.43302  0.77073  0.80536  1.0000
  H   H1588     1.0  0.21237  0.86608  0.64602  1.0000
  H   H1589     1.0  0.32599  0.74218  0.96973  1.0000
  H   H1590     1.0  0.15721  0.75024  0.82868  1.0000
  Fe  Fe179     1.0  0.48197  0.96612  0.80407  1.0000
  H   H1591     1.0  0.17662  0.75618  0.77337  1.0000
  H   H1592     1.0  0.39696  0.93962  0.71137  1.0000
  C   C1336     1.0  0.07444  0.94134  0.65184  1.0000
  H   H1593     1.0  0.18936  0.97726  0.69335  1.0000
  H   H1594     1.0  0.11543  0.93603  0.65501  1.0000
  H   H1595     1.0  0.26482  0.74623  0.94621  1.0000
  C   C1337     1.0  0.24306  0.98330  0.80456  1.0000
  C   C1338     1.0  0.19901  0.86390  0.64966  1.0000
  H   H1596     1.0  0.13719  0.88887  0.65710  1.0000
  Fe  Fe180     1.0  0.07433  0.84809  0.65192  1.0000
  H   H1597     1.0  0.49345  0.78042  0.93388  1.0000
  H   H1598     1.0  0.03672  0.74760  0.70462  1.0000
  C   C1339     1.0  0.27746  0.73825  0.85754  1.0000
  C   C1340     1.0  0.42267  0.84643  0.97278  1.0000
  H   H1599     1.0  0.48013  0.73642  0.83110  1.0000
  H   H1600     1.0  0.32109  0.77190  0.97713  1.0000
  S   S358      1.0  0.16149  0.97698  0.67752  1.0000
  H   H1601     1.0  0.24949  0.98261  0.77087  1.0000
  H   H1602     1.0  0.02192  0.82413  0.65203  1.0000
  H   H1603     1.0  0.36717  0.86104  0.97412  1.0000
  C   C1341     1.0  0.41633  0.73642  0.83299  1.0000
  H   H1604     1.0  0.11736  0.90021  0.64906  1.0000
  H   H1605     1.0  0.17759  0.94709  0.64433  1.0000
  N   N92       1.0  0.13638  0.91621  0.64434  1.0000
  C   C1342     1.0  0.05009  0.82312  0.64430  1.0000
  H   H1606     1.0  0.45129  0.86825  0.97709  1.0000
  H   H1607     1.0  0.56521  0.04507  0.08689  1.0000
  Fe  Fe181     1.0  0.67418  0.99858  0.14699  1.0000
  C   C1343     1.0  0.92687  0.15013  0.19641  1.0000
  C   C1344     1.0  0.68784  0.13069  0.05225  1.0000
  C   C1345     1.0  0.59658  0.11745  0.99663  1.0000
  C   C1346     1.0  0.61433  0.04988  0.05702  1.0000
  C   C1347     1.0  0.81496  0.20465  0.04780  1.0000
  H   H1608     1.0  0.69642  0.12966  0.06130  1.0000
  H   H1609     1.0  0.60186  0.03431  0.00868  1.0000
  H   H1610     1.0  0.99448  0.11319  0.28788  1.0000
  H   H1611     1.0  0.78408  0.08549  0.24247  1.0000
  Fe  Fe182     1.0  0.84114  0.21179  0.08956  1.0000
  H   H1612     1.0  0.98213  0.20983  0.16761  1.0000
  H   H1613     1.0  0.61646  0.01824  0.03239  1.0000
  H   H1614     1.0  0.81192  0.19258  0.09183  1.0000
  H   H1615     1.0  0.67375  0.13408  0.05930  1.0000
  H   H1616     1.0  0.77003  0.02238  0.25474  1.0000
  H   H1617     1.0  0.85907  0.06149  0.28906  1.0000
  C   C1348     1.0  0.57430  0.03200  0.08609  1.0000
  H   H1618     1.0  0.93599  0.13724  0.22022  1.0000
  C   C1349     1.0  0.72896  0.00482  0.16326  1.0000
  H   H1619     1.0  0.57897  0.10495  0.01879  1.0000
  C   C1350     1.0  0.70120  0.07031  0.07884  1.0000
  C   C1351     1.0  0.77188  0.22423  0.13207  1.0000
  Fe  Fe183     1.0  0.82839  0.20870  0.12876  1.0000
  S   S359      1.0  0.85083  0.19254  0.11251  1.0000
  S   S360      1.0  0.81210  0.19567  0.15363  1.0000
  C   C1352     1.0  0.58903  0.06551  0.03647  1.0000
  S   S361      1.0  0.64470  0.09325  0.99469  1.0000
  H   H1620     1.0  0.94499  0.16332  0.22243  1.0000
  Fe  Fe184     1.0  0.53684  0.09369  0.98906  1.0000
  H   H1621     1.0  0.89196  0.18118  0.17751  1.0000
  C   C1353     1.0  0.82608  0.06421  0.30252  1.0000
  S   S362      1.0  0.67760  0.00135  0.17265  1.0000
  C   C1354     1.0  0.97487  0.16918  0.17241  1.0000
  S   S363      1.0  0.73435  0.01754  0.26947  1.0000
  H   H1622     1.0  0.58724  0.05934  0.99194  1.0000
  S   S364      1.0  0.79153  0.16994  0.98393  1.0000
  H   H1623     1.0  0.79847  0.05496  0.25440  1.0000
  Fe  Fe185     1.0  0.97831  0.10503  0.26116  1.0000
  H   H1624     1.0  0.57157  0.02311  0.09925  1.0000
  S   S365      1.0  0.96384  0.09963  0.28960  1.0000
  H   H1625     1.0  0.79547  0.09280  0.25396  1.0000
  Fe  Fe186     1.0  0.97548  0.10267  0.22551  1.0000
  S   S366      1.0  0.95768  0.10094  0.20935  1.0000
  S   S367      1.0  0.55021  0.99249  0.09323  1.0000
  S   S368      1.0  0.96482  0.12415  0.24048  1.0000
  Fe  Fe187     1.0  0.83397  0.10722  0.25628  1.0000
  S   S369      1.0  0.84038  0.07945  0.25296  1.0000
  S   S370      1.0  0.81677  0.11190  0.28219  1.0000
  Fe  Fe188     1.0  0.85420  0.12055  0.21948  1.0000
  S   S371      1.0  0.86247  0.09381  0.21308  1.0000
  S   S372      1.0  0.86486  0.14267  0.19929  1.0000
  Fe  Fe189     1.0  0.83439  0.09164  0.22636  1.0000
  S   S373      1.0  0.81582  0.08473  0.21439  1.0000
  Fe  Fe190     1.0  0.86777  0.08422  0.24023  1.0000
  S   S374      1.0  0.89212  0.06578  0.24853  1.0000
  S   S375      1.0  0.82560  0.11918  0.23074  1.0000
  S   S376      1.0  0.86184  0.11110  0.24556  1.0000
  C   C1355     1.0  0.78300  0.08854  0.25531  1.0000
  N   N93       1.0  0.61454  0.05860  0.97844  1.0000
  C   C1356     1.0  0.77832  0.09569  0.30640  1.0000
  Fe  Fe191     1.0  0.78689  0.99933  0.22586  1.0000
  S   S377      1.0  0.81292  0.00480  0.22628  1.0000
  C   C1357     1.0  0.90851  0.08989  0.29779  1.0000
  C   C1358     1.0  0.61489  0.03631  0.00757  1.0000
  H   H1626     1.0  0.89934  0.22548  0.13910  1.0000
  C   C1359     1.0  0.77449  0.06373  0.30297  1.0000
  H   H1627     1.0  0.50378  0.00968  0.05218  1.0000
  Fe  Fe192     1.0  0.68104  0.00772  0.10722  1.0000
  S   S378      1.0  0.69560  0.02312  0.08252  1.0000
  C   C1360     1.0  0.59726  0.03961  0.09413  1.0000
  H   H1628     1.0  0.64655  0.02130  0.03192  1.0000
  C   C1361     1.0  0.56036  0.04014  0.00323  1.0000
  C   C1362     1.0  0.68446  0.07042  0.08990  1.0000
  Fe  Fe193     1.0  0.67741  0.12386  0.98546  1.0000
  S   S379      1.0  0.68443  0.09496  0.99725  1.0000
  S   S380      1.0  0.51345  0.11108  0.97800  1.0000
  Fe  Fe194     1.0  0.86574  0.21250  0.11177  1.0000
  C   C1363     1.0  0.67298  0.09889  0.07279  1.0000
  Fe  Fe195     1.0  0.65651  0.09976  0.01339  1.0000
  S   S381      1.0  0.64777  0.08950  0.04239  1.0000
  H   H1629     1.0  0.67613  0.04035  0.16889  1.0000
  S   S382      1.0  0.75490  0.17332  0.02704  1.0000
  H   H1630     1.0  0.68328  0.03983  0.13930  1.0000
  H   H1631     1.0  0.89303  0.12372  0.28871  1.0000
  C   C1364     1.0  0.62317  0.04802  0.99310  1.0000
  H   H1632     1.0  0.67237  0.15679  0.00208  1.0000
  C   C1365     1.0  0.78159  0.01935  0.27651  1.0000
  C   C1366     1.0  0.68178  0.04038  0.07064  1.0000
  C   C1367     1.0  0.68915  0.04936  0.05396  1.0000
  C   C1368     1.0  0.67865  0.06407  0.04485  1.0000
  C   C1369     1.0  0.66082  0.07006  0.05256  1.0000
  S   S383      1.0  0.66400  0.99052  0.10603  1.0000
  C   C1370     1.0  0.66375  0.04592  0.07802  1.0000
  H   H1633     1.0  0.70308  0.04508  0.04820  1.0000
  H   H1634     1.0  0.68452  0.07099  0.03211  1.0000
  H   H1635     1.0  0.68934  0.08203  0.14152  1.0000
  H   H1636     1.0  0.57920  0.07165  0.02847  1.0000
  C   C1371     1.0  0.76262  0.20764  0.11714  1.0000
  C   C1372     1.0  0.59985  0.12456  0.97861  1.0000
  Fe  Fe196     1.0  0.76913  0.18573  0.00050  1.0000
  C   C1373     1.0  0.76220  0.01445  0.30527  1.0000
  C   C1374     1.0  0.99040  0.10584  0.30103  1.0000
  H   H1637     1.0  0.51295  0.03560  0.01921  1.0000
  H   H1638     1.0  0.93703  0.07871  0.29668  1.0000
  H   H1639     1.0  0.76540  0.19894  0.14395  1.0000
  H   H1640     1.0  0.93717  0.18094  0.14932  1.0000
  C   C1375     1.0  0.60436  0.01553  0.07947  1.0000
  C   C1376     1.0  0.81531  0.06244  0.21797  1.0000
  C   C1377     1.0  0.82768  0.04895  0.22594  1.0000
  C   C1378     1.0  0.82682  0.03126  0.22853  1.0000
  C   C1379     1.0  0.81354  0.02704  0.22329  1.0000
  C   C1380     1.0  0.80117  0.04060  0.21543  1.0000
  C   C1381     1.0  0.80205  0.05822  0.21278  1.0000
  H   H1641     1.0  0.83802  0.05210  0.22991  1.0000
  H   H1642     1.0  0.83653  0.02083  0.23449  1.0000
  H   H1643     1.0  0.79125  0.03752  0.21087  1.0000
  H   H1644     1.0  0.79252  0.06859  0.20651  1.0000
  C   C1382     1.0  0.91074  0.07482  0.23728  1.0000
  C   C1383     1.0  0.90919  0.08949  0.22341  1.0000
  C   C1384     1.0  0.92381  0.09712  0.21473  1.0000
  C   C1385     1.0  0.93990  0.09057  0.22026  1.0000
  C   C1386     1.0  0.94153  0.07591  0.23418  1.0000
  C   C1387     1.0  0.92698  0.06790  0.24257  1.0000
  H   H1645     1.0  0.89676  0.09489  0.21919  1.0000
  H   H1646     1.0  0.92259  0.10819  0.20375  1.0000
  H   H1647     1.0  0.95406  0.07061  0.23827  1.0000
  H   H1648     1.0  0.92826  0.05647  0.25323  1.0000
  H   H1649     1.0  0.78346  0.22950  0.06798  1.0000
  H   H1650     1.0  0.66883  0.06121  0.15462  1.0000
  C   C1388     1.0  0.67680  0.05454  0.16478  1.0000
  H   H1651     1.0  0.68751  0.08257  0.16393  1.0000
  S   S384      1.0  0.98677  0.08265  0.24726  1.0000
  C   C1389     1.0  0.82643  0.18233  0.16737  1.0000
  C   C1390     1.0  0.81970  0.17192  0.18345  1.0000
  C   C1391     1.0  0.83135  0.16001  0.19365  1.0000
  C   C1392     1.0  0.84974  0.15859  0.18785  1.0000
  C   C1393     1.0  0.85638  0.16941  0.17206  1.0000
  C   C1394     1.0  0.84479  0.18120  0.16183  1.0000
  H   H1652     1.0  0.80550  0.17285  0.18786  1.0000
  H   H1653     1.0  0.82609  0.15194  0.20595  1.0000
  H   H1654     1.0  0.87056  0.16827  0.16742  1.0000
  H   H1655     1.0  0.85015  0.18920  0.14951  1.0000
  C   C1395     1.0  0.59736  0.04554  0.06321  1.0000
  H   H1656     1.0  0.75258  0.07716  0.27231  1.0000
  C   C1396     1.0  0.60560  0.06993  0.03113  1.0000
  H   H1657     1.0  0.92733  0.20136  0.12247  1.0000
  C   C1397     1.0  0.75103  0.01815  0.27928  1.0000
  H   H1658     1.0  0.79537  0.20390  0.03471  1.0000
  C   C1398     1.0  0.74820  0.01545  0.29752  1.0000
  H   H1659     1.0  0.82362  0.20982  0.03580  1.0000
  H   H1660     1.0  0.60519  0.11820  0.00441  1.0000
  C   C1399     1.0  0.56015  0.00972  0.00592  1.0000
  C   C1400     1.0  0.71293  0.00292  0.16098  1.0000
  C   C1401     1.0  0.88177  0.04994  0.29990  1.0000
  S   S385      1.0  0.74015  0.98935  0.23339  1.0000
  Fe  Fe197     1.0  0.97515  0.22163  0.12710  1.0000
  H   H1661     1.0  0.95120  0.21623  0.10399  1.0000
  H   H1662     1.0  0.60139  0.00586  0.09204  1.0000
  H   H1663     1.0  0.77518  0.22526  0.14376  1.0000
  C   C1402     1.0  0.50704  0.02194  0.05282  1.0000
  H   H1664     1.0  0.50585  0.02181  0.06681  1.0000
  C   C1403     1.0  0.69835  0.21256  0.98029  1.0000
  S   S386      1.0  0.81724  0.22611  0.10587  1.0000
  C   C1404     1.0  0.69874  0.00086  0.17535  1.0000
  H   H1665     1.0  0.68221  0.05909  0.10037  1.0000
  H   H1666     1.0  0.93181  0.08201  0.26820  1.0000
  S   S387      1.0  0.98915  0.21720  0.10015  1.0000
  Fe  Fe198     1.0  0.56413  0.99079  0.06563  1.0000
  S   S388      1.0  0.52283  0.07150  0.00201  1.0000
  C   C1405     1.0  0.76773  0.02018  0.26884  1.0000
  H   H1667     1.0  0.62463  0.04410  0.06442  1.0000
  S   S389      1.0  0.74481  0.20368  0.99204  1.0000
  S   S390      1.0  0.83937  0.20697  0.06425  1.0000
  C   C1406     1.0  0.56636  0.03559  0.01877  1.0000
  S   S391      1.0  0.79661  0.01566  0.30381  1.0000
  C   C1407     1.0  0.98745  0.18761  0.18894  1.0000
  C   C1408     1.0  0.82827  0.11683  0.29502  1.0000
  C   C1409     1.0  0.84250  0.12519  0.28720  1.0000
  H   H1668     1.0  0.78016  0.10801  0.30770  1.0000
  H   H1669     1.0  0.79633  0.04683  0.27744  1.0000
  H   H1670     1.0  0.99226  0.19480  0.19538  1.0000
  H   H1671     1.0  0.84590  0.12958  0.27314  1.0000
  H   H1672     1.0  0.86253  0.13552  0.29152  1.0000
  H   H1673     1.0  0.61881  0.01521  0.07670  1.0000
  C   C1410     1.0  0.85190  0.12859  0.29762  1.0000
  H   H1674     1.0  0.59218  0.03230  0.10754  1.0000
  C   C1411     1.0  0.92468  0.16563  0.18299  1.0000
  H   H1675     1.0  0.73965  0.00723  0.15197  1.0000
  N   N94       1.0  0.78078  0.07305  0.27002  1.0000
  H   H1676     1.0  0.90641  0.12819  0.26695  1.0000
  H   H1677     1.0  0.61178  0.03767  0.09307  1.0000
  S   S392      1.0  0.96719  0.19719  0.14576  1.0000
  C   C1412     1.0  0.58175  0.10993  0.00475  1.0000
  S   S393      1.0  0.50112  0.99311  0.09590  1.0000
  H   H1678     1.0  0.63958  0.06546  0.07510  1.0000
  C   C1413     1.0  0.93658  0.23057  0.08393  1.0000
  H   H1679     1.0  0.66151  0.10940  0.07072  1.0000
  H   H1680     1.0  0.99105  0.05840  0.30998  1.0000
  H   H1681     1.0  0.96984  0.16198  0.16617  1.0000
  H   H1682     1.0  0.80908  0.06308  0.26632  1.0000
  S   S394      1.0  0.57636  0.01275  0.04756  1.0000
  C   C1414     1.0  0.70100  0.99957  0.19216  1.0000
  N   N95       1.0  0.90990  0.10069  0.27967  1.0000
  H   H1683     1.0  0.71397  0.10046  0.02897  1.0000
  H   H1684     1.0  0.68122  0.10308  0.03124  1.0000
  H   H1685     1.0  0.77150  0.09988  0.25693  1.0000
  C   C1415     1.0  0.92774  0.09631  0.26814  1.0000
  H   H1686     1.0  0.68175  0.12589  0.02241  1.0000
  H   H1687     1.0  0.77318  0.05101  0.30237  1.0000
  S   S395      1.0  0.61570  0.01098  0.12935  1.0000
  H   H1688     1.0  0.65794  0.03904  0.09084  1.0000
  H   H1689     1.0  0.66174  0.04133  0.00702  1.0000
  H   H1690     1.0  0.55832  0.05367  0.99615  1.0000
  H   H1691     1.0  0.78401  0.10325  0.27878  1.0000
  C   C1416     1.0  0.98179  0.19611  0.17319  1.0000
  C   C1417     1.0  0.71709  0.15394  0.99091  1.0000
  H   H1692     1.0  0.68847  0.20438  0.98783  1.0000
  C   C1418     1.0  0.77844  0.07669  0.28748  1.0000
  H   H1693     1.0  0.60347  0.08109  0.99015  1.0000
  C   C1419     1.0  0.97572  0.09814  0.30533  1.0000
  H   H1694     1.0  0.89069  0.05373  0.28745  1.0000
  H   H1695     1.0  0.91641  0.12205  0.28562  1.0000
  H   H1696     1.0  0.73106  0.16684  0.00097  1.0000
  H   H1697     1.0  0.75844  0.19599  0.11720  1.0000
  Fe  Fe199     1.0  0.75687  0.00198  0.20851  1.0000
  H   H1698     1.0  0.71718  0.08331  0.05644  1.0000
  S   S396      1.0  0.73391  0.21351  0.03109  1.0000
  S   S397      1.0  0.70389  0.18651  0.02441  1.0000
  N   N96       1.0  0.69554  0.05658  0.15841  1.0000
  C   C1420     1.0  0.70440  0.04864  0.17342  1.0000
  C   C1421     1.0  0.69532  0.07568  0.15319  1.0000
  C   C1422     1.0  0.70536  0.04830  0.14335  1.0000
  C   C1423     1.0  0.69707  0.04068  0.13486  1.0000
  C   C1424     1.0  0.72371  0.04820  0.13635  1.0000
  C   C1425     1.0  0.70670  0.03325  0.12049  1.0000
  C   C1426     1.0  0.73321  0.04063  0.12204  1.0000
  C   C1427     1.0  0.72472  0.03315  0.11414  1.0000
  H   H1699     1.0  0.71844  0.04989  0.17033  1.0000
  H   H1700     1.0  0.69742  0.05468  0.18491  1.0000
  H   H1701     1.0  0.70452  0.03440  0.17782  1.0000
  H   H1702     1.0  0.70895  0.07821  0.14980  1.0000
  H   H1703     1.0  0.66992  0.06035  0.17645  1.0000
  H   H1704     1.0  0.73096  0.05379  0.14201  1.0000
  H   H1705     1.0  0.70024  0.02719  0.11443  1.0000
  H   H1706     1.0  0.74731  0.04037  0.11719  1.0000
  H   H1707     1.0  0.73210  0.02710  0.10316  1.0000
  C   C1428     1.0  0.62327  0.02681  0.02136  1.0000
  C   C1429     1.0  0.86340  0.05423  0.30101  1.0000
  C   C1430     1.0  0.92092  0.23319  0.07823  1.0000
  C   C1431     1.0  0.92546  0.21021  0.11015  1.0000
  C   C1432     1.0  0.67956  0.11583  0.03479  1.0000
  C   C1433     1.0  0.79253  0.19118  0.07865  1.0000
  C   C1434     1.0  0.55707  0.02730  0.99687  1.0000
  H   H1708     1.0  0.55759  0.99973  0.00105  1.0000
  H   H1709     1.0  0.59108  0.05382  0.09360  1.0000
  C   C1435     1.0  0.81965  0.20166  0.06389  1.0000
  H   H1710     1.0  0.89514  0.22696  0.08446  1.0000
  C   C1436     1.0  0.65336  0.06086  0.06908  1.0000
  H   H1711     1.0  0.69005  0.14217  0.04123  1.0000
  S   S398      1.0  0.76288  0.02059  0.22100  1.0000
  H   H1712     1.0  0.63123  0.06528  0.03696  1.0000
  H   H1713     1.0  0.79446  0.02086  0.26823  1.0000
  C   C1437     1.0  0.56614  0.00514  0.02157  1.0000
  C   C1438     1.0  0.56920  0.01812  0.02798  1.0000
  H   H1714     1.0  0.60869  0.07952  0.01912  1.0000
  S   S399      1.0  0.89233  0.20368  0.11922  1.0000
  Fe  Fe200     1.0  0.50092  0.08750  0.98856  1.0000
  S   S400      1.0  0.54805  0.03378  0.97824  1.0000
  H   H1715     1.0  0.60599  0.99027  0.02297  1.0000
  S   S401      1.0  0.76694  0.19103  0.06232  1.0000
  H   H1716     1.0  0.76619  0.06493  0.25605  1.0000
  C   C1439     1.0  0.77891  0.01643  0.29472  1.0000
  C   C1440     1.0  0.58773  0.99820  0.12894  1.0000
  C   C1441     1.0  0.71827  0.16460  0.00131  1.0000
  H   H1717     1.0  0.64754  0.05811  0.98278  1.0000
  Fe  Fe201     1.0  0.67192  0.09156  0.97732  1.0000
  C   C1442     1.0  0.73101  0.00424  0.17997  1.0000
  H   H1718     1.0  0.92809  0.10354  0.25427  1.0000
  Fe  Fe202     1.0  0.74893  0.00573  0.24618  1.0000
  C   C1443     1.0  0.71718  0.00104  0.19451  1.0000
  H   H1719     1.0  0.89871  0.10459  0.25713  1.0000
  C   C1444     1.0  0.64013  0.02857  0.02114  1.0000
  C   C1445     1.0  0.90951  0.21335  0.10486  1.0000
  C   C1446     1.0  0.98672  0.16992  0.19651  1.0000
  S   S402      1.0  0.85830  0.23032  0.08721  1.0000
  H   H1720     1.0  0.65723  0.08444  0.09517  1.0000
  C   C1447     1.0  0.59673  0.05543  0.98006  1.0000
  H   H1721     1.0  0.56857  0.04568  0.02376  1.0000
  Fe  Fe203     1.0  0.99121  0.13140  0.22796  1.0000
  N   N97       1.0  0.83353  0.12085  0.16561  1.0000
  C   C1448     1.0  0.81910  0.12576  0.18052  1.0000
  C   C1449     1.0  0.83799  0.10131  0.16867  1.0000
  C   C1450     1.0  0.84959  0.12642  0.16577  1.0000
  C   C1451     1.0  0.82783  0.12982  0.14890  1.0000
  C   C1452     1.0  0.82681  0.12055  0.13683  1.0000
  C   C1453     1.0  0.82327  0.14850  0.14415  1.0000
  C   C1454     1.0  0.82176  0.12958  0.12098  1.0000
  C   C1455     1.0  0.81826  0.15738  0.12831  1.0000
  C   C1456     1.0  0.81756  0.14794  0.11671  1.0000
  H   H1722     1.0  0.82300  0.11936  0.19331  1.0000
  H   H1723     1.0  0.81553  0.14013  0.17989  1.0000
  H   H1724     1.0  0.80682  0.12165  0.18097  1.0000
  H   H1725     1.0  0.82624  0.09606  0.16960  1.0000
  H   H1726     1.0  0.84226  0.09511  0.18134  1.0000
  H   H1727     1.0  0.84915  0.09652  0.15826  1.0000
  H   H1728     1.0  0.86078  0.12297  0.15476  1.0000
  H   H1729     1.0  0.84717  0.14084  0.16449  1.0000
  H   H1730     1.0  0.85421  0.12018  0.17824  1.0000
  H   H1731     1.0  0.82990  0.10636  0.13929  1.0000
  H   H1732     1.0  0.82364  0.15648  0.15262  1.0000
  H   H1733     1.0  0.82118  0.12231  0.11188  1.0000
  H   H1734     1.0  0.81501  0.17168  0.12504  1.0000
  H   H1735     1.0  0.81378  0.15488  0.10435  1.0000
  C   C1457     1.0  0.70288  0.17246  0.01196  1.0000
  N   N98       1.0  0.59324  0.03340  0.08041  1.0000
  H   H1736     1.0  0.82294  0.98996  0.28362  1.0000
  C   C1458     1.0  0.78763  0.19453  0.06256  1.0000
  S   S403      1.0  0.74988  0.00987  0.18194  1.0000
  H   H1737     1.0  0.81384  0.99189  0.26527  1.0000
  Fe  Fe204     1.0  0.64505  0.00188  0.12816  1.0000
  C   C1459     1.0  0.78049  0.09276  0.28971  1.0000
  H   H1738     1.0  0.52138  0.02110  0.04636  1.0000
  H   H1739     1.0  0.89776  0.08399  0.27239  1.0000
  S   S404      1.0  0.55251  0.09865  0.00553  1.0000
  C   C1460     1.0  0.76508  0.06721  0.26924  1.0000
  C   C1461     1.0  0.79684  0.05888  0.26692  1.0000
  H   H1740     1.0  0.67442  0.17571  0.02046  1.0000
  C   C1462     1.0  0.64865  0.03988  0.00714  1.0000
  C   C1463     1.0  0.61828  0.06197  0.04127  1.0000
  H   H1741     1.0  0.57057  0.02617  0.07715  1.0000
  H   H1742     1.0  0.56844  0.99158  0.02862  1.0000
  C   C1464     1.0  0.68983  0.09919  0.06115  1.0000
  C   C1465     1.0  0.60615  0.99477  0.12746  1.0000
  C   C1466     1.0  0.93395  0.14944  0.21051  1.0000
  Fe  Fe205     1.0  0.73080  0.19280  0.01937  1.0000
  H   H1743     1.0  0.60191  0.01061  0.06906  1.0000
  H   H1744     1.0  0.76345  0.05452  0.27851  1.0000
  C   C1467     1.0  0.57047  0.10889  0.99484  1.0000
  C   C1468     1.0  0.93894  0.16409  0.21179  1.0000
  H   H1745     1.0  0.92357  0.13819  0.19621  1.0000
  H   H1746     1.0  0.56574  0.98842  0.12782  1.0000
  C   C1469     1.0  0.58493  0.05338  0.05221  1.0000
  H   H1747     1.0  0.83048  0.07690  0.29828  1.0000
  C   C1470     1.0  0.97532  0.18693  0.16498  1.0000
  H   H1748     1.0  0.71137  0.00366  0.14802  1.0000
  C   C1471     1.0  0.79894  0.20125  0.04715  1.0000
  S   S405      1.0  0.65010  0.12910  0.00270  1.0000
  C   C1472     1.0  0.93687  0.17953  0.19893  1.0000
  H   H1749     1.0  0.90083  0.14825  0.18029  1.0000
  H   H1750     1.0  0.92264  0.13870  0.16865  1.0000
  H   H1751     1.0  0.87963  0.09833  0.30571  1.0000
  C   C1473     1.0  0.70057  0.15102  0.99124  1.0000
  C   C1474     1.0  0.68520  0.15876  0.00200  1.0000
  C   C1475     1.0  0.49853  0.03751  0.02568  1.0000
  C   C1476     1.0  0.91164  0.15068  0.16844  1.0000
  H   H1752     1.0  0.51592  0.05220  0.04041  1.0000
  H   H1753     1.0  0.72029  0.11159  0.04208  1.0000
  C   C1477     1.0  0.93894  0.21880  0.09973  1.0000
  H   H1754     1.0  0.90606  0.15206  0.15691  1.0000
  H   H1755     1.0  0.94146  0.19067  0.19960  1.0000
  C   C1478     1.0  0.89671  0.09821  0.27135  1.0000
  N   N99       1.0  0.91796  0.16658  0.16747  1.0000
  C   C1479     1.0  0.93003  0.18029  0.18464  1.0000
  H   H1756     1.0  0.94419  0.15753  0.15271  1.0000
  H   H1757     1.0  0.89700  0.18257  0.15427  1.0000
  S   S406      1.0  0.66109  0.02070  0.12786  1.0000
  C   C1480     1.0  0.90729  0.22470  0.08877  1.0000
  C   C1481     1.0  0.70397  0.08446  0.06466  1.0000
  H   H1758     1.0  0.90674  0.19467  0.16269  1.0000
  C   C1482     1.0  0.93242  0.16868  0.15157  1.0000
  H   H1759     1.0  0.88275  0.10405  0.27715  1.0000
  H   H1760     1.0  0.71190  0.05883  0.08090  1.0000
  H   H1761     1.0  0.92801  0.16928  0.13955  1.0000
  S   S407      1.0  0.77587  0.20584  0.01019  1.0000
  C   C1483     1.0  0.90280  0.18193  0.16546  1.0000
  H   H1762     1.0  0.92965  0.19223  0.17454  1.0000
  C   C1484     1.0  0.90625  0.11949  0.28026  1.0000
  H   H1763     1.0  0.83133  0.05704  0.29166  1.0000
  H   H1764     1.0  0.71851  0.00086  0.20740  1.0000
  C   C1485     1.0  0.71023  0.11232  0.03469  1.0000
  C   C1486     1.0  0.68636  0.16951  0.01232  1.0000
  C   C1487     1.0  0.80838  0.19495  0.07936  1.0000
  C   C1488     1.0  0.67039  0.08469  0.08691  1.0000
  H   H1765     1.0  0.76199  0.21851  0.09031  1.0000
  Fe  Fe206     1.0  0.75961  0.19510  0.03622  1.0000
  H   H1766     1.0  0.66536  0.11966  0.04138  1.0000
  C   C1489     1.0  0.98059  0.16067  0.18809  1.0000
  H   H1767     1.0  0.57193  0.05042  0.05548  1.0000
  N   N100      1.0  0.69199  0.11418  0.04596  1.0000
  H   H1768     1.0  0.71135  0.12383  0.02341  1.0000
  H   H1769     1.0  0.78395  0.18581  0.09060  1.0000
  H   H1770     1.0  0.69229  0.22612  0.98242  1.0000
  C   C1490     1.0  0.76645  0.20930  0.13219  1.0000
  H   H1771     1.0  0.57941  0.01045  0.13205  1.0000
  C   C1491     1.0  0.76465  0.22069  0.10178  1.0000
  H   H1772     1.0  0.93814  0.10003  0.27209  1.0000
  Fe  Fe207     1.0  0.64072  0.12203  0.98244  1.0000
  H   H1773     1.0  0.97993  0.14705  0.19381  1.0000
  C   C1492     1.0  0.61203  0.07759  0.97775  1.0000
  C   C1493     1.0  0.92364  0.07950  0.30453  1.0000
  S   S408      1.0  0.99359  0.15967  0.21642  1.0000
  S   S409      1.0  0.84385  0.22752  0.12951  1.0000
  H   H1774     1.0  0.71003  0.20747  0.98651  1.0000
  Fe  Fe208     1.0  0.74998  0.22269  0.00443  1.0000
  H   H1775     1.0  0.81136  0.06768  0.30433  1.0000
  C   C1494     1.0  0.64036  0.04947  0.99330  1.0000
  S   S410      1.0  0.69569  0.98710  0.12638  1.0000
  S   S411      1.0  0.69946  0.13851  0.97732  1.0000
  H   H1776     1.0  0.49816  0.05486  0.05930  1.0000
  H   H1777     1.0  0.59737  0.04138  0.98060  1.0000
  H   H1778     1.0  0.69001  0.99804  0.20333  1.0000
  H   H1779     1.0  0.72902  0.14806  0.98251  1.0000
  H   H1780     1.0  0.73531  0.01384  0.30566  1.0000
  C   C1495     1.0  0.89170  0.09027  0.30961  1.0000
  H   H1781     1.0  0.89624  0.23010  0.04718  1.0000
  C   C1496     1.0  0.50130  0.05342  0.04549  1.0000
  C   C1497     1.0  0.57999  0.98577  0.12653  1.0000
  H   H1782     1.0  0.86521  0.23449  0.04687  1.0000
  H   H1783     1.0  0.80023  0.23326  0.07627  1.0000
  S   S412      1.0  0.77311  0.98526  0.25165  1.0000
  H   H1784     1.0  0.90220  0.11353  0.32614  1.0000
  C   C1498     1.0  0.89337  0.14235  0.57117  1.0000
  H   H1785     1.0  0.99136  0.03726  0.61869  1.0000
  Fe  Fe209     1.0  0.76539  0.02390  0.48618  1.0000
  S   S413      1.0  0.73720  0.02081  0.49747  1.0000
  S   S414      1.0  0.77193  0.05063  0.47697  1.0000
  H   H1786     1.0  0.98334  0.07009  0.61196  1.0000
  S   S415      1.0  0.81903  0.98677  0.34052  1.0000
  Fe  Fe210     1.0  0.74381  0.00209  0.47957  1.0000
  Fe  Fe211     1.0  0.74917  0.99765  0.51646  1.0000
  C   C1499     1.0  0.96165  0.13017  0.34955  1.0000
  S   S416      1.0  0.77085  0.00726  0.46668  1.0000
  H   H1787     1.0  0.71121  0.00032  0.41039  1.0000
  H   H1788     1.0  0.85268  0.01776  0.41208  1.0000
  C   C1500     1.0  0.85888  0.03930  0.33164  1.0000
  Fe  Fe212     1.0  0.79380  0.00231  0.33221  1.0000
  H   H1789     1.0  0.93360  0.06202  0.32671  1.0000
  C   C1501     1.0  0.77226  0.06682  0.31960  1.0000
  H   H1790     1.0  0.98343  0.03633  0.60062  1.0000
  Fe  Fe213     1.0  0.80865  0.99974  0.36338  1.0000
  S   S417      1.0  0.82802  0.00892  0.37217  1.0000
  H   H1791     1.0  0.82746  0.02882  0.33661  1.0000
  S   S418      1.0  0.78453  0.01709  0.35370  1.0000
  Fe  Fe214     1.0  0.82859  0.08308  0.51012  1.0000
  S   S419      1.0  0.80055  0.09433  0.52232  1.0000
  S   S420      1.0  0.83606  0.05634  0.50408  1.0000
  Fe  Fe215     1.0  0.84127  0.11516  0.50896  1.0000
  S   S421      1.0  0.81444  0.12934  0.52121  1.0000
  S   S422      1.0  0.86575  0.12600  0.50009  1.0000
  Fe  Fe216     1.0  0.81263  0.10301  0.53934  1.0000
  Fe  Fe217     1.0  0.80504  0.11930  0.50310  1.0000
  S   S423      1.0  0.78559  0.13684  0.48720  1.0000
  S   S424      1.0  0.84044  0.08964  0.52861  1.0000
  S   S425      1.0  0.83212  0.10729  0.48936  1.0000
  Fe  Fe218     1.0  0.93090  0.09274  0.55376  1.0000
  H   H1792     1.0  0.92298  0.11997  0.37438  1.0000
  S   S426      1.0  0.90231  0.09124  0.56394  1.0000
  Fe  Fe219     1.0  0.85792  0.09238  0.38989  1.0000
  S   S427      1.0  0.85939  0.12050  0.37792  1.0000
  S   S428      1.0  0.88028  0.07245  0.40014  1.0000
  Fe  Fe220     1.0  0.82152  0.09748  0.38348  1.0000
  S   S429      1.0  0.81960  0.12613  0.37098  1.0000
  S   S430      1.0  0.79877  0.08505  0.38699  1.0000
  Fe  Fe221     1.0  0.84789  0.11743  0.35719  1.0000
  Fe  Fe222     1.0  0.83121  0.12639  0.39299  1.0000
  S   S431      1.0  0.82137  0.14908  0.40645  1.0000
  S   S432      1.0  0.84887  0.08871  0.36781  1.0000
  S   S433      1.0  0.83068  0.09840  0.40672  1.0000
  S   S434      1.0  0.93193  0.11132  0.41240  1.0000
  S   S435      1.0  0.96824  0.07030  0.42359  1.0000
  C   C1502     1.0  0.93037  0.14903  0.63962  1.0000
  Fe  Fe223     1.0  0.75045  0.01578  0.62305  1.0000
  S   S436      1.0  0.75950  0.02393  0.59382  1.0000
  H   H1793     1.0  0.79622  0.08340  0.42415  1.0000
  C   C1503     1.0  0.84890  0.04826  0.56232  1.0000
  H   H1794     1.0  0.82316  0.98796  0.42213  1.0000
  C   C1504     1.0  0.76390  0.10926  0.44894  1.0000
  S   S437      1.0  0.95862  0.13371  0.56598  1.0000
  H   H1795     1.0  0.89629  0.13325  0.36339  1.0000
  H   H1796     1.0  0.75872  0.99709  0.43997  1.0000
  H   H1797     1.0  0.73292  0.00306  0.60116  1.0000
  C   C1505     1.0  0.74602  0.10293  0.47893  1.0000
  H   H1798     1.0  0.81061  0.98863  0.45224  1.0000
  H   H1799     1.0  0.98515  0.10160  0.56938  1.0000
  Fe  Fe224     1.0  0.95789  0.11281  0.55326  1.0000
  H   H1800     1.0  0.85058  0.03463  0.34415  1.0000
  C   C1506     1.0  0.72165  0.99952  0.41678  1.0000
  H   H1801     1.0  0.92298  0.09063  0.35405  1.0000
  H   H1802     1.0  0.97466  0.02500  0.62236  1.0000
  N   N101      1.0  0.91414  0.11850  0.34454  1.0000
  H   H1803     1.0  0.87700  0.08122  0.33557  1.0000
  H   H1804     1.0  0.84546  0.08597  0.57774  1.0000
  H   H1805     1.0  0.90375  0.06292  0.34647  1.0000
  H   H1806     1.0  0.86681  0.07931  0.58369  1.0000
  Fe  Fe225     1.0  0.97547  0.05680  0.40137  1.0000
  C   C1507     1.0  0.76386  0.12581  0.45179  1.0000
  H   H1807     1.0  0.86728  0.11743  0.46519  1.0000
  H   H1808     1.0  0.90878  0.10193  0.37062  1.0000
  H   H1809     1.0  0.79328  0.02675  0.43723  1.0000
  S   S438      1.0  0.98510  0.10266  0.39521  1.0000
  H   H1810     1.0  0.88627  0.13108  0.34721  1.0000
  C   C1508     1.0  0.85909  0.05522  0.56945  1.0000
  H   H1811     1.0  0.70371  0.00132  0.44169  1.0000
  H   H1812     1.0  0.78366  0.07675  0.44572  1.0000
  C   C1509     1.0  0.89366  0.08268  0.40587  1.0000
  C   C1510     1.0  0.88778  0.10025  0.40741  1.0000
  C   C1511     1.0  0.89948  0.10906  0.40959  1.0000
  C   C1512     1.0  0.91680  0.10009  0.41103  1.0000
  H   H1813     1.0  0.87430  0.10711  0.40673  1.0000
  H   H1814     1.0  0.89528  0.12291  0.40950  1.0000
  Fe  Fe226     1.0  0.99484  0.07722  0.41315  1.0000
  H   H1815     1.0  0.91534  0.05989  0.40685  1.0000
  H   H1816     1.0  0.91073  0.14732  0.60293  1.0000
  H   H1817     1.0  0.82525  0.06359  0.58976  1.0000
  H   H1818     1.0  0.80844  0.00721  0.46095  1.0000
  C   C1513     1.0  0.79527  0.13962  0.46473  1.0000
  C   C1514     1.0  0.80646  0.12545  0.45759  1.0000
  C   C1515     1.0  0.81443  0.12810  0.43962  1.0000
  C   C1516     1.0  0.81114  0.14492  0.42880  1.0000
  C   C1517     1.0  0.79988  0.15898  0.43597  1.0000
  C   C1518     1.0  0.79181  0.15630  0.45383  1.0000
  H   H1819     1.0  0.80877  0.11242  0.46588  1.0000
  H   H1820     1.0  0.82329  0.11722  0.43425  1.0000
  H   H1821     1.0  0.79735  0.17201  0.42766  1.0000
  H   H1822     1.0  0.78313  0.16726  0.45928  1.0000
  C   C1519     1.0  0.87564  0.11884  0.51809  1.0000
  C   C1520     1.0  0.86523  0.11494  0.53498  1.0000
  C   C1521     1.0  0.87339  0.10703  0.54922  1.0000
  C   C1522     1.0  0.89193  0.10243  0.54647  1.0000
  C   C1523     1.0  0.90225  0.10669  0.52960  1.0000
  C   C1524     1.0  0.89410  0.11548  0.51552  1.0000
  H   H1823     1.0  0.85088  0.11814  0.53711  1.0000
  H   H1824     1.0  0.86532  0.10480  0.56229  1.0000
  H   H1825     1.0  0.91655  0.10293  0.52723  1.0000
  H   H1826     1.0  0.90218  0.11901  0.50261  1.0000
  Fe  Fe227     1.0  0.77160  0.99453  0.36906  1.0000
  N   N102      1.0  0.83179  0.05343  0.31882  1.0000
  C   C1525     1.0  0.83296  0.11511  0.32373  1.0000
  C   C1526     1.0  0.75267  0.99719  0.41563  1.0000
  Fe  Fe228     1.0  0.96950  0.07467  0.55154  1.0000
  C   C1527     1.0  0.97924  0.03724  0.61465  1.0000
  H   H1827     1.0  0.75547  0.14320  0.46976  1.0000
  C   C1528     1.0  0.87726  0.03524  0.33041  1.0000
  C   C1529     1.0  0.76136  0.09774  0.42541  1.0000
  H   H1828     1.0  0.73941  0.09389  0.48957  1.0000
  C   C1530     1.0  0.81939  0.02946  0.37769  1.0000
  C   C1531     1.0  0.83073  0.03791  0.38100  1.0000
  C   C1532     1.0  0.82422  0.05472  0.38464  1.0000
  C   C1533     1.0  0.80650  0.06329  0.38452  1.0000
  C   C1534     1.0  0.79500  0.05458  0.38189  1.0000
  C   C1535     1.0  0.80143  0.03760  0.37863  1.0000
  H   H1829     1.0  0.84458  0.03152  0.38061  1.0000
  H   H1830     1.0  0.83292  0.06099  0.38760  1.0000
  H   H1831     1.0  0.78117  0.06103  0.38220  1.0000
  H   H1832     1.0  0.79241  0.03083  0.37701  1.0000
  C   C1536     1.0  0.97268  0.12427  0.58074  1.0000
  S   S439      1.0  0.77691  0.00219  0.50666  1.0000
  C   C1537     1.0  0.73901  0.00515  0.58737  1.0000
  C   C1538     1.0  0.75190  0.01532  0.58042  1.0000
  C   C1539     1.0  0.75936  0.01832  0.56243  1.0000
  C   C1540     1.0  0.75413  0.01107  0.55144  1.0000
  H   H1833     1.0  0.92606  0.10682  0.32202  1.0000
  C   C1541     1.0  0.95944  0.13074  0.33303  1.0000
  H   H1834     1.0  0.76922  0.02630  0.55693  1.0000
  H   H1835     1.0  0.75987  0.01366  0.53760  1.0000
  C   C1542     1.0  0.79043  0.05196  0.48361  1.0000
  C   C1543     1.0  0.80283  0.03678  0.48910  1.0000
  C   C1544     1.0  0.81721  0.03812  0.49492  1.0000
  C   C1545     1.0  0.81910  0.05463  0.49537  1.0000
  C   C1546     1.0  0.80703  0.06982  0.48934  1.0000
  C   C1547     1.0  0.79277  0.06849  0.48341  1.0000
  H   H1836     1.0  0.80144  0.02402  0.48879  1.0000
  H   H1837     1.0  0.82663  0.02635  0.49943  1.0000
  H   H1838     1.0  0.80859  0.08263  0.48930  1.0000
  H   H1839     1.0  0.78335  0.08030  0.47909  1.0000
  H   H1840     1.0  0.96985  0.13375  0.32161  1.0000
  C   C1548     1.0  0.93547  0.09666  0.64126  1.0000
  C   C1549     1.0  0.82329  0.11211  0.31330  1.0000
  H   H1841     1.0  0.79552  0.00836  0.42812  1.0000
  C   C1550     1.0  0.98726  0.01425  0.40815  1.0000
  C   C1551     1.0  0.74837  0.99783  0.43352  1.0000
  C   C1552     1.0  0.97204  0.13271  0.59381  1.0000
  H   H1842     1.0  0.79866  0.14509  0.63464  1.0000
  C   C1553     1.0  0.74170  0.00044  0.55841  1.0000
  C   C1554     1.0  0.90510  0.07035  0.33301  1.0000
  H   H1843     1.0  0.88856  0.16730  0.47684  1.0000
  H   H1844     1.0  0.84708  0.07992  0.60025  1.0000
  C   C1555     1.0  0.97973  0.08727  0.33527  1.0000
  N   N103      1.0  0.77356  0.10336  0.43250  1.0000
  C   C1556     1.0  0.85463  0.04558  0.54519  1.0000
  C   C1557     1.0  0.81707  0.99952  0.45115  1.0000
  H   H1845     1.0  0.97669  0.06909  0.59316  1.0000
  H   H1846     1.0  0.94366  0.12722  0.31797  1.0000
  S   S440      1.0  0.96813  0.03090  0.40676  1.0000
  N   N104      1.0  0.92110  0.08765  0.47266  1.0000
  C   C1558     1.0  0.93761  0.08124  0.46024  1.0000
  C   C1559     1.0  0.91699  0.10713  0.46802  1.0000
  C   C1560     1.0  0.92506  0.08161  0.49045  1.0000
  C   C1561     1.0  0.90561  0.08143  0.47207  1.0000
  C   C1562     1.0  0.88986  0.08298  0.48544  1.0000
  C   C1563     1.0  0.90526  0.07467  0.45783  1.0000
  C   C1564     1.0  0.87520  0.07706  0.48510  1.0000
  C   C1565     1.0  0.89035  0.06916  0.45745  1.0000
  C   C1566     1.0  0.87542  0.07016  0.47117  1.0000
  H   H1847     1.0  0.93677  0.08736  0.44637  1.0000
  H   H1848     1.0  0.94940  0.08470  0.46195  1.0000
  H   H1849     1.0  0.94059  0.06666  0.46210  1.0000
  H   H1850     1.0  0.90423  0.11288  0.47625  1.0000
  H   H1851     1.0  0.91563  0.11207  0.45416  1.0000
  H   H1852     1.0  0.92764  0.11255  0.46962  1.0000
  H   H1853     1.0  0.92693  0.06706  0.49494  1.0000
  H   H1854     1.0  0.93737  0.08526  0.49081  1.0000
  H   H1855     1.0  0.91452  0.08775  0.50038  1.0000
  H   H1856     1.0  0.88857  0.08896  0.49618  1.0000
  H   H1857     1.0  0.91636  0.07350  0.44680  1.0000
  H   H1858     1.0  0.86352  0.07789  0.49570  1.0000
  H   H1859     1.0  0.89042  0.06400  0.44646  1.0000
  S   S441      1.0  0.98667  0.04939  0.56274  1.0000
  H   H1860     1.0  0.84443  0.14288  0.47409  1.0000
  C   C1567     1.0  0.95039  0.05285  0.60942  1.0000
  C   C1568     1.0  0.78117  0.11722  0.41854  1.0000
  H   H1861     1.0  0.84029  0.16334  0.45815  1.0000
  H   H1862     1.0  0.85635  0.16462  0.42654  1.0000
  H   H1863     1.0  0.91923  0.15310  0.58011  1.0000
  H   H1864     1.0  0.76618  0.09660  0.54399  1.0000
  H   H1865     1.0  0.77745  0.05104  0.57047  1.0000
  N   N105      1.0  0.75828  0.07531  0.56513  1.0000
  H   H1866     1.0  0.87794  0.15527  0.52671  1.0000
  H   H1867     1.0  0.88367  0.06460  0.56288  1.0000
  H   H1868     1.0  0.86271  0.16002  0.47331  1.0000
  H   H1869     1.0  0.82990  0.99338  0.45538  1.0000
  H   H1870     1.0  0.89294  0.06023  0.53299  1.0000
  C   C1569     1.0  0.89876  0.13277  0.34937  1.0000
  H   H1871     1.0  0.82231  0.05929  0.45140  1.0000
  H   H1872     1.0  0.86987  0.14473  0.42008  1.0000
  H   H1873     1.0  0.83513  0.04088  0.59870  1.0000
  C   C1570     1.0  0.88208  0.15208  0.53902  1.0000
  C   C1571     1.0  0.71740  0.00009  0.43452  1.0000
  C   C1572     1.0  0.87632  0.14840  0.45038  1.0000
  H   H1874     1.0  0.76050  0.06216  0.51206  1.0000
  Fe  Fe229     1.0  0.84494  0.11177  0.63064  1.0000
  H   H1875     1.0  0.77069  0.12914  0.41527  1.0000
  C   C1573     1.0  0.91449  0.11710  0.32662  1.0000
  C   C1574     1.0  0.97038  0.08890  0.32248  1.0000
  H   H1876     1.0  0.97581  0.07971  0.34826  1.0000
  C   C1575     1.0  0.87071  0.14613  0.55461  1.0000
  H   H1877     1.0  0.93119  0.05225  0.64009  1.0000
  Fe  Fe230     1.0  0.88023  0.09137  0.63976  1.0000
  H   H1878     1.0  0.93546  0.07500  0.41210  1.0000
  H   H1879     1.0  0.88154  0.12036  0.60322  1.0000
  C   C1576     1.0  0.87048  0.04980  0.53467  1.0000
  H   H1880     1.0  0.76630  0.99610  0.40835  1.0000
  H   H1881     1.0  0.91789  0.14960  0.55447  1.0000
  C   C1577     1.0  0.82448  0.12294  0.59828  1.0000
  H   H1882     1.0  0.86690  0.13610  0.58194  1.0000
  C   C1578     1.0  0.83566  0.05486  0.59688  1.0000
  H   H1883     1.0  0.81778  0.12753  0.55755  1.0000
  H   H1884     1.0  0.84339  0.99132  0.42449  1.0000
  H   H1885     1.0  0.85775  0.14476  0.55432  1.0000
  C   C1579     1.0  0.97252  0.10129  0.47622  1.0000
  H   H1886     1.0  0.86291  0.04815  0.61161  1.0000
  C   C1580     1.0  0.86494  0.12329  0.45169  1.0000
  H   H1887     1.0  0.75433  0.08512  0.46193  1.0000
  C   C1581     1.0  0.90635  0.15737  0.45490  1.0000
  C   C1582     1.0  0.98191  0.09837  0.44594  1.0000
  H   H1888     1.0  0.79156  0.12115  0.42234  1.0000
  C   C1583     1.0  0.87498  0.15695  0.46390  1.0000
  N   N106      1.0  0.86113  0.14280  0.44816  1.0000
  H   H1889     1.0  0.85369  0.11847  0.45052  1.0000
  C   C1584     1.0  0.73064  0.99944  0.44295  1.0000
  C   C1585     1.0  0.81759  0.12209  0.57130  1.0000
  C   C1586     1.0  0.81014  0.10040  0.59779  1.0000
  H   H1890     1.0  0.95513  0.05282  0.59518  1.0000
  H   H1891     1.0  0.87450  0.14319  0.60495  1.0000
  C   C1587     1.0  0.73401  0.99761  0.57639  1.0000
  H   H1892     1.0  0.89560  0.13794  0.42885  1.0000
  H   H1893     1.0  0.73992  0.12291  0.49376  1.0000
  C   C1588     1.0  0.75118  0.06834  0.55409  1.0000
  C   C1589     1.0  0.73598  0.06074  0.56062  1.0000
  C   C1590     1.0  0.75354  0.06198  0.52558  1.0000
  C   C1591     1.0  0.72983  0.05409  0.54982  1.0000
  C   C1592     1.0  0.73860  0.05468  0.53237  1.0000
  H   H1894     1.0  0.74451  0.10215  0.55728  1.0000
  H   H1895     1.0  0.73385  0.08134  0.58412  1.0000
  H   H1896     1.0  0.72890  0.05928  0.57414  1.0000
  H   H1897     1.0  0.71852  0.04790  0.55518  1.0000
  H   H1898     1.0  0.73405  0.04912  0.52418  1.0000
  S   S442      1.0  0.96391  0.08034  0.38276  1.0000
  C   C1593     1.0  0.75503  0.13066  0.46772  1.0000
  C   C1594     1.0  0.85326  0.07661  0.58722  1.0000
  C   C1595     1.0  0.81041  0.10728  0.57992  1.0000
  C   C1596     1.0  0.97196  0.06899  0.60741  1.0000
  C   C1597     1.0  0.87622  0.14115  0.57049  1.0000
  C   C1598     1.0  0.83027  0.99831  0.42121  1.0000
  C   C1599     1.0  0.99474  0.04221  0.33477  1.0000
  H   H1899     1.0  0.80776  0.03641  0.45192  1.0000
  S   S443      1.0  0.73451  0.03465  0.64029  1.0000
  C   C1600     1.0  0.84547  0.02641  0.42091  1.0000
  H   H1900     1.0  0.97992  0.10265  0.43269  1.0000
  C   C1601     1.0  0.85342  0.03984  0.42061  1.0000
  H   H1901     1.0  0.81773  0.10227  0.62050  1.0000
  C   C1602     1.0  0.88868  0.04056  0.31457  1.0000
  N   N107      1.0  0.85360  0.05813  0.58755  1.0000
  C   C1603     1.0  0.81756  0.10795  0.60684  1.0000
  Fe  Fe231     1.0  0.99113  0.08602  0.37534  1.0000
  H   H1902     1.0  0.82707  0.02542  0.63847  1.0000
  C   C1604     1.0  0.89893  0.15346  0.53924  1.0000
  C   C1605     1.0  0.98334  0.12499  0.60563  1.0000
  S   S444      1.0  0.95003  0.07625  0.53568  1.0000
  C   C1606     1.0  0.73922  0.99816  0.40721  1.0000
  H   H1903     1.0  0.77234  0.08521  0.33421  1.0000
  H   H1904     1.0  0.83247  0.00542  0.40726  1.0000
  C   C1607     1.0  0.77409  0.08282  0.32132  1.0000
  H   H1905     1.0  0.86618  0.04110  0.41185  1.0000
  C   C1608     1.0  0.94835  0.12634  0.36426  1.0000
  S   S445      1.0  0.80217  0.09686  0.56856  1.0000
  H   H1906     1.0  0.74793  0.05999  0.59037  1.0000
  H   H1907     1.0  0.94891  0.16500  0.63636  1.0000
  C   C1609     1.0  0.75825  0.09423  0.55759  1.0000
  H   H1908     1.0  0.84667  0.14663  0.42812  1.0000
  H   H1909     1.0  0.88264  0.02773  0.34178  1.0000
  H   H1910     1.0  0.86395  0.06563  0.47102  1.0000
  H   H1911     1.0  0.74924  0.10831  0.42385  1.0000
  C   C1610     1.0  0.74788  0.07393  0.58350  1.0000
  C   C1611     1.0  0.75977  0.06873  0.53622  1.0000
  H   H1912     1.0  0.75360  0.07935  0.59133  1.0000
  H   H1913     1.0  0.97376  0.13260  0.35095  1.0000
  C   C1612     1.0  0.91079  0.07356  0.40783  1.0000
  C   C1613     1.0  0.92229  0.08223  0.41053  1.0000
  H   H1914     1.0  0.89931  0.09789  0.35533  1.0000
  C   C1614     1.0  0.93296  0.12267  0.36255  1.0000
  H   H1915     1.0  0.87458  0.04802  0.52129  1.0000
  C   C1615     1.0  0.75460  0.09804  0.46299  1.0000
  C   C1616     1.0  0.78843  0.08818  0.43622  1.0000
  H   H1916     1.0  0.84650  0.04063  0.53982  1.0000
  H   H1917     1.0  0.78782  0.11260  0.40617  1.0000
  S   S446      1.0  0.73657  0.98967  0.54509  1.0000
  H   H1918     1.0  0.76412  0.09974  0.56526  1.0000
  H   H1919     1.0  0.82945  0.14179  0.57396  1.0000
  C   C1617     1.0  0.85848  0.15000  0.42996  1.0000
  H   H1920     1.0  0.92054  0.11643  0.59835  1.0000
  H   H1921     1.0  0.80455  0.08898  0.60456  1.0000
  C   C1618     1.0  0.82426  0.13013  0.58057  1.0000
  C   C1619     1.0  0.98671  0.99924  0.42170  1.0000
  H   H1922     1.0  0.97420  0.99747  0.43062  1.0000
  H   H1923     1.0  0.83632  0.04505  0.56959  1.0000
  S   S447      1.0  0.97967  0.09852  0.53467  1.0000
  Fe  Fe232     1.0  0.95892  0.09444  0.40431  1.0000
  C   C1620     1.0  0.82514  0.03699  0.32366  1.0000
  H   H1924     1.0  0.83180  0.05758  0.61030  1.0000
  H   H1925     1.0  0.86736  0.03223  0.59846  1.0000
  H   H1926     1.0  0.83277  0.14469  0.45783  1.0000
  S   S448      1.0  0.90931  0.09083  0.62953  1.0000
  H   H1927     1.0  0.92097  0.14606  0.43268  1.0000
  C   C1621     1.0  0.77681  0.06545  0.56572  1.0000
  H   H1928     1.0  0.77158  0.07400  0.53035  1.0000
  C   C1622     1.0  0.88984  0.16122  0.46613  1.0000
  H   H1929     1.0  0.95950  0.11770  0.45557  1.0000
  H   H1930     1.0  0.82921  0.11115  0.33783  1.0000
  C   C1623     1.0  0.82870  0.05020  0.44276  1.0000
  C   C1624     1.0  0.90808  0.14922  0.44137  1.0000
  H   H1931     1.0  0.78234  0.06964  0.57464  1.0000
  C   C1625     1.0  0.94420  0.12690  0.33116  1.0000
  C   C1626     1.0  0.82055  0.03692  0.44306  1.0000
  H   H1932     1.0  0.95912  0.08282  0.32588  1.0000
  H   H1933     1.0  0.79771  0.09178  0.44189  1.0000
  H   H1934     1.0  0.93934  0.06473  0.61054  1.0000
  H   H1935     1.0  0.78605  0.06744  0.55271  1.0000
  H   H1936     1.0  0.85143  0.06197  0.43125  1.0000
  S   S449      1.0  0.72420  0.00025  0.46535  1.0000
  N   N108      1.0  0.96494  0.05308  0.61729  1.0000
  S   S450      1.0  0.95683  0.11168  0.49210  1.0000
  Fe  Fe233     1.0  0.95820  0.10149  0.52045  1.0000
  C   C1627     1.0  0.93056  0.12246  0.34598  1.0000
  S   S451      1.0  0.86394  0.08762  0.62345  1.0000
  H   H1937     1.0  0.96151  0.08120  0.60866  1.0000
  C   C1628     1.0  0.89336  0.14469  0.43919  1.0000
  H   H1938     1.0  0.75709  0.08563  0.43387  1.0000
  C   C1629     1.0  0.85134  0.04906  0.31703  1.0000
  C   C1630     1.0  0.88620  0.13200  0.60348  1.0000
  C   C1631     1.0  0.82875  0.02451  0.43225  1.0000
  C   C1632     1.0  0.97034  0.10689  0.45892  1.0000
  H   H1939     1.0  0.94487  0.04087  0.61567  1.0000
  S   S452      1.0  0.93758  0.11816  0.53753  1.0000
  H   H1940     1.0  0.92564  0.12332  0.57508  1.0000
  C   C1633     1.0  0.91123  0.10154  0.35661  1.0000
  H   H1941     1.0  0.89679  0.16341  0.58930  1.0000
  H   H1942     1.0  0.77083  0.13515  0.44209  1.0000
  C   C1634     1.0  0.84399  0.14874  0.46009  1.0000
  H   H1943     1.0  0.87695  0.11778  0.44246  1.0000
  H   H1944     1.0  0.89154  0.12819  0.61558  1.0000
  H   H1945     1.0  0.93350  0.14871  0.62586  1.0000
  S   S453      1.0  0.94948  0.08871  0.57112  1.0000
  H   H1946     1.0  0.94298  0.09782  0.62791  1.0000
  S   S454      1.0  0.83356  0.13259  0.60962  1.0000
  H   H1947     1.0  0.90095  0.14588  0.34135  1.0000
  N   N109      1.0  0.89999  0.13664  0.58759  1.0000
  C   C1635     1.0  0.91464  0.12084  0.58656  1.0000
  H   H1948     1.0  0.90990  0.10962  0.58544  1.0000
  C   C1636     1.0  0.87524  0.05924  0.55838  1.0000
  C   C1637     1.0  0.88074  0.05667  0.54123  1.0000
  C   C1638     1.0  0.74627  0.11921  0.48131  1.0000
  S   S455      1.0  0.74352  0.99769  0.38485  1.0000
  C   C1639     1.0  0.90691  0.15078  0.59004  1.0000
  C   C1640     1.0  0.90450  0.14876  0.55505  1.0000
  H   H1949     1.0  0.90792  0.15775  0.52705  1.0000
  C   C1641     1.0  0.86659  0.04629  0.59790  1.0000
  H   H1950     1.0  0.88021  0.04882  0.59233  1.0000
  H   H1951     1.0  0.76783  0.09449  0.41236  1.0000
  C   C1642     1.0  0.84510  0.05166  0.43153  1.0000
  H   H1952     1.0  0.91785  0.16056  0.45678  1.0000
  H   H1953     1.0  0.76000  0.01235  0.31936  1.0000
  H   H1954     1.0  0.98300  0.13167  0.61553  1.0000
  S   S456      1.0  0.86005  0.12639  0.32876  1.0000
  C   C1643     1.0  0.98461  0.10816  0.57945  1.0000
  C   C1644     1.0  0.92187  0.06986  0.32187  1.0000
  H   H1955     1.0  0.98096  0.04638  0.34117  1.0000
  H   H1956     1.0  0.76908  0.05672  0.33120  1.0000
  H   H1957     1.0  0.98510  0.05460  0.63904  1.0000
  H   H1958     1.0  0.96286  0.14522  0.59478  1.0000
  H   H1959     1.0  0.98847  0.08315  0.49379  1.0000
  H   H1960     1.0  0.81055  0.03976  0.32453  1.0000
  S   S457      1.0  0.73512  0.99490  0.63709  1.0000
  H   H1961     1.0  0.80414  0.02718  0.41482  1.0000
  H   H1962     1.0  0.99030  0.06045  0.52531  1.0000
  C   C1645     1.0  0.98671  0.08745  0.48044  1.0000
  H   H1963     1.0  0.90293  0.03725  0.31359  1.0000
  H   H1964     1.0  0.91508  0.12987  0.31705  1.0000
  H   H1965     1.0  0.83182  0.02868  0.31383  1.0000
  S   S458      1.0  0.77210  0.00435  0.63810  1.0000
  N   N110      1.0  0.81992  0.01042  0.43307  1.0000
  C   C1646     1.0  0.80247  0.01850  0.42815  1.0000
  H   H1966     1.0  0.72422  0.98955  0.58183  1.0000
  H   H1967     1.0  0.95002  0.12608  0.37710  1.0000
  H   H1968     1.0  0.82501  0.05567  0.34592  1.0000
  H   H1969     1.0  0.98966  0.02515  0.44248  1.0000
  C   C1647     1.0  0.82315  0.06355  0.33277  1.0000
  H   H1970     1.0  0.98816  0.02470  0.47202  1.0000
  C   C1648     1.0  0.84734  0.12329  0.31589  1.0000
  H   H1971     1.0  0.82870  0.07540  0.33020  1.0000
  C   C1649     1.0  0.89006  0.08058  0.32688  1.0000
  C   C1650     1.0  0.95923  0.05315  0.63622  1.0000
  H   H1972     1.0  0.81204  0.10599  0.31941  1.0000
  C   C1651     1.0  0.99422  0.09520  0.33113  1.0000
  H   H1973     1.0  0.80852  0.06801  0.33389  1.0000
  H   H1974     1.0  0.78603  0.12329  0.62984  1.0000
  H   H1975     1.0  0.79657  0.16948  0.64321  1.0000
  C   C1652     1.0  0.99548  0.10900  0.60414  1.0000
  H   H1976     1.0  0.82419  0.14666  0.64304  1.0000
  C   C1653     1.0  0.78655  0.12312  0.64306  1.0000
  Fe  Fe234     1.0  0.77994  0.98525  0.48816  1.0000
  H   H1977     1.0  0.70972  0.13490  0.94166  1.0000
  C   C1654     1.0  0.66527  0.15158  0.91537  1.0000
  H   H1978     1.0  0.58614  0.03918  0.80563  1.0000
  C   C1655     1.0  0.81543  0.18378  0.79700  1.0000
  C   C1656     1.0  0.83042  0.20682  0.82855  1.0000
  H   H1979     1.0  0.80684  0.15890  0.68614  1.0000
  C   C1657     1.0  0.63703  0.08764  0.79616  1.0000
  S   S459      1.0  0.84322  0.18925  0.75016  1.0000
  C   C1658     1.0  0.91424  0.13990  0.66933  1.0000
  H   H1980     1.0  0.56876  0.07461  0.76876  1.0000
  C   C1659     1.0  0.79584  0.22597  0.93132  1.0000
  H   H1981     1.0  0.64101  0.07709  0.80679  1.0000
  H   H1982     1.0  0.76723  0.16686  0.83634  1.0000
  H   H1983     1.0  0.76295  0.00835  0.69818  1.0000
  C   C1660     1.0  0.61870  0.11651  0.78769  1.0000
  H   H1984     1.0  0.92247  0.17522  0.69090  1.0000
  Fe  Fe235     1.0  0.62494  0.00874  0.79657  1.0000
  S   S460      1.0  0.61748  0.03164  0.77522  1.0000
  S   S461      1.0  0.61803  0.01565  0.82292  1.0000
  Fe  Fe236     1.0  0.60438  0.01386  0.76889  1.0000
  S   S462      1.0  0.57643  0.02400  0.76477  1.0000
  Fe  Fe237     1.0  0.64232  0.01952  0.75815  1.0000
  S   S463      1.0  0.66209  0.03549  0.74088  1.0000
  C   C1661     1.0  0.79359  0.13572  0.64601  1.0000
  C   C1662     1.0  0.91813  0.09402  0.64554  1.0000
  C   C1663     1.0  0.75575  0.10771  0.91837  1.0000
  H   H1985     1.0  0.56514  0.11508  0.96905  1.0000
  S   S464      1.0  0.52892  0.11313  0.92692  1.0000
  C   C1664     1.0  0.52415  0.01635  0.80649  1.0000
  H   H1986     1.0  0.61964  0.10335  0.81429  1.0000
  C   C1665     1.0  0.54462  0.09113  0.80081  1.0000
  Fe  Fe238     1.0  0.72113  0.01251  0.65605  1.0000
  S   S465      1.0  0.69179  0.01454  0.66711  1.0000
  S   S466      1.0  0.74036  0.00094  0.67372  1.0000
  S   S467      1.0  0.62756  0.08330  0.86594  1.0000
  C   C1666     1.0  0.57812  0.06610  0.77716  1.0000
  Fe  Fe239     1.0  0.65489  0.08013  0.84858  1.0000
  S   S468      1.0  0.66796  0.05742  0.83503  1.0000
  C   C1667     1.0  0.91602  0.09397  0.67586  1.0000
  S   S469      1.0  0.62739  0.09055  0.91085  1.0000
  C   C1668     1.0  0.64349  0.08640  0.92308  1.0000
  C   C1669     1.0  0.63917  0.09381  0.93768  1.0000
  C   C1670     1.0  0.65162  0.09053  0.94791  1.0000
  C   C1671     1.0  0.66818  0.07916  0.94412  1.0000
  C   C1672     1.0  0.67260  0.07180  0.92940  1.0000
  C   C1673     1.0  0.66033  0.07562  0.91871  1.0000
  Fe  Fe240     1.0  0.52649  0.09853  0.95490  1.0000
  C   C1674     1.0  0.54359  0.00811  0.82681  1.0000
  H   H1987     1.0  0.68544  0.06305  0.92633  1.0000
  H   H1988     1.0  0.66370  0.06980  0.90742  1.0000
  C   C1675     1.0  0.55500  0.10105  0.84809  1.0000
  H   H1989     1.0  0.58638  0.11210  0.92480  1.0000
  Fe  Fe241     1.0  0.84928  0.07338  0.64868  1.0000
  S   S470      1.0  0.76025  0.19783  0.88479  1.0000
  H   H1990     1.0  0.81630  0.14718  0.93114  1.0000
  C   C1676     1.0  0.78587  0.04234  0.66071  1.0000
  H   H1991     1.0  0.52345  0.12254  0.89178  1.0000
  H   H1992     1.0  0.63913  0.05779  0.95869  1.0000
  H   H1993     1.0  0.65846  0.04287  0.77770  1.0000
  H   H1994     1.0  0.56263  0.11664  0.92913  1.0000
  Fe  Fe242     1.0  0.73230  0.19388  0.89350  1.0000
  C   C1677     1.0  0.63231  0.02647  0.82671  1.0000
  C   C1678     1.0  0.62528  0.03832  0.83783  1.0000
  C   C1679     1.0  0.63610  0.04784  0.84048  1.0000
  C   C1680     1.0  0.65420  0.04512  0.83249  1.0000
  C   C1681     1.0  0.66140  0.03277  0.82183  1.0000
  C   C1682     1.0  0.65043  0.02360  0.81875  1.0000
  H   H1995     1.0  0.61139  0.04018  0.84434  1.0000
  H   H1996     1.0  0.63045  0.05711  0.84883  1.0000
  H   H1997     1.0  0.67544  0.03042  0.81577  1.0000
  H   H1998     1.0  0.65601  0.01423  0.81038  1.0000
  C   C1683     1.0  0.67026  0.03024  0.72012  1.0000
  C   C1684     1.0  0.65918  0.02584  0.71222  1.0000
  C   C1685     1.0  0.66578  0.02155  0.69572  1.0000
  C   C1686     1.0  0.68360  0.02124  0.68719  1.0000
  C   C1687     1.0  0.69465  0.02588  0.69497  1.0000
  C   C1688     1.0  0.68793  0.03053  0.71135  1.0000
  H   H1999     1.0  0.64537  0.02623  0.71858  1.0000
  H   H2000     1.0  0.65700  0.01855  0.68954  1.0000
  H   H2001     1.0  0.70831  0.02605  0.68832  1.0000
  H   H2002     1.0  0.69650  0.03412  0.71731  1.0000
  H   H2003     1.0  0.56773  0.13699  0.86935  1.0000
  H   H2004     1.0  0.54072  0.10522  0.84985  1.0000
  H   H2005     1.0  0.59097  0.12928  0.95472  1.0000
  C   C1689     1.0  0.55057  0.11679  0.80584  1.0000
  C   C1690     1.0  0.94917  0.05303  0.67258  1.0000
  H   H2006     1.0  0.87355  0.22590  0.80192  1.0000
  C   C1691     1.0  0.93723  0.14125  0.70073  1.0000
  Fe  Fe243     1.0  0.76130  0.18749  0.86161  1.0000
  C   C1692     1.0  0.85997  0.15207  0.68499  1.0000
  H   H2007     1.0  0.61467  0.05832  0.90153  1.0000
  H   H2008     1.0  0.75839  0.11101  0.84523  1.0000
  H   H2009     1.0  0.64819  0.09665  0.95890  1.0000
  C   C1693     1.0  0.82967  0.00651  0.68442  1.0000
  H   H2010     1.0  0.90045  0.17260  0.69267  1.0000
  C   C1694     1.0  0.59117  0.13284  0.89277  1.0000
  H   H2011     1.0  0.77990  0.06384  0.67361  1.0000
  S   S471      1.0  0.64974  0.10714  0.83126  1.0000
  H   H2012     1.0  0.97890  0.16209  0.83256  1.0000
  C   C1695     1.0  0.54549  0.14770  0.90862  1.0000
  H   H2013     1.0  0.94686  0.20074  0.69688  1.0000
  H   H2014     1.0  0.91121  0.13283  0.64689  1.0000
  H   H2015     1.0  0.83923  0.20058  0.83805  1.0000
  C   C1696     1.0  0.54914  0.01145  0.76233  1.0000
  C   C1697     1.0  0.56695  0.00740  0.76360  1.0000
  H   H2016     1.0  0.95333  0.13575  0.75106  1.0000
  H   H2017     1.0  0.82672  0.19601  0.82532  1.0000
  H   H2018     1.0  0.71469  0.13415  0.91903  1.0000
  H   H2019     1.0  0.54150  0.02487  0.76146  1.0000
  S   S472      1.0  0.51262  0.07611  0.96468  1.0000
  H   H2020     1.0  0.58263  0.05315  0.77334  1.0000
  H   H2021     1.0  0.58996  0.14601  0.89522  1.0000
  H   H2022     1.0  0.96955  0.16604  0.80624  1.0000
  H   H2023     1.0  0.83259  0.03040  0.68884  1.0000
  H   H2024     1.0  0.60580  0.99976  0.72657  1.0000
  S   S473      1.0  0.61820  0.13436  0.96848  1.0000
  C   C1698     1.0  0.77765  0.13276  0.84036  1.0000
  N   N111      1.0  0.57507  0.12585  0.90217  1.0000
  H   H2025     1.0  0.82025  0.18829  0.78315  1.0000
  C   C1699     1.0  0.84352  0.12984  0.71398  1.0000
  H   H2026     1.0  0.58991  0.07202  0.77377  1.0000
  C   C1700     1.0  0.74119  0.14536  0.81470  1.0000
  C   C1701     1.0  0.56516  0.11316  0.84675  1.0000
  N   N112      1.0  0.78760  0.98874  0.69628  1.0000
  Fe  Fe244     1.0  0.75510  0.02165  0.65648  1.0000
  Fe  Fe245     1.0  0.52174  0.07668  0.85079  1.0000
  H   H2027     1.0  0.82872  0.13260  0.66332  1.0000
  N   N113      1.0  0.54490  0.06169  0.90808  1.0000
  C   C1702     1.0  0.53808  0.07768  0.89557  1.0000
  C   C1703     1.0  0.54254  0.04604  0.90365  1.0000
  C   C1704     1.0  0.53368  0.06295  0.92578  1.0000
  C   C1705     1.0  0.56400  0.06041  0.90676  1.0000
  C   C1706     1.0  0.57072  0.06137  0.92084  1.0000
  C   C1707     1.0  0.57649  0.05864  0.89077  1.0000
  C   C1708     1.0  0.58880  0.06065  0.91886  1.0000
  C   C1709     1.0  0.59453  0.05781  0.88898  1.0000
  C   C1710     1.0  0.60067  0.05886  0.90298  1.0000
  H   H2028     1.0  0.54446  0.07699  0.88177  1.0000
  H   H2029     1.0  0.52350  0.07978  0.89675  1.0000
  C   C1711     1.0  0.82178  0.14592  0.65735  1.0000
  H   H2030     1.0  0.54873  0.04533  0.88975  1.0000
  H   H2031     1.0  0.52821  0.04623  0.90540  1.0000
  H   H2032     1.0  0.54852  0.03365  0.91209  1.0000
  H   H2033     1.0  0.53410  0.07505  0.92943  1.0000
  H   H2034     1.0  0.51939  0.06389  0.92640  1.0000
  H   H2035     1.0  0.53792  0.05122  0.93596  1.0000
  H   H2036     1.0  0.56230  0.06264  0.93354  1.0000
  S   S474      1.0  0.50372  0.06409  0.87448  1.0000
  H   H2037     1.0  0.59367  0.06146  0.92970  1.0000
  H   H2038     1.0  0.78943  0.15426  0.81159  1.0000
  S   S475      1.0  0.55133  0.06789  0.84891  1.0000
  Fe  Fe246     1.0  0.97029  0.10245  0.67671  1.0000
  C   C1712     1.0  0.51232  0.11729  0.90049  1.0000
  C   C1713     1.0  0.57183  0.00875  0.83267  1.0000
  C   C1714     1.0  0.77592  0.12006  0.92622  1.0000
  H   H2039     1.0  0.76829  0.99599  0.71900  1.0000
  H   H2040     1.0  0.79047  0.20567  0.96525  1.0000
  C   C1715     1.0  0.99263  0.10033  0.73307  1.0000
  H   H2041     1.0  0.81084  0.06816  0.66499  1.0000
  H   H2042     1.0  0.67164  0.11611  0.92318  1.0000
  H   H2043     1.0  0.75401  0.10108  0.90936  1.0000
  H   H2044     1.0  0.57045  0.02615  0.84894  1.0000
  H   H2045     1.0  0.70878  0.09543  0.92826  1.0000
  C   C1716     1.0  0.78704  0.98761  0.67859  1.0000
  C   C1717     1.0  0.79915  0.03178  0.65045  1.0000
  H   H2046     1.0  0.71369  0.19161  0.94652  1.0000
  Fe  Fe247     1.0  0.63888  0.09387  0.88195  1.0000
  C   C1718     1.0  0.80584  0.02655  0.69917  1.0000
  C   C1719     1.0  0.79011  0.05568  0.66563  1.0000
  H   H2047     1.0  0.60327  0.12391  0.89701  1.0000
  H   H2048     1.0  0.94513  0.05374  0.68628  1.0000
  S   S476      1.0  0.98070  0.16002  0.67309  1.0000
  C   C1720     1.0  0.56300  0.02114  0.84287  1.0000
  C   C1721     1.0  0.59204  0.09039  0.84368  1.0000
  C   C1722     1.0  0.84853  0.14428  0.71623  1.0000
  C   C1723     1.0  0.54463  0.02714  0.84516  1.0000
  H   H2049     1.0  0.53776  0.03678  0.85312  1.0000
  S   S477      1.0  0.94357  0.09580  0.68835  1.0000
  H   H2050     1.0  0.54586  0.12987  0.80854  1.0000
  C   C1724     1.0  0.71002  0.19309  0.96038  1.0000
  H   H2051     1.0  0.78781  0.13929  0.84125  1.0000
  H   H2052     1.0  0.72868  0.08771  0.95740  1.0000
  C   C1725     1.0  0.66726  0.16719  0.93646  1.0000
  H   H2053     1.0  0.59359  0.13431  0.87834  1.0000
  S   S478      1.0  0.76426  0.03834  0.66880  1.0000
  Fe  Fe248     1.0  0.84853  0.10065  0.66849  1.0000
  H   H2054     1.0  0.96300  0.15001  0.78848  1.0000
  H   H2055     1.0  0.54067  0.08959  0.89779  1.0000
  H   H2056     1.0  0.64552  0.16203  0.89127  1.0000
  H   H2057     1.0  0.68226  0.12376  0.90092  1.0000
  Fe  Fe249     1.0  0.62313  0.11071  0.84984  1.0000
  C   C1726     1.0  0.73711  0.11193  0.83425  1.0000
  S   S479      1.0  0.61008  0.99160  0.79144  1.0000
  C   C1727     1.0  0.58193  0.07841  0.84469  1.0000
  C   C1728     1.0  0.71876  0.10020  0.95434  1.0000
  N   N114      1.0  0.65749  0.07056  0.77394  1.0000
  C   C1729     1.0  0.66518  0.07214  0.75485  1.0000
  C   C1730     1.0  0.67254  0.06680  0.78267  1.0000
  C   C1731     1.0  0.64884  0.05535  0.78009  1.0000
  H   H2058     1.0  0.67168  0.08356  0.74923  1.0000
  H   H2059     1.0  0.67548  0.06016  0.75210  1.0000
  H   H2060     1.0  0.65498  0.07330  0.74745  1.0000
  H   H2061     1.0  0.67878  0.07833  0.77910  1.0000
  H   H2062     1.0  0.68304  0.05527  0.77910  1.0000
  H   H2063     1.0  0.78690  0.15065  0.69179  1.0000
  C   C1732     1.0  0.57672  0.99001  0.76474  1.0000
  H   H2064     1.0  0.76493  0.13327  0.94756  1.0000
  C   C1733     1.0  0.96073  0.23223  0.70671  1.0000
  H   H2065     1.0  0.51999  0.16570  0.91252  1.0000
  C   C1734     1.0  0.51113  0.11277  0.91860  1.0000
  C   C1735     1.0  0.52917  0.16296  0.88579  1.0000
  H   H2066     1.0  0.67712  0.21105  0.96075  1.0000
  H   H2067     1.0  0.73897  0.20174  0.94309  1.0000
  C   C1736     1.0  0.68906  0.16753  0.90923  1.0000
  H   H2068     1.0  0.69965  0.18534  0.96744  1.0000
  H   H2069     1.0  0.80138  0.19700  0.93872  1.0000
  H   H2070     1.0  0.64275  0.05323  0.79432  1.0000
  C   C1737     1.0  0.62589  0.05454  0.96162  1.0000
  H   H2071     1.0  0.64651  0.14062  0.88805  1.0000
  H   H2072     1.0  0.94295  0.16500  0.66737  1.0000
  C   C1738     1.0  0.71699  0.22268  0.95218  1.0000
  H   H2073     1.0  0.64711  0.15327  0.94101  1.0000
  C   C1739     1.0  0.98874  0.17643  0.69407  1.0000
  S   S480      1.0  0.96631  0.19799  0.77527  1.0000
  H   H2074     1.0  0.56057  0.04070  0.79806  1.0000
  H   H2075     1.0  0.53473  0.08539  0.79918  1.0000
  H   H2076     1.0  0.57772  0.11530  0.80588  1.0000
  C   C1740     1.0  0.62512  0.11562  0.77013  1.0000
  C   C1741     1.0  0.98142  0.12933  0.73961  1.0000
  C   C1742     1.0  0.73450  0.21547  0.94358  1.0000
  H   H2077     1.0  0.71503  0.11627  0.82228  1.0000
  C   C1743     1.0  0.81798  0.99578  0.68634  1.0000
  H   H2078     1.0  0.77914  0.16946  0.66271  1.0000
  H   H2079     1.0  0.58841  0.09873  0.90189  1.0000
  C   C1744     1.0  0.68231  0.17259  0.92522  1.0000
  Fe  Fe250     1.0  0.65981  0.11536  0.85033  1.0000
  C   C1745     1.0  0.55927  0.13870  0.89683  1.0000
  C   C1746     1.0  0.57694  0.10884  0.89753  1.0000
  C   C1747     1.0  0.55754  0.14289  0.87917  1.0000
  H   H2080     1.0  0.71642  0.10775  0.88220  1.0000
  C   C1748     1.0  0.91293  0.16653  0.69759  1.0000
  H   H2081     1.0  0.66608  0.14878  0.88185  1.0000
  C   C1749     1.0  0.69810  0.12026  0.86511  1.0000
  S   S481      1.0  0.88235  0.19565  0.72739  1.0000
  H   H2082     1.0  0.56470  0.10356  0.90371  1.0000
  H   H2083     1.0  0.57944  0.10999  0.88316  1.0000
  H   H2084     1.0  0.55861  0.12666  0.84735  1.0000
  H   H2085     1.0  0.54550  0.14532  0.92234  1.0000
  H   H2086     1.0  0.98696  0.12916  0.77326  1.0000
  H   H2087     1.0  0.52730  0.00141  0.76138  1.0000
  H   H2088     1.0  0.79311  0.20589  0.79870  1.0000
  H   H2089     1.0  0.57018  0.99279  0.81692  1.0000
  H   H2090     1.0  0.57411  0.13405  0.92557  1.0000
  H   H2091     1.0  0.96030  0.16944  0.73206  1.0000
  H   H2092     1.0  0.94712  0.14956  0.69401  1.0000
  S   S482      1.0  0.92422  0.16557  0.74146  1.0000
  H   H2093     1.0  0.80197  0.21621  0.97365  1.0000
  H   H2094     1.0  0.74793  0.15781  0.84700  1.0000
  H   H2095     1.0  0.75013  0.17071  0.82496  1.0000
  H   H2096     1.0  0.77165  0.15864  0.80088  1.0000
  H   H2097     1.0  0.76946  0.12965  0.85390  1.0000
  H   H2098     1.0  0.90869  0.22776  0.76889  1.0000
  H   H2099     1.0  0.97709  0.18199  0.74519  1.0000
  H   H2100     1.0  0.52471  0.11461  0.80502  1.0000
  C   C1750     1.0  0.93635  0.19021  0.77229  1.0000
  S   S483      1.0  0.77386  0.20058  0.83444  1.0000
  H   H2101     1.0  0.78511  0.13673  0.80502  1.0000
  C   C1751     1.0  0.77862  0.14863  0.81061  1.0000
  H   H2102     1.0  0.58848  0.06501  0.84376  1.0000
  N   N115      1.0  0.76650  0.14421  0.82788  1.0000
  C   C1752     1.0  0.75289  0.13601  0.82614  1.0000
  H   H2103     1.0  0.97455  0.18016  0.69879  1.0000
  C   C1753     1.0  0.75753  0.16060  0.83429  1.0000
  H   H2104     1.0  0.59071  0.06340  0.96875  1.0000
  C   C1754     1.0  0.65363  0.14833  0.89208  1.0000
  C   C1755     1.0  0.97154  0.05380  0.64554  1.0000
  H   H2105     1.0  0.51754  0.17198  0.88166  1.0000
  H   H2106     1.0  0.54723  0.05408  0.81334  1.0000
  C   C1756     1.0  0.74687  0.22602  0.93507  1.0000
  C   C1757     1.0  0.57389  0.11572  0.97673  1.0000
  C   C1758     1.0  0.64422  0.08644  0.77837  1.0000
  H   H2107     1.0  0.71864  0.14579  0.80489  1.0000
  H   H2108     1.0  0.51107  0.98840  0.82703  1.0000
  S   S484      1.0  0.99501  0.08373  0.66677  1.0000
  C   C1759     1.0  0.76900  0.99515  0.70541  1.0000
  H   H2109     1.0  0.62043  0.12653  0.76006  1.0000
  H   H2110     1.0  0.60378  0.05638  0.87662  1.0000
  S   S485      1.0  0.68301  0.07411  0.95800  1.0000
  H   H2111     1.0  0.54602  0.06045  0.79042  1.0000
  H   H2112     1.0  0.60632  0.08614  0.84181  1.0000
  C   C1760     1.0  0.62459  0.10253  0.80066  1.0000
  C   C1761     1.0  0.85658  0.15556  0.70167  1.0000
  S   S486      1.0  0.67556  0.13664  0.84232  1.0000
  H   H2113     1.0  0.78969  0.12065  0.69031  1.0000
  C   C1762     1.0  0.79726  0.20597  0.91289  1.0000
  H   H2114     1.0  0.62621  0.10228  0.94104  1.0000
  H   H2115     1.0  0.95688  0.09882  0.65105  1.0000
  H   H2116     1.0  0.90576  0.13716  0.72026  1.0000
  H   H2117     1.0  0.84341  0.00322  0.67752  1.0000
  H   H2118     1.0  0.73519  0.09911  0.84209  1.0000
  S   S487      1.0  0.73241  0.18629  0.86894  1.0000
  C   C1763     1.0  0.53062  0.15949  0.90314  1.0000
  H   H2119     1.0  0.80109  0.03880  0.70364  1.0000
  C   C1764     1.0  0.80002  0.19376  0.80585  1.0000
  C   C1765     1.0  0.72576  0.12155  0.82305  1.0000
  C   C1766     1.0  0.72779  0.13823  0.81329  1.0000
  H   H2120     1.0  0.85809  0.13504  0.66992  1.0000
  C   C1767     1.0  0.78876  0.12214  0.67698  1.0000
  C   C1768     1.0  0.99362  0.15960  0.83042  1.0000
  H   H2121     1.0  0.76266  0.18135  0.96464  1.0000
  C   C1769     1.0  0.92683  0.18320  0.76480  1.0000
  C   C1770     1.0  0.53504  0.02085  0.83720  1.0000
  H   H2122     1.0  0.52081  0.02602  0.83930  1.0000
  S   S488      1.0  0.66701  0.08803  0.86643  1.0000
  C   C1771     1.0  0.79347  0.18800  0.82380  1.0000
  H   H2123     1.0  0.93707  0.23394  0.75658  1.0000
  H   H2124     1.0  0.62999  0.15025  0.92295  1.0000
  H   H2125     1.0  0.97319  0.08450  0.73934  1.0000
  C   C1772     1.0  0.75044  0.11900  0.83592  1.0000
  S   S489      1.0  0.83955  0.10873  0.69465  1.0000
  N   N116      1.0  0.53305  0.00149  0.81875  1.0000
  H   H2126     1.0  0.69338  0.10849  0.86690  1.0000
  H   H2127     1.0  0.92313  0.22775  0.73852  1.0000
  H   H2128     1.0  0.73527  0.12760  0.95297  1.0000
  C   C1773     1.0  0.90753  0.13735  0.70616  1.0000
  H   H2129     1.0  0.68878  0.18073  0.92886  1.0000
  C   C1774     1.0  0.58370  0.10782  0.84468  1.0000
  S   S490      1.0  0.63258  0.12169  0.86708  1.0000
  C   C1775     1.0  0.84687  0.12639  0.69724  1.0000
  C   C1776     1.0  0.56342  0.08366  0.84696  1.0000
  S   S491      1.0  0.59623  0.12308  0.84323  1.0000
  H   H2130     1.0  0.83704  0.12132  0.72525  1.0000
  H   H2131     1.0  0.78512  0.12027  0.83618  1.0000
  H   H2132     1.0  0.51443  0.02643  0.81326  1.0000
  S   S492      1.0  0.79056  0.15884  0.91057  1.0000
  S   S493      1.0  0.65103  0.99780  0.78004  1.0000
  C   C1777     1.0  0.71120  0.11987  0.87373  1.0000
  H   H2133     1.0  0.60918  0.12808  0.79131  1.0000
  H   H2134     1.0  0.57984  0.99651  0.71809  1.0000
  C   C1778     1.0  0.57444  0.12206  0.92126  1.0000
  C   C1779     1.0  0.69155  0.13574  0.85382  1.0000
  N   N117      1.0  0.83946  0.21794  0.81264  1.0000
  H   H2135     1.0  0.84588  0.14687  0.72916  1.0000
  C   C1780     1.0  0.95364  0.17510  0.74338  1.0000
  H   H2136     1.0  0.74210  0.15842  0.80699  1.0000
  C   C1781     1.0  0.85530  0.13748  0.68281  1.0000
  C   C1782     1.0  0.69796  0.15088  0.85143  1.0000
  C   C1783     1.0  0.78972  0.16673  0.96411  1.0000
  C   C1784     1.0  0.77429  0.17387  0.95733  1.0000
  C   C1785     1.0  0.63767  0.10082  0.76544  1.0000
  C   C1786     1.0  0.71748  0.13505  0.87148  1.0000
  H   H2137     1.0  0.93527  0.14048  0.71500  1.0000
  H   H2138     1.0  0.69294  0.16289  0.84268  1.0000
  H   H2139     1.0  0.60559  0.08607  0.96689  1.0000
  S   S494      1.0  0.87757  0.15531  0.74829  1.0000
  C   C1787     1.0  0.71078  0.15060  0.86034  1.0000
  S   S495      1.0  0.73339  0.13411  0.88309  1.0000
  C   C1788     1.0  0.56852  0.10858  0.80428  1.0000
  H   H2140     1.0  0.59547  0.05738  0.80249  1.0000
  H   H2141     1.0  0.50991  0.00306  0.84019  1.0000
  H   H2142     1.0  0.89405  0.14256  0.70317  1.0000
  C   C1789     1.0  0.99014  0.13638  0.78093  1.0000
  C   C1790     1.0  0.96311  0.18232  0.75071  1.0000
  H   H2143     1.0  0.82466  0.14990  0.83104  1.0000
  H   H2144     1.0  0.94340  0.12780  0.69828  1.0000
  C   C1791     1.0  0.93552  0.17542  0.75047  1.0000
  C   C1792     1.0  0.92329  0.14862  0.67590  1.0000
  C   C1793     1.0  0.80470  0.15705  0.95463  1.0000
  C   C1794     1.0  0.77408  0.17131  0.94093  1.0000
  H   H2145     1.0  0.81663  0.15153  0.95980  1.0000
  C   C1795     1.0  0.80762  0.05819  0.66070  1.0000
  C   C1796     1.0  0.58259  0.05323  0.80664  1.0000
  H   H2146     1.0  0.90456  0.13251  0.67776  1.0000
  C   C1797     1.0  0.55510  0.05455  0.79967  1.0000
  H   H2147     1.0  0.57727  0.05348  0.82075  1.0000
  N   N118      1.0  0.56943  0.06426  0.79597  1.0000
  H   H2148     1.0  0.71539  0.16241  0.85858  1.0000
  H   H2149     1.0  0.86629  0.16069  0.67369  1.0000
  H   H2150     1.0  0.90848  0.09288  0.68925  1.0000
  H   H2151     1.0  0.76233  0.17680  0.93553  1.0000
  N   N119      1.0  0.92021  0.14835  0.69477  1.0000
  S   S496      1.0  0.87579  0.18432  0.77024  1.0000
  Fe  Fe251     1.0  0.76726  0.16936  0.89787  1.0000
  S   S497      1.0  0.84311  0.15462  0.79508  1.0000
  C   C1798     1.0  0.80451  0.15457  0.93841  1.0000
  C   C1799     1.0  0.80116  0.21320  0.96139  1.0000
  C   C1800     1.0  0.97558  0.09689  0.73976  1.0000
  Fe  Fe252     1.0  0.86241  0.20474  0.75027  1.0000
  H   H2152     1.0  0.92963  0.19600  0.78353  1.0000
  C   C1801     1.0  0.56274  0.08210  0.79977  1.0000
  C   C1802     1.0  0.93561  0.15799  0.66339  1.0000
  Fe  Fe253     1.0  0.89423  0.17382  0.74742  1.0000
  H   H2153     1.0  0.90973  0.16676  0.71174  1.0000
  C   C1803     1.0  0.78931  0.16170  0.93148  1.0000
  C   C1804     1.0  0.95450  0.18973  0.76530  1.0000
  H   H2154     1.0  0.58866  0.08590  0.79992  1.0000
  C   C1805     1.0  0.70940  0.23379  0.90463  1.0000
  C   C1806     1.0  0.53867  0.10813  0.80400  1.0000
  S   S498      1.0  0.77043  0.15921  0.87402  1.0000
  C   C1807     1.0  0.81776  0.16212  0.82396  1.0000
  C   C1808     1.0  0.57460  0.09156  0.80114  1.0000
  H   H2155     1.0  0.91235  0.12340  0.70475  1.0000
  Fe  Fe254     1.0  0.74156  0.15862  0.88329  1.0000
  S   S499      1.0  0.86215  0.17445  0.70350  1.0000
  H   H2156     1.0  0.97591  0.05484  0.67020  1.0000
  S   S500      1.0  0.50459  0.10391  0.84960  1.0000
  S   S501      1.0  0.66739  0.11994  0.96418  1.0000
  C   C1809     1.0  0.71075  0.12647  0.93258  1.0000
  H   H2157     1.0  0.53405  0.02302  0.79621  1.0000
  H   H2158     1.0  0.73772  0.23054  0.89478  1.0000
  C   C1810     1.0  0.78075  0.10999  0.65693  1.0000
  C   C1811     1.0  0.66915  0.12280  0.90988  1.0000
  H   H2159     1.0  0.64206  0.10099  0.75161  1.0000
  Fe  Fe255     1.0  0.85760  0.16832  0.76911  1.0000
  H   H2160     1.0  0.75149  0.23053  0.84852  1.0000
  H   H2161     1.0  0.79810  0.16803  0.84682  1.0000
  H   H2162     1.0  0.92317  0.05221  0.67097  1.0000
  H   H2163     1.0  0.91288  0.18350  0.77035  1.0000
  S   S502      1.0  0.62851  0.00401  0.74945  1.0000
  H   H2164     1.0  0.78311  0.10709  0.90482  1.0000
  Fe  Fe256     1.0  0.86461  0.17770  0.72937  1.0000
  C   C1812     1.0  0.82425  0.16782  0.80598  1.0000
  H   H2165     1.0  0.62826  0.04029  0.96179  1.0000
  C   C1813     1.0  0.54391  0.98786  0.80876  1.0000
  S   S503      1.0  0.73922  0.16600  0.90861  1.0000
  C   C1814     1.0  0.80256  0.17229  0.83289  1.0000
  C   C1815     1.0  0.93361  0.09589  0.67171  1.0000
  H   H2166     1.0  0.88798  0.21699  0.75911  1.0000
  H   H2167     1.0  0.70079  0.17175  0.90051  1.0000
  H   H2168     1.0  0.63341  0.12963  0.91702  1.0000
  C   C1816     1.0  0.97663  0.14795  0.78968  1.0000
  N   N120      1.0  0.65696  0.14032  0.90998  1.0000
  H   H2169     1.0  0.64134  0.13008  0.93516  1.0000
  C   C1817     1.0  0.65873  0.15693  0.93165  1.0000
  C   C1818     1.0  0.72228  0.09837  0.92475  1.0000
  C   C1819     1.0  0.74171  0.11304  0.93225  1.0000
  H   H2170     1.0  0.79866  0.17740  0.66060  1.0000
  S   S504      1.0  0.51018  0.07037  0.83181  1.0000
  S   S505      1.0  0.86745  0.07491  0.66464  1.0000
  C   C1820     1.0  0.63968  0.13753  0.92178  1.0000
  S   S506      1.0  0.82904  0.09751  0.65486  1.0000
  C   C1821     1.0  0.77259  0.11116  0.91551  1.0000
  H   H2171     1.0  0.89475  0.09139  0.66614  1.0000
  S   S507      1.0  0.98317  0.11133  0.69271  1.0000
  N   N121      1.0  0.72375  0.10950  0.93581  1.0000
  Fe  Fe257     1.0  0.53560  0.06222  0.97709  1.0000
  C   C1822     1.0  0.90824  0.09315  0.66276  1.0000
  N   N122      1.0  0.70357  0.21190  0.96148  1.0000
  C   C1823     1.0  0.68084  0.15703  0.90445  1.0000
  H   H2172     1.0  0.54163  0.15754  0.86025  1.0000
  H   H2173     1.0  0.66363  0.11399  0.90548  1.0000
  C   C1824     1.0  0.54268  0.15476  0.87379  1.0000
  H   H2174     1.0  0.51652  0.01190  0.79964  1.0000
  H   H2175     1.0  0.69083  0.21835  0.93990  1.0000
  H   H2176     1.0  0.62474  0.08147  0.97578  1.0000
  H   H2177     1.0  0.61976  0.06221  0.95028  1.0000
  H   H2178     1.0  0.68683  0.15316  0.89210  1.0000
  H   H2179     1.0  0.92319  0.20616  0.72290  1.0000
  H   H2180     1.0  0.78241  0.00095  0.67077  1.0000
  C   C1825     1.0  0.93367  0.22603  0.72715  1.0000
  S   S508      1.0  0.84346  0.04841  0.64660  1.0000
  C   C1826     1.0  0.51933  0.99350  0.83260  1.0000
  C   C1827     1.0  0.94695  0.21047  0.70366  1.0000
  C   C1828     1.0  0.79840  0.20869  0.92874  1.0000
  H   H2181     1.0  0.66213  0.17098  0.94901  1.0000
  H   H2182     1.0  0.73189  0.08543  0.92644  1.0000
  C   C1829     1.0  0.54108  0.99816  0.76233  1.0000
  C   C1830     1.0  0.79472  0.13578  0.66310  1.0000
  C   C1831     1.0  0.79347  0.22022  0.89924  1.0000
  S   S509      1.0  0.55102  0.08330  0.96490  1.0000
  C   C1832     1.0  0.82103  0.04711  0.65112  1.0000
  C   C1833     1.0  0.88410  0.22998  0.76189  1.0000
  S   S510      1.0  0.97415  0.12458  0.65349  1.0000
  H   H2183     1.0  0.84842  0.19581  0.80004  1.0000
  C   C1834     1.0  0.80103  0.14860  0.68455  1.0000
  C   C1835     1.0  0.94326  0.09746  0.65435  1.0000
  C   C1836     1.0  0.96443  0.12575  0.74627  1.0000
  H   H2184     1.0  0.71773  0.10822  0.96376  1.0000
  H   H2185     1.0  0.77771  0.09901  0.68453  1.0000
  C   C1837     1.0  0.82361  0.02184  0.69085  1.0000
  H   H2186     1.0  0.69717  0.12451  0.93424  1.0000
  C   C1838     1.0  0.96650  0.05380  0.66343  1.0000
  C   C1839     1.0  0.79383  0.16710  0.65773  1.0000
  C   C1840     1.0  0.96151  0.10959  0.74633  1.0000
  H   H2187     1.0  0.63808  0.05733  0.77314  1.0000
  H   H2188     1.0  0.76002  0.22022  0.92845  1.0000
  S   S511      1.0  0.70839  0.21201  0.90589  1.0000
  H   H2189     1.0  0.70557  0.09680  0.95732  1.0000
  H   H2190     1.0  0.66844  0.06346  0.79716  1.0000
  H   H2191     1.0  0.94823  0.10704  0.75119  1.0000
  C   C1841     1.0  0.93682  0.05218  0.66392  1.0000
  C   C1842     1.0  0.78187  0.10950  0.67384  1.0000
  C   C1843     1.0  0.85371  0.20585  0.80285  1.0000
  H   H2192     1.0  0.50083  0.11722  0.87959  1.0000
  H   H2193     1.0  0.86425  0.19856  0.81031  1.0000
  H   H2194     1.0  0.58612  0.00400  0.83100  1.0000
  N   N123      1.0  0.80261  0.14908  0.66579  1.0000
  H   H2195     1.0  0.55424  0.99308  0.79784  1.0000
  C   C1844     1.0  0.93357  0.21360  0.71826  1.0000
  C   C1845     1.0  0.68748  0.21887  0.95396  1.0000
  H   H2196     1.0  0.57235  0.05796  0.87947  1.0000
  H   H2197     1.0  0.80858  0.13590  0.69117  1.0000
  C   C1846     1.0  0.79973  0.00022  0.69467  1.0000
  H   H2198     1.0  0.82450  0.23160  0.93740  1.0000
  H   H2199     1.0  0.78027  0.02091  0.70693  1.0000
  H   H2200     1.0  0.79942  0.19267  0.91115  1.0000
  H   H2201     1.0  0.79603  0.02157  0.64646  1.0000
  H   H2202     1.0  0.72457  0.10503  0.91065  1.0000
  C   C1847     1.0  0.79397  0.01604  0.70100  1.0000
  Fe  Fe258     1.0  0.98897  0.13234  0.66875  1.0000
  C   C1848     1.0  0.58846  0.12376  0.96866  1.0000
  C   C1849     1.0  0.96059  0.21964  0.69799  1.0000
  C   C1850     1.0  0.98056  0.15719  0.79977  1.0000
  H   H2203     1.0  0.79262  0.21794  0.88703  1.0000
  H   H2204     1.0  0.98254  0.14230  0.73957  1.0000
  C   C1851     1.0  0.74545  0.12254  0.94259  1.0000
  H   H2205     1.0  0.81408  0.20437  0.95692  1.0000
  H   H2206     1.0  0.82838  0.15558  0.65900  1.0000
  C   C1852     1.0  0.76233  0.12591  0.93961  1.0000
  Fe  Fe259     1.0  0.99291  0.20196  0.75850  1.0000
  H   H2207     1.0  0.67122  0.98893  0.68667  1.0000
  C   C1853     1.0  0.81672  0.03403  0.64585  1.0000
  C   C1854     1.0  0.56238  0.00232  0.82467  1.0000
  H   H2208     1.0  0.78900  0.12270  0.92395  1.0000
  C   C1855     1.0  0.49965  0.11407  0.89357  1.0000
  H   H2209     1.0  0.72173  0.18672  0.96646  1.0000
  S   S512      1.0  0.85210  0.23258  0.75426  1.0000
  C   C1856     1.0  0.91786  0.14008  0.65146  1.0000
  C   C1857     1.0  0.93905  0.15816  0.64554  1.0000
  H   H2210     1.0  0.97120  0.21684  0.68683  1.0000
  C   C1858     1.0  0.94167  0.05225  0.64602  1.0000
  H   H2211     1.0  0.96066  0.23088  0.74972  1.0000
  N   N124      1.0  0.79724  0.22944  0.94777  1.0000
  H   H2212     1.0  0.97985  0.18789  0.80839  1.0000
  H   H2213     1.0  0.99494  0.18855  0.71143  1.0000
  H   H2214     1.0  0.85993  0.21306  0.78985  1.0000
  H   H2215     1.0  0.81777  0.21429  0.83535  1.0000
  H   H2216     1.0  0.77571  0.09998  0.65451  1.0000
  C   C1859     1.0  0.49650  0.10644  0.92979  1.0000
  H   H2217     1.0  0.82219  0.21855  0.79626  1.0000
  H   H2218     1.0  0.68117  0.23274  0.95486  1.0000
  H   H2219     1.0  0.59047  0.98679  0.76574  1.0000
  C   C1860     1.0  0.60437  0.98675  0.72688  1.0000
  H   H2220     1.0  0.76022  0.98627  0.70637  1.0000
  C   C1861     1.0  0.86385  0.23331  0.81089  1.0000
  C   C1862     1.0  0.84612  0.23084  0.81751  1.0000
  S   S513      1.0  0.86264  0.11702  0.64457  1.0000
  C   C1863     1.0  0.82659  0.22762  0.80139  1.0000
  C   C1864     1.0  0.99550  0.16634  0.68126  1.0000
  C   C1865     1.0  0.99461  0.18460  0.80606  1.0000
  H   H2221     1.0  0.76903  0.23373  0.95877  1.0000
  S   S514      1.0  0.82620  0.45540  0.05698  1.0000
  Fe  Fe260     1.0  0.79003  0.30762  0.01900  1.0000
  S   S515      1.0  0.81430  0.31244  0.99833  1.0000
  S   S516      1.0  0.78618  0.28043  0.03288  1.0000
  Fe  Fe261     1.0  0.77587  0.34632  0.01983  1.0000
  S   S517      1.0  0.79897  0.35472  0.99944  1.0000
  S   S518      1.0  0.75158  0.36360  0.03275  1.0000
  C   C1866     1.0  0.75978  0.25906  0.00281  1.0000
  H   H2222     1.0  0.94327  0.38958  0.13929  1.0000
  Fe  Fe262     1.0  0.81541  0.33077  0.01385  1.0000
  S   S519      1.0  0.84097  0.32827  0.02117  1.0000
  S   S520      1.0  0.77112  0.32917  0.00498  1.0000
  S   S521      1.0  0.79256  0.32415  0.03563  1.0000
  C   C1867     1.0  0.76846  0.38849  0.03420  1.0000
  H   H2223     1.0  0.85551  0.43147  0.03797  1.0000
  H   H2224     1.0  0.84485  0.28529  0.01093  1.0000
  H   H2225     1.0  0.73129  0.37971  0.00515  1.0000
  C   C1868     1.0  0.86917  0.41618  0.15944  1.0000
  S   S522      1.0  0.97606  0.42322  0.08532  1.0000
  C   C1869     1.0  0.96537  0.43064  0.13495  1.0000
  S   S523      1.0  0.88103  0.46123  0.10943  1.0000
  H   H2226     1.0  0.88451  0.39435  0.14870  1.0000
  H   H2227     1.0  0.87579  0.43449  0.02234  1.0000
  H   H2228     1.0  0.83934  0.46052  0.08424  1.0000
  H   H2229     1.0  0.92631  0.31861  0.05446  1.0000
  H   H2230     1.0  0.72950  0.37942  0.06055  1.0000
  H   H2231     1.0  0.90074  0.43140  0.05623  1.0000
  H   H2232     1.0  0.89435  0.28530  0.02696  1.0000
  H   H2233     1.0  0.86719  0.28684  0.13020  1.0000
  Fe  Fe263     1.0  0.84017  0.38323  0.12445  1.0000
  S   S524      1.0  0.85572  0.38635  0.09676  1.0000
  S   S525      1.0  0.83075  0.40678  0.13681  1.0000
  Fe  Fe264     1.0  0.84002  0.34509  0.12744  1.0000
  S   S526      1.0  0.85602  0.34510  0.10021  1.0000
  S   S527      1.0  0.83213  0.31987  0.14341  1.0000
  Fe  Fe265     1.0  0.87222  0.35980  0.10652  1.0000
  S   S528      1.0  0.90179  0.35019  0.09890  1.0000
  Fe  Fe266     1.0  0.83814  0.37135  0.09310  1.0000
  S   S529      1.0  0.82599  0.38168  0.06960  1.0000
  S   S530      1.0  0.85789  0.35766  0.13462  1.0000
  S   S531      1.0  0.82077  0.37045  0.12000  1.0000
  H   H2234     1.0  0.86377  0.31203  0.08956  1.0000
  H   H2235     1.0  0.77496  0.43622  0.99646  1.0000
  H   H2236     1.0  0.75198  0.39878  0.00558  1.0000
  H   H2237     1.0  0.91535  0.23885  0.13005  1.0000
  Fe  Fe267     1.0  0.77562  0.48068  0.02566  1.0000
  S   S532      1.0  0.93929  0.41420  0.07065  1.0000
  C   C1870     1.0  0.76175  0.44895  0.09677  1.0000
  S   S533      1.0  0.96812  0.38349  0.10319  1.0000
  H   H2238     1.0  0.93842  0.46717  0.10436  1.0000
  S   S534      1.0  0.97158  0.40801  0.13531  1.0000
  H   H2239     1.0  0.82858  0.26465  0.13251  1.0000
  C   C1871     1.0  0.88776  0.27433  0.03138  1.0000
  C   C1872     1.0  0.86847  0.43249  0.16241  1.0000
  C   C1873     1.0  0.89974  0.42988  0.14866  1.0000
  C   C1874     1.0  0.92559  0.30328  0.09785  1.0000
  H   H2240     1.0  0.77943  0.29284  0.99801  1.0000
  C   C1875     1.0  0.88241  0.30205  0.13477  1.0000
  C   C1876     1.0  0.74945  0.46508  0.09498  1.0000
  C   C1877     1.0  0.76979  0.47897  0.10032  1.0000
  S   S535      1.0  0.80285  0.43253  0.03681  1.0000
  C   C1878     1.0  0.86979  0.27725  0.03116  1.0000
  H   H2241     1.0  0.91504  0.42503  0.11152  1.0000
  H   H2242     1.0  0.89116  0.31947  0.08995  1.0000
  C   C1879     1.0  0.94741  0.47978  0.06988  1.0000
  Fe  Fe268     1.0  0.96532  0.40402  0.07861  1.0000
  C   C1880     1.0  0.97358  0.30375  0.11138  1.0000
  Fe  Fe269     1.0  0.77369  0.44302  0.04559  1.0000
  H   H2243     1.0  0.80729  0.43486  0.11679  1.0000
  C   C1881     1.0  0.83395  0.25087  0.04331  1.0000
  H   H2244     1.0  0.85598  0.43998  0.16860  1.0000
  H   H2245     1.0  0.90457  0.39481  0.12053  1.0000
  S   S536      1.0  0.77666  0.46634  0.05335  1.0000
  Fe  Fe270     1.0  0.80567  0.45706  0.04238  1.0000
  C   C1882     1.0  0.83019  0.30683  0.13033  1.0000
  C   C1883     1.0  0.82897  0.31403  0.11287  1.0000
  C   C1884     1.0  0.82791  0.30339  0.10243  1.0000
  C   C1885     1.0  0.82791  0.28555  0.10942  1.0000
  C   C1886     1.0  0.82896  0.27833  0.12693  1.0000
  C   C1887     1.0  0.82994  0.28902  0.13741  1.0000
  H   H2246     1.0  0.82825  0.32792  0.10754  1.0000
  H   H2247     1.0  0.82705  0.30901  0.08892  1.0000
  H   H2248     1.0  0.83052  0.28351  0.15103  1.0000
  C   C1888     1.0  0.91247  0.36782  0.09123  1.0000
  C   C1889     1.0  0.93095  0.36482  0.08513  1.0000
  C   C1890     1.0  0.93933  0.37910  0.07863  1.0000
  C   C1891     1.0  0.92914  0.39631  0.07800  1.0000
  C   C1892     1.0  0.91079  0.39923  0.08418  1.0000
  C   C1893     1.0  0.90252  0.38499  0.09101  1.0000
  H   H2249     1.0  0.93877  0.35151  0.08551  1.0000
  H   H2250     1.0  0.95363  0.37680  0.07399  1.0000
  H   H2251     1.0  0.90306  0.41247  0.08408  1.0000
  H   H2252     1.0  0.88851  0.38735  0.09636  1.0000
  Fe  Fe271     1.0  0.79900  0.44956  0.01076  1.0000
  C   C1894     1.0  0.94672  0.45445  0.14875  1.0000
  C   C1895     1.0  0.95214  0.43650  0.14868  1.0000
  H   H2253     1.0  0.81543  0.44035  0.09333  1.0000
  H   H2254     1.0  0.87359  0.42209  0.07739  1.0000
  H   H2255     1.0  0.91820  0.25925  0.14379  1.0000
  H   H2256     1.0  0.87428  0.26545  0.11493  1.0000
  H   H2257     1.0  0.94613  0.42712  0.15936  1.0000
  C   C1896     1.0  0.80887  0.43100  0.10426  1.0000
  C   C1897     1.0  0.92522  0.41700  0.11916  1.0000
  C   C1898     1.0  0.78397  0.41729  0.11658  1.0000
  H   H2258     1.0  0.88315  0.45197  0.15948  1.0000
  H   H2259     1.0  0.80570  0.41119  0.08555  1.0000
  S   S537      1.0  0.75637  0.42504  0.06375  1.0000
  H   H2260     1.0  0.75735  0.23799  0.02572  1.0000
  H   H2261     1.0  0.93106  0.42607  0.12279  1.0000
  C   C1899     1.0  0.86650  0.44666  0.11605  1.0000
  C   C1900     1.0  0.87302  0.42950  0.11326  1.0000
  C   C1901     1.0  0.86199  0.41733  0.11918  1.0000
  C   C1902     1.0  0.84441  0.42220  0.12817  1.0000
  C   C1903     1.0  0.83780  0.43943  0.13080  1.0000
  C   C1904     1.0  0.84877  0.45167  0.12461  1.0000
  H   H2262     1.0  0.88671  0.42554  0.10684  1.0000
  H   H2263     1.0  0.86731  0.40398  0.11746  1.0000
  H   H2264     1.0  0.82422  0.44328  0.13780  1.0000
  H   H2265     1.0  0.84360  0.46482  0.12693  1.0000
  H   H2266     1.0  0.86231  0.44355  0.06756  1.0000
  S   S538      1.0  0.76946  0.45832  0.01903  1.0000
  C   C1905     1.0  0.96165  0.46756  0.06185  1.0000
  C   C1906     1.0  0.88505  0.40675  0.15081  1.0000
  S   S539      1.0  0.96025  0.28814  0.12126  1.0000
  H   H2267     1.0  0.78351  0.42089  0.08302  1.0000
  C   C1907     1.0  0.89728  0.25737  0.03704  1.0000
  C   C1908     1.0  0.87949  0.28625  0.13355  1.0000
  H   H2268     1.0  0.93647  0.45885  0.15942  1.0000
  H   H2269     1.0  0.76529  0.28100  0.98179  1.0000
  C   C1909     1.0  0.72705  0.30686  0.98384  1.0000
  C   C1910     1.0  0.89199  0.27006  0.13687  1.0000
  H   H2270     1.0  0.92513  0.38721  0.15803  1.0000
  C   C1911     1.0  0.77650  0.27201  0.02106  1.0000
  C   C1912     1.0  0.77449  0.28097  0.00414  1.0000
  C   C1913     1.0  0.87231  0.39796  0.05162  1.0000
  C   C1914     1.0  0.77866  0.44741  0.10009  1.0000
  C   C1915     1.0  0.76215  0.24993  0.01958  1.0000
  C   C1916     1.0  0.77058  0.25634  0.02864  1.0000
  S   S540      1.0  0.81135  0.44075  0.98553  1.0000
  S   S541      1.0  0.82595  0.27281  0.09612  1.0000
  H   H2271     1.0  0.88746  0.45108  0.04602  1.0000
  H   H2272     1.0  0.77229  0.24911  0.04154  1.0000
  C   C1917     1.0  0.83766  0.34361  0.03383  1.0000
  C   C1918     1.0  0.84754  0.33991  0.04660  1.0000
  C   C1919     1.0  0.84413  0.35163  0.05754  1.0000
  C   C1920     1.0  0.83107  0.36721  0.05554  1.0000
  C   C1921     1.0  0.82148  0.37109  0.04248  1.0000
  C   C1922     1.0  0.82465  0.35922  0.03174  1.0000
  H   H2273     1.0  0.85759  0.32783  0.04825  1.0000
  H   H2274     1.0  0.85171  0.34859  0.06740  1.0000
  H   H2275     1.0  0.81143  0.38318  0.04081  1.0000
  H   H2276     1.0  0.81708  0.36223  0.02181  1.0000
  N   N125      1.0  0.92569  0.30173  0.08011  1.0000
  H   H2277     1.0  0.91395  0.31303  0.10305  1.0000
  C   C1923     1.0  0.89786  0.30224  0.13927  1.0000
  H   H2278     1.0  0.85813  0.40350  0.05354  1.0000
  H   H2279     1.0  0.74638  0.26192  0.08723  1.0000
  H   H2280     1.0  0.72288  0.41087  0.00156  1.0000
  C   C1924     1.0  0.91052  0.28665  0.14246  1.0000
  C   C1925     1.0  0.92677  0.31900  0.06788  1.0000
  C   C1926     1.0  0.76918  0.40257  0.04077  1.0000
  Fe  Fe272     1.0  0.79574  0.33564  0.98582  1.0000
  H   H2281     1.0  0.95434  0.29278  0.07502  1.0000
  C   C1927     1.0  0.74071  0.38570  0.05512  1.0000
  C   C1928     1.0  0.75402  0.38026  0.04124  1.0000
  H   H2282     1.0  0.86876  0.23753  0.14940  1.0000
  N   N126      1.0  0.78310  0.34736  0.08376  1.0000
  C   C1929     1.0  0.76725  0.34433  0.08001  1.0000
  C   C1930     1.0  0.78240  0.36659  0.07811  1.0000
  C   C1931     1.0  0.79933  0.33838  0.07287  1.0000
  C   C1932     1.0  0.78358  0.34014  0.10250  1.0000
  C   C1933     1.0  0.78362  0.32206  0.10999  1.0000
  C   C1934     1.0  0.78489  0.35036  0.11355  1.0000
  C   C1935     1.0  0.78493  0.31469  0.12741  1.0000
  C   C1936     1.0  0.78629  0.34281  0.13094  1.0000
  C   C1937     1.0  0.78632  0.32504  0.13784  1.0000
  H   H2283     1.0  0.75476  0.35056  0.08824  1.0000
  H   H2284     1.0  0.76641  0.35001  0.06605  1.0000
  H   H2285     1.0  0.76742  0.33014  0.08227  1.0000
  H   H2286     1.0  0.77023  0.37434  0.08538  1.0000
  H   H2287     1.0  0.78228  0.37153  0.06396  1.0000
  H   H2288     1.0  0.79431  0.36988  0.07973  1.0000
  H   H2289     1.0  0.80015  0.32403  0.07511  1.0000
  H   H2290     1.0  0.79986  0.34386  0.05864  1.0000
  H   H2291     1.0  0.81154  0.33996  0.07570  1.0000
  H   H2292     1.0  0.78332  0.31331  0.10226  1.0000
  H   H2293     1.0  0.78527  0.36413  0.10902  1.0000
  H   H2294     1.0  0.78560  0.30072  0.13267  1.0000
  H   H2295     1.0  0.78786  0.35065  0.13902  1.0000
  H   H2296     1.0  0.78807  0.31915  0.15112  1.0000
  H   H2297     1.0  0.87249  0.31419  0.13240  1.0000
  H   H2298     1.0  0.79322  0.25947  0.08973  1.0000
  C   C1938     1.0  0.88376  0.43924  0.15720  1.0000
  H   H2299     1.0  0.78262  0.27328  0.07262  1.0000
  H   H2300     1.0  0.78014  0.40915  0.03515  1.0000
  H   H2301     1.0  0.85424  0.42472  0.06918  1.0000
  S   S542      1.0  0.95261  0.24293  0.07211  1.0000
  C   C1939     1.0  0.90775  0.27075  0.14124  1.0000
  S   S543      1.0  0.98647  0.26000  0.08734  1.0000
  Fe  Fe273     1.0  0.98112  0.40191  0.10866  1.0000
  H   H2302     1.0  0.71639  0.31723  0.98942  1.0000
  C   C1940     1.0  0.77786  0.44153  0.98251  1.0000
  C   C1941     1.0  0.78029  0.26387  0.08553  1.0000
  H   H2303     1.0  0.76837  0.38605  0.99158  1.0000
  H   H2304     1.0  0.91545  0.45484  0.08701  1.0000
  H   H2305     1.0  0.78050  0.42204  0.12896  1.0000
  H   H2306     1.0  0.74885  0.36910  0.99024  1.0000
  H   H2307     1.0  0.97011  0.34815  0.10154  1.0000
  H   H2308     1.0  0.82651  0.27491  0.01582  1.0000
  C   C1942     1.0  0.82000  0.47257  0.06810  1.0000
  H   H2309     1.0  0.79154  0.24908  0.05873  1.0000
  H   H2310     1.0  0.88276  0.24237  0.11742  1.0000
  N   N127      1.0  0.79157  0.43023  0.10155  1.0000
  H   H2311     1.0  0.83429  0.29354  0.03921  1.0000
  C   C1943     1.0  0.83093  0.28048  0.04540  1.0000
  H   H2312     1.0  0.92234  0.37540  0.04652  1.0000
  S   S544      1.0  0.99100  0.39191  0.06266  1.0000
  H   H2313     1.0  0.90189  0.43605  0.03293  1.0000
  H   H2314     1.0  0.81649  0.28252  0.04591  1.0000
  H   H2315     1.0  0.75808  0.43777  0.09506  1.0000
  H   H2316     1.0  0.84079  0.24010  0.03614  1.0000
  N   N128      1.0  0.93008  0.47547  0.07983  1.0000
  C   C1944     1.0  0.89587  0.37179  0.05037  1.0000
  H   H2317     1.0  0.93349  0.40694  0.15082  1.0000
  H   H2318     1.0  0.93924  0.32299  0.06707  1.0000
  H   H2319     1.0  0.94388  0.28739  0.06103  1.0000
  H   H2320     1.0  0.73143  0.40332  0.07285  1.0000
  H   H2321     1.0  0.91336  0.40672  0.04504  1.0000
  C   C1945     1.0  0.74177  0.39923  0.06207  1.0000
  N   N129      1.0  0.91751  0.40441  0.13466  1.0000
  C   C1946     1.0  0.96580  0.32173  0.11011  1.0000
  H   H2322     1.0  0.92754  0.38418  0.11946  1.0000
  C   C1947     1.0  0.77372  0.23749  0.11684  1.0000
  C   C1948     1.0  0.75351  0.48009  0.09663  1.0000
  C   C1949     1.0  0.87790  0.37991  0.05221  1.0000
  H   H2323     1.0  0.72782  0.37953  0.98426  1.0000
  H   H2324     1.0  0.76353  0.40961  0.98492  1.0000
  Fe  Fe274     1.0  0.96936  0.24116  0.09071  1.0000
  C   C1950     1.0  0.97809  0.47187  0.05319  1.0000
  H   H2325     1.0  0.90010  0.31456  0.14012  1.0000
  C   C1951     1.0  0.90838  0.38178  0.04762  1.0000
  S   S545      1.0  0.80502  0.47313  0.01524  1.0000
  H   H2326     1.0  0.81978  0.25392  0.04243  1.0000
  H   H2327     1.0  0.79360  0.40439  0.11851  1.0000
  H   H2328     1.0  0.75935  0.26638  0.06518  1.0000
  H   H2329     1.0  0.73687  0.46600  0.09189  1.0000
  C   C1952     1.0  0.95491  0.46664  0.13538  1.0000
  C   C1953     1.0  0.92869  0.45760  0.07971  1.0000
  H   H2330     1.0  0.93635  0.41019  0.11005  1.0000
  C   C1954     1.0  0.77061  0.23586  0.10104  1.0000
  H   H2331     1.0  0.95164  0.32591  0.11503  1.0000
  H   H2332     1.0  0.91568  0.32976  0.07218  1.0000
  H   H2333     1.0  0.73169  0.42521  0.98201  1.0000
  C   C1955     1.0  0.75583  0.40788  0.05480  1.0000
  N   N130      1.0  0.77401  0.24875  0.08423  1.0000
  C   C1956     1.0  0.86074  0.26321  0.03672  1.0000
  C   C1957     1.0  0.84048  0.27268  0.01717  1.0000
  H   H2334     1.0  0.97458  0.47026  0.11124  1.0000
  Fe  Fe275     1.0  0.97279  0.26149  0.11506  1.0000
  C   C1958     1.0  0.78224  0.46292  0.10204  1.0000
  C   C1959     1.0  0.97333  0.44286  0.12131  1.0000
  N   N131      1.0  0.84187  0.26660  0.03577  1.0000
  H   H2335     1.0  0.90006  0.35772  0.05124  1.0000
  C   C1960     1.0  0.79537  0.42367  0.08530  1.0000
  H   H2336     1.0  0.83272  0.27695  0.05911  1.0000
  C   C1961     1.0  0.92739  0.47634  0.09839  1.0000
  C   C1962     1.0  0.78788  0.23977  0.07130  1.0000
  C   C1963     1.0  0.82899  0.47182  0.08083  1.0000
  C   C1964     1.0  0.97627  0.33436  0.10254  1.0000
  H   H2337     1.0  0.77176  0.41472  0.11478  1.0000
  C   C1965     1.0  0.76627  0.27439  0.99499  1.0000
  H   H2338     1.0  0.81842  0.41800  0.10484  1.0000
  H   H2339     1.0  0.80035  0.43346  0.07367  1.0000
  H   H2340     1.0  0.85718  0.41104  0.16333  1.0000
  H   H2341     1.0  0.83439  0.24568  0.05741  1.0000
  H   H2342     1.0  0.79467  0.46313  0.10462  1.0000
  H   H2343     1.0  0.92272  0.28692  0.14565  1.0000
  H   H2344     1.0  0.91169  0.37878  0.13906  1.0000
  C   C1966     1.0  0.90263  0.23770  0.13982  1.0000
  S   S546      1.0  0.74886  0.25120  0.99166  1.0000
  H   H2345     1.0  0.98382  0.43837  0.11084  1.0000
  H   H2346     1.0  0.93870  0.44712  0.08606  1.0000
  H   H2347     1.0  0.77884  0.38431  0.02349  1.0000
  H   H2348     1.0  0.86315  0.45081  0.03495  1.0000
  S   S547      1.0  0.95420  0.24443  0.11755  1.0000
  H   H2349     1.0  0.86813  0.37219  0.05436  1.0000
  C   C1967     1.0  0.90071  0.41364  0.14460  1.0000
  H   H2350     1.0  0.75304  0.24577  0.07401  1.0000
  C   C1968     1.0  0.91515  0.38995  0.12819  1.0000
  H   H2351     1.0  0.92564  0.29040  0.10731  1.0000
  C   C1969     1.0  0.94224  0.28882  0.07463  1.0000
  C   C1970     1.0  0.90917  0.29677  0.08031  1.0000
  C   C1971     1.0  0.90923  0.28156  0.07478  1.0000
  C   C1972     1.0  0.89227  0.30762  0.08567  1.0000
  C   C1973     1.0  0.89333  0.27767  0.07458  1.0000
  C   C1974     1.0  0.87650  0.30354  0.08547  1.0000
  C   C1975     1.0  0.87702  0.28864  0.07988  1.0000
  H   H2352     1.0  0.93748  0.30777  0.09795  1.0000
  H   H2353     1.0  0.91126  0.43560  0.14500  1.0000
  H   H2354     1.0  0.94243  0.27562  0.08360  1.0000
  H   H2355     1.0  0.92138  0.27244  0.07053  1.0000
  H   H2356     1.0  0.89360  0.26600  0.07042  1.0000
  C   C1976     1.0  0.93037  0.39669  0.14620  1.0000
  H   H2357     1.0  0.86472  0.28556  0.07974  1.0000
  N   N132      1.0  0.87826  0.42748  0.04923  1.0000
  C   C1977     1.0  0.86781  0.43639  0.03551  1.0000
  C   C1978     1.0  0.86665  0.42951  0.06658  1.0000
  C   C1979     1.0  0.89279  0.43683  0.04594  1.0000
  C   C1980     1.0  0.88465  0.40852  0.04906  1.0000
  C   C1981     1.0  0.90296  0.39990  0.04685  1.0000
  H   H2358     1.0  0.86307  0.29063  0.02635  1.0000
  H   H2359     1.0  0.89784  0.25695  0.10823  1.0000
  Fe  Fe276     1.0  0.83488  0.24352  0.10501  1.0000
  C   C1982     1.0  0.75747  0.25600  0.07742  1.0000
  H   H2360     1.0  0.77033  0.27148  0.09481  1.0000
  H   H2361     1.0  0.91929  0.24195  0.06583  1.0000
  C   C1983     1.0  0.87169  0.25029  0.14913  1.0000
  C   C1984     1.0  0.99188  0.29846  0.10488  1.0000
  H   H2362     1.0  0.91128  0.25511  0.03698  1.0000
  H   H2363     1.0  0.85982  0.26063  0.14620  1.0000
  H   H2364     1.0  0.93043  0.45599  0.06615  1.0000
  C   C1985     1.0  0.99464  0.32907  0.09647  1.0000
  H   H2365     1.0  0.87271  0.25006  0.16255  1.0000
  C   C1986     1.0  0.96823  0.46088  0.12162  1.0000
  N   N133      1.0  0.88821  0.25343  0.13610  1.0000
  H   H2366     1.0  0.96051  0.45453  0.06212  1.0000
  C   C1987     1.0  0.87085  0.24606  0.04247  1.0000
  H   H2367     1.0  0.84886  0.26278  0.00941  1.0000
  C   C1988     1.0  0.88566  0.25469  0.11840  1.0000
  H   H2368     1.0  0.73977  0.30735  0.98643  1.0000
  H   H2369     1.0  0.91467  0.47277  0.10644  1.0000
  Fe  Fe277     1.0  0.99513  0.37301  0.08792  1.0000
  H   H2370     1.0  0.77830  0.24851  0.11762  1.0000
  H   H2371     1.0  0.75158  0.44287  0.97959  1.0000
  C   C1989     1.0  0.73761  0.38079  0.99095  1.0000
  C   C1990     1.0  0.75746  0.39804  0.99159  1.0000
  C   C1991     1.0  0.88882  0.24330  0.04269  1.0000
  H   H2372     1.0  0.72442  0.29375  0.99152  1.0000
  H   H2373     1.0  0.98890  0.46214  0.04757  1.0000
  H   H2374     1.0  0.71678  0.41225  0.98161  1.0000
  S   S548      1.0  0.99239  0.23911  0.12750  1.0000
  N   N134      1.0  0.74353  0.39763  0.98305  1.0000
  C   C1992     1.0  0.72803  0.41214  0.98716  1.0000
  H   H2375     1.0  0.90493  0.23551  0.15320  1.0000
  H   H2376     1.0  0.90225  0.48494  0.07896  1.0000
  H   H2377     1.0  0.90129  0.48437  0.17799  1.0000
  S   S549      1.0  0.90417  0.28350  0.81127  1.0000
  S   S550      1.0  0.90744  0.26100  0.77518  1.0000
  Fe  Fe278     1.0  0.87828  0.30305  0.81521  1.0000
  S   S551      1.0  0.85903  0.30042  0.84120  1.0000
  Fe  Fe279     1.0  0.91632  0.30697  0.79882  1.0000
  S   S552      1.0  0.94075  0.30917  0.80573  1.0000
  C   C1993     1.0  0.83818  0.38845  0.95709  1.0000
  Fe  Fe280     1.0  0.76588  0.30559  0.86774  1.0000
  S   S553      1.0  0.78094  0.29868  0.84219  1.0000
  Fe  Fe281     1.0  0.76779  0.30076  0.90513  1.0000
  S   S554      1.0  0.78298  0.28732  0.92633  1.0000
  S   S555      1.0  0.70909  0.28970  0.90678  1.0000
  S   S556      1.0  0.76098  0.28403  0.89134  1.0000
  N   N135      1.0  0.82866  0.35670  0.82747  1.0000
  H   H2378     1.0  0.86819  0.46053  0.89159  1.0000
  S   S557      1.0  0.89474  0.46607  0.79171  1.0000
  C   C1994     1.0  0.91786  0.37607  0.74818  1.0000
  H   H2379     1.0  0.90514  0.37212  0.75555  1.0000
  C   C1995     1.0  0.77785  0.39648  0.88111  1.0000
  H   H2380     1.0  0.99166  0.29146  0.76270  1.0000
  H   H2381     1.0  0.98416  0.39397  0.83472  1.0000
  C   C1996     1.0  0.86958  0.24588  0.81547  1.0000
  H   H2382     1.0  0.75343  0.28476  0.83888  1.0000
  S   S558      1.0  0.84495  0.42049  0.79326  1.0000
  Fe  Fe282     1.0  0.80613  0.45605  0.89541  1.0000
  C   C1997     1.0  0.97835  0.38501  0.78995  1.0000
  C   C1998     1.0  0.76693  0.25648  0.82333  1.0000
  C   C1999     1.0  0.79838  0.42628  0.80301  1.0000
  H   H2383     1.0  0.71170  0.30531  0.94960  1.0000
  H   H2384     1.0  0.77917  0.39108  0.81359  1.0000
  S   S559      1.0  0.98545  0.35810  0.74626  1.0000
  C   C2000     1.0  0.79329  0.41189  0.80104  1.0000
  H   H2385     1.0  0.82098  0.48313  0.83514  1.0000
  H   H2386     1.0  0.97265  0.37571  0.80094  1.0000
  H   H2387     1.0  0.83269  0.23685  0.78978  1.0000
  H   H2388     1.0  0.92875  0.36405  0.74835  1.0000
  H   H2389     1.0  0.76358  0.34543  0.83402  1.0000
  C   C2001     1.0  0.86210  0.43970  0.85672  1.0000
  Fe  Fe283     1.0  0.88535  0.44468  0.81339  1.0000
  C   C2002     1.0  0.90661  0.40493  0.75418  1.0000
  C   C2003     1.0  0.74306  0.29572  0.95799  1.0000
  N   N136      1.0  0.75630  0.25681  0.84139  1.0000
  H   H2390     1.0  0.78825  0.24842  0.89060  1.0000
  C   C2004     1.0  0.71278  0.24103  0.95168  1.0000
  H   H2391     1.0  0.83565  0.40846  0.76800  1.0000
  H   H2392     1.0  0.82470  0.43013  0.82492  1.0000
  C   C2005     1.0  0.79072  0.34199  0.81948  1.0000
  H   H2393     1.0  0.78871  0.33440  0.81142  1.0000
  H   H2394     1.0  0.75919  0.35404  0.94855  1.0000
  H   H2395     1.0  0.72150  0.26554  0.94236  1.0000
  C   C2006     1.0  0.71137  0.30533  0.96338  1.0000
  H   H2396     1.0  0.94035  0.48009  0.77100  1.0000
  C   C2007     1.0  0.96093  0.25925  0.72298  1.0000
  C   C2008     1.0  0.75300  0.37628  0.88510  1.0000
  S   S560      1.0  0.97776  0.44498  0.80008  1.0000
  H   H2397     1.0  0.76798  0.36218  0.85295  1.0000
  C   C2009     1.0  0.86650  0.45460  0.88194  1.0000
  H   H2398     1.0  0.96967  0.38904  0.82435  1.0000
  H   H2399     1.0  0.81808  0.33936  0.80765  1.0000
  C   C2010     1.0  0.77909  0.35751  0.84297  1.0000
  H   H2400     1.0  0.81864  0.45129  0.79796  1.0000
  C   C2011     1.0  0.83259  0.40451  0.91288  1.0000
  H   H2401     1.0  0.82424  0.38270  0.81098  1.0000
  C   C2012     1.0  0.84667  0.39867  0.77249  1.0000
  C   C2013     1.0  0.97370  0.38745  0.77400  1.0000
  H   H2402     1.0  0.79860  0.27631  0.79239  1.0000
  H   H2403     1.0  0.83572  0.40583  0.88539  1.0000
  C   C2014     1.0  0.96909  0.44716  0.76898  1.0000
  H   H2404     1.0  0.79905  0.41470  0.94830  1.0000
  N   N137      1.0  0.92154  0.38926  0.75548  1.0000
  H   H2405     1.0  0.97174  0.23874  0.70168  1.0000
  C   C2015     1.0  0.79595  0.36043  0.84120  1.0000
  C   C2016     1.0  0.85352  0.38343  0.76571  1.0000
  S   S561      1.0  0.89592  0.43984  0.83736  1.0000
  H   H2406     1.0  0.94082  0.40571  0.74752  1.0000
  C   C2017     1.0  0.85431  0.40149  0.78467  1.0000
  C   C2018     1.0  0.96455  0.44271  0.78730  1.0000
  H   H2407     1.0  0.71563  0.36269  0.92429  1.0000
  S   S562      1.0  0.91347  0.30840  0.77177  1.0000
  C   C2019     1.0  0.70971  0.26835  0.90503  1.0000
  C   C2020     1.0  0.72556  0.25689  0.89891  1.0000
  H   H2408     1.0  0.83860  0.39332  0.96847  1.0000
  C   C2021     1.0  0.85793  0.25632  0.82671  1.0000
  C   C2022     1.0  0.69360  0.24546  0.91021  1.0000
  C   C2023     1.0  0.69378  0.26256  0.91055  1.0000
  H   H2409     1.0  0.73792  0.26120  0.89476  1.0000
  H   H2410     1.0  0.97011  0.27767  0.78852  1.0000
  H   H2411     1.0  0.68113  0.24123  0.91445  1.0000
  H   H2412     1.0  0.68149  0.27137  0.91516  1.0000
  C   C2024     1.0  0.78813  0.30286  0.93429  1.0000
  C   C2025     1.0  0.79275  0.29799  0.95062  1.0000
  C   C2026     1.0  0.79556  0.31068  0.95768  1.0000
  C   C2027     1.0  0.79433  0.32808  0.94814  1.0000
  C   C2028     1.0  0.79029  0.33280  0.93158  1.0000
  C   C2029     1.0  0.78683  0.32028  0.92482  1.0000
  Fe  Fe284     1.0  0.77576  0.47465  0.87714  1.0000
  C   C2030     1.0  0.82825  0.37582  0.82364  1.0000
  H   H2413     1.0  0.78924  0.34626  0.92418  1.0000
  H   H2414     1.0  0.78315  0.32416  0.91230  1.0000
  C   C2031     1.0  0.89141  0.25326  0.77023  1.0000
  C   C2032     1.0  0.86736  0.24057  0.76016  1.0000
  H   H2415     1.0  0.77945  0.42365  0.84652  1.0000
  H   H2416     1.0  0.82546  0.47990  0.86443  1.0000
  C   C2033     1.0  0.86256  0.25746  0.76371  1.0000
  C   C2034     1.0  0.87462  0.26386  0.76864  1.0000
  H   H2417     1.0  0.80715  0.41011  0.96795  1.0000
  H   H2418     1.0  0.89346  0.45356  0.86700  1.0000
  C   C2035     1.0  0.86845  0.38867  0.79057  1.0000
  H   H2419     1.0  0.87102  0.27703  0.77096  1.0000
  C   C2036     1.0  0.80321  0.29707  0.84173  1.0000
  C   C2037     1.0  0.80863  0.29398  0.85742  1.0000
  C   C2038     1.0  0.82589  0.29481  0.85712  1.0000
  C   C2039     1.0  0.83786  0.29846  0.84113  1.0000
  H   H2420     1.0  0.79950  0.29107  0.86984  1.0000
  H   H2421     1.0  0.82991  0.29282  0.86929  1.0000
  C   C2040     1.0  0.95295  0.32307  0.78927  1.0000
  C   C2041     1.0  0.96632  0.32856  0.79298  1.0000
  C   C2042     1.0  0.97630  0.33950  0.77979  1.0000
  C   C2043     1.0  0.97281  0.34497  0.76296  1.0000
  C   C2044     1.0  0.95944  0.33957  0.75930  1.0000
  C   C2045     1.0  0.94956  0.32861  0.77244  1.0000
  H   H2422     1.0  0.96891  0.32439  0.80603  1.0000
  H   H2423     1.0  0.73283  0.42348  0.95418  1.0000
  H   H2424     1.0  0.95707  0.34347  0.74618  1.0000
  H   H2425     1.0  0.93943  0.32441  0.76942  1.0000
  H   H2426     1.0  0.79714  0.37183  0.88221  1.0000
  Fe  Fe285     1.0  0.89933  0.28627  0.78472  1.0000
  Fe  Fe286     1.0  0.73359  0.30086  0.89617  1.0000
  S   S563      1.0  0.79399  0.40880  0.87713  1.0000
  H   H2427     1.0  0.81801  0.37138  0.94556  1.0000
  C   C2046     1.0  0.86756  0.37053  0.77160  1.0000
  C   C2047     1.0  0.93697  0.43700  0.78596  1.0000
  H   H2428     1.0  0.79376  0.28452  0.95799  1.0000
  N   N138      1.0  0.82671  0.40176  0.94589  1.0000
  S   S564      1.0  0.73745  0.36424  0.88596  1.0000
  C   C2048     1.0  0.72522  0.25147  0.94304  1.0000
  H   H2429     1.0  0.89391  0.40174  0.76266  1.0000
  C   C2049     1.0  0.77086  0.36812  0.88491  1.0000
  S   S565      1.0  0.78206  0.47730  0.90113  1.0000
  H   H2430     1.0  0.80863  0.43071  0.84505  1.0000
  H   H2431     1.0  0.77733  0.23879  0.85301  1.0000
  C   C2050     1.0  0.74490  0.33319  0.95675  1.0000
  C   C2051     1.0  0.76476  0.44487  0.97291  1.0000
  H   H2432     1.0  0.79025  0.25367  0.91795  1.0000
  H   H2433     1.0  0.77686  0.26167  0.85077  1.0000
  H   H2434     1.0  0.73365  0.40091  0.88419  1.0000
  C   C2052     1.0  0.78773  0.25649  0.78874  1.0000
  C   C2053     1.0  0.80589  0.45803  0.80538  1.0000
  H   H2435     1.0  0.82520  0.35442  0.85533  1.0000
  H   H2436     1.0  0.93187  0.39684  0.80629  1.0000
  C   C2054     1.0  0.78328  0.37822  0.88270  1.0000
  H   H2437     1.0  0.79744  0.40816  0.78846  1.0000
  H   H2438     1.0  0.92193  0.34687  0.80840  1.0000
  C   C2055     1.0  0.75986  0.40461  0.88210  1.0000
  H   H2439     1.0  0.84691  0.41701  0.93377  1.0000
  H   H2440     1.0  0.84168  0.30358  0.81312  1.0000
  C   C2056     1.0  0.81080  0.35408  0.82852  1.0000
  S   S566      1.0  0.89088  0.32633  0.80562  1.0000
  H   H2441     1.0  0.80661  0.43293  0.79161  1.0000
  C   C2057     1.0  0.77920  0.26760  0.81525  1.0000
  C   C2058     1.0  0.87491  0.37308  0.78421  1.0000
  H   H2442     1.0  0.73429  0.24753  0.83947  1.0000
  C   C2059     1.0  0.82731  0.39523  0.93041  1.0000
  H   H2443     1.0  0.78099  0.27646  0.82202  1.0000
  S   S567      1.0  0.79315  0.43380  0.91065  1.0000
  H   H2444     1.0  0.77225  0.40199  0.91403  1.0000
  H   H2445     1.0  0.78928  0.45785  0.93230  1.0000
  H   H2446     1.0  0.97817  0.26354  0.80740  1.0000
  C   C2060     1.0  0.80817  0.40491  0.95631  1.0000
  C   C2061     1.0  0.74406  0.24446  0.84788  1.0000
  H   H2447     1.0  0.96088  0.48045  0.78563  1.0000
  H   H2448     1.0  0.82442  0.42931  0.93338  1.0000
  H   H2449     1.0  0.83338  0.37601  0.96270  1.0000
  H   H2450     1.0  0.88576  0.36322  0.78880  1.0000
  C   C2062     1.0  0.73060  0.32696  0.95523  1.0000
  C   C2063     1.0  0.83392  0.34817  0.84448  1.0000
  H   H2451     1.0  0.74055  0.37272  0.92773  1.0000
  H   H2452     1.0  0.76084  0.25153  0.86746  1.0000
  H   H2453     1.0  0.99252  0.36347  0.81821  1.0000
  C   C2064     1.0  0.76580  0.38605  0.95804  1.0000
  C   C2065     1.0  0.97964  0.27562  0.79698  1.0000
  N   N139      1.0  0.94648  0.24942  0.73093  1.0000
  H   H2454     1.0  0.73610  0.24520  0.86136  1.0000
  H   H2455     1.0  0.77210  0.46181  0.82604  1.0000
  C   C2066     1.0  0.98041  0.39615  0.82197  1.0000
  H   H2456     1.0  0.88311  0.24771  0.81009  1.0000
  H   H2457     1.0  0.97513  0.28687  0.80362  1.0000
  C   C2067     1.0  0.74807  0.34971  0.94731  1.0000
  C   C2068     1.0  0.76562  0.24526  0.81327  1.0000
  H   H2458     1.0  0.99311  0.30275  0.77772  1.0000
  H   H2459     1.0  0.83139  0.26268  0.84186  1.0000
  C   C2069     1.0  0.81326  0.43885  0.83194  1.0000
  C   C2070     1.0  0.94872  0.43715  0.79573  1.0000
  C   C2071     1.0  0.99043  0.39407  0.79156  1.0000
  C   C2072     1.0  0.84798  0.44325  0.87082  1.0000
  C   C2073     1.0  0.74224  0.24398  0.93478  1.0000
  N   N140      1.0  0.72791  0.30912  0.96489  1.0000
  C   C2074     1.0  0.92933  0.26255  0.73109  1.0000
  H   H2460     1.0  0.78457  0.37719  0.93581  1.0000
  S   S568      1.0  0.75989  0.45377  0.89090  1.0000
  C   C2075     1.0  0.78027  0.24047  0.95543  1.0000
  H   H2461     1.0  0.81168  0.45343  0.94920  1.0000
  H   H2462     1.0  0.74352  0.29576  0.94427  1.0000
  H   H2463     1.0  0.84000  0.35514  0.80037  1.0000
  S   S569      1.0  0.89157  0.42499  0.79677  1.0000
  H   H2464     1.0  0.96081  0.45038  0.74498  1.0000
  H   H2465     1.0  0.91654  0.38132  0.73433  1.0000
  H   H2466     1.0  0.93768  0.39842  0.73017  1.0000
  H   H2467     1.0  0.70889  0.33468  0.94113  1.0000
  H   H2468     1.0  0.80897  0.46966  0.80772  1.0000
  H   H2469     1.0  0.99434  0.26141  0.76856  1.0000
  C   C2076     1.0  0.71980  0.33832  0.94355  1.0000
  H   H2470     1.0  0.94738  0.25055  0.75688  1.0000
  H   H2471     1.0  0.69939  0.31510  0.96816  1.0000
  C   C2077     1.0  0.78937  0.26761  0.79823  1.0000
  C   C2078     1.0  0.72344  0.35461  0.93381  1.0000
  H   H2472     1.0  0.96002  0.26930  0.73034  1.0000
  H   H2473     1.0  0.80291  0.39272  0.96134  1.0000
  C   C2079     1.0  0.81536  0.29992  0.82575  1.0000
  H   H2474     1.0  0.82067  0.24139  0.83358  1.0000
  C   C2080     1.0  0.83264  0.30076  0.82547  1.0000
  C   C2081     1.0  0.92344  0.38276  0.77391  1.0000
  Fe  Fe287     1.0  0.89893  0.44723  0.77469  1.0000
  S   S570      1.0  0.73985  0.31599  0.91199  1.0000
  H   H2475     1.0  0.93427  0.46946  0.80397  1.0000
  C   C2082     1.0  0.76839  0.25198  0.85366  1.0000
  C   C2083     1.0  0.77653  0.34816  0.83225  1.0000
  C   C2084     1.0  0.79873  0.45066  0.95585  1.0000
  S   S571      1.0  0.87242  0.30424  0.78949  1.0000
  S   S572      1.0  0.80118  0.45546  0.86994  1.0000
  H   H2476     1.0  0.96494  0.37994  0.77295  1.0000
  S   S573      1.0  0.87595  0.35179  0.76241  1.0000
  H   H2477     1.0  0.81888  0.38245  0.83398  1.0000
  Fe  Fe288     1.0  0.86400  0.43670  0.79238  1.0000
  H   H2478     1.0  0.77040  0.39906  0.84256  1.0000
  H   H2479     1.0  0.85208  0.38509  0.94948  1.0000
  C   C2085     1.0  0.73754  0.36028  0.93566  1.0000
  S   S574      1.0  0.75313  0.45345  0.94231  1.0000
  H   H2480     1.0  0.90461  0.41012  0.74053  1.0000
  C   C2086     1.0  0.78590  0.45333  0.94624  1.0000
  H   H2481     1.0  0.73681  0.27546  0.85546  1.0000
  C   C2087     1.0  0.83212  0.39831  0.89864  1.0000
  H   H2482     1.0  0.98161  0.45082  0.76236  1.0000
  H   H2483     1.0  0.77955  0.45062  0.84599  1.0000
  C   C2088     1.0  0.98071  0.39910  0.75927  1.0000
  C   C2089     1.0  0.78324  0.42103  0.83354  1.0000
  C   C2090     1.0  0.78310  0.40221  0.81518  1.0000
  Fe  Fe289     1.0  0.86690  0.47440  0.78794  1.0000
  C   C2091     1.0  0.85004  0.45108  0.88321  1.0000
  C   C2092     1.0  0.77592  0.24532  0.79626  1.0000
  C   C2093     1.0  0.74749  0.39453  0.88395  1.0000
  H   H2484     1.0  0.94990  0.38315  0.74571  1.0000
  H   H2485     1.0  0.75555  0.41871  0.88093  1.0000
  H   H2486     1.0  0.74620  0.42478  0.92353  1.0000
  C   C2094     1.0  0.88076  0.45069  0.86805  1.0000
  C   C2095     1.0  0.95743  0.44668  0.75913  1.0000
  H   H2487     1.0  0.77186  0.37509  0.96715  1.0000
  S   S575      1.0  0.92535  0.44360  0.75580  1.0000
  H   H2488     1.0  0.75603  0.29804  0.95796  1.0000
  C   C2096     1.0  0.81164  0.23902  0.94401  1.0000
  S   S576      1.0  0.77554  0.32091  0.88092  1.0000
  C   C2097     1.0  0.82213  0.37922  0.93266  1.0000
  C   C2098     1.0  0.79212  0.24018  0.91706  1.0000
  H   H2489     1.0  0.70957  0.29203  0.97121  1.0000
  C   C2099     1.0  0.92718  0.48315  0.80514  1.0000
  Fe  Fe290     1.0  0.76848  0.45488  0.91457  1.0000
  H   H2490     1.0  0.81124  0.30218  0.81359  1.0000
  H   H2491     1.0  0.81844  0.44935  0.83395  1.0000
  H   H2492     1.0  0.97453  0.41044  0.81804  1.0000
  C   C2100     1.0  0.92712  0.37120  0.80927  1.0000
  H   H2493     1.0  0.82599  0.37819  0.89027  1.0000
  C   C2101     1.0  0.76889  0.45043  0.95469  1.0000
  C   C2102     1.0  0.77323  0.38714  0.94017  1.0000
  H   H2494     1.0  0.73632  0.27913  0.83271  1.0000
  H   H2495     1.0  0.94512  0.43366  0.80990  1.0000
  H   H2496     1.0  0.79608  0.46309  0.79682  1.0000
  S   S577      1.0  0.87172  0.45752  0.76862  1.0000
  H   H2497     1.0  0.83225  0.42309  0.95320  1.0000
  H   H2498     1.0  0.87426  0.39067  0.80018  1.0000
  H   H2499     1.0  0.85596  0.35143  0.81319  1.0000
  H   H2500     1.0  0.84960  0.26569  0.76242  1.0000
  C   C2103     1.0  0.92335  0.36004  0.80118  1.0000
  C   C2104     1.0  0.79480  0.44463  0.97395  1.0000
  C   C2105     1.0  0.76618  0.40102  0.92781  1.0000
  C   C2106     1.0  0.79325  0.43148  0.81933  1.0000
  Fe  Fe291     1.0  0.78613  0.43460  0.88571  1.0000
  C   C2107     1.0  0.72543  0.23953  0.89887  1.0000
  H   H2501     1.0  0.84780  0.34871  0.84393  1.0000
  H   H2502     1.0  0.90883  0.41599  0.75824  1.0000
  C   C2108     1.0  0.74389  0.41283  0.95102  1.0000
  H   H2503     1.0  0.75172  0.25220  0.92787  1.0000
  H   H2504     1.0  0.83677  0.41681  0.90974  1.0000
  Fe  Fe292     1.0  0.88700  0.32628  0.77954  1.0000
  C   C2109     1.0  0.84043  0.25437  0.83327  1.0000
  C   C2110     1.0  0.92735  0.39375  0.78257  1.0000
  C   C2111     1.0  0.92153  0.36565  0.78377  1.0000
  H   H2505     1.0  0.78108  0.24346  0.96770  1.0000
  H   H2506     1.0  0.86246  0.26607  0.83018  1.0000
  S   S578      1.0  0.73786  0.32139  0.87133  1.0000
  Fe  Fe293     1.0  0.74696  0.33504  0.88677  1.0000
  C   C2112     1.0  0.84278  0.34912  0.81368  1.0000
  C   C2113     1.0  0.82667  0.38271  0.90136  1.0000
  C   C2114     1.0  0.92910  0.38804  0.79998  1.0000
  C   C2115     1.0  0.78384  0.45744  0.83218  1.0000
  H   H2507     1.0  0.79571  0.25646  0.77556  1.0000
  C   C2116     1.0  0.94114  0.44200  0.76767  1.0000
  H   H2508     1.0  0.74234  0.28216  0.96572  1.0000
  H   H2509     1.0  0.86047  0.43363  0.84717  1.0000
  H   H2510     1.0  0.69975  0.24750  0.95783  1.0000
  C   C2117     1.0  0.93819  0.39434  0.74428  1.0000
  C   C2118     1.0  0.83287  0.41848  0.94130  1.0000
  S   S579      1.0  0.83202  0.45711  0.89994  1.0000
  H   H2511     1.0  0.91865  0.35627  0.77837  1.0000
  H   H2512     1.0  0.92454  0.43325  0.79271  1.0000
  H   H2513     1.0  0.79734  0.36749  0.85003  1.0000
  H   H2514     1.0  0.81362  0.24117  0.95620  1.0000
  C   C2119     1.0  0.83449  0.24199  0.82861  1.0000
  H   H2515     1.0  0.80867  0.25235  0.93543  1.0000
  C   C2120     1.0  0.75092  0.39892  0.96404  1.0000
  N   N141      1.0  0.79894  0.44626  0.82203  1.0000
  H   H2516     1.0  0.84451  0.33457  0.81620  1.0000
  C   C2121     1.0  0.87846  0.44353  0.85528  1.0000
  C   C2122     1.0  0.75150  0.41379  0.93320  1.0000
  H   H2517     1.0  0.97429  0.25040  0.72316  1.0000
  H   H2518     1.0  0.78734  0.46951  0.83306  1.0000
  H   H2519     1.0  0.84781  0.38157  0.75595  1.0000
  H   H2520     1.0  0.96046  0.26634  0.70923  1.0000
  H   H2521     1.0  0.84156  0.37826  0.82255  1.0000
  C   C2123     1.0  0.80763  0.34489  0.81754  1.0000
  H   H2522     1.0  0.92844  0.27300  0.73796  1.0000
  C   C2124     1.0  0.77815  0.40672  0.83144  1.0000
  H   H2523     1.0  0.77520  0.35406  0.88616  1.0000
  C   C2125     1.0  0.74526  0.27478  0.84212  1.0000
  H   H2524     1.0  0.92844  0.36678  0.82278  1.0000
  S   S580      1.0  0.85685  0.45447  0.81127  1.0000
  H   H2525     1.0  0.92747  0.26899  0.71756  1.0000
  H   H2526     1.0  0.92900  0.40692  0.77592  1.0000
  H   H2527     1.0  0.83564  0.43966  0.87221  1.0000
  H   H2528     1.0  0.83334  0.33397  0.84825  1.0000
  C   C2126     1.0  0.82185  0.37308  0.91832  1.0000
  H   H2529     1.0  0.81765  0.36088  0.92045  1.0000
  H   H2530     1.0  0.75414  0.32511  0.96481  1.0000
  S   S581      1.0  0.79691  0.34431  0.95705  1.0000
  H   H2531     1.0  0.77663  0.25343  0.94659  1.0000
  C   C2127     1.0  0.99222  0.40855  0.76047  1.0000
  C   C2128     1.0  0.94797  0.24085  0.74926  1.0000
  H   H2532     1.0  0.91771  0.25659  0.73816  1.0000
  H   H2533     1.0  0.98658  0.34380  0.78266  1.0000
  H   H2534     1.0  0.85067  0.48090  0.84211  1.0000
  H   H2535     1.0  0.97732  0.40068  0.74685  1.0000
  H   H2536     1.0  0.76494  0.48274  0.97173  1.0000
  H   H2537     1.0  0.79877  0.30696  0.97044  1.0000
  C   C2129     1.0  0.79094  0.23731  0.90130  1.0000
  H   H2538     1.0  0.77474  0.23659  0.78888  1.0000
  H   H2539     1.0  0.75685  0.23617  0.81825  1.0000
  C   C2130     1.0  0.89595  0.23621  0.76719  1.0000
  C   C2131     1.0  0.94709  0.23594  0.72153  1.0000
  H   H2540     1.0  0.91280  0.48397  0.80654  1.0000
  H   H2541     1.0  0.81450  0.23547  0.80854  1.0000
  H   H2542     1.0  0.83920  0.54479  0.04764  1.0000
  C   C2132     1.0  0.90701  0.52663  0.16841  1.0000
  C   C2133     1.0  0.82269  0.55914  0.02858  1.0000
  H   H2543     1.0  0.77344  0.67539  0.04994  1.0000
  H   H2544     1.0  0.92958  0.63467  0.15274  1.0000
  H   H2545     1.0  0.91271  0.51037  0.14209  1.0000
  C   C2134     1.0  0.89701  0.54285  0.17302  1.0000
  H   H2546     1.0  0.89483  0.60085  0.09713  1.0000
  Fe  Fe294     1.0  0.86741  0.48992  0.10698  1.0000
  S   S582      1.0  0.76183  0.50841  0.01522  1.0000
  H   H2547     1.0  0.94042  0.50656  0.07405  1.0000
  H   H2548     1.0  0.93730  0.68770  0.30496  1.0000
  H   H2549     1.0  0.90800  0.71386  0.13116  1.0000
  C   C2135     1.0  0.69847  0.69075  0.07892  1.0000
  H   H2550     1.0  0.89247  0.50256  0.14931  1.0000
  H   H2551     1.0  0.78983  0.54043  0.02646  1.0000
  C   C2136     1.0  0.83700  0.55600  0.03693  1.0000
  C   C2137     1.0  0.90657  0.70246  0.16539  1.0000
  H   H2552     1.0  0.90510  0.69249  0.17797  1.0000
  C   C2138     1.0  0.53117  0.72757  0.97776  1.0000
  C   C2139     1.0  0.80945  0.71002  0.17199  1.0000
  H   H2553     1.0  0.89757  0.56825  0.17613  1.0000
  C   C2140     1.0  0.93180  0.72722  0.22187  1.0000
  Fe  Fe295     1.0  0.85558  0.52326  0.12136  1.0000
  Fe  Fe296     1.0  0.77142  0.61487  0.01491  1.0000
  S   S583      1.0  0.74590  0.60633  0.01975  1.0000
  S   S584      1.0  0.94768  0.48895  0.13628  1.0000
  Fe  Fe297     1.0  0.76371  0.62141  0.05158  1.0000
  S   S585      1.0  0.73735  0.61387  0.05897  1.0000
  S   S586      1.0  0.77129  0.62492  0.07477  1.0000
  Fe  Fe298     1.0  0.75203  0.59151  0.04582  1.0000
  S   S587      1.0  0.75154  0.56372  0.06064  1.0000
  Fe  Fe299     1.0  0.73391  0.62964  0.03228  1.0000
  S   S588      1.0  0.70775  0.64644  0.02633  1.0000
  S   S589      1.0  0.77858  0.59820  0.03988  1.0000
  S   S590      1.0  0.75914  0.63931  0.02581  1.0000
  C   C2141     1.0  0.80158  0.50082  0.07314  1.0000
  Fe  Fe300     1.0  0.84478  0.63303  0.12619  1.0000
  S   S591      1.0  0.86116  0.62623  0.10091  1.0000
  S   S592      1.0  0.83167  0.61351  0.14791  1.0000
  Fe  Fe301     1.0  0.85141  0.67014  0.11595  1.0000
  S   S593      1.0  0.86814  0.66636  0.08949  1.0000
  S   S594      1.0  0.84771  0.69670  0.12210  1.0000
  Fe  Fe302     1.0  0.84734  0.65308  0.08869  1.0000
  S   S595      1.0  0.83825  0.65648  0.06388  1.0000
  Fe  Fe303     1.0  0.88038  0.64002  0.10410  1.0000
  S   S596      1.0  0.90978  0.62799  0.09953  1.0000
  S   S597      1.0  0.82939  0.65916  0.11388  1.0000
  S   S598      1.0  0.86519  0.64452  0.13065  1.0000
  H   H2554     1.0  0.84680  0.67144  0.15540  1.0000
  C   C2142     1.0  0.92227  0.64032  0.10382  1.0000
  C   C2143     1.0  0.91629  0.65852  0.10221  1.0000
  C   C2144     1.0  0.92691  0.66836  0.10472  1.0000
  C   C2145     1.0  0.94344  0.66002  0.10902  1.0000
  C   C2146     1.0  0.94927  0.64176  0.11097  1.0000
  C   C2147     1.0  0.93873  0.63195  0.10827  1.0000
  H   H2555     1.0  0.90355  0.66506  0.09887  1.0000
  H   H2556     1.0  0.92224  0.68245  0.10340  1.0000
  H   H2557     1.0  0.96182  0.63518  0.11468  1.0000
  H   H2558     1.0  0.94326  0.61784  0.10976  1.0000
  H   H2559     1.0  0.66505  0.70170  0.03366  1.0000
  H   H2560     1.0  0.76768  0.56537  0.10685  1.0000
  H   H2561     1.0  0.78511  0.56077  0.08862  1.0000
  H   H2562     1.0  0.89081  0.69412  0.14115  1.0000
  H   H2563     1.0  0.77154  0.58291  0.08827  1.0000
  C   C2148     1.0  0.89420  0.58680  0.10270  1.0000
  C   C2149     1.0  0.79047  0.63291  0.07134  1.0000
  C   C2150     1.0  0.79613  0.63349  0.08593  1.0000
  C   C2151     1.0  0.81096  0.64046  0.08369  1.0000
  C   C2152     1.0  0.82003  0.64714  0.06686  1.0000
  C   C2153     1.0  0.81436  0.64656  0.05224  1.0000
  C   C2154     1.0  0.79964  0.63935  0.05447  1.0000
  H   H2564     1.0  0.78908  0.62852  0.09901  1.0000
  H   H2565     1.0  0.81532  0.64076  0.09501  1.0000
  H   H2566     1.0  0.82142  0.65167  0.03919  1.0000
  H   H2567     1.0  0.79534  0.63890  0.04316  1.0000
  C   C2155     1.0  0.85724  0.71367  0.16026  1.0000
  S   S599      1.0  0.85736  0.70061  0.19546  1.0000
  Fe  Fe304     1.0  0.96968  0.54341  0.12116  1.0000
  H   H2568     1.0  0.88268  0.54576  0.17704  1.0000
  S   S600      1.0  0.95913  0.55082  0.06216  1.0000
  H   H2569     1.0  0.89035  0.72081  0.28850  1.0000
  H   H2570     1.0  0.86008  0.72547  0.16151  1.0000
  C   C2156     1.0  0.70955  0.65974  0.07957  1.0000
  H   H2571     1.0  0.77477  0.58419  0.00041  1.0000
  H   H2572     1.0  0.97871  0.66302  0.03152  1.0000
  C   C2157     1.0  0.69081  0.70201  0.03657  1.0000
  C   C2158     1.0  0.67866  0.69451  0.03332  1.0000
  C   C2159     1.0  0.68401  0.67743  0.03014  1.0000
  C   C2160     1.0  0.70144  0.66772  0.03045  1.0000
  C   C2161     1.0  0.71362  0.67528  0.03355  1.0000
  C   C2162     1.0  0.70834  0.69245  0.03646  1.0000
  H   H2573     1.0  0.67452  0.67158  0.02785  1.0000
  H   H2574     1.0  0.72708  0.66790  0.03375  1.0000
  H   H2575     1.0  0.71781  0.69829  0.03878  1.0000
  S   S601      1.0  0.92934  0.73481  0.17386  1.0000
  N   N142      1.0  0.90633  0.57846  0.11500  1.0000
  H   H2576     1.0  0.79193  0.56206  0.05218  1.0000
  H   H2577     1.0  0.83049  0.52716  0.02238  1.0000
  H   H2578     1.0  0.93797  0.68143  0.16910  1.0000
  S   S602      1.0  0.98199  0.50802  0.09316  1.0000
  C   C2163     1.0  0.85118  0.69737  0.14230  1.0000
  H   H2579     1.0  0.78869  0.59020  0.12336  1.0000
  C   C2164     1.0  0.91052  0.53941  0.07551  1.0000
  H   H2580     1.0  0.80698  0.54878  0.10735  1.0000
  H   H2581     1.0  0.91957  0.60679  0.15141  1.0000
  C   C2165     1.0  0.70367  0.63906  0.98607  1.0000
  H   H2582     1.0  0.81186  0.51917  0.03737  1.0000
  H   H2583     1.0  0.84162  0.60588  0.05671  1.0000
  H   H2584     1.0  0.84323  0.59643  0.11813  1.0000
  C   C2166     1.0  0.75874  0.52364  0.02806  1.0000
  C   C2167     1.0  0.76081  0.51804  0.04538  1.0000
  C   C2168     1.0  0.75807  0.53047  0.05544  1.0000
  C   C2169     1.0  0.75377  0.54852  0.04806  1.0000
  C   C2170     1.0  0.75185  0.55413  0.03069  1.0000
  C   C2171     1.0  0.75415  0.54169  0.02077  1.0000
  H   H2585     1.0  0.76420  0.50416  0.05115  1.0000
  H   H2586     1.0  0.75942  0.52609  0.06892  1.0000
  H   H2587     1.0  0.74843  0.56802  0.02495  1.0000
  H   H2588     1.0  0.75242  0.54603  0.00741  1.0000
  H   H2589     1.0  0.79082  0.51183  0.07032  1.0000
  S   S603      1.0  0.89459  0.71253  0.20844  1.0000
  C   C2172     1.0  0.93618  0.71693  0.25819  1.0000
  C   C2173     1.0  0.84287  0.58639  0.13006  1.0000
  H   H2590     1.0  0.78876  0.55227  0.12548  1.0000
  C   C2174     1.0  0.95925  0.71309  0.27357  1.0000
  C   C2175     1.0  0.97360  0.59355  0.13446  1.0000
  H   H2591     1.0  0.70710  0.64690  0.08081  1.0000
  H   H2592     1.0  0.80954  0.69607  0.17613  1.0000
  H   H2593     1.0  0.73753  0.65016  0.07555  1.0000
  C   C2176     1.0  0.88412  0.59066  0.13973  1.0000
  C   C2177     1.0  0.84778  0.56841  0.12940  1.0000
  H   H2594     1.0  0.80819  0.54484  0.06179  1.0000
  C   C2178     1.0  0.84981  0.68318  0.15666  1.0000
  H   H2595     1.0  0.95338  0.70682  0.20159  1.0000
  S   S604      1.0  0.68441  0.72312  0.04118  1.0000
  H   H2596     1.0  0.86563  0.60188  0.16071  1.0000
  H   H2597     1.0  0.91409  0.50195  0.07368  1.0000
  C   C2179     1.0  0.92571  0.52486  0.16265  1.0000
  C   C2180     1.0  0.84198  0.56050  0.16108  1.0000
  S   S605      1.0  0.84213  0.50144  0.12413  1.0000
  H   H2598     1.0  0.92816  0.69520  0.22198  1.0000
  C   C2181     1.0  0.84639  0.58229  0.01836  1.0000
  H   H2599     1.0  0.93031  0.56399  0.16647  1.0000
  C   C2182     1.0  0.85564  0.69954  0.17469  1.0000
  H   H2600     1.0  0.90828  0.55224  0.11225  1.0000
  H   H2601     1.0  0.94266  0.55768  0.03325  1.0000
  H   H2602     1.0  0.93050  0.53824  0.08892  1.0000
  H   H2603     1.0  0.91398  0.55300  0.03149  1.0000
  C   C2183     1.0  0.97243  0.61705  0.07787  1.0000
  H   H2604     1.0  0.98577  0.70195  0.26106  1.0000
  N   N143      1.0  0.96777  0.64617  0.05549  1.0000
  C   C2184     1.0  0.82040  0.57475  0.01527  1.0000
  C   C2185     1.0  0.83214  0.58607  0.01028  1.0000
  H   H2605     1.0  0.94936  0.67151  0.05284  1.0000
  H   H2606     1.0  0.70930  0.68597  0.99315  1.0000
  C   C2186     1.0  0.73074  0.67856  0.07395  1.0000
  C   C2187     1.0  0.80934  0.71848  0.15460  1.0000
  Fe  Fe305     1.0  0.83475  0.51725  0.09887  1.0000
  H   H2607     1.0  0.77231  0.49059  0.98607  1.0000
  S   S606      1.0  0.88182  0.51008  0.10676  1.0000
  C   C2188     1.0  0.92687  0.54168  0.07645  1.0000
  H   H2608     1.0  0.68186  0.67268  0.08274  1.0000
  C   C2189     1.0  0.81132  0.50056  0.08505  1.0000
  H   H2609     1.0  0.94881  0.68539  0.14602  1.0000
  S   S607      1.0  0.95984  0.56679  0.13348  1.0000
  C   C2190     1.0  0.92614  0.66202  0.15270  1.0000
  S   S608      1.0  0.88624  0.53911  0.05769  1.0000
  S   S609      1.0  0.94928  0.53484  0.11369  1.0000
  H   H2610     1.0  0.92559  0.71999  0.13574  1.0000
  H   H2611     1.0  0.96924  0.64718  0.02822  1.0000
  H   H2612     1.0  0.89063  0.55920  0.12956  1.0000
  C   C2191     1.0  0.90960  0.60228  0.14819  1.0000
  H   H2613     1.0  0.92782  0.57140  0.09346  1.0000
  H   H2614     1.0  0.96188  0.57838  0.08043  1.0000
  C   C2192     1.0  0.93370  0.55259  0.04506  1.0000
  S   S610      1.0  0.84582  0.54023  0.09757  1.0000
  H   H2615     1.0  0.77222  0.67077  0.08173  1.0000
  C   C2193     1.0  0.85196  0.68431  0.17283  1.0000
  H   H2616     1.0  0.73948  0.62937  0.98538  1.0000
  H   H2617     1.0  0.94064  0.68308  0.23850  1.0000
  H   H2618     1.0  0.91009  0.49482  0.18955  1.0000
  H   H2619     1.0  0.84153  0.55060  0.17316  1.0000
  H   H2620     1.0  0.67842  0.69014  0.99029  1.0000
  H   H2621     1.0  0.82021  0.59622  0.04668  1.0000
  S   S611      1.0  0.79092  0.61444  0.98909  1.0000
  H   H2622     1.0  0.72447  0.60520  0.99192  1.0000
  H   H2623     1.0  0.85206  0.56462  0.11690  1.0000
  C   C2194     1.0  0.87934  0.59944  0.15345  1.0000
  C   C2195     1.0  0.91554  0.67938  0.14930  1.0000
  H   H2624     1.0  0.91750  0.48886  0.05811  1.0000
  Fe  Fe306     1.0  0.86901  0.72122  0.19927  1.0000
  H   H2625     1.0  0.81776  0.58657  0.10999  1.0000
  H   H2626     1.0  0.74521  0.70743  0.05525  1.0000
  C   C2196     1.0  0.95791  0.60154  0.06009  1.0000
  H   H2627     1.0  0.88827  0.61225  0.16819  1.0000
  H   H2628     1.0  0.90984  0.71394  0.16774  1.0000
  C   C2197     1.0  0.83743  0.59134  0.14627  1.0000
  C   C2198     1.0  0.89958  0.68138  0.14394  1.0000
  H   H2629     1.0  0.85579  0.72369  0.13308  1.0000
  H   H2630     1.0  0.77512  0.60062  0.10755  1.0000
  S   S612      1.0  0.80838  0.51928  0.09320  1.0000
  H   H2631     1.0  0.78169  0.51708  0.97836  1.0000
  N   N144      1.0  0.92033  0.69492  0.15142  1.0000
  C   C2199     1.0  0.89206  0.60528  0.15766  1.0000
  H   H2632     1.0  0.94828  0.53636  0.15788  1.0000
  H   H2633     1.0  0.85548  0.59107  0.01441  1.0000
  H   H2634     1.0  0.94109  0.70291  0.15752  1.0000
  H   H2635     1.0  0.79784  0.58177  0.06747  1.0000
  H   H2636     1.0  0.80808  0.56061  0.12251  1.0000
  H   H2637     1.0  0.83259  0.58208  0.17426  1.0000
  H   H2638     1.0  0.76918  0.58277  0.12519  1.0000
  H   H2639     1.0  0.84028  0.60086  0.08827  1.0000
  C   C2200     1.0  0.84738  0.55545  0.14499  1.0000
  Fe  Fe307     1.0  0.98549  0.66020  0.11092  1.0000
  H   H2640     1.0  0.97770  0.62231  0.08566  1.0000
  H   H2641     1.0  0.96019  0.60145  0.13519  1.0000
  N   N145      1.0  0.81047  0.54691  0.03428  1.0000
  C   C2201     1.0  0.79977  0.54846  0.05202  1.0000
  C   C2202     1.0  0.79798  0.55056  0.02256  1.0000
  C   C2203     1.0  0.82070  0.52843  0.03493  1.0000
  C   C2204     1.0  0.90169  0.58791  0.12941  1.0000
  C   C2205     1.0  0.84875  0.56733  0.03173  1.0000
  H   H2642     1.0  0.91917  0.73073  0.23137  1.0000
  C   C2206     1.0  0.91540  0.48834  0.07233  1.0000
  H   H2643     1.0  0.75103  0.67503  0.09678  1.0000
  C   C2207     1.0  0.72698  0.66181  0.07637  1.0000
  C   C2208     1.0  0.89467  0.66702  0.14181  1.0000
  C   C2209     1.0  0.92101  0.64768  0.15067  1.0000
  H   H2644     1.0  0.94214  0.65500  0.07128  1.0000
  H   H2645     1.0  0.75297  0.68069  0.04250  1.0000
  N   N146      1.0  0.89855  0.51254  0.16843  1.0000
  S   S613      1.0  0.85917  0.50435  0.08179  1.0000
  H   H2646     1.0  0.97731  0.69899  0.23586  1.0000
  H   H2647     1.0  0.78823  0.56332  0.02318  1.0000
  H   H2648     1.0  0.92689  0.48974  0.09981  1.0000
  H   H2649     1.0  0.80960  0.57862  0.00853  1.0000
  Fe  Fe308     1.0  0.96742  0.53622  0.08731  1.0000
  C   C2210     1.0  0.90540  0.55605  0.17246  1.0000
  H   H2650     1.0  0.78998  0.53992  0.05677  1.0000
  C   C2211     1.0  0.90453  0.56000  0.12256  1.0000
  C   C2212     1.0  0.95814  0.70598  0.21349  1.0000
  C   C2213     1.0  0.90832  0.49495  0.17642  1.0000
  H   H2651     1.0  0.87107  0.52671  0.17223  1.0000
  C   C2214     1.0  0.91749  0.54996  0.04407  1.0000
  C   C2215     1.0  0.89889  0.51278  0.15008  1.0000
  H   H2652     1.0  0.89327  0.70722  0.16208  1.0000
  H   H2653     1.0  0.79904  0.48764  0.05467  1.0000
  C   C2216     1.0  0.69533  0.67421  0.08075  1.0000
  H   H2654     1.0  0.82316  0.72535  0.20988  1.0000
  C   C2217     1.0  0.94141  0.71841  0.27262  1.0000
  C   C2218     1.0  0.92112  0.70849  0.13481  1.0000
  S   S614      1.0  0.85416  0.53279  0.14517  1.0000
  C   C2219     1.0  0.91439  0.59383  0.13421  1.0000
  C   C2220     1.0  0.93266  0.69621  0.23335  1.0000
  H   H2655     1.0  0.91323  0.55339  0.13211  1.0000
  C   C2221     1.0  0.93393  0.53810  0.16222  1.0000
  Fe  Fe309     1.0  0.87109  0.52564  0.08299  1.0000
  C   C2222     1.0  0.90596  0.54322  0.05928  1.0000
  C   C2223     1.0  0.92474  0.57824  0.10443  1.0000
  H   H2656     1.0  0.88012  0.58630  0.10897  1.0000
  H   H2657     1.0  0.82798  0.52336  0.04576  1.0000
  H   H2658     1.0  0.97419  0.59216  0.09664  1.0000
  H   H2659     1.0  0.90150  0.53470  0.08733  1.0000
  C   C2224     1.0  0.81046  0.71916  0.18382  1.0000
  N   N147      1.0  0.74940  0.68048  0.06977  1.0000
  C   C2225     1.0  0.75113  0.69897  0.06648  1.0000
  C   C2226     1.0  0.75794  0.67017  0.08458  1.0000
  C   C2227     1.0  0.75943  0.67377  0.05376  1.0000
  C   C2228     1.0  0.90532  0.65022  0.14519  1.0000
  C   C2229     1.0  0.96344  0.59185  0.07539  1.0000
  H   H2660     1.0  0.93422  0.51333  0.15821  1.0000
  H   H2661     1.0  0.83005  0.59790  0.00008  1.0000
  C   C2230     1.0  0.92382  0.55368  0.16709  1.0000
  H   H2662     1.0  0.93871  0.65922  0.15643  1.0000
  H   H2663     1.0  0.92761  0.72719  0.21000  1.0000
  H   H2664     1.0  0.88276  0.66906  0.13705  1.0000
  C   C2231     1.0  0.94944  0.65720  0.05734  1.0000
  H   H2665     1.0  0.93478  0.57130  0.11248  1.0000
  C   C2232     1.0  0.98741  0.60113  0.13415  1.0000
  H   H2666     1.0  0.75770  0.65600  0.08758  1.0000
  H   H2667     1.0  0.98462  0.61483  0.13474  1.0000
  H   H2668     1.0  0.96693  0.71554  0.20957  1.0000
  H   H2669     1.0  0.76698  0.56728  0.98364  1.0000
  C   C2233     1.0  0.97716  0.57584  0.13367  1.0000
  C   C2234     1.0  0.71588  0.69300  0.07559  1.0000
  H   H2670     1.0  0.76535  0.69989  0.06318  1.0000
  C   C2235     1.0  0.97687  0.64923  0.03668  1.0000
  H   H2671     1.0  0.80519  0.55063  0.00872  1.0000
  H   H2672     1.0  0.76035  0.65949  0.05556  1.0000
  H   H2673     1.0  0.92679  0.59187  0.09848  1.0000
  H   H2674     1.0  0.89780  0.58020  0.09148  1.0000
  H   H2675     1.0  0.96888  0.51395  0.05808  1.0000
  H   H2676     1.0  0.87392  0.58608  0.13722  1.0000
  C   C2236     1.0  0.85484  0.71264  0.14415  1.0000
  H   H2677     1.0  0.92807  0.59247  0.12716  1.0000
  N   N148      1.0  0.79104  0.57510  0.10431  1.0000
  C   C2237     1.0  0.79907  0.55854  0.11542  1.0000
  C   C2238     1.0  0.78060  0.58769  0.11560  1.0000
  C   C2239     1.0  0.77836  0.57091  0.09659  1.0000
  C   C2240     1.0  0.80530  0.58279  0.09104  1.0000
  C   C2241     1.0  0.80683  0.58545  0.07272  1.0000
  C   C2242     1.0  0.81803  0.58821  0.09630  1.0000
  C   C2243     1.0  0.81982  0.59365  0.06055  1.0000
  C   C2244     1.0  0.83107  0.59627  0.08400  1.0000
  C   C2245     1.0  0.83187  0.59911  0.06617  1.0000
  C   C2246     1.0  0.93850  0.54822  0.06123  1.0000
  H   H2678     1.0  0.94146  0.65415  0.04983  1.0000
  H   H2679     1.0  0.96641  0.69245  0.21656  1.0000
  C   C2247     1.0  0.83684  0.57833  0.16172  1.0000
  H   H2680     1.0  0.85972  0.56450  0.03819  1.0000
  C   C2248     1.0  0.93783  0.69087  0.15624  1.0000
  H   H2681     1.0  0.93059  0.70293  0.12377  1.0000
  S   S615      1.0  0.95654  0.67275  0.11178  1.0000
  C   C2249     1.0  0.96684  0.62739  0.06230  1.0000
  H   H2682     1.0  0.85065  0.67336  0.18396  1.0000
  H   H2683     1.0  0.67379  0.70983  0.99820  1.0000
  S   S616      1.0  0.88678  0.72000  0.25472  1.0000
  H   H2684     1.0  0.95418  0.62623  0.04219  1.0000
  H   H2685     1.0  0.92050  0.69900  0.24369  1.0000
  C   C2250     1.0  0.94883  0.71055  0.24397  1.0000
  H   H2686     1.0  0.87382  0.50367  0.17864  1.0000
  H   H2687     1.0  0.97854  0.66635  0.05908  1.0000
  C   C2251     1.0  0.97185  0.70588  0.26033  1.0000
  H   H2688     1.0  0.75080  0.50081  0.98128  1.0000
  H   H2689     1.0  0.89166  0.52573  0.14362  1.0000
  H   H2690     1.0  0.70392  0.70655  0.99946  1.0000
  C   C2252     1.0  0.97053  0.59961  0.08435  1.0000
  N   N149      1.0  0.94311  0.70997  0.22839  1.0000
  H   H2691     1.0  0.80939  0.71110  0.14531  1.0000
  H   H2692     1.0  0.92171  0.49078  0.16825  1.0000
  C   C2253     1.0  0.97759  0.65236  0.06479  1.0000
  H   H2693     1.0  0.96605  0.73097  0.17351  1.0000
  Fe  Fe310     1.0  0.96542  0.50752  0.12043  1.0000
  Fe  Fe311     1.0  0.88104  0.72959  0.22780  1.0000
  C   C2254     1.0  0.82461  0.48577  0.08931  1.0000
  H   H2694     1.0  0.95215  0.59542  0.05336  1.0000
  H   H2695     1.0  0.90168  0.63933  0.14285  1.0000
  H   H2696     1.0  0.74466  0.70469  0.07825  1.0000
  H   H2697     1.0  0.68147  0.65339  0.00216  1.0000
  C   C2255     1.0  0.87976  0.51465  0.17838  1.0000
  C   C2256     1.0  0.96679  0.70442  0.24578  1.0000
  H   H2698     1.0  0.81129  0.71152  0.19687  1.0000
  H   H2699     1.0  0.68738  0.70208  0.07934  1.0000
  C   C2257     1.0  0.88060  0.73239  0.28428  1.0000
  H   H2700     1.0  0.72182  0.70281  0.98127  1.0000
  C   C2258     1.0  0.95936  0.61910  0.05371  1.0000
  H   H2701     1.0  0.77293  0.49068  0.10158  1.0000
  H   H2702     1.0  0.92212  0.72092  0.25827  1.0000
  C   C2259     1.0  0.96687  0.50094  0.05921  1.0000
  C   C2260     1.0  0.95055  0.49661  0.06825  1.0000
  H   H2703     1.0  0.74410  0.49265  0.09490  1.0000
  H   H2704     1.0  0.79913  0.73268  0.21441  1.0000
  H   H2705     1.0  0.97072  0.65200  0.07874  1.0000
  C   C2261     1.0  0.80610  0.48696  0.06444  1.0000
  S   S617      1.0  0.98459  0.51598  0.13042  1.0000
  C   C2262     1.0  0.67808  0.70449  0.98612  1.0000
  C   C2263     1.0  0.68747  0.65118  0.98902  1.0000
  H   H2706     1.0  0.83166  0.48510  0.09910  1.0000
  H   H2707     1.0  0.52333  0.73484  0.98775  1.0000
  C   C2264     1.0  0.70831  0.70038  0.98788  1.0000
  H   H2708     1.0  0.87863  0.51518  0.19217  1.0000
  H   H2709     1.0  0.71726  0.70629  0.07382  1.0000
  H   H2710     1.0  0.69033  0.73336  0.98211  1.0000
  C   C2265     1.0  0.77848  0.58722  0.98629  1.0000
  H   H2711     1.0  0.70962  0.63227  0.99720  1.0000
  H   H2712     1.0  0.99029  0.64031  0.03467  1.0000
  H   H2713     1.0  0.96344  0.71474  0.28446  1.0000
  H   H2714     1.0  0.99339  0.49188  0.04514  1.0000
  H   H2715     1.0  0.99148  0.64446  0.06409  1.0000
  H   H2716     1.0  0.55512  0.73361  0.97804  1.0000
  H   H2717     1.0  0.66746  0.71082  0.97862  1.0000
  H   H2718     1.0  0.93154  0.72386  0.28301  1.0000
  C   C2266     1.0  0.98067  0.48854  0.05185  1.0000
  S   S618      1.0  0.98663  0.54690  0.09427  1.0000
  C   C2267     1.0  0.72735  0.60535  0.97772  1.0000
  C   C2268     1.0  0.99449  0.56563  0.13276  1.0000
  C   C2269     1.0  0.78739  0.60084  0.97750  1.0000
  H   H2719     1.0  0.58449  0.70252  0.97829  1.0000
  H   H2720     1.0  0.66645  0.66958  0.97755  1.0000
  H   H2721     1.0  0.95424  0.71782  0.37358  1.0000
  H   H2722     1.0  0.96664  0.69903  0.33524  1.0000
  C   C2270     1.0  0.92514  0.72916  0.54673  1.0000
  S   S619      1.0  0.99545  0.72635  0.50126  1.0000
  C   C2271     1.0  0.92845  0.70210  0.37603  1.0000
  H   H2723     1.0  0.96343  0.69901  0.36412  1.0000
  C   C2272     1.0  0.89856  0.71861  0.42686  1.0000
  Fe  Fe312     1.0  0.87764  0.72236  0.63963  1.0000
  H   H2724     1.0  0.89179  0.69990  0.55140  1.0000
  H   H2725     1.0  0.88525  0.69670  0.40440  1.0000
  C   C2273     1.0  0.89466  0.70473  0.42262  1.0000
  C   C2274     1.0  0.88845  0.70751  0.40741  1.0000
  H   H2726     1.0  0.95884  0.71794  0.55105  1.0000
  H   H2727     1.0  0.96235  0.72105  0.35047  1.0000
  C   C2275     1.0  0.95513  0.71262  0.36198  1.0000
  C   C2276     1.0  0.90128  0.70765  0.55022  1.0000
  H   H2728     1.0  0.89628  0.69181  0.43126  1.0000
  H   H2729     1.0  0.95167  0.72812  0.43071  1.0000
  S   S620      1.0  0.90679  0.71443  0.44582  1.0000
  C   C2277     1.0  0.93761  0.70634  0.34448  1.0000
  H   H2730     1.0  0.93579  0.68810  0.37791  1.0000
  N   N150      1.0  0.93723  0.71299  0.35981  1.0000
  H   H2731     1.0  0.91297  0.73294  0.35784  1.0000
  C   C2278     1.0  0.90200  0.71316  0.56471  1.0000
  H   H2732     1.0  0.91163  0.70840  0.52279  1.0000
  C   C2279     1.0  0.92146  0.70637  0.34045  1.0000
  C   C2280     1.0  0.92142  0.69984  0.32629  1.0000
  H   H2733     1.0  0.92755  0.70690  0.38789  1.0000
  H   H2734     1.0  0.91461  0.70228  0.37583  1.0000
  C   C2281     1.0  0.95350  0.69276  0.31934  1.0000
  C   C2282     1.0  0.91242  0.71252  0.53408  1.0000
  S   S621      1.0  0.87955  0.72654  0.37663  1.0000
  H   H2735     1.0  0.96648  0.71824  0.49313  1.0000
  H   H2736     1.0  0.85331  0.72872  0.56249  1.0000
  C   C2283     1.0  0.95371  0.69945  0.33336  1.0000
  H   H2737     1.0  0.89308  0.70957  0.57719  1.0000
  C   C2284     1.0  0.99309  0.73029  0.41662  1.0000
  H   H2738     1.0  0.90867  0.71136  0.34833  1.0000
  C   C2285     1.0  0.93740  0.69292  0.31583  1.0000
  C   C2286     1.0  0.91363  0.72385  0.56306  1.0000
  H   H2739     1.0  0.91302  0.72805  0.57473  1.0000
  H   H2740     1.0  0.95901  0.72482  0.52818  1.0000
  C   C2287     1.0  0.88667  0.72403  0.39595  1.0000
  H   H2741     1.0  0.90887  0.70004  0.32352  1.0000
  C   C2288     1.0  0.92704  0.73150  0.35808  1.0000
  H   H2742     1.0  0.93283  0.72612  0.51959  1.0000
  C   C2289     1.0  0.92432  0.72294  0.53235  1.0000
  C   C2290     1.0  0.95629  0.72971  0.54034  1.0000
  H   H2743     1.0  0.99085  0.73013  0.40416  1.0000
  C   C2291     1.0  0.96440  0.73242  0.49071  1.0000
  S   S622      1.0  0.86478  0.73426  0.52494  1.0000
  S   S623      1.0  0.90627  0.73399  0.48499  1.0000
  H   H2744     1.0  0.96146  0.73372  0.40774  1.0000
  H   H2745     1.0  0.96593  0.68740  0.31114  1.0000
  H   H2746     1.0  0.72576  0.68163  0.96574  1.0000
  H   H2747     1.0  0.73489  0.52954  0.90977  1.0000
  H   H2748     1.0  0.75844  0.54264  0.94392  1.0000
  H   H2749     1.0  0.95829  0.71462  0.69968  1.0000
  H   H2750     1.0  0.89918  0.51182  0.78798  1.0000
  S   S624      1.0  0.85194  0.50255  0.78684  1.0000
  H   H2751     1.0  0.68733  0.70457  0.92242  1.0000
  C   C2292     1.0  0.93726  0.70723  0.69284  1.0000
  H   H2752     1.0  0.84292  0.69090  0.71303  1.0000
  C   C2293     1.0  0.69800  0.61147  0.86002  1.0000
  H   H2753     1.0  0.91865  0.67243  0.71831  1.0000
  C   C2294     1.0  0.92743  0.68163  0.71390  1.0000
  H   H2754     1.0  0.88406  0.69028  0.70822  1.0000
  C   C2295     1.0  0.83655  0.68304  0.70903  1.0000
  C   C2296     1.0  0.83685  0.65720  0.80065  1.0000
  C   C2297     1.0  0.72274  0.66338  0.87461  1.0000
  H   H2755     1.0  0.91049  0.62540  0.76212  1.0000
  C   C2298     1.0  0.82638  0.64397  0.83091  1.0000
  H   H2756     1.0  0.72692  0.61597  0.94356  1.0000
  C   C2299     1.0  0.53263  0.71088  0.95692  1.0000
  C   C2300     1.0  0.92317  0.72126  0.66733  1.0000
  C   C2301     1.0  0.94997  0.63095  0.76511  1.0000
  C   C2302     1.0  0.76479  0.49498  0.97543  1.0000
  S   S625      1.0  0.99573  0.73222  0.68068  1.0000
  C   C2303     1.0  0.95973  0.50715  0.72473  1.0000
  C   C2304     1.0  0.82728  0.68983  0.69514  1.0000
  S   S626      1.0  0.76824  0.49802  0.85608  1.0000
  C   C2305     1.0  0.74621  0.53770  0.92645  1.0000
  H   H2757     1.0  0.83109  0.73320  0.68403  1.0000
  H   H2758     1.0  0.96090  0.72870  0.67223  1.0000
  H   H2759     1.0  0.96612  0.61351  0.78283  1.0000
  H   H2760     1.0  0.93073  0.64560  0.74940  1.0000
  H   H2761     1.0  0.98600  0.50543  0.72766  1.0000
  C   C2306     1.0  0.96109  0.56427  0.73928  1.0000
  H   H2762     1.0  0.89005  0.64988  0.80135  1.0000
  H   H2763     1.0  0.80694  0.49796  0.86628  1.0000
  C   C2307     1.0  0.95413  0.61598  0.77816  1.0000
  H   H2764     1.0  0.91972  0.55588  0.75218  1.0000
  C   C2308     1.0  0.74224  0.52528  0.92011  1.0000
  H   H2765     1.0  0.86462  0.65293  0.79071  1.0000
  S   S627      1.0  0.74078  0.59369  0.91347  1.0000
  Fe  Fe313     1.0  0.78498  0.60130  0.88227  1.0000
  S   S628      1.0  0.75910  0.61136  0.87343  1.0000
  S   S629      1.0  0.81232  0.60315  0.86561  1.0000
  Fe  Fe314     1.0  0.74790  0.61957  0.89917  1.0000
  Fe  Fe315     1.0  0.75394  0.58475  0.88839  1.0000
  S   S630      1.0  0.73903  0.57215  0.87733  1.0000
  H   H2766     1.0  0.71941  0.68058  0.84963  1.0000
  S   S631      1.0  0.78054  0.57407  0.89549  1.0000
  Fe  Fe316     1.0  0.88108  0.58804  0.74644  1.0000
  S   S632      1.0  0.87246  0.58439  0.77557  1.0000
  S   S633      1.0  0.88991  0.56299  0.73640  1.0000
  Fe  Fe317     1.0  0.87965  0.62751  0.74058  1.0000
  S   S634      1.0  0.87090  0.62628  0.76952  1.0000
  Fe  Fe318     1.0  0.89149  0.60118  0.77240  1.0000
  Fe  Fe319     1.0  0.85278  0.60978  0.76957  1.0000
  S   S635      1.0  0.82405  0.61498  0.78357  1.0000
  S   S636      1.0  0.90158  0.60329  0.74360  1.0000
  S   S637      1.0  0.85991  0.61251  0.74037  1.0000
  C   C2309     1.0  0.81511  0.60494  0.84305  1.0000
  C   C2310     1.0  0.83230  0.60051  0.83292  1.0000
  C   C2311     1.0  0.83515  0.60344  0.81464  1.0000
  C   C2312     1.0  0.82075  0.61065  0.80645  1.0000
  C   C2313     1.0  0.80350  0.61462  0.81660  1.0000
  C   C2314     1.0  0.80067  0.61178  0.83489  1.0000
  H   H2767     1.0  0.84344  0.59503  0.83925  1.0000
  H   H2768     1.0  0.84845  0.60027  0.80687  1.0000
  H   H2769     1.0  0.79236  0.62018  0.81026  1.0000
  H   H2770     1.0  0.78742  0.61541  0.84255  1.0000
  S   S638      1.0  0.91169  0.59379  0.78907  1.0000
  H   H2771     1.0  0.92579  0.57036  0.72143  1.0000
  H   H2772     1.0  0.84581  0.62789  0.84510  1.0000
  C   C2315     1.0  0.92668  0.60777  0.77974  1.0000
  H   H2773     1.0  0.70746  0.73022  0.96281  1.0000
  H   H2774     1.0  0.70043  0.61612  0.89108  1.0000
  C   C2316     1.0  0.84393  0.63644  0.83263  1.0000
  H   H2775     1.0  0.98137  0.56234  0.76987  1.0000
  H   H2776     1.0  0.74194  0.55161  0.92092  1.0000
  C   C2317     1.0  0.69047  0.70614  0.94739  1.0000
  C   C2318     1.0  0.76105  0.51861  0.86211  1.0000
  C   C2319     1.0  0.74802  0.53138  0.85442  1.0000
  C   C2320     1.0  0.74160  0.54775  0.85913  1.0000
  C   C2321     1.0  0.74861  0.55182  0.87107  1.0000
  C   C2322     1.0  0.76218  0.53935  0.87833  1.0000
  C   C2323     1.0  0.76815  0.52261  0.87411  1.0000
  H   H2777     1.0  0.74254  0.52846  0.84509  1.0000
  H   H2778     1.0  0.73113  0.55729  0.85347  1.0000
  H   H2779     1.0  0.76764  0.54238  0.88760  1.0000
  H   H2780     1.0  0.77827  0.51294  0.88007  1.0000
  H   H2781     1.0  0.62765  0.72043  0.96909  1.0000
  H   H2782     1.0  0.73896  0.63318  0.93897  1.0000
  C   C2324     1.0  0.72200  0.68095  0.94127  1.0000
  N   N151      1.0  0.57937  0.71681  0.95293  1.0000
  C   C2325     1.0  0.79091  0.49918  0.95273  1.0000
  C   C2326     1.0  0.94243  0.60444  0.78555  1.0000
  C   C2327     1.0  0.69857  0.66924  0.89925  1.0000
  C   C2328     1.0  0.82284  0.65411  0.81489  1.0000
  H   H2783     1.0  0.59590  0.73454  0.93636  1.0000
  C   C2329     1.0  0.52274  0.71984  0.97005  1.0000
  C   C2330     1.0  0.75582  0.53231  0.93968  1.0000
  C   C2331     1.0  0.79244  0.60440  0.95918  1.0000
  H   H2784     1.0  0.93707  0.54824  0.76414  1.0000
  H   H2785     1.0  0.92255  0.73238  0.65565  1.0000
  C   C2332     1.0  0.86282  0.51906  0.77273  1.0000
  C   C2333     1.0  0.87937  0.51486  0.76148  1.0000
  C   C2334     1.0  0.88761  0.52838  0.75026  1.0000
  C   C2335     1.0  0.87946  0.54611  0.75043  1.0000
  C   C2336     1.0  0.86298  0.55024  0.76176  1.0000
  C   C2337     1.0  0.85465  0.53677  0.77278  1.0000
  H   H2786     1.0  0.88565  0.50123  0.76120  1.0000
  H   H2787     1.0  0.90022  0.52508  0.74138  1.0000
  H   H2788     1.0  0.85636  0.56385  0.76167  1.0000
  H   H2789     1.0  0.84169  0.54014  0.78113  1.0000
  C   C2338     1.0  0.74807  0.63917  0.82046  1.0000
  C   C2339     1.0  0.56009  0.71716  0.95917  1.0000
  H   H2790     1.0  0.79949  0.61480  0.95231  1.0000
  C   C2340     1.0  0.71203  0.63571  0.96915  1.0000
  H   H2791     1.0  0.90912  0.72203  0.67473  1.0000
  H   H2792     1.0  0.98651  0.70506  0.71051  1.0000
  H   H2793     1.0  0.69268  0.65131  0.86901  1.0000
  H   H2794     1.0  0.97202  0.56480  0.72733  1.0000
  C   C2341     1.0  0.78769  0.59505  0.94965  1.0000
  H   H2795     1.0  0.79144  0.59803  0.93553  1.0000
  C   C2342     1.0  0.74803  0.50740  0.92685  1.0000
  C   C2343     1.0  0.97222  0.66347  0.68888  1.0000
  H   H2796     1.0  0.80920  0.65930  0.81344  1.0000
  H   H2797     1.0  0.69273  0.66620  0.91311  1.0000
  C   C2344     1.0  0.88290  0.66433  0.67533  1.0000
  C   C2345     1.0  0.77819  0.58188  0.95843  1.0000
  H   H2798     1.0  0.91624  0.69514  0.69193  1.0000
  C   C2346     1.0  0.71352  0.67730  0.86347  1.0000
  H   H2799     1.0  0.53455  0.72339  0.87788  1.0000
  H   H2800     1.0  0.94814  0.57136  0.70956  1.0000
  H   H2801     1.0  0.95963  0.71251  0.66161  1.0000
  H   H2802     1.0  0.68313  0.64615  0.85386  1.0000
  N   N152      1.0  0.82793  0.50290  0.84344  1.0000
  C   C2347     1.0  0.84737  0.49558  0.83854  1.0000
  H   H2803     1.0  0.58405  0.72573  0.97376  1.0000
  C   C2348     1.0  0.81881  0.49769  0.83278  1.0000
  C   C2349     1.0  0.82421  0.52239  0.84001  1.0000
  C   C2350     1.0  0.83082  0.53226  0.82320  1.0000
  C   C2351     1.0  0.81345  0.53215  0.85278  1.0000
  C   C2352     1.0  0.82719  0.55068  0.81949  1.0000
  C   C2353     1.0  0.80987  0.55058  0.84891  1.0000
  C   C2354     1.0  0.81675  0.55981  0.83233  1.0000
  C   C2355     1.0  0.58912  0.70268  0.94316  1.0000
  H   H2804     1.0  0.79939  0.71064  0.68024  1.0000
  H   H2805     1.0  0.85283  0.49913  0.82421  1.0000
  H   H2806     1.0  0.74510  0.49771  0.92179  1.0000
  H   H2807     1.0  0.67817  0.71596  0.94908  1.0000
  H   H2808     1.0  0.79740  0.50850  0.94158  1.0000
  H   H2809     1.0  0.82366  0.50255  0.81849  1.0000
  Fe  Fe320     1.0  0.49905  0.73408  0.89915  1.0000
  H   H2810     1.0  0.80418  0.50321  0.83589  1.0000
  H   H2811     1.0  0.83860  0.52579  0.81267  1.0000
  H   H2812     1.0  0.80746  0.52592  0.86581  1.0000
  H   H2813     1.0  0.83230  0.55796  0.80652  1.0000
  H   H2814     1.0  0.80158  0.55781  0.85880  1.0000
  H   H2815     1.0  0.81382  0.57408  0.82937  1.0000
  C   C2356     1.0  0.69675  0.68709  0.87018  1.0000
  H   H2816     1.0  0.89280  0.60364  0.82409  1.0000
  C   C2357     1.0  0.88342  0.68225  0.66954  1.0000
  C   C2358     1.0  0.97260  0.51344  0.72818  1.0000
  H   H2817     1.0  0.87829  0.64883  0.83399  1.0000
  C   C2359     1.0  0.96840  0.53004  0.73217  1.0000
  C   C2360     1.0  0.75780  0.50188  0.93994  1.0000
  H   H2818     1.0  0.68640  0.60809  0.87051  1.0000
  C   C2361     1.0  0.95356  0.49352  0.78857  1.0000
  H   H2819     1.0  0.97905  0.53398  0.73479  1.0000
  C   C2362     1.0  0.97475  0.67051  0.67092  1.0000
  H   H2820     1.0  0.55381  0.73125  0.91860  1.0000
  H   H2821     1.0  0.97819  0.56912  0.80163  1.0000
  C   C2363     1.0  0.68933  0.68304  0.88811  1.0000
  C   C2364     1.0  0.85448  0.65006  0.80232  1.0000
  H   H2822     1.0  0.81545  0.64127  0.84191  1.0000
  C   C2365     1.0  0.76187  0.51415  0.94693  1.0000
  H   H2823     1.0  0.80403  0.73101  0.67971  1.0000
  H   H2824     1.0  0.67645  0.69055  0.89340  1.0000
  C   C2366     1.0  0.82005  0.67784  0.69085  1.0000
  H   H2825     1.0  0.72155  0.60676  0.87916  1.0000
  C   C2367     1.0  0.93417  0.63418  0.75945  1.0000
  H   H2826     1.0  0.83230  0.64045  0.72061  1.0000
  C   C2368     1.0  0.70310  0.64519  0.95537  1.0000
  H   H2827     1.0  0.93621  0.58564  0.72441  1.0000
  H   H2828     1.0  0.73570  0.65595  0.86936  1.0000
  S   S639      1.0  0.68507  0.70394  0.85593  1.0000
  C   C2369     1.0  0.88372  0.69158  0.68150  1.0000
  H   H2829     1.0  0.75922  0.64247  0.81004  1.0000
  C   C2370     1.0  0.55103  0.70940  0.95159  1.0000
  H   H2830     1.0  0.84774  0.71425  0.69019  1.0000
  C   C2371     1.0  0.83395  0.70889  0.66653  1.0000
  H   H2831     1.0  0.90452  0.62876  0.80655  1.0000
  S   S640      1.0  0.77433  0.61212  0.90673  1.0000
  H   H2832     1.0  0.88972  0.63152  0.79297  1.0000
  H   H2833     1.0  0.87008  0.60569  0.83579  1.0000
  C   C2372     1.0  0.88333  0.66508  0.70483  1.0000
  C   C2373     1.0  0.68686  0.65728  0.95846  1.0000
  H   H2834     1.0  0.87558  0.60744  0.81255  1.0000
  C   C2374     1.0  0.87892  0.61094  0.82338  1.0000
  C   C2375     1.0  0.92265  0.62260  0.76663  1.0000
  N   N153      1.0  0.82519  0.70837  0.68523  1.0000
  H   H2835     1.0  0.81310  0.68195  0.68028  1.0000
  H   H2836     1.0  0.71717  0.62888  0.88152  1.0000
  C   C2376     1.0  0.82183  0.66026  0.69997  1.0000
  C   C2377     1.0  0.73627  0.62069  0.94811  1.0000
  H   H2837     1.0  0.92840  0.57140  0.75731  1.0000
  H   H2838     1.0  0.95693  0.57764  0.74229  1.0000
  C   C2378     1.0  0.93219  0.55855  0.75328  1.0000
  H   H2839     1.0  0.83403  0.66487  0.78812  1.0000
  H   H2840     1.0  0.99259  0.67948  0.64739  1.0000
  C   C2379     1.0  0.85855  0.63917  0.81835  1.0000
  S   S641      1.0  0.52103  0.72867  0.91333  1.0000
  H   H2841     1.0  0.87232  0.62899  0.84808  1.0000
  H   H2842     1.0  0.96655  0.55526  0.75053  1.0000
  H   H2843     1.0  0.82784  0.70230  0.66019  1.0000
  H   H2844     1.0  0.96045  0.69098  0.72581  1.0000
  H   H2845     1.0  0.88242  0.64195  0.69732  1.0000
  H   H2846     1.0  0.92476  0.54162  0.72936  1.0000
  C   C2380     1.0  0.54229  0.72725  0.89958  1.0000
  N   N154      1.0  0.77266  0.50790  0.96048  1.0000
  S   S642      1.0  0.98943  0.52564  0.76888  1.0000
  C   C2381     1.0  0.94974  0.70543  0.70300  1.0000
  Fe  Fe321     1.0  0.76797  0.58565  0.91930  1.0000
  C   C2382     1.0  0.74879  0.62186  0.82986  1.0000
  N   N155      1.0  0.94601  0.55864  0.73682  1.0000
  H   H2847     1.0  0.60268  0.71160  0.96363  1.0000
  C   C2383     1.0  0.99533  0.55861  0.76391  1.0000
  H   H2848     1.0  0.79096  0.48780  0.94762  1.0000
  C   C2384     1.0  0.57632  0.72598  0.87763  1.0000
  H   H2849     1.0  0.82770  0.49826  0.87095  1.0000
  C   C2385     1.0  0.99132  0.67383  0.66126  1.0000
  H   H2850     1.0  0.75605  0.61980  0.96902  1.0000
  C   C2386     1.0  0.80603  0.71680  0.68648  1.0000
  C   C2387     1.0  0.73454  0.61755  0.84344  1.0000
  S   S643      1.0  0.96380  0.64619  0.75601  1.0000
  C   C2388     1.0  0.83817  0.66545  0.71810  1.0000
  S   S644      1.0  0.63226  0.71896  0.93327  1.0000
  C   C2389     1.0  0.71908  0.63052  0.84810  1.0000
  H   H2851     1.0  0.84825  0.70221  0.66509  1.0000
  N   N156      1.0  0.93483  0.72257  0.67809  1.0000
  H   H2852     1.0  0.92805  0.70888  0.66238  1.0000
  C   C2390     1.0  0.77411  0.52226  0.96774  1.0000
  C   C2391     1.0  0.99281  0.54231  0.80692  1.0000
  H   H2853     1.0  0.73593  0.60398  0.85052  1.0000
  H   H2854     1.0  0.84545  0.66048  0.72853  1.0000
  H   H2855     1.0  0.67812  0.63647  0.87678  1.0000
  H   H2856     1.0  0.76229  0.48788  0.94439  1.0000
  H   H2857     1.0  0.70838  0.64357  0.94207  1.0000
  H   H2858     1.0  0.70830  0.59896  0.86004  1.0000
  N   N157      1.0  0.70446  0.62566  0.86297  1.0000
  H   H2859     1.0  0.76056  0.61171  0.82679  1.0000
  S   S645      1.0  0.72648  0.64260  0.90725  1.0000
  C   C2392     1.0  0.71868  0.64804  0.83808  1.0000
  S   S646      1.0  0.77029  0.57131  0.94691  1.0000
  H   H2860     1.0  0.89476  0.62852  0.83660  1.0000
  S   S647      1.0  0.88394  0.65499  0.72689  1.0000
  C   C2393     1.0  0.88071  0.63434  0.83538  1.0000
  C   C2394     1.0  0.58791  0.71401  0.96783  1.0000
  N   N158      1.0  0.87697  0.63024  0.82027  1.0000
  H   H2861     1.0  0.89640  0.56090  0.79942  1.0000
  H   H2862     1.0  0.92737  0.55120  0.80302  1.0000
  H   H2863     1.0  0.88260  0.54117  0.79156  1.0000
  Fe  Fe322     1.0  0.65943  0.71982  0.86917  1.0000
  C   C2395     1.0  0.68895  0.64057  0.86568  1.0000
  C   C2396     1.0  0.95095  0.69212  0.71809  1.0000
  H   H2864     1.0  0.94500  0.52235  0.79883  1.0000
  C   C2397     1.0  0.93824  0.53411  0.72914  1.0000
  C   C2398     1.0  0.71528  0.65940  0.89256  1.0000
  C   C2399     1.0  0.89081  0.63545  0.80460  1.0000
  H   H2865     1.0  0.81631  0.65131  0.69640  1.0000
  C   C2400     1.0  0.88370  0.68301  0.69905  1.0000
  C   C2401     1.0  0.54528  0.72484  0.88258  1.0000
  C   C2402     1.0  0.88276  0.65576  0.69297  1.0000
  H   H2866     1.0  0.60377  0.70165  0.93984  1.0000
  H   H2867     1.0  0.71555  0.68251  0.91689  1.0000
  C   C2403     1.0  0.93196  0.49298  0.77367  1.0000
  H   H2868     1.0  0.93571  0.50345  0.76213  1.0000
  C   C2404     1.0  0.56233  0.72401  0.87170  1.0000
  S   S648      1.0  0.88388  0.69262  0.64731  1.0000
  C   C2405     1.0  0.92409  0.51417  0.79232  1.0000
  C   C2406     1.0  0.90603  0.52010  0.79081  1.0000
  C   C2407     1.0  0.93149  0.52576  0.79708  1.0000
  C   C2408     1.0  0.89627  0.53684  0.79313  1.0000
  C   C2409     1.0  0.92149  0.54240  0.79962  1.0000
  C   C2410     1.0  0.90399  0.54795  0.79754  1.0000
  H   H2869     1.0  0.93255  0.51262  0.72243  1.0000
  H   H2870     1.0  0.79880  0.71601  0.70040  1.0000
  H   H2871     1.0  0.69395  0.61543  0.84721  1.0000
  C   C2411     1.0  0.92621  0.69479  0.69868  1.0000
  H   H2872     1.0  0.94049  0.67045  0.73553  1.0000
  H   H2873     1.0  0.73251  0.66571  0.81725  1.0000
  H   H2874     1.0  0.94555  0.59301  0.79576  1.0000
  C   C2412     1.0  0.93876  0.57202  0.72244  1.0000
  C   C2413     1.0  0.95103  0.54097  0.73267  1.0000
  C   C2414     1.0  0.94257  0.51748  0.72518  1.0000
  C   C2415     1.0  0.95220  0.72484  0.66612  1.0000
  H   H2875     1.0  0.78124  0.53185  0.95761  1.0000
  H   H2876     1.0  0.88265  0.65704  0.66615  1.0000
  H   H2877     1.0  0.74432  0.64218  0.96348  1.0000
  H   H2878     1.0  0.88429  0.70530  0.67717  1.0000
  S   S649      1.0  0.63810  0.70683  0.88808  1.0000
  Fe  Fe323     1.0  0.63627  0.72634  0.90384  1.0000
  H   H2879     1.0  0.96308  0.49427  0.72163  1.0000
  C   C2416     1.0  0.93970  0.68041  0.72361  1.0000
  C   C2417     1.0  0.73302  0.65221  0.82453  1.0000
  C   C2418     1.0  0.69560  0.69973  0.93204  1.0000
  C   C2419     1.0  0.71115  0.61908  0.87937  1.0000
  C   C2420     1.0  0.82169  0.49452  0.86209  1.0000
  H   H2880     1.0  0.76076  0.52951  0.97365  1.0000
  H   H2881     1.0  0.70753  0.65885  0.84057  1.0000
  H   H2882     1.0  0.68034  0.66441  0.94772  1.0000
  C   C2421     1.0  0.83085  0.65410  0.71359  1.0000
  C   C2422     1.0  0.71143  0.68729  0.92892  1.0000
  S   S650      1.0  0.49782  0.72103  0.87866  1.0000
  C   C2423     1.0  0.83310  0.71928  0.69162  1.0000
  N   N159      1.0  0.72928  0.62290  0.96647  1.0000
  Fe  Fe324     1.0  0.99233  0.63676  0.75847  1.0000
  H   H2883     1.0  0.73972  0.59509  0.97516  1.0000
  H   H2884     1.0  0.95943  0.50366  0.77790  1.0000
  C   C2424     1.0  0.55632  0.72897  0.90560  1.0000
  H   H2885     1.0  0.95663  0.49350  0.80109  1.0000
  H   H2886     1.0  0.52591  0.70542  0.95050  1.0000
  S   S651      1.0  0.59713  0.72611  0.86326  1.0000
  H   H2887     1.0  0.55774  0.70252  0.94115  1.0000
  H   H2888     1.0  0.85483  0.50032  0.84531  1.0000
  N   N160      1.0  0.93413  0.49632  0.78993  1.0000
  H   H2889     1.0  0.58669  0.68960  0.95100  1.0000
  H   H2890     1.0  0.56472  0.72170  0.85871  1.0000
  H   H2891     1.0  0.74912  0.61078  0.94661  1.0000
  H   H2892     1.0  0.95945  0.66068  0.69632  1.0000
  H   H2893     1.0  0.58545  0.70527  0.93032  1.0000
  H   H2894     1.0  0.98393  0.65490  0.71140  1.0000
  H   H2895     1.0  0.82691  0.71974  0.70558  1.0000
  H   H2896     1.0  0.98296  0.53701  0.80445  1.0000
  H   H2897     1.0  0.83317  0.72265  0.65873  1.0000
  H   H2898     1.0  0.58409  0.72991  0.89924  1.0000
  H   H2899     1.0  0.96382  0.67328  0.66446  1.0000
  C   C2425     1.0  0.57333  0.72842  0.89463  1.0000
  C   C2426     1.0  0.98611  0.66007  0.69732  1.0000
  Fe  Fe325     1.0  0.61918  0.72843  0.87400  1.0000
  C   C2427     1.0  0.63515  0.73010  0.96089  1.0000
  C   C2428     1.0  0.71696  0.68717  0.95673  1.0000
  C   C2429     1.0  0.54949  0.72658  0.97223  1.0000
  H   H2900     1.0  0.68452  0.73395  0.96242  1.0000
  C   C2430     1.0  0.58163  0.73394  0.94108  1.0000
  C   C2431     1.0  0.63931  0.73218  0.94266  1.0000
  H   H2901     1.0  0.50845  0.72110  0.97401  1.0000
  C   C2432     1.0  0.99017  0.56037  0.80530  1.0000
  H   H2902     1.0  0.79945  0.49402  0.96255  1.0000
  H   H2903     1.0  0.91817  0.49221  0.77436  1.0000
  N   N161      1.0  0.69573  0.70780  0.97592  1.0000
  C   C2433     1.0  0.70111  0.70024  0.96013  1.0000
  C   C2434     1.0  0.67906  0.66026  0.97524  1.0000
  C   C2435     1.0  0.74280  0.62884  0.97133  1.0000
  H   H2904     1.0  0.73424  0.67117  0.93874  1.0000
  H   H2905     1.0  0.71644  0.60099  0.97526  1.0000
  C   C2436     1.0  0.69448  0.72710  0.97059  1.0000
  C   C2437     1.0  0.77412  0.57761  0.97678  1.0000
  H   H2906     1.0  0.92876  0.48501  0.81761  1.0000
  Fe  Fe326     1.0  0.55834  0.95459  0.06981  1.0000
  C   C2438     1.0  0.59601  0.75253  0.00259  1.0000
  S   S652      1.0  0.84915  0.78672  0.19490  1.0000
  H   H2907     1.0  0.72253  0.80580  0.11312  1.0000
  H   H2908     1.0  0.59399  0.83262  0.00583  1.0000
  C   C2439     1.0  0.64308  0.91757  0.14080  1.0000
  C   C2440     1.0  0.58490  0.76939  0.07636  1.0000
  Fe  Fe327     1.0  0.62191  0.75268  0.02941  1.0000
  S   S653      1.0  0.62535  0.77794  0.01044  1.0000
  C   C2441     1.0  0.61849  0.92924  0.16237  1.0000
  C   C2442     1.0  0.52246  0.80612  0.03108  1.0000
  S   S654      1.0  0.66708  0.76669  0.01228  1.0000
  Fe  Fe328     1.0  0.64164  0.78024  0.02771  1.0000
  S   S655      1.0  0.63471  0.80650  0.03534  1.0000
  Fe  Fe329     1.0  0.65015  0.76183  0.99706  1.0000
  C   C2443     1.0  0.80720  0.86304  0.24777  1.0000
  S   S656      1.0  0.63660  0.75586  0.04775  1.0000
  H   H2909     1.0  0.84130  0.74046  0.18384  1.0000
  C   C2444     1.0  0.81998  0.96187  0.25209  1.0000
  Fe  Fe330     1.0  0.62823  0.87158  0.10491  1.0000
  S   S657      1.0  0.64939  0.86886  0.08067  1.0000
  H   H2910     1.0  0.54554  0.77159  0.00505  1.0000
  Fe  Fe331     1.0  0.65492  0.86005  0.12838  1.0000
  S   S658      1.0  0.67822  0.85640  0.10576  1.0000
  H   H2911     1.0  0.61086  0.92903  0.08208  1.0000
  Fe  Fe332     1.0  0.66373  0.88187  0.09161  1.0000
  S   S659      1.0  0.67395  0.90603  0.07639  1.0000
  Fe  Fe333     1.0  0.66137  0.84363  0.09730  1.0000
  S   S660      1.0  0.67215  0.81735  0.08953  1.0000
  S   S661      1.0  0.64167  0.88643  0.11472  1.0000
  S   S662      1.0  0.63903  0.84541  0.12098  1.0000
  S   S663      1.0  0.68530  0.94148  0.13125  1.0000
  C   C2445     1.0  0.67807  0.91597  0.09103  1.0000
  C   C2446     1.0  0.68260  0.90568  0.10672  1.0000
  C   C2447     1.0  0.68541  0.91360  0.11869  1.0000
  C   C2448     1.0  0.68312  0.93193  0.11528  1.0000
  C   C2449     1.0  0.67868  0.94224  0.09955  1.0000
  C   C2450     1.0  0.67633  0.93424  0.08734  1.0000
  H   H2912     1.0  0.68405  0.89159  0.10954  1.0000
  H   H2913     1.0  0.68891  0.90553  0.13080  1.0000
  H   H2914     1.0  0.67712  0.95635  0.09673  1.0000
  H   H2915     1.0  0.67289  0.94223  0.07519  1.0000
  H   H2916     1.0  0.53290  0.79445  0.03320  1.0000
  H   H2917     1.0  0.61871  0.89735  0.06441  1.0000
  H   H2918     1.0  0.63783  0.95162  0.05607  1.0000
  H   H2919     1.0  0.60052  0.93719  0.03555  1.0000
  Fe  Fe334     1.0  0.86464  0.75889  0.20104  1.0000
  H   H2920     1.0  0.54197  0.91806  0.09513  1.0000
  H   H2921     1.0  0.60020  0.91561  0.06298  1.0000
  C   C2451     1.0  0.64611  0.80948  0.04957  1.0000
  C   C2452     1.0  0.65974  0.79621  0.05583  1.0000
  C   C2453     1.0  0.66777  0.79871  0.06803  1.0000
  C   C2454     1.0  0.66210  0.81441  0.07411  1.0000
  C   C2455     1.0  0.64829  0.82751  0.06801  1.0000
  C   C2456     1.0  0.64046  0.82512  0.05567  1.0000
  H   H2922     1.0  0.66408  0.78403  0.05129  1.0000
  H   H2923     1.0  0.67839  0.78848  0.07274  1.0000
  H   H2924     1.0  0.64358  0.83949  0.07278  1.0000
  H   H2925     1.0  0.62986  0.83540  0.05097  1.0000
  C   C2457     1.0  0.52961  0.91561  0.12919  1.0000
  H   H2926     1.0  0.54361  0.89575  0.09455  1.0000
  S   S664      1.0  0.59348  0.74988  0.03736  1.0000
  C   C2458     1.0  0.83583  0.85935  0.29612  1.0000
  N   N162      1.0  0.52970  0.90280  0.11926  1.0000
  C   C2459     1.0  0.53478  0.89880  0.06074  1.0000
  H   H2927     1.0  0.50137  0.90422  0.12546  1.0000
  C   C2460     1.0  0.71587  0.84757  0.29159  1.0000
  H   H2928     1.0  0.50504  0.95611  0.09646  1.0000
  S   S665      1.0  0.58090  0.95367  0.12100  1.0000
  H   H2929     1.0  0.58043  0.80819  0.11585  1.0000
  H   H2930     1.0  0.74234  0.82725  0.14986  1.0000
  H   H2931     1.0  0.67000  0.85145  0.18747  1.0000
  H   H2932     1.0  0.67965  0.83041  0.13733  1.0000
  C   C2461     1.0  0.81804  0.81018  0.20268  1.0000
  H   H2933     1.0  0.62920  0.89815  0.18322  1.0000
  H   H2934     1.0  0.61731  0.95400  0.11848  1.0000
  H   H2935     1.0  0.82457  0.81977  0.19277  1.0000
  H   H2936     1.0  0.64728  0.90912  0.17350  1.0000
  N   N163      1.0  0.82416  0.84769  0.29690  1.0000
  H   H2937     1.0  0.87606  0.74244  0.30738  1.0000
  C   C2462     1.0  0.57680  0.79864  0.03387  1.0000
  Fe  Fe335     1.0  0.76126  0.87372  0.20451  1.0000
  C   C2463     1.0  0.91463  0.77657  0.26951  1.0000
  S   S666      1.0  0.65716  0.85545  0.15648  1.0000
  S   S667      1.0  0.96863  0.78076  0.19498  1.0000
  C   C2464     1.0  0.95050  0.76311  0.27853  1.0000
  H   H2938     1.0  0.96267  0.76351  0.28232  1.0000
  H   H2939     1.0  0.84083  0.85597  0.30838  1.0000
  H   H2940     1.0  0.72436  0.95497  0.20792  1.0000
  H   H2941     1.0  0.61548  0.90969  0.04337  1.0000
  H   H2942     1.0  0.55708  0.90489  0.13209  1.0000
  C   C2465     1.0  0.71100  0.89810  0.29121  1.0000
  H   H2943     1.0  0.62670  0.93621  0.16592  1.0000
  C   C2466     1.0  0.72635  0.84615  0.30318  1.0000
  C   C2467     1.0  0.58788  0.86743  0.10493  1.0000
  H   H2944     1.0  0.55320  0.86156  0.09263  1.0000
  C   C2468     1.0  0.51267  0.90558  0.11394  1.0000
  H   H2945     1.0  0.88687  0.77666  0.27412  1.0000
  C   C2469     1.0  0.57641  0.84270  0.12478  1.0000
  H   H2946     1.0  0.57501  0.88047  0.08338  1.0000
  C   C2470     1.0  0.77682  0.93377  0.21620  1.0000
  C   C2471     1.0  0.61944  0.79236  0.08991  1.0000
  Fe  Fe336     1.0  0.66094  0.74186  0.03109  1.0000
  N   N164      1.0  0.73903  0.95627  0.29888  1.0000
  H   H2947     1.0  0.85986  0.75224  0.25034  1.0000
  C   C2472     1.0  0.51556  0.94210  0.14122  1.0000
  C   C2473     1.0  0.68019  0.85510  0.17613  1.0000
  H   H2948     1.0  0.78008  0.94656  0.21147  1.0000
  H   H2949     1.0  0.65210  0.92437  0.14336  1.0000
  C   C2474     1.0  0.58466  0.75486  0.01863  1.0000
  C   C2475     1.0  0.96361  0.77528  0.24888  1.0000
  C   C2476     1.0  0.69045  0.86273  0.14469  1.0000
  H   H2950     1.0  0.62190  0.77862  0.09776  1.0000
  S   S668      1.0  0.60081  0.88304  0.09999  1.0000
  C   C2477     1.0  0.56318  0.85907  0.10007  1.0000
  H   H2951     1.0  0.56326  0.79642  0.04084  1.0000
  H   H2952     1.0  0.62674  0.90843  0.08364  1.0000
  H   H2953     1.0  0.59943  0.81020  0.00387  1.0000
  C   C2478     1.0  0.54235  0.82920  0.98657  1.0000
  H   H2954     1.0  0.82205  0.83755  0.24335  1.0000
  C   C2479     1.0  0.57023  0.82865  0.03629  1.0000
  H   H2955     1.0  0.77971  0.84099  0.26599  1.0000
  H   H2956     1.0  0.55757  0.76354  0.03190  1.0000
  H   H2957     1.0  0.58498  0.79535  0.04384  1.0000
  S   S669      1.0  0.71299  0.90565  0.30867  1.0000
  H   H2958     1.0  0.60357  0.81539  0.02208  1.0000
  H   H2959     1.0  0.79382  0.88755  0.25546  1.0000
  H   H2960     1.0  0.58307  0.78872  0.02568  1.0000
  H   H2961     1.0  0.57918  0.82471  0.04567  1.0000
  C   C2480     1.0  0.50082  0.82452  0.01414  1.0000
  H   H2962     1.0  0.52816  0.85155  0.99780  1.0000
  N   N165      1.0  0.73594  0.91293  0.14534  1.0000
  C   C2481     1.0  0.75080  0.89718  0.14701  1.0000
  C   C2482     1.0  0.71903  0.90715  0.15393  1.0000
  C   C2483     1.0  0.73633  0.91986  0.12633  1.0000
  C   C2484     1.0  0.73698  0.92683  0.15337  1.0000
  C   C2485     1.0  0.72531  0.94365  0.15077  1.0000
  C   C2486     1.0  0.74912  0.92409  0.16421  1.0000
  C   C2487     1.0  0.72634  0.95712  0.15781  1.0000
  C   C2488     1.0  0.74992  0.93765  0.17129  1.0000
  C   C2489     1.0  0.73869  0.95418  0.16797  1.0000
  H   H2963     1.0  0.75040  0.89013  0.16092  1.0000
  H   H2964     1.0  0.75007  0.88725  0.14027  1.0000
  H   H2965     1.0  0.76397  0.90075  0.14124  1.0000
  H   H2966     1.0  0.71853  0.90099  0.16804  1.0000
  H   H2967     1.0  0.71728  0.89730  0.14772  1.0000
  H   H2968     1.0  0.70728  0.91825  0.15312  1.0000
  H   H2969     1.0  0.73686  0.90933  0.11972  1.0000
  H   H2970     1.0  0.72419  0.92999  0.12378  1.0000
  H   H2971     1.0  0.74808  0.92579  0.11961  1.0000
  H   H2972     1.0  0.71518  0.94651  0.14335  1.0000
  H   H2973     1.0  0.75824  0.91163  0.16738  1.0000
  H   H2974     1.0  0.82705  0.97233  0.24605  1.0000
  H   H2975     1.0  0.75945  0.93529  0.17930  1.0000
  H   H2976     1.0  0.73467  0.94506  0.27960  1.0000
  C   C2490     1.0  0.70980  0.86087  0.16371  1.0000
  H   H2977     1.0  0.68826  0.86525  0.13170  1.0000
  C   C2491     1.0  0.70870  0.80946  0.17790  1.0000
  S   S670      1.0  0.73093  0.86150  0.16556  1.0000
  C   C2492     1.0  0.57095  0.76351  0.98830  1.0000
  C   C2493     1.0  0.78045  0.92263  0.20458  1.0000
  C   C2494     1.0  0.79831  0.97160  0.29480  1.0000
  H   H2978     1.0  0.65145  0.90557  0.13612  1.0000
  H   H2979     1.0  0.71693  0.86745  0.13551  1.0000
  H   H2980     1.0  0.78658  0.92689  0.19095  1.0000
  C   C2495     1.0  0.67725  0.85799  0.15924  1.0000
  C   C2496     1.0  0.57548  0.86985  0.09489  1.0000
  H   H2981     1.0  0.98138  0.74863  0.18224  1.0000
  H   H2982     1.0  0.58472  0.82749  0.08619  1.0000
  C   C2497     1.0  0.70123  0.80615  0.16586  1.0000
  H   H2983     1.0  0.69502  0.78492  0.12876  1.0000
  C   C2498     1.0  0.70668  0.86409  0.14690  1.0000
  C   C2499     1.0  0.60555  0.87807  0.15620  1.0000
  C   C2500     1.0  0.72369  0.81778  0.14209  1.0000
  C   C2501     1.0  0.72360  0.81686  0.17210  1.0000
  H   H2984     1.0  0.76612  0.95774  0.29654  1.0000
  H   H2985     1.0  0.68246  0.90645  0.29712  1.0000
  H   H2986     1.0  0.83184  0.76098  0.17088  1.0000
  N   N166      1.0  0.62547  0.92286  0.05719  1.0000
  C   C2502     1.0  0.64414  0.91581  0.04893  1.0000
  C   C2503     1.0  0.62432  0.92221  0.07589  1.0000
  C   C2504     1.0  0.61446  0.91097  0.05687  1.0000
  C   C2505     1.0  0.61989  0.94126  0.04775  1.0000
  C   C2506     1.0  0.60723  0.94636  0.03703  1.0000
  C   C2507     1.0  0.62776  0.95462  0.04856  1.0000
  H   H2987     1.0  0.58793  0.88069  0.13949  1.0000
  H   H2988     1.0  0.79961  0.77296  0.17783  1.0000
  N   N167      1.0  0.94707  0.77695  0.26278  1.0000
  H   H2989     1.0  0.65337  0.92352  0.04953  1.0000
  H   H2990     1.0  0.64908  0.90203  0.05563  1.0000
  H   H2991     1.0  0.64554  0.91599  0.03490  1.0000
  H   H2992     1.0  0.63442  0.92816  0.07770  1.0000
  H   H2993     1.0  0.71497  0.84133  0.26795  1.0000
  C   C2508     1.0  0.55607  0.81420  0.98727  1.0000
  H   H2994     1.0  0.54632  0.84522  0.01900  1.0000
  C   C2509     1.0  0.79853  0.76347  0.19069  1.0000
  C   C2510     1.0  0.60901  0.96623  0.12158  1.0000
  C   C2511     1.0  0.68721  0.95174  0.18316  1.0000
  H   H2995     1.0  0.63735  0.92656  0.12973  1.0000
  C   C2512     1.0  0.70846  0.81303  0.11639  1.0000
  H   H2996     1.0  0.69782  0.96413  0.19627  1.0000
  H   H2997     1.0  0.61218  0.93889  0.15195  1.0000
  C   C2513     1.0  0.58870  0.85355  0.11963  1.0000
  C   C2514     1.0  0.51493  0.92592  0.06726  1.0000
  H   H2998     1.0  0.53366  0.83199  0.97759  1.0000
  N   N168      1.0  0.77042  0.81828  0.28290  1.0000
  C   C2515     1.0  0.59060  0.96970  0.12301  1.0000
  S   S671      1.0  0.54741  0.83280  0.12249  1.0000
  H   H2999     1.0  0.79434  0.77596  0.23795  1.0000
  S   S672      1.0  0.52721  0.81284  0.06006  1.0000
  S   S673      1.0  0.78232  0.98178  0.21115  1.0000
  N   N169      1.0  0.62930  0.91287  0.15665  1.0000
  H   H3000     1.0  0.70271  0.80664  0.19178  1.0000
  H   H3001     1.0  0.50962  0.91873  0.10513  1.0000
  H   H3002     1.0  0.60253  0.82018  0.06891  1.0000
  C   C2516     1.0  0.59853  0.81957  0.08328  1.0000
  H   H3003     1.0  0.60709  0.82646  0.08645  1.0000
  C   C2517     1.0  0.69645  0.85662  0.17839  1.0000
  H   H3004     1.0  0.72908  0.81993  0.18139  1.0000
  S   S674      1.0  0.87705  0.74446  0.17911  1.0000
  H   H3005     1.0  0.60997  0.77106  0.07847  1.0000
  H   H3006     1.0  0.59827  0.85164  0.12745  1.0000
  H   H3007     1.0  0.79329  0.82880  0.20779  1.0000
  H   H3008     1.0  0.73001  0.82163  0.12849  1.0000
  C   C2518     1.0  0.63872  0.90196  0.17072  1.0000
  S   S675      1.0  0.76576  0.85069  0.19248  1.0000
  H   H3009     1.0  0.68955  0.80060  0.17100  1.0000
  H   H3010     1.0  0.60835  0.92598  0.13242  1.0000
  H   H3011     1.0  0.64776  0.88977  0.16689  1.0000
  S   S676      1.0  0.77885  0.89320  0.19543  1.0000
  H   H3012     1.0  0.69880  0.85407  0.19141  1.0000
  C   C2519     1.0  0.77580  0.90622  0.21048  1.0000
  H   H3013     1.0  0.69373  0.78254  0.15154  1.0000
  H   H3014     1.0  0.67288  0.81088  0.15057  1.0000
  H   H3015     1.0  0.60759  0.92633  0.17393  1.0000
  C   C2520     1.0  0.60770  0.91270  0.13951  1.0000
  C   C2521     1.0  0.61772  0.90387  0.15253  1.0000
  C   C2522     1.0  0.83030  0.75236  0.18422  1.0000
  S   S677      1.0  0.51195  0.77735  0.99514  1.0000
  H   H3016     1.0  0.67453  0.81561  0.12752  1.0000
  C   C2523     1.0  0.68098  0.81631  0.13773  1.0000
  C   C2524     1.0  0.70841  0.81031  0.14755  1.0000
  H   H3017     1.0  0.71506  0.78033  0.13668  1.0000
  C   C2525     1.0  0.70099  0.78786  0.13818  1.0000
  N   N170      1.0  0.69998  0.80700  0.13508  1.0000
  C   C2526     1.0  0.51712  0.81775  0.04232  1.0000
  C   C2527     1.0  0.69629  0.93246  0.23970  1.0000
  Fe  Fe337     1.0  0.73689  0.85965  0.19153  1.0000
  C   C2528     1.0  0.76910  0.92823  0.23387  1.0000
  C   C2529     1.0  0.73109  0.82096  0.15426  1.0000
  H   H3018     1.0  0.73214  0.92063  0.23323  1.0000
  H   H3019     1.0  0.57738  0.79855  0.99926  1.0000
  C   C2530     1.0  0.59598  0.77720  0.08091  1.0000
  C   C2531     1.0  0.82323  0.84105  0.26834  1.0000
  C   C2532     1.0  0.80023  0.81527  0.21105  1.0000
  H   H3020     1.0  0.72179  0.90756  0.22703  1.0000
  H   H3021     1.0  0.70150  0.81084  0.10732  1.0000
  C   C2533     1.0  0.82735  0.79273  0.20687  1.0000
  C   C2534     1.0  0.56342  0.84567  0.11518  1.0000
  C   C2535     1.0  0.61625  0.88624  0.16086  1.0000
  H   H3022     1.0  0.62354  0.87830  0.17073  1.0000
  H   H3023     1.0  0.56272  0.89895  0.05312  1.0000
  C   C2536     1.0  0.59699  0.90446  0.13500  1.0000
  H   H3024     1.0  0.84150  0.95001  0.28521  1.0000
  C   C2537     1.0  0.57031  0.79913  0.09077  1.0000
  C   C2538     1.0  0.72509  0.92071  0.22321  1.0000
  H   H3025     1.0  0.73471  0.92164  0.21031  1.0000
  H   H3026     1.0  0.69179  0.92000  0.24225  1.0000
  H   H3027     1.0  0.73909  0.88879  0.28177  1.0000
  H   H3028     1.0  0.70803  0.82740  0.11312  1.0000
  N   N171      1.0  0.70913  0.93538  0.22268  1.0000
  S   S678      1.0  0.73328  0.88404  0.20107  1.0000
  C   C2539     1.0  0.76833  0.90061  0.22821  1.0000
  C   C2540     1.0  0.87256  0.74465  0.29496  1.0000
  H   H3029     1.0  0.80311  0.86716  0.23533  1.0000
  C   C2541     1.0  0.58915  0.75654  0.98755  1.0000
  S   S679      1.0  0.76399  0.94196  0.24863  1.0000
  C   C2542     1.0  0.59399  0.81888  0.01340  1.0000
  H   H3030     1.0  0.69894  0.90825  0.21660  1.0000
  C   C2543     1.0  0.59593  0.88716  0.14331  1.0000
  N   N172      1.0  0.57591  0.81701  0.02357  1.0000
  H   H3031     1.0  0.55816  0.80535  0.97868  1.0000
  C   C2544     1.0  0.76519  0.91151  0.23993  1.0000
  C   C2545     1.0  0.54378  0.90434  0.10301  1.0000
  C   C2546     1.0  0.89960  0.77520  0.26494  1.0000
  H   H3032     1.0  0.96221  0.78562  0.23671  1.0000
  C   C2547     1.0  0.85995  0.75965  0.28955  1.0000
  C   C2548     1.0  0.72589  0.89036  0.27984  1.0000
  H   H3033     1.0  0.76499  0.88790  0.23297  1.0000
  C   C2549     1.0  0.71501  0.95182  0.22075  1.0000
  H   H3034     1.0  0.93237  0.79610  0.27858  1.0000
  H   H3035     1.0  0.88916  0.77110  0.24510  1.0000
  H   H3036     1.0  0.63719  0.73897  0.98266  1.0000
  H   H3037     1.0  0.60265  0.80727  0.11655  1.0000
  C   C2550     1.0  0.70063  0.93591  0.20848  1.0000
  C   C2551     1.0  0.69630  0.92054  0.20722  1.0000
  H   H3038     1.0  0.72221  0.95065  0.23109  1.0000
  H   H3039     1.0  0.60500  0.86447  0.16240  1.0000
  H   H3040     1.0  0.50160  0.93342  0.07128  1.0000
  C   C2552     1.0  0.54596  0.92774  0.14277  1.0000
  S   S680      1.0  0.53252  0.85023  0.07752  1.0000
  Fe  Fe338     1.0  0.75609  0.83637  0.21996  1.0000
  C   C2553     1.0  0.82829  0.95441  0.29363  1.0000
  C   C2554     1.0  0.51464  0.92940  0.13306  1.0000
  H   H3041     1.0  0.55737  0.90074  0.10559  1.0000
  H   H3042     1.0  0.96735  0.76213  0.24553  1.0000
  N   N173      1.0  0.60025  0.80105  0.09330  1.0000
  C   C2555     1.0  0.58898  0.79239  0.08829  1.0000
  C   C2556     1.0  0.56665  0.77638  0.07896  1.0000
  C   C2557     1.0  0.79149  0.80288  0.22338  1.0000
  H   H3043     1.0  0.75928  0.90715  0.25362  1.0000
  H   H3044     1.0  0.55661  0.82799  0.04429  1.0000
  C   C2558     1.0  0.81895  0.78048  0.21995  1.0000
  C   C2559     1.0  0.68819  0.92071  0.19401  1.0000
  H   H3045     1.0  0.68523  0.90870  0.19327  1.0000
  S   S681      1.0  0.56532  0.93241  0.05608  1.0000
  H   H3046     1.0  0.53203  0.95147  0.15184  1.0000
  C   C2560     1.0  0.54939  0.90650  0.05701  1.0000
  H   H3047     1.0  0.55823  0.92741  0.14617  1.0000
  S   S682      1.0  0.72736  0.84361  0.21814  1.0000
  S   S683      1.0  0.75411  0.85866  0.23211  1.0000
  C   C2561     1.0  0.69556  0.95165  0.19617  1.0000
  H   H3048     1.0  0.57663  0.83233  0.13650  1.0000
  H   H3049     1.0  0.95255  0.74978  0.27608  1.0000
  H   H3050     1.0  0.82873  0.87344  0.29446  1.0000
  C   C2562     1.0  0.70649  0.88660  0.26347  1.0000
  H   H3051     1.0  0.53683  0.88545  0.05942  1.0000
  C   C2563     1.0  0.81706  0.95336  0.24072  1.0000
  C   C2564     1.0  0.95790  0.76888  0.18765  1.0000
  C   C2565     1.0  0.81783  0.84636  0.25235  1.0000
  H   H3052     1.0  0.93943  0.76447  0.29018  1.0000
  H   H3053     1.0  0.94446  0.77084  0.23102  1.0000
  Fe  Fe339     1.0  0.72631  0.86735  0.22790  1.0000
  Fe  Fe340     1.0  0.67673  0.97100  0.12708  1.0000
  C   C2566     1.0  0.81359  0.95712  0.27051  1.0000
  C   C2567     1.0  0.53926  0.84024  0.99800  1.0000
  C   C2568     1.0  0.59440  0.80091  0.11229  1.0000
  H   H3054     1.0  0.82620  0.76713  0.22362  1.0000
  C   C2569     1.0  0.80097  0.78553  0.22814  1.0000
  C   C2570     1.0  0.95865  0.74315  0.17745  1.0000
  C   C2571     1.0  0.91718  0.77056  0.23666  1.0000
  H   H3055     1.0  0.78080  0.83000  0.29763  1.0000
  H   H3056     1.0  0.73750  0.97440  0.27395  1.0000
  S   S684      1.0  0.76866  0.80883  0.23252  1.0000
  S   S685      1.0  0.85081  0.77587  0.30202  1.0000
  H   H3057     1.0  0.78481  0.79195  0.28015  1.0000
  H   H3058     1.0  0.57047  0.84260  0.02965  1.0000
  C   C2572     1.0  0.56400  0.82121  0.01126  1.0000
  C   C2573     1.0  0.73456  0.97430  0.28818  1.0000
  C   C2574     1.0  0.68371  0.93629  0.18195  1.0000
  H   H3059     1.0  0.93242  0.78691  0.19151  1.0000
  C   C2575     1.0  0.54519  0.91497  0.13462  1.0000
  H   H3060     1.0  0.68347  0.96390  0.17391  1.0000
  Fe  Fe341     1.0  0.51609  0.83191  0.07775  1.0000
  H   H3061     1.0  0.67738  0.93649  0.17170  1.0000
  C   C2576     1.0  0.54683  0.92373  0.05888  1.0000
  Fe  Fe342     1.0  0.56504  0.96455  0.10015  1.0000
  S   S686      1.0  0.70272  0.87918  0.24673  1.0000
  C   C2577     1.0  0.53122  0.94135  0.14594  1.0000
  C   C2578     1.0  0.77992  0.81684  0.29669  1.0000
  H   H3062     1.0  0.81281  0.74508  0.21758  1.0000
  C   C2579     1.0  0.86339  0.75006  0.26279  1.0000
  H   H3063     1.0  0.76282  0.79337  0.29402  1.0000
  C   C2580     1.0  0.75172  0.82831  0.28618  1.0000
  H   H3064     1.0  0.53239  0.87474  0.12334  1.0000
  C   C2581     1.0  0.94351  0.79445  0.26701  1.0000
  H   H3065     1.0  0.78812  0.97975  0.28717  1.0000
  H   H3066     1.0  0.80327  0.87897  0.28318  1.0000
  N   N174      1.0  0.81569  0.96638  0.28291  1.0000
  C   C2582     1.0  0.55956  0.76608  0.00432  1.0000
  Fe  Fe343     1.0  0.50065  0.80559  0.98359  1.0000
  H   H3067     1.0  0.73512  0.87894  0.25710  1.0000
  C   C2583     1.0  0.72305  0.83972  0.27723  1.0000
  Fe  Fe344     1.0  0.52638  0.84058  0.10668  1.0000
  S   S687      1.0  0.85462  0.73617  0.22048  1.0000
  H   H3068     1.0  0.95525  0.79647  0.27035  1.0000
  C   C2584     1.0  0.69399  0.90040  0.28843  1.0000
  H   H3069     1.0  0.54514  0.79650  0.08836  1.0000
  H   H3070     1.0  0.78517  0.76027  0.19439  1.0000
  C   C2585     1.0  0.52959  0.93349  0.06398  1.0000
  C   C2586     1.0  0.81102  0.74548  0.16068  1.0000
  H   H3071     1.0  0.62767  0.79950  0.09322  1.0000
  S   S688      1.0  0.54385  0.95270  0.09787  1.0000
  C   C2587     1.0  0.72363  0.88484  0.26581  1.0000
  S   S689      1.0  0.51176  0.82069  0.10665  1.0000
  C   C2588     1.0  0.56639  0.76156  0.01952  1.0000
  H   H3072     1.0  0.84559  0.77389  0.26924  1.0000
  C   C2589     1.0  0.80520  0.94261  0.27679  1.0000
  H   H3073     1.0  0.52758  0.94679  0.06550  1.0000
  C   C2590     1.0  0.85528  0.76227  0.27352  1.0000
  H   H3074     1.0  0.59051  0.75786  0.07069  1.0000
  C   C2591     1.0  0.93974  0.77467  0.18766  1.0000
  H   H3075     1.0  0.76591  0.79984  0.27060  1.0000
  C   C2592     1.0  0.55938  0.79117  0.08622  1.0000
  H   H3076     1.0  0.76251  0.93578  0.30174  1.0000
  C   C2593     1.0  0.94039  0.74863  0.17802  1.0000
  Fe  Fe345     1.0  0.49681  0.77112  0.97920  1.0000
  H   H3077     1.0  0.83151  0.82798  0.27099  1.0000
  H   H3078     1.0  0.80063  0.93778  0.29061  1.0000
  C   C2594     1.0  0.80825  0.93954  0.24732  1.0000
  C   C2595     1.0  0.77098  0.80010  0.28190  1.0000
  C   C2596     1.0  0.78039  0.82707  0.26601  1.0000
  H   H3079     1.0  0.79899  0.77083  0.20021  1.0000
  C   C2597     1.0  0.74069  0.83023  0.27451  1.0000
  H   H3080     1.0  0.91692  0.76898  0.18308  1.0000
  H   H3081     1.0  0.62471  0.79203  0.07582  1.0000
  C   C2598     1.0  0.80741  0.86942  0.27503  1.0000
  C   C2599     1.0  0.90087  0.77213  0.24859  1.0000
  C   C2600     1.0  0.80252  0.93404  0.26534  1.0000
  H   H3082     1.0  0.71734  0.96985  0.15550  1.0000
  H   H3083     1.0  0.55813  0.77039  0.07525  1.0000
  H   H3084     1.0  0.70227  0.85518  0.29348  1.0000
  S   S690      1.0  0.88989  0.75362  0.21023  1.0000
  H   H3085     1.0  0.79382  0.80896  0.29406  1.0000
  C   C2601     1.0  0.93146  0.77513  0.25765  1.0000
  H   H3086     1.0  0.84755  0.85832  0.28495  1.0000
  S   S691      1.0  0.50160  0.86150  0.11136  1.0000
  H   H3087     1.0  0.58983  0.91145  0.12468  1.0000
  C   C2602     1.0  0.74401  0.83667  0.30061  1.0000
  H   H3088     1.0  0.70357  0.96328  0.22198  1.0000
  H   H3089     1.0  0.84687  0.82657  0.29109  1.0000
  H   H3090     1.0  0.83630  0.97971  0.26613  1.0000
  H   H3091     1.0  0.82146  0.95771  0.22667  1.0000
  H   H3092     1.0  0.56395  0.81058  0.09637  1.0000
  H   H3093     1.0  0.70224  0.93146  0.25089  1.0000
  Fe  Fe346     1.0  0.53017  0.98067  0.08850  1.0000
  H   H3094     1.0  0.79571  0.92322  0.27045  1.0000
  C   C2603     1.0  0.51756  0.90847  0.06592  1.0000
  H   H3095     1.0  0.80571  0.93317  0.23846  1.0000
  Fe  Fe347     1.0  0.50638  0.86960  0.08214  1.0000
  C   C2604     1.0  0.93095  0.76446  0.18302  1.0000
  H   H3096     1.0  0.51325  0.89587  0.10632  1.0000
  C   C2605     1.0  0.81819  0.85252  0.28018  1.0000
  C   C2606     1.0  0.80197  0.87451  0.25912  1.0000
  H   H3097     1.0  0.74569  0.82457  0.26304  1.0000
  Fe  Fe348     1.0  0.99237  0.76185  0.20363  1.0000
  H   H3098     1.0  0.51909  0.80091  0.00803  1.0000
  H   H3099     1.0  0.91804  0.76845  0.22384  1.0000
  C   C2607     1.0  0.69173  0.89446  0.27479  1.0000
  H   H3100     1.0  0.79463  0.82014  0.26319  1.0000
  C   C2608     1.0  0.62277  0.97208  0.03972  1.0000
  C   C2609     1.0  0.54982  0.83637  0.01023  1.0000
  S   S692      1.0  0.58075  0.96395  0.07290  1.0000
  N   N175      1.0  0.81287  0.74726  0.19048  1.0000
  C   C2610     1.0  0.75853  0.94945  0.29419  1.0000
  Fe  Fe349     1.0  0.76581  0.97013  0.23664  1.0000
  C   C2611     1.0  0.61679  0.97875  0.12379  1.0000
  H   H3101     1.0  0.59517  0.78722  0.12027  1.0000
  H   H3102     1.0  0.61007  0.74732  0.00189  1.0000
  H   H3103     1.0  0.54710  0.88059  0.13245  1.0000
  H   H3104     1.0  0.91293  0.77888  0.28240  1.0000
  C   C2612     1.0  0.60246  0.96382  0.02812  1.0000
  H   H3105     1.0  0.67846  0.89590  0.27306  1.0000
  H   H3106     1.0  0.73951  0.96472  0.17331  1.0000
  H   H3107     1.0  0.68418  0.94332  0.24006  1.0000
  H   H3108     1.0  0.73396  0.93098  0.30067  1.0000
  H   H3109     1.0  0.83229  0.75976  0.19290  1.0000
  H   H3110     1.0  0.97517  0.77647  0.25315  1.0000
  C   C2613     1.0  0.83426  0.82917  0.30101  1.0000
  C   C2614     1.0  0.51442  0.80960  0.01694  1.0000
  C   C2615     1.0  0.73036  0.94498  0.29387  1.0000
  H   H3111     1.0  0.94006  0.80523  0.25576  1.0000
  H   H3112     1.0  0.76316  0.94909  0.28007  1.0000
  S   S693      1.0  0.76231  0.87622  0.30944  1.0000
  C   C2616     1.0  0.56686  0.81030  0.99930  1.0000
  C   C2617     1.0  0.93232  0.77202  0.24102  1.0000
  H   H3113     1.0  0.63101  0.97602  0.12258  1.0000
  S   S694      1.0  0.65621  0.98094  0.14917  1.0000
  H   H3114     1.0  0.77503  0.82729  0.25473  1.0000
  H   H3115     1.0  0.62871  0.98209  0.04081  1.0000
  H   H3116     1.0  0.81211  0.75904  0.15555  1.0000
  C   C2618     1.0  0.53343  0.88463  0.12996  1.0000
  H   H3117     1.0  0.52384  0.88332  0.14285  1.0000
  H   H3118     1.0  0.71561  0.94942  0.29678  1.0000
  C   C2619     1.0  0.96733  0.75313  0.18248  1.0000
  S   S695      1.0  0.49929  0.89871  0.07139  1.0000
  C   C2620     1.0  0.61007  0.97669  0.02958  1.0000
  H   H3119     1.0  0.93907  0.73802  0.21841  1.0000
  S   S696      1.0  0.99166  0.73606  0.26689  1.0000
  C   C2621     1.0  0.50402  0.83309  0.03917  1.0000
  H   H3120     1.0  0.82619  0.81961  0.30200  1.0000
  H   H3121     1.0  0.77316  0.81018  0.30979  1.0000
  H   H3122     1.0  0.79324  0.96012  0.30377  1.0000
  S   S697      1.0  0.54281  0.98154  0.06013  1.0000
  H   H3123     1.0  0.59254  0.96739  0.02029  1.0000
  H   H3124     1.0  0.50203  0.98396  0.02689  1.0000
  H   H3125     1.0  0.83032  0.96090  0.30311  1.0000
  H   H3126     1.0  0.82344  0.94238  0.30147  1.0000
  H   H3127     1.0  0.50024  0.84237  0.04747  1.0000
  H   H3128     1.0  0.79932  0.97949  0.30356  1.0000
  H   H3129     1.0  0.72021  0.98050  0.29209  1.0000
  H   H3130     1.0  0.81066  0.74249  0.13525  1.0000
  S   S698      1.0  0.79848  0.90137  0.30776  1.0000
  H   H3131     1.0  0.50416  0.95283  0.14352  1.0000
  H   H3132     1.0  0.50217  0.93095  0.12958  1.0000
  C   C2622     1.0  0.82251  0.98265  0.27406  1.0000
  Fe  Fe350     1.0  0.90144  0.73715  0.19010  1.0000
  C   C2623     1.0  0.81015  0.73616  0.14895  1.0000
  C   C2624     1.0  0.81189  0.73709  0.20887  1.0000
  C   C2625     1.0  0.81118  0.73727  0.17852  1.0000
  H   H3133     1.0  0.74234  0.98309  0.28939  1.0000
  S   S699      1.0  0.98481  0.73747  0.22144  1.0000
  H   H3134     1.0  0.98957  0.73665  0.30236  1.0000
  H   H3135     1.0  0.75128  0.83616  0.31012  1.0000
  S   S700      1.0  0.64569  0.73607  0.01480  1.0000
  C   C2626     1.0  0.87610  0.73514  0.26815  1.0000
  Fe  Fe351     1.0  0.87153  0.77077  0.46305  1.0000
  H   H3136     1.0  0.83786  0.76275  0.39101  1.0000
  S   S701      1.0  0.85033  0.79049  0.45042  1.0000
  Fe  Fe352     1.0  0.90694  0.76240  0.47339  1.0000
  H   H3137     1.0  0.80009  0.88763  0.35581  1.0000
  S   S702      1.0  0.92822  0.77543  0.47341  1.0000
  S   S703      1.0  0.72120  0.87408  0.62616  1.0000
  C   C2627     1.0  0.75040  0.91449  0.58674  1.0000
  C   C2628     1.0  0.78776  0.94159  0.61495  1.0000
  S   S704      1.0  0.97527  0.77781  0.60316  1.0000
  S   S705      1.0  0.89962  0.76330  0.44843  1.0000
  S   S706      1.0  0.87899  0.77267  0.48688  1.0000
  S   S707      1.0  0.83911  0.81127  0.36676  1.0000
  Fe  Fe353     1.0  0.78879  0.86050  0.48881  1.0000
  S   S708      1.0  0.76637  0.84686  0.49488  1.0000
  S   S709      1.0  0.81416  0.84622  0.49735  1.0000
  Fe  Fe354     1.0  0.76951  0.89404  0.46851  1.0000
  S   S710      1.0  0.74523  0.88353  0.47313  1.0000
  S   S711      1.0  0.77002  0.92093  0.45184  1.0000
  Fe  Fe355     1.0  0.74943  0.87269  0.50059  1.0000
  S   S712      1.0  0.72797  0.87567  0.52485  1.0000
  Fe  Fe356     1.0  0.76473  0.85897  0.46672  1.0000
  S   S713      1.0  0.76536  0.84403  0.44675  1.0000
  S   S714      1.0  0.77209  0.88551  0.49643  1.0000
  S   S715      1.0  0.78868  0.87049  0.46029  1.0000
  Fe  Fe357     1.0  0.76018  0.85792  0.33596  1.0000
  S   S716      1.0  0.73261  0.87165  0.34717  1.0000
  S   S717      1.0  0.76974  0.82887  0.33779  1.0000
  Fe  Fe358     1.0  0.77379  0.89124  0.32121  1.0000
  S   S718      1.0  0.74777  0.90797  0.33126  1.0000
  H   H3138     1.0  0.95634  0.76921  0.44013  1.0000
  Fe  Fe359     1.0  0.74671  0.88696  0.35581  1.0000
  S   S719      1.0  0.73763  0.89592  0.38120  1.0000
  H   H3139     1.0  0.74935  0.94495  0.49032  1.0000
  H   H3140     1.0  0.77786  0.94943  0.37564  1.0000
  S   S720      1.0  0.77407  0.87173  0.34661  1.0000
  C   C2629     1.0  0.71617  0.95379  0.42311  1.0000
  H   H3141     1.0  0.89985  0.74598  0.41862  1.0000
  H   H3142     1.0  0.75598  0.89415  0.56148  1.0000
  C   C2630     1.0  0.77850  0.96623  0.57026  1.0000
  H   H3143     1.0  0.94071  0.74661  0.41647  1.0000
  H   H3144     1.0  0.85981  0.74094  0.58431  1.0000
  C   C2631     1.0  0.93593  0.74693  0.56032  1.0000
  H   H3145     1.0  0.98073  0.75253  0.33216  1.0000
  C   C2632     1.0  0.71496  0.96101  0.49486  1.0000
  H   H3146     1.0  0.76397  0.90801  0.39904  1.0000
  H   H3147     1.0  0.75486  0.96099  0.62217  1.0000
  H   H3148     1.0  0.80426  0.92057  0.56070  1.0000
  H   H3149     1.0  0.83218  0.78231  0.60335  1.0000
  H   H3150     1.0  0.78392  0.91438  0.51025  1.0000
  H   H3151     1.0  0.72680  0.86843  0.58716  1.0000
  C   C2633     1.0  0.83388  0.82061  0.54245  1.0000
  N   N176      1.0  0.93787  0.74022  0.54451  1.0000
  H   H3152     1.0  0.83821  0.82591  0.31381  1.0000
  H   H3153     1.0  0.83074  0.82884  0.60079  1.0000
  H   H3154     1.0  0.67615  0.90872  0.49058  1.0000
  H   H3155     1.0  0.74955  0.97536  0.31583  1.0000
  C   C2634     1.0  0.68237  0.93438  0.48243  1.0000
  H   H3156     1.0  0.77520  0.88938  0.53345  1.0000
  C   C2635     1.0  0.93814  0.77560  0.33196  1.0000
  C   C2636     1.0  0.84365  0.75347  0.43246  1.0000
  C   C2637     1.0  0.92110  0.77144  0.63826  1.0000
  C   C2638     1.0  0.78515  0.95977  0.46159  1.0000
  H   H3157     1.0  0.78316  0.92915  0.61764  1.0000
  Fe  Fe360     1.0  0.87715  0.75270  0.35745  1.0000
  H   H3158     1.0  0.79844  0.83383  0.60231  1.0000
  N   N177      1.0  0.76295  0.93500  0.39872  1.0000
  H   H3159     1.0  0.79918  0.83368  0.57411  1.0000
  C   C2639     1.0  0.71299  0.93943  0.43672  1.0000
  H   H3160     1.0  0.71751  0.92677  0.56418  1.0000
  H   H3161     1.0  0.81004  0.78594  0.60011  1.0000
  C   C2640     1.0  0.73983  0.93656  0.49203  1.0000
  H   H3162     1.0  0.80678  0.75850  0.53418  1.0000
  H   H3163     1.0  0.80247  0.93900  0.61016  1.0000
  H   H3164     1.0  0.73631  0.93060  0.50627  1.0000
  H   H3165     1.0  0.77730  0.93974  0.41506  1.0000
  H   H3166     1.0  0.74137  0.97578  0.34694  1.0000
  S   S721      1.0  0.76228  0.87355  0.62676  1.0000
  C   C2641     1.0  0.87996  0.75548  0.53473  1.0000
  C   C2642     1.0  0.86527  0.74517  0.57050  1.0000
  C   C2643     1.0  0.89655  0.73528  0.41557  1.0000
  C   C2644     1.0  0.81201  0.82615  0.56879  1.0000
  C   C2645     1.0  0.72994  0.95493  0.46636  1.0000
  Fe  Fe361     1.0  0.87574  0.75400  0.60867  1.0000
  C   C2646     1.0  0.76482  0.95126  0.38507  1.0000
  C   C2647     1.0  0.80289  0.91214  0.32144  1.0000
  H   H3167     1.0  0.69166  0.95812  0.47534  1.0000
  C   C2648     1.0  0.82363  0.91647  0.33570  1.0000
  C   C2649     1.0  0.81021  0.92884  0.34370  1.0000
  C   C2650     1.0  0.79311  0.93302  0.34042  1.0000
  C   C2651     1.0  0.78937  0.92438  0.32957  1.0000
  H   H3168     1.0  0.67005  0.94083  0.47810  1.0000
  S   S722      1.0  0.87126  0.79754  0.32427  1.0000
  H   H3169     1.0  0.78263  0.94242  0.34669  1.0000
  H   H3170     1.0  0.77603  0.92726  0.32748  1.0000
  C   C2652     1.0  0.73747  0.86930  0.54330  1.0000
  C   C2653     1.0  0.75567  0.86197  0.54148  1.0000
  C   C2654     1.0  0.76346  0.85709  0.55599  1.0000
  H   H3171     1.0  0.76380  0.86004  0.52886  1.0000
  H   H3172     1.0  0.77759  0.85163  0.55437  1.0000
  C   C2655     1.0  0.75658  0.85773  0.42876  1.0000
  C   C2656     1.0  0.76095  0.85234  0.41283  1.0000
  C   C2657     1.0  0.75480  0.86375  0.39817  1.0000
  C   C2658     1.0  0.74414  0.88047  0.39949  1.0000
  C   C2659     1.0  0.73922  0.88548  0.41555  1.0000
  C   C2660     1.0  0.74556  0.87425  0.43007  1.0000
  H   H3173     1.0  0.76941  0.83956  0.41167  1.0000
  H   H3174     1.0  0.75851  0.85973  0.38582  1.0000
  H   H3175     1.0  0.73053  0.89818  0.41671  1.0000
  H   H3176     1.0  0.74168  0.87833  0.44233  1.0000
  H   H3177     1.0  0.79748  0.97253  0.59573  1.0000
  H   H3178     1.0  0.93789  0.76422  0.37554  1.0000
  H   H3179     1.0  0.79603  0.90874  0.47359  1.0000
  C   C2661     1.0  0.81928  0.81515  0.35978  1.0000
  C   C2662     1.0  0.80368  0.82562  0.36762  1.0000
  C   C2663     1.0  0.78800  0.82891  0.36165  1.0000
  C   C2664     1.0  0.78796  0.82189  0.34778  1.0000
  C   C2665     1.0  0.80338  0.81092  0.34041  1.0000
  C   C2666     1.0  0.81906  0.80780  0.34622  1.0000
  H   H3180     1.0  0.80370  0.83137  0.37810  1.0000
  H   H3181     1.0  0.77594  0.83699  0.36771  1.0000
  S   S723      1.0  0.81494  0.93817  0.35840  1.0000
  H   H3182     1.0  0.83109  0.80015  0.33972  1.0000
  H   H3183     1.0  0.95468  0.77296  0.40306  1.0000
  H   H3184     1.0  0.79670  0.92464  0.59056  1.0000
  C   C2667     1.0  0.88308  0.76282  0.54698  1.0000
  H   H3185     1.0  0.77928  0.91686  0.41620  1.0000
  H   H3186     1.0  0.89116  0.77254  0.54259  1.0000
  C   C2668     1.0  0.84079  0.80696  0.46236  1.0000
  C   C2669     1.0  0.85090  0.81178  0.47102  1.0000
  C   C2670     1.0  0.84278  0.82392  0.48178  1.0000
  C   C2671     1.0  0.82464  0.83159  0.48347  1.0000
  C   C2672     1.0  0.81468  0.82718  0.47432  1.0000
  C   C2673     1.0  0.82271  0.81478  0.46389  1.0000
  H   H3187     1.0  0.86504  0.80637  0.46924  1.0000
  H   H3188     1.0  0.85058  0.82752  0.48861  1.0000
  H   H3189     1.0  0.80065  0.83288  0.47565  1.0000
  H   H3190     1.0  0.81475  0.81096  0.45743  1.0000
  H   H3191     1.0  0.78935  0.79279  0.57862  1.0000
  H   H3192     1.0  0.84439  0.80696  0.60240  1.0000
  H   H3193     1.0  0.70029  0.94021  0.44593  1.0000
  C   C2674     1.0  0.82296  0.81345  0.57960  1.0000
  H   H3194     1.0  0.83059  0.86955  0.34966  1.0000
  H   H3195     1.0  0.80714  0.78262  0.50491  1.0000
  H   H3196     1.0  0.92221  0.75487  0.56417  1.0000
  H   H3197     1.0  0.97408  0.77371  0.40970  1.0000
  C   C2675     1.0  0.79300  0.92297  0.47023  1.0000
  C   C2676     1.0  0.72152  0.94684  0.32997  1.0000
  C   C2677     1.0  0.96055  0.75722  0.35520  1.0000
  C   C2678     1.0  0.74243  0.92284  0.42628  1.0000
  H   H3198     1.0  0.88605  0.75925  0.52105  1.0000
  H   H3199     1.0  0.75512  0.94528  0.61028  1.0000
  N   N178      1.0  0.83792  0.76580  0.41669  1.0000
  C   C2679     1.0  0.83855  0.75489  0.40445  1.0000
  C   C2680     1.0  0.85090  0.77717  0.40828  1.0000
  C   C2681     1.0  0.73357  0.95675  0.31772  1.0000
  C   C2682     1.0  0.81998  0.77723  0.42086  1.0000
  C   C2683     1.0  0.81017  0.78610  0.40761  1.0000
  C   C2684     1.0  0.81234  0.78099  0.43778  1.0000
  C   C2685     1.0  0.79332  0.79706  0.41136  1.0000
  C   C2686     1.0  0.79554  0.79212  0.44134  1.0000
  C   C2687     1.0  0.78598  0.80000  0.42822  1.0000
  H   H3200     1.0  0.84644  0.76042  0.44107  1.0000
  H   H3201     1.0  0.85638  0.74389  0.42896  1.0000
  Fe  Fe362     1.0  0.87772  0.74430  0.49677  1.0000
  H   H3202     1.0  0.84802  0.78585  0.39573  1.0000
  H   H3203     1.0  0.75153  0.96837  0.60032  1.0000
  H   H3204     1.0  0.77107  0.97910  0.57223  1.0000
  H   H3205     1.0  0.97717  0.79929  0.55201  1.0000
  H   H3206     1.0  0.81550  0.78498  0.39413  1.0000
  H   H3207     1.0  0.81924  0.77572  0.44840  1.0000
  H   H3208     1.0  0.78604  0.80358  0.40104  1.0000
  H   H3209     1.0  0.78995  0.79492  0.45430  1.0000
  H   H3210     1.0  0.77302  0.80872  0.43107  1.0000
  Fe  Fe363     1.0  0.74878  0.85915  0.61636  1.0000
  H   H3211     1.0  0.72374  0.91292  0.44912  1.0000
  H   H3212     1.0  0.75364  0.95042  0.54269  1.0000
  C   C2688     1.0  0.77043  0.90264  0.53574  1.0000
  H   H3213     1.0  0.89001  0.75054  0.39103  1.0000
  C   C2689     1.0  0.93184  0.77459  0.34995  1.0000
  H   H3214     1.0  0.98199  0.81999  0.55105  1.0000
  C   C2690     1.0  0.76413  0.92096  0.38977  1.0000
  H   H3215     1.0  0.71900  0.96425  0.46047  1.0000
  H   H3216     1.0  0.80346  0.80551  0.32964  1.0000
  C   C2691     1.0  0.75291  0.92268  0.55522  1.0000
  C   C2692     1.0  0.97415  0.75825  0.49026  1.0000
  C   C2693     1.0  0.75800  0.93684  0.54146  1.0000
  C   C2694     1.0  0.95925  0.76905  0.48395  1.0000
  H   H3217     1.0  0.76935  0.95749  0.44521  1.0000
  H   H3218     1.0  0.70929  0.95555  0.50880  1.0000
  C   C2695     1.0  0.96717  0.75887  0.33714  1.0000
  H   H3219     1.0  0.97567  0.75929  0.39601  1.0000
  H   H3220     1.0  0.72577  0.91032  0.49864  1.0000
  H   H3221     1.0  0.74738  0.92590  0.48493  1.0000
  H   H3222     1.0  0.70602  0.96587  0.42192  1.0000
  N   N179      1.0  0.74128  0.92522  0.57241  1.0000
  S   S724      1.0  0.89051  0.75536  0.32891  1.0000
  S   S725      1.0  0.88189  0.76586  0.57971  1.0000
  H   H3223     1.0  0.70865  0.93878  0.35701  1.0000
  H   H3224     1.0  0.79595  0.94521  0.53646  1.0000
  C   C2696     1.0  0.71396  0.91767  0.49382  1.0000
  S   S726      1.0  0.92342  0.78480  0.31776  1.0000
  Fe  Fe364     1.0  0.86443  0.77273  0.32378  1.0000
  H   H3225     1.0  0.98347  0.76415  0.49277  1.0000
  H   H3226     1.0  0.70407  0.89394  0.50071  1.0000
  H   H3227     1.0  0.72437  0.96891  0.49456  1.0000
  C   C2697     1.0  0.73236  0.95266  0.41084  1.0000
  C   C2698     1.0  0.92482  0.77061  0.62064  1.0000
  C   C2699     1.0  0.79707  0.93334  0.56345  1.0000
  C   C2700     1.0  0.94135  0.77295  0.60973  1.0000
  C   C2701     1.0  0.95437  0.77559  0.61659  1.0000
  C   C2702     1.0  0.79627  0.95076  0.47327  1.0000
  C   C2703     1.0  0.96706  0.76481  0.40732  1.0000
  H   H3228     1.0  0.93800  0.75211  0.51716  1.0000
  C   C2704     1.0  0.98552  0.80552  0.55628  1.0000
  N   N180      1.0  0.77866  0.95593  0.60238  1.0000
  H   H3229     1.0  0.83347  0.74573  0.44024  1.0000
  C   C2705     1.0  0.72461  0.91937  0.57489  1.0000
  H   H3230     1.0  0.96642  0.73755  0.53817  1.0000
  H   H3231     1.0  0.71291  0.87726  0.56127  1.0000
  H   H3232     1.0  0.92153  0.76374  0.53217  1.0000
  C   C2706     1.0  0.95595  0.76809  0.32549  1.0000
  H   H3233     1.0  0.82696  0.81228  0.62051  1.0000
  C   C2707     1.0  0.74599  0.93702  0.41197  1.0000
  C   C2708     1.0  0.77533  0.91672  0.52263  1.0000
  S   S727      1.0  0.80293  0.96261  0.48433  1.0000
  H   H3234     1.0  0.78169  0.88353  0.38581  1.0000
  N   N181      1.0  0.82669  0.84054  0.40891  1.0000
  C   C2709     1.0  0.81636  0.82659  0.41557  1.0000
  C   C2710     1.0  0.84577  0.83183  0.40404  1.0000
  C   C2711     1.0  0.82472  0.84935  0.42331  1.0000
  C   C2712     1.0  0.81977  0.85346  0.39415  1.0000
  C   C2713     1.0  0.80219  0.86387  0.39708  1.0000
  C   C2714     1.0  0.82980  0.85570  0.37656  1.0000
  C   C2715     1.0  0.79525  0.87600  0.38335  1.0000
  C   C2716     1.0  0.82275  0.86801  0.36296  1.0000
  C   C2717     1.0  0.80555  0.87819  0.36638  1.0000
  H   H3235     1.0  0.81697  0.82021  0.40489  1.0000
  H   H3236     1.0  0.82160  0.81614  0.42620  1.0000
  H   H3237     1.0  0.80206  0.83182  0.42106  1.0000
  H   H3238     1.0  0.84802  0.82377  0.39423  1.0000
  H   H3239     1.0  0.85065  0.82256  0.41557  1.0000
  H   H3240     1.0  0.85430  0.84166  0.39869  1.0000
  H   H3241     1.0  0.83135  0.84046  0.43389  1.0000
  H   H3242     1.0  0.83064  0.86118  0.41837  1.0000
  H   H3243     1.0  0.81057  0.85361  0.42984  1.0000
  H   H3244     1.0  0.79357  0.86250  0.41000  1.0000
  H   H3245     1.0  0.84304  0.84795  0.37289  1.0000
  H   H3246     1.0  0.91841  0.78105  0.35493  1.0000
  H   H3247     1.0  0.74823  0.94905  0.57264  1.0000
  H   H3248     1.0  0.95729  0.78323  0.48141  1.0000
  H   H3249     1.0  0.79612  0.81594  0.62068  1.0000
  C   C2718     1.0  0.94297  0.76527  0.36159  1.0000
  H   H3250     1.0  0.81357  0.78739  0.62038  1.0000
  H   H3251     1.0  0.96058  0.77873  0.63945  1.0000
  H   H3252     1.0  0.85779  0.80118  0.54643  1.0000
  C   C2719     1.0  0.83960  0.80453  0.57093  1.0000
  C   C2720     1.0  0.75942  0.90552  0.55177  1.0000
  H   H3253     1.0  0.77494  0.98447  0.59564  1.0000
  H   H3254     1.0  0.73997  0.96273  0.46465  1.0000
  H   H3255     1.0  0.76411  0.96229  0.39105  1.0000
  C   C2721     1.0  0.81846  0.79053  0.60592  1.0000
  C   C2722     1.0  0.80066  0.93235  0.47718  1.0000
  H   H3256     1.0  0.77332  0.94460  0.51523  1.0000
  H   H3257     1.0  0.94414  0.77244  0.59608  1.0000
  H   H3258     1.0  0.73380  0.96426  0.40058  1.0000
  H   H3259     1.0  0.81350  0.77504  0.56067  1.0000
  H   H3260     1.0  0.94529  0.75561  0.55807  1.0000
  Fe  Fe365     1.0  0.89621  0.77987  0.33170  1.0000
  C   C2723     1.0  0.84492  0.80808  0.55266  1.0000
  H   H3261     1.0  0.83055  0.89895  0.31804  1.0000
  S   S728      1.0  0.74781  0.83677  0.63982  1.0000
  N   N182      1.0  0.72380  0.94681  0.48507  1.0000
  H   H3262     1.0  0.75275  0.90008  0.58770  1.0000
  S   S729      1.0  0.89753  0.73835  0.62282  1.0000
  H   H3263     1.0  0.82753  0.74774  0.40930  1.0000
  Fe  Fe366     1.0  0.80299  0.96695  0.35662  1.0000
  H   H3264     1.0  0.78491  0.94499  0.62795  1.0000
  C   C2724     1.0  0.78143  0.93208  0.45898  1.0000
  H   H3265     1.0  0.76947  0.81905  0.56480  1.0000
  H   H3266     1.0  0.77660  0.91921  0.37949  1.0000
  C   C2725     1.0  0.81747  0.82955  0.55049  1.0000
  H   H3267     1.0  0.85063  0.78582  0.41686  1.0000
  H   H3268     1.0  0.94457  0.76453  0.52802  1.0000
  H   H3269     1.0  0.78192  0.97394  0.45828  1.0000
  H   H3270     1.0  0.82937  0.75169  0.52299  1.0000
  H   H3271     1.0  0.84879  0.79487  0.57824  1.0000
  C   C2726     1.0  0.83055  0.81463  0.60594  1.0000
  C   C2727     1.0  0.71098  0.93610  0.48664  1.0000
  C   C2728     1.0  0.82035  0.78335  0.50623  1.0000
  H   H3272     1.0  0.82273  0.79666  0.49955  1.0000
  C   C2729     1.0  0.95067  0.77640  0.63419  1.0000
  C   C2730     1.0  0.73629  0.94382  0.57427  1.0000
  H   H3273     1.0  0.73619  0.94474  0.45841  1.0000
  Fe  Fe367     1.0  0.73597  0.89145  0.32160  1.0000
  C   C2731     1.0  0.80857  0.85006  0.31167  1.0000
  C   C2732     1.0  0.73603  0.96752  0.34220  1.0000
  N   N183      1.0  0.81784  0.80964  0.59900  1.0000
  C   C2733     1.0  0.78005  0.81119  0.55673  1.0000
  C   C2734     1.0  0.76919  0.93376  0.52548  1.0000
  H   H3274     1.0  0.77404  0.82775  0.53253  1.0000
  H   H3275     1.0  0.80941  0.92536  0.48609  1.0000
  H   H3276     1.0  0.78929  0.81616  0.60149  1.0000
  H   H3277     1.0  0.91488  0.76841  0.61533  1.0000
  C   C2735     1.0  0.78261  0.81605  0.53855  1.0000
  C   C2736     1.0  0.94684  0.76157  0.48110  1.0000
  C   C2737     1.0  0.79614  0.80597  0.52803  1.0000
  H   H3278     1.0  0.79748  0.81074  0.51404  1.0000
  H   H3279     1.0  0.75267  0.92401  0.38340  1.0000
  C   C2738     1.0  0.77830  0.93006  0.40723  1.0000
  H   H3280     1.0  0.71547  0.93849  0.32621  1.0000
  S   S730      1.0  0.75329  0.97867  0.49962  1.0000
  C   C2739     1.0  0.70150  0.90801  0.49512  1.0000
  C   C2740     1.0  0.73487  0.86669  0.57443  1.0000
  C   C2741     1.0  0.87618  0.75735  0.56489  1.0000
  N   N184      1.0  0.82152  0.77906  0.52489  1.0000
  C   C2742     1.0  0.80741  0.79040  0.53556  1.0000
  C   C2743     1.0  0.79235  0.94717  0.54977  1.0000
  C   C2744     1.0  0.79966  0.81930  0.60607  1.0000
  C   C2745     1.0  0.68575  0.91632  0.48944  1.0000
  C   C2746     1.0  0.82056  0.76026  0.53202  1.0000
  H   H3281     1.0  0.79873  0.84262  0.31193  1.0000
  H   H3282     1.0  0.83074  0.77425  0.49863  1.0000
  S   S731      1.0  0.88461  0.77603  0.36068  1.0000
  H   H3283     1.0  0.72780  0.94526  0.58742  1.0000
  S   S732      1.0  0.85047  0.76744  0.35206  1.0000
  C   C2747     1.0  0.83909  0.78122  0.52540  1.0000
  H   H3284     1.0  0.84053  0.79505  0.51967  1.0000
  H   H3285     1.0  0.85008  0.77268  0.51776  1.0000
  H   H3286     1.0  0.86471  0.76928  0.40538  1.0000
  H   H3287     1.0  0.74235  0.91673  0.59983  1.0000
  C   C2748     1.0  0.72616  0.92405  0.43843  1.0000
  H   H3288     1.0  0.76352  0.91767  0.58484  1.0000
  H   H3289     1.0  0.72848  0.95258  0.56450  1.0000
  S   S733      1.0  0.76385  0.85344  0.59001  1.0000
  C   C2749     1.0  0.75313  0.85937  0.57248  1.0000
  C   C2750     1.0  0.80490  0.78621  0.55410  1.0000
  H   H3290     1.0  0.82515  0.75467  0.54452  1.0000
  H   H3291     1.0  0.75438  0.95529  0.37729  1.0000
  H   H3292     1.0  0.71536  0.92132  0.58760  1.0000
  Fe  Fe368     1.0  0.85900  0.79118  0.35291  1.0000
  C   C2751     1.0  0.77801  0.95043  0.45419  1.0000
  H   H3293     1.0  0.72711  0.90511  0.57505  1.0000
  H   H3294     1.0  0.84128  0.77759  0.53897  1.0000
  H   H3295     1.0  0.83802  0.82356  0.52826  1.0000
  C   C2752     1.0  0.72704  0.87167  0.55980  1.0000
  H   H3296     1.0  0.83682  0.91315  0.33832  1.0000
  H   H3297     1.0  0.94019  0.73731  0.48204  1.0000
  C   C2753     1.0  0.78355  0.95265  0.58444  1.0000
  C   C2754     1.0  0.79126  0.79637  0.56449  1.0000
  H   H3298     1.0  0.80897  0.83925  0.54239  1.0000
  C   C2755     1.0  0.69479  0.94416  0.48098  1.0000
  H   H3299     1.0  0.98137  0.80319  0.57080  1.0000
  H   H3300     1.0  0.72081  0.85266  0.31412  1.0000
  C   C2756     1.0  0.79269  0.93592  0.58059  1.0000
  C   C2757     1.0  0.75922  0.95770  0.60903  1.0000
  S   S734      1.0  0.72522  0.91580  0.63688  1.0000
  S   S735      1.0  0.86436  0.77346  0.62604  1.0000
  S   S736      1.0  0.77851  0.98134  0.34633  1.0000
  H   H3301     1.0  0.79124  0.92951  0.39748  1.0000
  H   H3302     1.0  0.94703  0.74979  0.44924  1.0000
  H   H3303     1.0  0.75223  0.91060  0.42812  1.0000
  C   C2758     1.0  0.93536  0.75579  0.52989  1.0000
  H   H3304     1.0  0.70412  0.97072  0.48908  1.0000
  C   C2759     1.0  0.72460  0.95725  0.35392  1.0000
  C   C2760     1.0  0.71739  0.94694  0.34782  1.0000
  H   H3305     1.0  0.93808  0.76728  0.43304  1.0000
  H   H3306     1.0  0.77888  0.97422  0.54262  1.0000
  C   C2761     1.0  0.86921  0.74319  0.54025  1.0000
  C   C2762     1.0  0.86164  0.73824  0.55815  1.0000
  H   H3307     1.0  0.85126  0.74487  0.40268  1.0000
  H   H3308     1.0  0.78119  0.97444  0.61583  1.0000
  S   S737      1.0  0.86774  0.74315  0.47399  1.0000
  S   S738      1.0  0.97368  0.74420  0.37004  1.0000
  C   C2763     1.0  0.74055  0.96724  0.32438  1.0000
  Fe  Fe369     1.0  0.73477  0.88661  0.63865  1.0000
  C   C2764     1.0  0.97680  0.73993  0.49352  1.0000
  C   C2765     1.0  0.89092  0.73789  0.39995  1.0000
  C   C2766     1.0  0.82008  0.90842  0.32427  1.0000
  H   H3309     1.0  0.81244  0.84547  0.32460  1.0000
  C   C2767     1.0  0.94945  0.74323  0.48448  1.0000
  C   C2768     1.0  0.95073  0.75960  0.43702  1.0000
  C   C2769     1.0  0.78288  0.96352  0.55322  1.0000
  H   H3310     1.0  0.72126  0.95731  0.36776  1.0000
  N   N185      1.0  0.96325  0.75085  0.42315  1.0000
  C   C2770     1.0  0.78332  0.97249  0.60231  1.0000
  Fe  Fe370     1.0  0.88479  0.75660  0.64127  1.0000
  C   C2771     1.0  0.98472  0.74022  0.44382  1.0000
  H   H3311     1.0  0.92666  0.73702  0.36930  1.0000
  H   H3312     1.0  0.93299  0.74000  0.34578  1.0000
  H   H3313     1.0  0.97603  0.74771  0.45319  1.0000
  Fe  Fe371     1.0  0.84738  0.75444  0.64227  1.0000
  H   H3314     1.0  0.96094  0.76891  0.31158  1.0000
  C   C2772     1.0  0.98021  0.74038  0.42806  1.0000
  C   C2773     1.0  0.95393  0.73932  0.41935  1.0000
  S   S739      1.0  0.79497  0.97837  0.38050  1.0000
  S   S740      1.0  0.85700  0.73628  0.62359  1.0000
  H   H3315     1.0  0.80158  0.86405  0.31100  1.0000
  Fe  Fe372     1.0  0.89654  0.73572  0.46108  1.0000
  H   H3316     1.0  0.93885  0.73601  0.57165  1.0000
  H   H3317     1.0  0.59802  0.75415  0.97536  1.0000
  H   H3318     1.0  0.75902  0.82324  0.69660  1.0000
  S   S741      1.0  0.49946  0.75966  0.83595  1.0000
  C   C2774     1.0  0.64051  0.92366  0.77186  1.0000
  C   C2775     1.0  0.65045  0.75298  0.95824  1.0000
  C   C2776     1.0  0.55011  0.76938  0.81846  1.0000
  N   N186      1.0  0.59697  0.93507  0.73010  1.0000
  H   H3319     1.0  0.66101  0.94364  0.73392  1.0000
  C   C2777     1.0  0.61444  0.95503  0.73396  1.0000
  C   C2778     1.0  0.56740  0.78170  0.91884  1.0000
  Fe  Fe373     1.0  0.51108  0.97313  0.77152  1.0000
  H   H3320     1.0  0.77783  0.97929  0.67918  1.0000
  H   H3321     1.0  0.68922  0.94125  0.68021  1.0000
  C   C2779     1.0  0.69830  0.96327  0.69643  1.0000
  H   H3322     1.0  0.57984  0.94268  0.71152  1.0000
  H   H3323     1.0  0.54163  0.79868  0.91755  1.0000
  C   C2780     1.0  0.58953  0.79458  0.92364  1.0000
  C   C2781     1.0  0.63345  0.94119  0.77336  1.0000
  C   C2782     1.0  0.52507  0.85852  0.81508  1.0000
  H   H3324     1.0  0.52544  0.77041  0.86512  1.0000
  H   H3325     1.0  0.56372  0.77045  0.91724  1.0000
  C   C2783     1.0  0.59942  0.80404  0.79913  1.0000
  N   N187      1.0  0.59867  0.78652  0.81109  1.0000
  C   C2784     1.0  0.61264  0.92060  0.73324  1.0000
  S   S742      1.0  0.59654  0.90306  0.78712  1.0000
  C   C2785     1.0  0.61410  0.77355  0.80375  1.0000
  H   H3326     1.0  0.61059  0.90770  0.73298  1.0000
  C   C2786     1.0  0.65473  0.75498  0.94002  1.0000
  H   H3327     1.0  0.78177  0.78030  0.65874  1.0000
  H   H3328     1.0  0.65836  0.97326  0.72388  1.0000
  H   H3329     1.0  0.51378  0.91749  0.77677  1.0000
  C   C2787     1.0  0.78246  0.80613  0.66053  1.0000
  S   S743      1.0  0.63213  0.78643  0.86541  1.0000
  C   C2788     1.0  0.55207  0.78583  0.80795  1.0000
  C   C2789     1.0  0.53007  0.77487  0.89595  1.0000
  H   H3330     1.0  0.65232  0.74648  0.91820  1.0000
  H   H3331     1.0  0.70362  0.95949  0.68355  1.0000
  H   H3332     1.0  0.51416  0.80785  0.88489  1.0000
  H   H3333     1.0  0.50525  0.84764  0.78213  1.0000
  C   C2790     1.0  0.79315  0.81719  0.66036  1.0000
  Fe  Fe374     1.0  0.59276  0.85161  0.76735  1.0000
  S   S744      1.0  0.60284  0.85195  0.79026  1.0000
  S   S745      1.0  0.56961  0.83829  0.77528  1.0000
  Fe  Fe375     1.0  0.62226  0.86830  0.74080  1.0000
  S   S746      1.0  0.63477  0.86935  0.76177  1.0000
  S   S747      1.0  0.63445  0.88262  0.71398  1.0000
  Fe  Fe376     1.0  0.62972  0.84230  0.77426  1.0000
  S   S748      1.0  0.65018  0.81890  0.78394  1.0000
  C   C2791     1.0  0.62931  0.91181  0.77622  1.0000
  S   S749      1.0  0.61959  0.84025  0.75202  1.0000
  S   S750      1.0  0.59430  0.87950  0.75401  1.0000
  C   C2792     1.0  0.56751  0.78041  0.87500  1.0000
  H   H3334     1.0  0.58923  0.79674  0.83450  1.0000
  H   H3335     1.0  0.55451  0.92613  0.78207  1.0000
  H   H3336     1.0  0.52577  0.93669  0.79806  1.0000
  Fe  Fe377     1.0  0.63778  0.75679  0.87226  1.0000
  H   H3337     1.0  0.52662  0.78305  0.90585  1.0000
  S   S751      1.0  0.69909  0.83953  0.66658  1.0000
  H   H3338     1.0  0.71469  0.94818  0.64814  1.0000
  H   H3339     1.0  0.58976  0.93935  0.78847  1.0000
  S   S752      1.0  0.73329  0.86657  0.66409  1.0000
  C   C2793     1.0  0.58740  0.96815  0.72313  1.0000
  H   H3340     1.0  0.57904  0.82233  0.92545  1.0000
  H   H3341     1.0  0.62686  0.77778  0.80117  1.0000
  H   H3342     1.0  0.65523  0.91483  0.73779  1.0000
  N   N188      1.0  0.53409  0.91097  0.79180  1.0000
  C   C2794     1.0  0.67844  0.91928  0.69566  1.0000
  C   C2795     1.0  0.81158  0.81070  0.65844  1.0000
  H   H3343     1.0  0.61576  0.76036  0.81277  1.0000
  H   H3344     1.0  0.54724  0.76142  0.86842  1.0000
  H   H3345     1.0  0.53743  0.81973  0.87651  1.0000
  S   S753      1.0  0.61512  0.74653  0.89173  1.0000
  Fe  Fe378     1.0  0.75964  0.85198  0.65092  1.0000
  H   H3346     1.0  0.92369  0.75036  0.67509  1.0000
  H   H3347     1.0  0.59826  0.80425  0.78574  1.0000
  H   H3348     1.0  0.53006  0.93071  0.76833  1.0000
  C   C2796     1.0  0.58172  0.80410  0.87208  1.0000
  H   H3349     1.0  0.53566  0.90831  0.76586  1.0000
  C   C2797     1.0  0.58284  0.78645  0.87294  1.0000
  C   C2798     1.0  0.54236  0.86119  0.81029  1.0000
  S   S754      1.0  0.64778  0.95584  0.76709  1.0000
  Fe  Fe379     1.0  0.53354  0.77931  0.97079  1.0000
  S   S755      1.0  0.51947  0.77056  0.95552  1.0000
  H   H3350     1.0  0.52110  0.80837  0.86166  1.0000
  S   S756      1.0  0.65883  0.73801  0.88583  1.0000
  H   H3351     1.0  0.58952  0.75545  0.83091  1.0000
  C   C2799     1.0  0.93391  0.77480  0.64488  1.0000
  S   S757      1.0  0.90089  0.76762  0.65245  1.0000
  H   H3352     1.0  0.54135  0.76388  0.89911  1.0000
  C   C2800     1.0  0.72795  0.94191  0.65028  1.0000
  C   C2801     1.0  0.79015  0.78877  0.65857  1.0000
  H   H3353     1.0  0.60155  0.81388  0.93995  1.0000
  H   H3354     1.0  0.55828  0.90805  0.80005  1.0000
  C   C2802     1.0  0.53773  0.77414  0.86524  1.0000
  C   C2803     1.0  0.65194  0.87054  0.70050  1.0000
  C   C2804     1.0  0.66394  0.87935  0.68732  1.0000
  C   C2805     1.0  0.67851  0.86996  0.67688  1.0000
  C   C2806     1.0  0.68076  0.85178  0.67914  1.0000
  C   C2807     1.0  0.66848  0.84304  0.69201  1.0000
  C   C2808     1.0  0.65426  0.85234  0.70287  1.0000
  H   H3355     1.0  0.66203  0.89346  0.68521  1.0000
  H   H3356     1.0  0.68786  0.87680  0.66690  1.0000
  H   H3357     1.0  0.67008  0.82900  0.69367  1.0000
  H   H3358     1.0  0.64495  0.84548  0.71285  1.0000
  C   C2809     1.0  0.63781  0.79555  0.84286  1.0000
  C   C2810     1.0  0.64927  0.78527  0.83127  1.0000
  C   C2811     1.0  0.65318  0.79262  0.81322  1.0000
  C   C2812     1.0  0.64542  0.81018  0.80666  1.0000
  C   C2813     1.0  0.63393  0.82046  0.81824  1.0000
  C   C2814     1.0  0.63026  0.81320  0.83633  1.0000
  H   H3359     1.0  0.65538  0.77174  0.83621  1.0000
  H   H3360     1.0  0.66219  0.78465  0.80434  1.0000
  H   H3361     1.0  0.62819  0.83411  0.81333  1.0000
  H   H3362     1.0  0.62148  0.82125  0.84524  1.0000
  C   C2815     1.0  0.58173  0.93176  0.74485  1.0000
  H   H3363     1.0  0.50245  0.90017  0.80273  1.0000
  H   H3364     1.0  0.67963  0.96301  0.72962  1.0000
  H   H3365     1.0  0.66589  0.89896  0.71367  1.0000
  H   H3366     1.0  0.61226  0.80779  0.79747  1.0000
  H   H3367     1.0  0.63492  0.89827  0.77531  1.0000
  S   S758      1.0  0.56307  0.76903  0.96891  1.0000
  H   H3368     1.0  0.53802  0.76492  0.82024  1.0000
  S   S759      1.0  0.50154  0.98331  0.79607  1.0000
  C   C2816     1.0  0.75456  0.94316  0.65808  1.0000
  H   H3369     1.0  0.66244  0.76452  0.93189  1.0000
  H   H3370     1.0  0.56157  0.90429  0.77839  1.0000
  S   S760      1.0  0.54076  0.96412  0.76342  1.0000
  C   C2817     1.0  0.80859  0.78240  0.65631  1.0000
  H   H3371     1.0  0.52752  0.91845  0.81660  1.0000
  H   H3372     1.0  0.60820  0.76591  0.94334  1.0000
  H   H3373     1.0  0.73060  0.96341  0.65926  1.0000
  H   H3374     1.0  0.61020  0.81903  0.91640  1.0000
  C   C2818     1.0  0.55089  0.98080  0.76326  1.0000
  C   C2819     1.0  0.60854  0.77932  0.94401  1.0000
  C   C2820     1.0  0.56770  0.79158  0.80542  1.0000
  C   C2821     1.0  0.76238  0.92606  0.65540  1.0000
  H   H3375     1.0  0.59574  0.77744  0.87197  1.0000
  C   C2822     1.0  0.55050  0.79208  0.87586  1.0000
  H   H3376     1.0  0.62117  0.77213  0.91218  1.0000
  H   H3377     1.0  0.62478  0.92280  0.72297  1.0000
  H   H3378     1.0  0.83355  0.78851  0.65469  1.0000
  S   S761      1.0  0.52340  0.80803  0.96051  1.0000
  C   C2823     1.0  0.54978  0.80998  0.87530  1.0000
  C   C2824     1.0  0.66931  0.97527  0.68962  1.0000
  Fe  Fe380     1.0  0.75535  0.98487  0.65375  1.0000
  H   H3379     1.0  0.59727  0.78333  0.95477  1.0000
  C   C2825     1.0  0.53131  0.89291  0.79997  1.0000
  H   H3380     1.0  0.67601  0.98462  0.71589  1.0000
  C   C2826     1.0  0.51495  0.87035  0.76571  1.0000
  C   C2827     1.0  0.53006  0.87751  0.75789  1.0000
  C   C2828     1.0  0.54688  0.86789  0.76090  1.0000
  C   C2829     1.0  0.54872  0.85086  0.77138  1.0000
  C   C2830     1.0  0.53365  0.84358  0.77897  1.0000
  C   C2831     1.0  0.51677  0.85337  0.77631  1.0000
  H   H3381     1.0  0.52873  0.89048  0.74940  1.0000
  H   H3382     1.0  0.55844  0.87350  0.75481  1.0000
  H   H3383     1.0  0.53502  0.83037  0.78698  1.0000
  H   H3384     1.0  0.55055  0.97600  0.81729  1.0000
  H   H3385     1.0  0.56438  0.82952  0.87294  1.0000
  H   H3386     1.0  0.56927  0.94169  0.74292  1.0000
  C   C2832     1.0  0.56874  0.97675  0.76445  1.0000
  H   H3387     1.0  0.59371  0.80863  0.87055  1.0000
  H   H3388     1.0  0.58871  0.81470  0.80418  1.0000
  H   H3389     1.0  0.54150  0.79412  0.80149  1.0000
  H   H3390     1.0  0.61529  0.91884  0.74637  1.0000
  C   C2833     1.0  0.61655  0.97183  0.73302  1.0000
  C   C2834     1.0  0.66268  0.92079  0.72529  1.0000
  C   C2835     1.0  0.51389  0.88967  0.80493  1.0000
  C   C2836     1.0  0.57653  0.81068  0.92350  1.0000
  C   C2837     1.0  0.58446  0.78019  0.92111  1.0000
  C   C2838     1.0  0.61098  0.91743  0.78218  1.0000
  C   C2839     1.0  0.73704  0.95067  0.65632  1.0000
  H   H3391     1.0  0.54963  0.82431  0.92143  1.0000
  C   C2840     1.0  0.92652  0.73847  0.68546  1.0000
  H   H3392     1.0  0.81989  0.81914  0.65851  1.0000
  S   S762      1.0  0.76736  0.95593  0.66139  1.0000
  C   C2841     1.0  0.59288  0.93417  0.71368  1.0000
  H   H3393     1.0  0.76820  0.81080  0.66258  1.0000
  N   N189      1.0  0.53443  0.78544  0.87791  1.0000
  C   C2842     1.0  0.55293  0.91233  0.78793  1.0000
  H   H3394     1.0  0.52272  0.84534  0.82034  1.0000
  H   H3395     1.0  0.60337  0.93810  0.70209  1.0000
  C   C2843     1.0  0.52369  0.92302  0.80367  1.0000
  C   C2844     1.0  0.51085  0.87274  0.81244  1.0000
  N   N190      1.0  0.60729  0.79223  0.92721  1.0000
  H   H3396     1.0  0.57908  0.91856  0.74657  1.0000
  H   H3397     1.0  0.50679  0.79429  0.87608  1.0000
  H   H3398     1.0  0.62740  0.97320  0.73765  1.0000
  Fe  Fe381     1.0  0.50731  0.79924  0.94757  1.0000
  S   S763      1.0  0.65767  0.76607  0.96760  1.0000
  C   C2845     1.0  0.67586  0.94555  0.70653  1.0000
  N   N191      1.0  0.67902  0.96350  0.70310  1.0000
  H   H3399     1.0  0.56834  0.80436  0.79694  1.0000
  C   C2846     1.0  0.55951  0.81205  0.92118  1.0000
  H   H3400     1.0  0.63503  0.78435  0.91487  1.0000
  H   H3401     1.0  0.62036  0.79437  0.89997  1.0000
  H   H3402     1.0  0.78497  0.96196  0.70816  1.0000
  H   H3403     1.0  0.68324  0.91221  0.68512  1.0000
  C   C2847     1.0  0.62149  0.78549  0.91298  1.0000
  H   H3404     1.0  0.62454  0.80649  0.93098  1.0000
  H   H3405     1.0  0.54301  0.78101  0.85168  1.0000
  S   S764      1.0  0.50369  0.81361  0.92059  1.0000
  H   H3406     1.0  0.57639  0.96336  0.76520  1.0000
  C   C2848     1.0  0.58192  0.78091  0.81347  1.0000
  H   H3407     1.0  0.58429  0.93240  0.75741  1.0000
  H   H3408     1.0  0.53573  0.98329  0.80262  1.0000
  C   C2849     1.0  0.52812  0.91716  0.77500  1.0000
  Fe  Fe382     1.0  0.60679  0.87895  0.77561  1.0000
  H   H3409     1.0  0.70623  0.95388  0.70578  1.0000
  H   H3410     1.0  0.59356  0.76752  0.92133  1.0000
  H   H3411     1.0  0.50916  0.92400  0.80627  1.0000
  H   H3412     1.0  0.57593  0.73642  0.92945  1.0000
  C   C2850     1.0  0.57937  0.76431  0.82426  1.0000
  C   C2851     1.0  0.66875  0.91178  0.71173  1.0000
  C   C2852     1.0  0.61512  0.94682  0.77933  1.0000
  N   N192      1.0  0.69237  0.83625  0.73640  1.0000
  C   C2853     1.0  0.68219  0.82338  0.73668  1.0000
  C   C2854     1.0  0.69133  0.83622  0.75492  1.0000
  C   C2855     1.0  0.68352  0.85409  0.72812  1.0000
  C   C2856     1.0  0.71082  0.83185  0.72609  1.0000
  C   C2857     1.0  0.72609  0.83015  0.73259  1.0000
  C   C2858     1.0  0.71390  0.83000  0.70859  1.0000
  C   C2859     1.0  0.74326  0.82698  0.72204  1.0000
  C   C2860     1.0  0.73107  0.82680  0.69820  1.0000
  C   C2861     1.0  0.74573  0.82540  0.70486  1.0000
  H   H3413     1.0  0.68905  0.80966  0.74177  1.0000
  H   H3414     1.0  0.66857  0.82575  0.74518  1.0000
  H   H3415     1.0  0.68020  0.82406  0.72353  1.0000
  H   H3416     1.0  0.69768  0.82309  0.76196  1.0000
  H   H3417     1.0  0.67726  0.83918  0.76234  1.0000
  H   H3418     1.0  0.69757  0.84645  0.75593  1.0000
  H   H3419     1.0  0.66931  0.85771  0.73486  1.0000
  H   H3420     1.0  0.69037  0.86426  0.72820  1.0000
  H   H3421     1.0  0.68366  0.85511  0.71420  1.0000
  H   H3422     1.0  0.72516  0.83134  0.74570  1.0000
  H   H3423     1.0  0.70303  0.83134  0.70261  1.0000
  H   H3424     1.0  0.75476  0.82591  0.72710  1.0000
  H   H3425     1.0  0.73294  0.82570  0.68478  1.0000
  H   H3426     1.0  0.80734  0.96427  0.69932  1.0000
  C   C2862     1.0  0.54555  0.87809  0.80284  1.0000
  C   C2863     1.0  0.60393  0.93493  0.78383  1.0000
  H   H3427     1.0  0.77583  0.92002  0.65707  1.0000
  H   H3428     1.0  0.61266  0.77186  0.79113  1.0000
  H   H3429     1.0  0.59213  0.92059  0.71383  1.0000
  H   H3430     1.0  0.56914  0.76648  0.87602  1.0000
  C   C2864     1.0  0.59990  0.95268  0.72875  1.0000
  H   H3431     1.0  0.60956  0.96032  0.78043  1.0000
  H   H3432     1.0  0.61294  0.79217  0.82693  1.0000
  C   C2865     1.0  0.60077  0.78747  0.82830  1.0000
  C   C2866     1.0  0.61094  0.80871  0.92866  1.0000
  H   H3433     1.0  0.62108  0.77808  0.94805  1.0000
  C   C2867     1.0  0.73610  0.92528  0.64660  1.0000
  C   C2868     1.0  0.64059  0.74057  0.96864  1.0000
  S   S765      1.0  0.64059  0.73991  0.85367  1.0000
  Fe  Fe383     1.0  0.72150  0.85306  0.65096  1.0000
  C   C2869     1.0  0.55494  0.79757  0.91899  1.0000
  C   C2870     1.0  0.56375  0.75865  0.82658  1.0000
  H   H3434     1.0  0.56227  0.74579  0.83461  1.0000
  H   H3435     1.0  0.51851  0.76890  0.89800  1.0000
  H   H3436     1.0  0.57535  0.96743  0.72014  1.0000
  S   S766      1.0  0.78372  0.83905  0.66268  1.0000
  S   S767      1.0  0.81785  0.76083  0.65310  1.0000
  H   H3437     1.0  0.60213  0.77443  0.83759  1.0000
  C   C2871     1.0  0.68190  0.93592  0.69303  1.0000
  C   C2872     1.0  0.56522  0.81582  0.87336  1.0000
  H   H3438     1.0  0.93093  0.77617  0.65828  1.0000
  H   H3439     1.0  0.65472  0.91918  0.76753  1.0000
  H   H3440     1.0  0.70107  0.97656  0.69429  1.0000
  H   H3441     1.0  0.62413  0.94410  0.73928  1.0000
  H   H3442     1.0  0.93519  0.74113  0.69254  1.0000
  C   C2873     1.0  0.58977  0.98491  0.72204  1.0000
  H   H3443     1.0  0.55347  0.85001  0.81173  1.0000
  C   C2874     1.0  0.51853  0.79967  0.87491  1.0000
  H   H3444     1.0  0.55930  0.87912  0.79914  1.0000
  C   C2875     1.0  0.81932  0.79338  0.65625  1.0000
  Fe  Fe384     1.0  0.63543  0.98293  0.77254  1.0000
  H   H3445     1.0  0.57481  0.74503  0.94775  1.0000
  C   C2876     1.0  0.75313  0.91709  0.64966  1.0000
  H   H3446     1.0  0.67403  0.97104  0.67692  1.0000
  C   C2877     1.0  0.66612  0.93743  0.72283  1.0000
  H   H3447     1.0  0.75940  0.90412  0.64707  1.0000
  C   C2878     1.0  0.64902  0.74473  0.93224  1.0000
  C   C2879     1.0  0.67299  0.97134  0.71882  1.0000
  S   S768      1.0  0.86664  0.73931  0.65935  1.0000
  H   H3448     1.0  0.50141  0.79367  0.81309  1.0000
  H   H3449     1.0  0.80022  0.98181  0.67111  1.0000
  H   H3450     1.0  0.82330  0.98415  0.68094  1.0000
  H   H3451     1.0  0.65477  0.97578  0.69400  1.0000
  C   C2880     1.0  0.79414  0.97078  0.70621  1.0000
  H   H3452     1.0  0.79544  0.97116  0.71935  1.0000
  H   H3453     1.0  0.52553  0.98236  0.84214  1.0000
  H   H3454     1.0  0.91358  0.73719  0.69478  1.0000
  H   H3455     1.0  0.49742  0.87065  0.81580  1.0000
  H   H3456     1.0  0.95047  0.73557  0.65427  1.0000
