data_image0
_chemical_formula_structural       FeS2CSFeSFeSHS2H2CSCSHFeH2CHSH2C5H3C6H3FeC6H7SHSC2HSHCFeCH3CH2CH5CH3CHFeC3HNC9H7FeH6CFeCHCHCHFeCHNFeSH2CHS2NSCH8NH5CH3CH4FeSFeHCH2FeS2FeSFeSCH2C4H3SFeSHSC2HFeS2FeSFeS3FeS2C6H4SCH2SC4H3NC2HCSC2H5SH2CH3CHC3HCHSHC2H4SHSFeHCHCS2C7H4FeCSCH3CH2SH2C3SH2C4HCH2CH2CFe2CH2CNCHC3H2C3HNHCSHCHCFeC2H2SCSCH2C3H3SC2HNH3CSC2HFeCH2C3H2CSH4CSHCH3C2HCH2CHCHFeH3CH3CH3SHFeS2FeS2FeSFeS3FeSHFeS2FeS2FeSFeS3HC2HC2HSC2SFeS2FeS2FeSFeS3FeS2HSC7H4C6H3C7H5FeHCH2CH2CH2C6H5CHCH2C2FeHC7H4C6H4C6H4SH2C12H4NC9H14CHCH2NC2HC3HC2H3C2HCH6CH4CSCHFeHFeC2H4CHCHC2H2NCH4CFeCHSHC2HCS2C2NH2NHNC8H15CHCH3CH2C3H3SH2SHC3HCHC2H8C2H2CHSCHCHC2FeH6CHNCSH2NC2H5C3H3NSC3HCHCHCHCNH2C2H3C3HC2HCH3C3H3C2H3CHN2HCHC4HFeCH2CH3C2HCH9CH2CH2C2H2C2H2CH3CNH9FeS2FeS2FeHFeS3CS2FeSFeSFeHSC2H7CHC4H5C7H4C6H4CHC2H2C2HFeSCH6CSCHCH2CHCH2CHC3NH3SH2CHNHCH2C4HCNCH2C2H2FeHCHCH5CHSH2CS2C3HFeH2C5HCH2CNS2HCHCHC2H2SCH2FeHCHCFeC2HSHC2H4CH2S2H2SC3H2C2H3C3HFeS2FeS2FeSFeS3H2CSH3SCHFeS2H4CNH2CHCHNC7H4C6H4C3HC2H2CHCH3C8H2CHFeHNSH2CH2C2HCH3CFeC5H2C2HC2HCHCHNH2C2H4CH2C2HCH2C3H4CH2CHCHC2HC2H3CH2C3HC7HCH2CH3FeCH4CS2H2SHS2HCSH2SHFeSFeSH2FeCH2FeSHC2FeSCHC2FeS2HSCFeSFeS3FeS2FeS2FeSFeS3CH2CNC4H3FeHC6H2C6H4C6H5FeC3H2CH4C6H3C2SCFeC2HCH3CSCH2SH3C6H4SH2C2HCH2CH3C3NH2SHCH4CH7C2NC2HC2NCHCH8CNCH3C3HC2HC2HCN2FeH2NC6SHFe2HCH2CHCHC3HC2S2HSHSNC9H12CHNC9H2CH7FeH2FeCSH2CSCH4CHFeCHCSH2SH3SH2CH2CH4CSH2CHCS2HFeHCH5C3H2CSHCH2C2HFeS2FeS2Fe2S3FeS2FeSCFeSFeS3HCFeHSHCHSHFeS2FeS2FeSFeS3FeS2H3FeSC2SHCH3C3H3NHC7H3C6H5CH2C7H4C7H6S3C5H2C6H4C6H5C6H4SHC2H2NH3C4HFeHCH2C3H5CHC10H6CHNH5CH3C2HCH6C4H2CH3NH2C8HCNH2CH7CH2FeHNCNH2CH4CH4N2HSNCSC2H4CH5NCHC2H3CHC2H5CH2C2HSCH3C2HCHC3H2NCH2C2HC4HCHCH6CHNCHC2HC4H3CH2C2HCH4CHC2H2SH3CHC2H2CH7CH4C2H5C2SC2HCHFeH7C2NCH3SHCFeHFeSFeS2FeSFeS3FeS2HSFeSFeSHCS2C2SH5FeSCSC3HC2H4SHC7H2CNCHC2HC6H6CSC7H2CHC6H5CH2CSH2CH2CH2CH10C2SC2HCH3SHCNHCHC3HC7H2NC9H14CHCNHC2FeNCH4SCHNCHCHC3HCFeH3C2SH2C4H2CHCHC3H4CHCH6CHCHFeHC2NCHC3H2FeS2FeS2FeSFeS3C4HC4S2HSFeS4HC2FeS2FeS2CHSHFeSFe2S2C2H2C5SH3SFeH2C3H3CH3CHCHFeC6H4C6H4C7H3C6H4FeHFeHSH4C2H3CH2CHCHSH4SH2CHNC9H14CHFeH3FeH2C2HC2H2FeCH2SHC3HCH4CHCHCHSCH2C3HCHCH4CHCHCHNC2H3NC9H14NC9H10C2NC9H10S2C2H2CH2C2SCHC2HC2HC2HFeHCHCH2FeCH4CNHCHC4HCH3C2H2C2HCH2NCHSCHSCSH3CHS2HCHCH2NHSH2SCNCSCSH3NSNC3SH2CHFeC2FeHNC3HCH3CHC2HCSCHCH2C2H5NHCHC2H3FeSHCSCH2SCHCHCHCH2CHCH2CSCNSHCFeSCHC2H3CHCFeS2FeS2FeSFeS4HSHC6H4C5FeH4SH3SHC7H4C8H5CH2Fe2SC3HC3FeC3H2C2HC2HCHNHC3HSH2NH2CH2SHC2SC2H7C3H7C6H3C3H5CHCHCNC4H2SCH8CH2CH4SHNSC7HCH9SHCHCH5CNC2HCH2C2HCHC2H2CH3SHCHC2HCHNCH2CHC4H2CHCH6CHFeCHFeCFeCSCHS2C2HCSH3SHSCHSHNC7H4CH2CSHFeCHCSH5CH2C3FeH6CHSHSFeH2C2HCHCSC2HC3FeHC2H2CHCH2C2H2FeNHSCFeHCSC2H2CHFeHNHFeH3C2HFeS2FeS2FeSFeS3FeSFeS2FeSFeS3HSFe2S2FeSHS3H2C2FeS2FeS2FeSFeS3CH2SFeS2FeS2FeSFeS3CNH4SHSHC6H2C8H6C6H4SHCHC7H4C6H2C6H4C6H4C6HSH2C6H4C4H3C6H4CH2C4H4SH2C2H6CH2NC9H14NC9H14C2H3CHCNHCHC2H2C5H7CH8C2HCHC5H7SCNHC2HCH2CHCHCH5NCHCH5NC2H2CH2CHFeC2HSCHCH5CHCNCSC2HCH2CHCH4C2SHC3H2CHSC2HNCHCH3CHC2H3Fe2HC2HNSH2CNH2C2H2CHC3HC2H4C3H2SCHC3SH2CHFeCSCH3CNC2H2CSC2H2C2HFeH7CHCHC2NCHSC4H5SH2CH3CHC2H7NHFeHCHFeS2FeS2FeSFeS3H3CHFeS2FeS2FeSFeS3CFeHSCFeHSFeS2FeH2CHFeHS2HC2HCNCH2S2CSCFeSFeSH2CHC2H2CHSH4C2HSH2C4H5C2HFeSHCHCNCH2CHCH2CH6C3H3C6H4C6H4CSC4H4C6H4C6H4C6H4C2HCH2CHC3HC4NC9H14NC9H10NC7H10S2CH2FeHSH5CNHCHCHCH5C2HC2HC2HSHCH3C4NC4HC2H3CH3C2HFeNCHC2HCHCHSCFeH2S2H2CHCSH2NHSH2CH2CH6CH2CFeNH3C2SC3H2S2FeS2FeS2FeSFeS3FeS2FeS2FeSFeS3H2CHCHCSHC2HC6HCH2C6H4C6H4C3H2C2HC6H3C7H3C6HSC2H5CH4FeH2NH4CSCHC2H3C2H2C3FeCSHCNC9H11CHCNC7HSH13NC9H14C4H3FeCH2C2H2NC3NHCH2C2HNH4C2H3CH6C2HCHC3HC4H10FeH2CH2SCHCH5SCNSCHCH2CSCH8CHFeC4HFeCHCFeH4CH4NHCHFeC3SH3CHS2HSFeS2HCHC2H2CHCH2CFeC2H2C2HC5H5CHCHC2H2CFeC2HSHCHCHCH2NHC2H2CH4CSCHC2H2S2C3H2CFeH4CHCH2C2NCHC2HCHSHCH2SCH2FeSFeS2FeSFeS3FeS2FeS2FeHFeHS2H3CFeS2FeSHCSHFeSFeSFeS2FeS2FeS2FeSFeS3HC2HCNHCFeSHFeS2FeSFeS3HC4H3CH2C4HC7H4C2HC3H2C2SCHC2HCHC6H2C6H4C6FeH4CHSH4C6H7CH2SHNC2H5C8H2C6H5SCSH2CHFeH6C2HCHSFeC2HCNC6HC2H13CNH2C7HSCH8NC9H14NC9H14C4H4NC8H9SH3CH2CSHSH2CHCHC3H2CHNC9H15NC9H14CH2C7H7NHFeH5FeHC7HCSHFeHCH2CNC2HNC2HC6HCH2SH2SCHCH2S2HC2HCHCH2CHSHNCH4CSHCHCH2CHCH2C2SCHSFeHC2SCH2FeH2CH4CSCH2CHCHC2SH4C2FeS2FeS2FeSFeHS2HC2HCHCHFeS2FeHCNC2H2CHCHCFeSCFeS2HCH2SHFeSNCHCFeHCH6CH2CH2CHCHCH2C2HCH3CHCHSHCH2C7H4C6H4SC4SH9CH2SC2H2CSH5CH2CHCHC2FeH4CHC2H2C2H2C2H4FeHSFeCSHCH2S2HCH3SC4SHC2HFeSHSHFeS2HSCFeSFeS3H2SH5CFeS2FeSHFeHFeS4C2HNSHC2HCHC2FeHCSCNHC3SH2CHCHSC6H4C6H4C6H4C2SHC2H4C2HC4H3C6H3CH3C3HCH3CHCH2NCSH2C5H2CH3CHC2FeSC3HFeHFeCHSH3CHFeCNC9H14CHC2SC3FeH4SH2CH2NFeCH4SHC2NFeH4CH3C2HCH2C2H3SHCHFeC2HC2HCH2CSFeH2CHCFeS2FeS2FeSFeS3FeS2FeS2FeCFeS4FeS2FeS2FeSFeS3FeS2FeS2FeSFeS3FeS2FeS2H9CHC6H4NHNC6H4C7H3C6H4C6H4CH3C4H2C6H4C6H5C6H4NH3C6H3CH3C4NH5CHCH2C2H5CHNHCH3CH3C5H5CHC2SCHCH3C3HNC7H4CH7C2H4CNC2H2CHSC2HCHC5HSH5NC7H7CHC2H2C5H3CNH2C4HCH4C2HC2H4NC3H6C2HCH3CH7CH5CHFeH3CH2CNHCH4NH5CHC2H2C3H2CHCHCH3CH2C3HC2H2CHCHCNH4C2SHCH7CH5C2H2CH2SC2HCHCHFeHC2SCFeSHFeS2Fe2S5FeSFeS2FeSCFeSFeS3HCSH2C2HC2H3C8H5CHCHCHC6H4FeH3CHC6SCH2C6H4CHCHC2H2CH2CH3FeHSHCHCH2NC3SC2H2C2HCH4NH2CHCH4FeH3SFeC3HCHC2SH3SH3S2H5C2H2CSH3C3HCHCNC3HCHC2H2NHCH8CSCFeS2FeS2FeSFeS3FeHSH2CHC2HSCHCSH3C4HCH3CFeH4CNHC4H9CH2C6H4C6H4C3H2C4HSC2HC2H2CHCH5CH2NHC4NH2CHCHCH3CSHSCH3C3HCHNHC4NC2HC2H2CH2C2H4CHCHCH3CH2C2H4C3HCNHCH2NCH3C2HC4HNHCFe2H4CHCHFeCFeHSH3S2HFeS2HC2HSFeHCFeSCHFeS2FeS2FeSFeS3FeHSFeHSFeC3S2FeS2H3C2FeSCSH3C4FeH2CHCH2C6H4C6H5Fe2SH3C4HC2SHC6H2C8H2NHCHC7H6C4HSH2SHSH2C2H2NCNHCHC3HCH2CHC2HSCHCNH3CHC2H2CHCSFeSH3CNHSCSC2NC9H14C2H2CHCHCH2CH2CHCSHSHSH2SNC9H13SC3SC2H4FeCHSCSH2CHFeCFeHC2HNH3CH2CH4CHSH3CHCH3C3H4CSH4C2HNCH3FeS2FeS2FeSFeHS2HFeS2FeS2FeSFeCS2HNC5FeSCH2FeS2FeS2FeSFeS3FeSFeS2FeS3C4HC6H4C6H4C2HC6H4CH3C3HSC4SH2C6H4C6H4CHCH5C4H6C2H2CHCHC3HNCH4CNCHC2H2NC9H14NC9H13SC2H5CH3C2HCHNC9H14C2H4CNC2HC4H2CH6CHCH2CH3CH2C3HCH2NHCHC2H4NHC2HCSHC2H4SH3FeHCHCH2CH4C3H3CHCHCSCHCHC3HCHC3H3NC2SH6C6SCHC2HFeH2CH2NC3NH2CH3FeSC2H2FeCSHCHSH2SHCH3CSHCH2FeS2FeS2FeHFeS3CFeS2FeSHFeSHS2CFeSFeS2FeS2C4H3C6H4C3FeC2HSC6H4C5SH8CH3C2HCH3FeC2SCHNSCSC3HNHC2H2C2H2CHCH4SHCHC2FeH4SHCH5C2H3CHC2HCHC2HCSH2CH2C2HC3HCNH3C6H2C2H2CH7NH2C3HCFeSH2C2H4CH2CNH5C2H4C2H3CH2NH4C2H4NH3CH5C
_chemical_formula_sum              "Fe384 S768 C2880 H3456 N192"
_cell_length_a       76.9554
_cell_length_b       76.8066
_cell_length_c       76.8965
_cell_angle_alpha    75.1963
_cell_angle_beta     75.2982
_cell_angle_gamma    75.2917

_space_group_name_H-M_alt    "P 1"
_space_group_IT_number       1

loop_
  _space_group_symop_operation_xyz
  'x, y, z'

loop_
  _atom_site_type_symbol
  _atom_site_label
  _atom_site_symmetry_multiplicity
  _atom_site_fract_x
  _atom_site_fract_y
  _atom_site_fract_z
  _atom_site_occupancy
  Fe  Fe1       1.0  0.17958  0.44552  0.12131  1.0000
  S   S1        1.0  0.18875  0.41594  0.11921  1.0000
  S   S2        1.0  0.15409  0.45838  0.13928  1.0000
  C   C1        1.0  0.19185  0.46322  0.01796  1.0000
  S   S3        1.0  0.22466  0.42736  0.08835  1.0000
  Fe  Fe2       1.0  0.19549  0.42654  0.08862  1.0000
  S   S4        1.0  0.18224  0.41719  0.07030  1.0000
  Fe  Fe3       1.0  0.21676  0.41966  0.11925  1.0000
  S   S5        1.0  0.23355  0.40079  0.13937  1.0000
  H   H1        1.0  0.11424  0.46797  0.22466  1.0000
  S   S6        1.0  0.20689  0.44847  0.12373  1.0000
  S   S7        1.0  0.28902  0.45771  0.19714  1.0000
  H   H2        1.0  0.15646  0.40648  0.22433  1.0000
  H   H3        1.0  0.21402  0.42965  0.17049  1.0000
  C   C2        1.0  0.23589  0.45089  0.17829  1.0000
  S   S8        1.0  0.22467  0.48071  0.07785  1.0000
  C   C3        1.0  0.18985  0.45359  0.20402  1.0000
  S   S9        1.0  0.28874  0.44078  0.15506  1.0000
  H   H4        1.0  0.27001  0.44822  0.12558  1.0000
  Fe  Fe4       1.0  0.31800  0.45044  0.20078  1.0000
  H   H5        1.0  0.23365  0.41513  0.19034  1.0000
  H   H6        1.0  0.13277  0.40651  0.22561  1.0000
  C   C4        1.0  0.22543  0.45185  0.21021  1.0000
  H   H7        1.0  0.01825  0.46507  0.20069  1.0000
  S   S10       1.0  0.21891  0.40847  0.98831  1.0000
  H   H8        1.0  0.27686  0.48329  0.15980  1.0000
  H   H9        1.0  0.29822  0.48172  0.21824  1.0000
  C   C5        1.0  0.24946  0.41136  0.14346  1.0000
  C   C6        1.0  0.25721  0.40415  0.15911  1.0000
  C   C7        1.0  0.26922  0.41309  0.16297  1.0000
  C   C8        1.0  0.27391  0.42898  0.15084  1.0000
  C   C9        1.0  0.25413  0.42725  0.13143  1.0000
  H   H10       1.0  0.25365  0.39181  0.16842  1.0000
  H   H11       1.0  0.27472  0.40771  0.17531  1.0000
  H   H12       1.0  0.24844  0.43272  0.11917  1.0000
  C   C10       1.0  0.14217  0.44321  0.15640  1.0000
  C   C11       1.0  0.14903  0.42425  0.15938  1.0000
  C   C12       1.0  0.13888  0.41229  0.17254  1.0000
  C   C13       1.0  0.12192  0.41929  0.18286  1.0000
  C   C14       1.0  0.11535  0.43831  0.18036  1.0000
  C   C15       1.0  0.12544  0.45025  0.16708  1.0000
  H   H13       1.0  0.16209  0.41873  0.15155  1.0000
  H   H14       1.0  0.14405  0.39759  0.17457  1.0000
  H   H15       1.0  0.10226  0.44381  0.18830  1.0000
  Fe  Fe5       1.0  0.31821  0.40937  0.21041  1.0000
  C   C16       1.0  0.19265  0.41599  0.04724  1.0000
  C   C17       1.0  0.18160  0.41654  0.03503  1.0000
  C   C18       1.0  0.18945  0.41488  0.01675  1.0000
  C   C19       1.0  0.20848  0.41207  0.01072  1.0000
  C   C20       1.0  0.21955  0.41156  0.02290  1.0000
  C   C21       1.0  0.21165  0.41381  0.04103  1.0000
  H   H16       1.0  0.16690  0.41817  0.03976  1.0000
  H   H17       1.0  0.18080  0.41521  0.00750  1.0000
  H   H18       1.0  0.23430  0.40933  0.01834  1.0000
  H   H19       1.0  0.22029  0.41323  0.05037  1.0000
  H   H20       1.0  0.21792  0.44576  0.22395  1.0000
  H   H21       1.0  0.21979  0.46689  0.20703  1.0000
  H   H22       1.0  0.21148  0.36765  0.98959  1.0000
  S   S11       1.0  0.06022  0.43787  0.19685  1.0000
  H   H23       1.0  0.18758  0.46887  0.98420  1.0000
  S   S12       1.0  0.31234  0.43074  0.22766  1.0000
  C   C22       1.0  0.26644  0.43594  0.13503  1.0000
  C   C23       1.0  0.99497  0.42129  0.21269  1.0000
  H   H24       1.0  0.00056  0.39545  0.15947  1.0000
  S   S13       1.0  0.10891  0.40408  0.19842  1.0000
  H   H25       1.0  0.22465  0.41629  0.21400  1.0000
  C   C24       1.0  0.99125  0.37916  0.20543  1.0000
  Fe  Fe6       1.0  0.03951  0.42471  0.21930  1.0000
  C   C25       1.0  0.00070  0.38654  0.18824  1.0000
  H   H26       1.0  0.23721  0.44387  0.16692  1.0000
  H   H27       1.0  0.14835  0.48358  0.16245  1.0000
  H   H28       1.0  0.21557  0.44714  0.99123  1.0000
  C   C26       1.0  0.31712  0.38886  0.17230  1.0000
  H   H29       1.0  0.23983  0.45021  0.21174  1.0000
  H   H30       1.0  0.23719  0.46661  0.11216  1.0000
  C   C27       1.0  0.19369  0.47945  0.98674  1.0000
  H   H31       1.0  0.24707  0.42091  0.20303  1.0000
  H   H32       1.0  0.18314  0.43240  0.16604  1.0000
  H   H33       1.0  0.16036  0.46190  0.20967  1.0000
  H   H34       1.0  0.14231  0.41419  0.08376  1.0000
  H   H35       1.0  0.31139  0.37405  0.14653  1.0000
  C   C28       1.0  0.18504  0.43830  0.17668  1.0000
  H   H36       1.0  0.19772  0.48429  0.13628  1.0000
  H   H37       1.0  0.01576  0.47514  0.17720  1.0000
  H   H38       1.0  0.24189  0.48250  0.13440  1.0000
  C   C29       1.0  0.21902  0.48198  0.02222  1.0000
  H   H39       1.0  0.15617  0.44824  0.18560  1.0000
  Fe  Fe7       1.0  0.05792  0.45626  0.21586  1.0000
  C   C30       1.0  0.16984  0.44724  0.18765  1.0000
  C   C31       1.0  0.17225  0.45490  0.20123  1.0000
  C   C32       1.0  0.22001  0.45775  0.99566  1.0000
  H   H40       1.0  0.00555  0.45617  0.18974  1.0000
  N   N1        1.0  0.13491  0.41552  0.11247  1.0000
  C   C33       1.0  0.14157  0.43301  0.10795  1.0000
  C   C34       1.0  0.15025  0.40033  0.11744  1.0000
  C   C35       1.0  0.13042  0.41332  0.09560  1.0000
  C   C36       1.0  0.11867  0.41489  0.12770  1.0000
  C   C37       1.0  0.11004  0.42984  0.13670  1.0000
  C   C38       1.0  0.11109  0.39880  0.13409  1.0000
  C   C39       1.0  0.09496  0.42854  0.15129  1.0000
  C   C40       1.0  0.09617  0.39758  0.14887  1.0000
  C   C41       1.0  0.08819  0.41239  0.15751  1.0000
  H   H41       1.0  0.13101  0.44507  0.10342  1.0000
  H   H42       1.0  0.14581  0.43523  0.11987  1.0000
  H   H43       1.0  0.15382  0.43306  0.09655  1.0000
  H   H44       1.0  0.15346  0.40100  0.13057  1.0000
  H   H45       1.0  0.16298  0.40085  0.10661  1.0000
  H   H46       1.0  0.14724  0.38654  0.11915  1.0000
  H   H47       1.0  0.11865  0.42423  0.09165  1.0000
  Fe  Fe8       1.0  0.08154  0.41884  0.21156  1.0000
  H   H48       1.0  0.12681  0.39979  0.09729  1.0000
  H   H49       1.0  0.11490  0.44257  0.13308  1.0000
  H   H50       1.0  0.11685  0.38691  0.12791  1.0000
  H   H51       1.0  0.08885  0.43994  0.15825  1.0000
  H   H52       1.0  0.09093  0.38499  0.15390  1.0000
  H   H53       1.0  0.07692  0.41125  0.16926  1.0000
  C   C42       1.0  0.00857  0.46912  0.19108  1.0000
  Fe  Fe9       1.0  0.28361  0.43661  0.22285  1.0000
  C   C43       1.0  0.23512  0.48141  0.10920  1.0000
  H   H54       1.0  0.30882  0.37799  0.17794  1.0000
  C   C44       1.0  0.18672  0.48470  0.14889  1.0000
  H   H55       1.0  0.22990  0.46566  0.17362  1.0000
  C   C45       1.0  0.23283  0.42292  0.20096  1.0000
  H   H56       1.0  0.30721  0.40222  0.17084  1.0000
  Fe  Fe10      1.0  0.29671  0.43439  0.18250  1.0000
  C   C46       1.0  0.20569  0.44453  0.19307  1.0000
  H   H57       1.0  0.19064  0.45968  0.21492  1.0000
  N   N2        1.0  0.22454  0.44269  0.19569  1.0000
  Fe  Fe11      1.0  0.21274  0.45607  0.09306  1.0000
  S   S14       1.0  0.08138  0.43856  0.22836  1.0000
  H   H58       1.0  0.25017  0.44993  0.17976  1.0000
  H   H59       1.0  0.18074  0.47374  0.02400  1.0000
  C   C47       1.0  0.99328  0.38937  0.17276  1.0000
  H   H60       1.0  0.12009  0.46493  0.16488  1.0000
  S   S15       1.0  0.01893  0.41977  0.20533  1.0000
  S   S16       1.0  0.28868  0.41364  0.20787  1.0000
  N   N3        1.0  0.20419  0.47200  0.00172  1.0000
  S   S17       1.0  0.18433  0.45598  0.09093  1.0000
  C   C48       1.0  0.20271  0.43691  0.17931  1.0000
  H   H61       1.0  0.22985  0.46392  0.98379  1.0000
  H   H62       1.0  0.12473  0.48439  0.19038  1.0000
  H   H63       1.0  0.01356  0.39057  0.18705  1.0000
  H   H64       1.0  0.19919  0.45473  0.02897  1.0000
  H   H65       1.0  0.18525  0.45366  0.01435  1.0000
  H   H66       1.0  0.99682  0.37758  0.21751  1.0000
  H   H67       1.0  0.22767  0.45044  0.00679  1.0000
  H   H68       1.0  0.17838  0.47477  0.14909  1.0000
  N   N4        1.0  0.99157  0.48189  0.19782  1.0000
  H   H69       1.0  0.19337  0.47947  0.16099  1.0000
  H   H70       1.0  0.23539  0.34003  0.98902  1.0000
  H   H71       1.0  0.30716  0.39876  0.14034  1.0000
  H   H72       1.0  0.99149  0.46965  0.22634  1.0000
  H   H73       1.0  0.30781  0.48418  0.15544  1.0000
  C   C49       1.0  0.31817  0.38612  0.14169  1.0000
  H   H74       1.0  0.11902  0.43471  0.22876  1.0000
  H   H75       1.0  0.22046  0.46841  0.03092  1.0000
  H   H76       1.0  0.24125  0.37251  0.98289  1.0000
  C   C50       1.0  0.21105  0.48619  0.00649  1.0000
  H   H77       1.0  0.20346  0.24089  0.44813  1.0000
  H   H78       1.0  0.21274  0.13163  0.46289  1.0000
  H   H79       1.0  0.25171  0.07697  0.44943  1.0000
  H   H80       1.0  0.01397  0.14195  0.42080  1.0000
  Fe  Fe12      1.0  0.05986  0.42521  0.24874  1.0000
  S   S18       1.0  0.06352  0.41652  0.27823  1.0000
  Fe  Fe13      1.0  0.15575  0.26148  0.46376  1.0000
  H   H81       1.0  0.18993  0.21027  0.43191  1.0000
  C   C51       1.0  0.10555  0.21510  0.46093  1.0000
  H   H82       1.0  0.13123  0.48392  0.29696  1.0000
  H   H83       1.0  0.23319  0.28976  0.39804  1.0000
  Fe  Fe14      1.0  0.16980  0.07994  0.44909  1.0000
  S   S19       1.0  0.19688  0.07218  0.43048  1.0000
  S   S20       1.0  0.14531  0.09650  0.43740  1.0000
  Fe  Fe15      1.0  0.19995  0.04585  0.45177  1.0000
  S   S21       1.0  0.21168  0.01644  0.44876  1.0000
  Fe  Fe16      1.0  0.20825  0.08378  0.44828  1.0000
  S   S22       1.0  0.22311  0.10743  0.43681  1.0000
  C   C52       1.0  0.18991  0.16580  0.43237  1.0000
  H   H84       1.0  0.18607  0.28804  0.39953  1.0000
  H   H85       1.0  0.27038  0.21539  0.44122  1.0000
  C   C53       1.0  0.21493  0.12553  0.47713  1.0000
  C   C54       1.0  0.11670  0.24888  0.45222  1.0000
  C   C55       1.0  0.12633  0.44008  0.23578  1.0000
  C   C56       1.0  0.17403  0.46533  0.40503  1.0000
  H   H86       1.0  0.18699  0.12877  0.44076  1.0000
  H   H87       1.0  0.20001  0.15339  0.43055  1.0000
  H   H88       1.0  0.24259  0.13575  0.43182  1.0000
  S   S23       1.0  0.21406  0.05679  0.46780  1.0000
  Fe  Fe17      1.0  0.17204  0.45043  0.32120  1.0000
  S   S24       1.0  0.07454  0.22955  0.44595  1.0000
  H   H89       1.0  0.19281  0.29735  0.37550  1.0000
  S   S25       1.0  0.01411  0.16733  0.46164  1.0000
  C   C57       1.0  0.27982  0.10626  0.44609  1.0000
  C   C58       1.0  0.18088  0.00960  0.44160  1.0000
  H   H90       1.0  0.10230  0.45997  0.27484  1.0000
  Fe  Fe18      1.0  0.16314  0.41382  0.34512  1.0000
  S   S26       1.0  0.15221  0.40742  0.32327  1.0000
  S   S27       1.0  0.16829  0.39755  0.37337  1.0000
  Fe  Fe19      1.0  0.17640  0.41765  0.30362  1.0000
  S   S28       1.0  0.19364  0.40547  0.27948  1.0000
  Fe  Fe20      1.0  0.13846  0.43740  0.31887  1.0000
  S   S29       1.0  0.11155  0.45162  0.31031  1.0000
  S   S30       1.0  0.18853  0.42162  0.32552  1.0000
  S   S31       1.0  0.14740  0.44331  0.34218  1.0000
  Fe  Fe21      1.0  0.15637  0.30177  0.44459  1.0000
  S   S32       1.0  0.14594  0.32208  0.42028  1.0000
  S   S33       1.0  0.17234  0.27464  0.43759  1.0000
  C   C59       1.0  0.16142  0.37685  0.38640  1.0000
  C   C60       1.0  0.16666  0.36909  0.40344  1.0000
  C   C61       1.0  0.16184  0.35249  0.41414  1.0000
  C   C62       1.0  0.15174  0.34343  0.40785  1.0000
  C   C63       1.0  0.14639  0.35128  0.39088  1.0000
  C   C64       1.0  0.15124  0.36786  0.38017  1.0000
  H   H91       1.0  0.17451  0.37594  0.40841  1.0000
  H   H92       1.0  0.16589  0.34672  0.42724  1.0000
  H   H93       1.0  0.13850  0.34443  0.38593  1.0000
  H   H94       1.0  0.14708  0.37367  0.36711  1.0000
  S   S34       1.0  0.16187  0.44692  0.29780  1.0000
  C   C65       1.0  0.22495  0.21686  0.44571  1.0000
  H   H95       1.0  0.11742  0.40779  0.27485  1.0000
  H   H96       1.0  0.12183  0.38833  0.26431  1.0000
  S   S35       1.0  0.17599  0.26088  0.48048  1.0000
  C   C66       1.0  0.22663  0.40980  0.25602  1.0000
  C   C67       1.0  0.21195  0.41694  0.26904  1.0000
  C   C68       1.0  0.21193  0.43337  0.27373  1.0000
  C   C69       1.0  0.22640  0.44261  0.26554  1.0000
  H   H97       1.0  0.15522  0.42866  0.26612  1.0000
  H   H98       1.0  0.22677  0.39702  0.25244  1.0000
  H   H99       1.0  0.20076  0.43901  0.28373  1.0000
  N   N5        1.0  0.16296  0.15016  0.43742  1.0000
  C   C70       1.0  0.15887  0.18349  0.43842  1.0000
  C   C71       1.0  0.19019  0.30027  0.38948  1.0000
  H   H100      1.0  0.14238  0.15473  0.46175  1.0000
  C   C72       1.0  0.22082  0.28760  0.39452  1.0000
  S   S36       1.0  0.06138  0.40394  0.23257  1.0000
  C   C73       1.0  0.10077  0.24755  0.44721  1.0000
  C   C74       1.0  0.17014  0.99761  0.44067  1.0000
  H   H101      1.0  0.12092  0.26197  0.44881  1.0000
  H   H102      1.0  0.09276  0.25965  0.43998  1.0000
  H   H103      1.0  0.22641  0.36090  0.33867  1.0000
  H   H104      1.0  0.08346  0.48192  0.25678  1.0000
  H   H105      1.0  0.17794  0.02397  0.43504  1.0000
  S   S37       1.0  0.30119  0.18477  0.45505  1.0000
  H   H106      1.0  0.21323  0.31528  0.41325  1.0000
  H   H107      1.0  0.24527  0.46177  0.28584  1.0000
  C   C75       1.0  0.00124  0.17044  0.41887  1.0000
  H   H108      1.0  0.03077  0.47384  0.26811  1.0000
  H   H109      1.0  0.18477  0.45173  0.35451  1.0000
  H   H110      1.0  0.14414  0.14224  0.42564  1.0000
  C   C76       1.0  0.17069  0.16646  0.43577  1.0000
  H   H111      1.0  0.17798  0.42743  0.41189  1.0000
  C   C77       1.0  0.25580  0.22091  0.44279  1.0000
  C   C78       1.0  0.25121  0.12286  0.43687  1.0000
  C   C79       1.0  0.18892  0.18864  0.47769  1.0000
  H   H112      1.0  0.22488  0.28207  0.38171  1.0000
  C   C80       1.0  0.15351  0.39736  0.26191  1.0000
  H   H113      1.0  0.28264  0.07680  0.45410  1.0000
  S   S38       1.0  0.06473  0.17817  0.45451  1.0000
  H   H114      1.0  0.22906  0.48015  0.29457  1.0000
  C   C81       1.0  0.23518  0.33304  0.35261  1.0000
  C   C82       1.0  0.00127  0.15202  0.42015  1.0000
  H   H115      1.0  0.11461  0.12656  0.43309  1.0000
  H   H116      1.0  0.16463  0.45769  0.41512  1.0000
  H   H117      1.0  0.21572  0.20813  0.44633  1.0000
  H   H118      1.0  0.08309  0.44685  0.26212  1.0000
  S   S39       1.0  0.14701  0.23428  0.46843  1.0000
  H   H119      1.0  0.01377  0.17456  0.41874  1.0000
  S   S40       1.0  0.17614  0.30445  0.46048  1.0000
  Fe  Fe22      1.0  0.19088  0.27655  0.45490  1.0000
  H   H120      1.0  0.15136  0.44559  0.39933  1.0000
  C   C83       1.0  0.13068  0.10371  0.47179  1.0000
  H   H121      1.0  0.20050  0.42484  0.39752  1.0000
  C   C84       1.0  0.25636  0.08975  0.44676  1.0000
  S   S41       1.0  0.28116  0.14954  0.46975  1.0000
  S   S42       1.0  0.18090  0.09300  0.46564  1.0000
  C   C85       1.0  0.07917  0.42494  0.28572  1.0000
  C   C86       1.0  0.08655  0.44018  0.27530  1.0000
  C   C87       1.0  0.09743  0.44764  0.28252  1.0000
  C   C88       1.0  0.10138  0.43974  0.30000  1.0000
  C   C89       1.0  0.09478  0.42397  0.31005  1.0000
  C   C90       1.0  0.08360  0.41670  0.30298  1.0000
  C   C91       1.0  0.18468  0.19810  0.43311  1.0000
  H   H122      1.0  0.10156  0.20196  0.46401  1.0000
  H   H123      1.0  0.09744  0.41796  0.32370  1.0000
  H   H124      1.0  0.07793  0.40496  0.31118  1.0000
  H   H125      1.0  0.24879  0.33156  0.34398  1.0000
  Fe  Fe23      1.0  0.30332  0.13498  0.45057  1.0000
  C   C92       1.0  0.19591  0.00275  0.45023  1.0000
  S   S43       1.0  0.30192  0.15863  0.42644  1.0000
  C   C93       1.0  0.21804  0.23540  0.44664  1.0000
  H   H126      1.0  0.24066  0.30597  0.36824  1.0000
  H   H127      1.0  0.18454  0.13811  0.41722  1.0000
  H   H128      1.0  0.32120  0.11203  0.41085  1.0000
  C   C94       1.0  0.04800  0.47045  0.28660  1.0000
  H   H129      1.0  0.19078  0.20269  0.47216  1.0000
  H   H130      1.0  0.18634  0.33923  0.38269  1.0000
  S   S44       1.0  0.30123  0.10633  0.45036  1.0000
  H   H131      1.0  0.19532  0.36451  0.35829  1.0000
  H   H132      1.0  0.18603  0.42763  0.36278  1.0000
  C   C95       1.0  0.05703  0.47864  0.29491  1.0000
  C   C96       1.0  0.12926  0.10823  0.45334  1.0000
  C   C97       1.0  0.14888  0.15472  0.42595  1.0000
  S   S45       1.0  0.18600  0.47455  0.31558  1.0000
  H   H133      1.0  0.15409  0.45830  0.37608  1.0000
  H   H134      1.0  0.15654  0.21203  0.43865  1.0000
  C   C98       1.0  0.12146  0.40336  0.26143  1.0000
  C   C99       1.0  0.14647  0.43653  0.25662  1.0000
  C   C100      1.0  0.20511  0.35160  0.36060  1.0000
  C   C101      1.0  0.15425  0.14417  0.45687  1.0000
  H   H135      1.0  0.17067  0.12257  0.43205  1.0000
  C   C102      1.0  0.10427  0.13391  0.45965  1.0000
  H   H136      1.0  0.21584  0.27651  0.40584  1.0000
  H   H137      1.0  0.18350  0.41400  0.39472  1.0000
  C   C103      1.0  0.18564  0.42672  0.39766  1.0000
  H   H138      1.0  0.20266  0.46763  0.36269  1.0000
  H   H139      1.0  0.19832  0.29922  0.42241  1.0000
  C   C104      1.0  0.26839  0.12284  0.43996  1.0000
  Fe  Fe24      1.0  0.28086  0.17384  0.44651  1.0000
  Fe  Fe25      1.0  0.03474  0.17986  0.46826  1.0000
  C   C105      1.0  0.10604  0.12970  0.47799  1.0000
  H   H140      1.0  0.14893  0.13151  0.45885  1.0000
  H   H141      1.0  0.15647  0.43375  0.38109  1.0000
  C   C106      1.0  0.24141  0.41888  0.24808  1.0000
  N   N6        1.0  0.17949  0.44328  0.38408  1.0000
  C   C107      1.0  0.24508  0.10637  0.44036  1.0000
  H   H142      1.0  0.14412  0.18493  0.44172  1.0000
  C   C108      1.0  0.20168  0.31062  0.41074  1.0000
  C   C109      1.0  0.12711  0.23330  0.46155  1.0000
  C   C110      1.0  0.22262  0.34959  0.34959  1.0000
  H   H143      1.0  0.22602  0.45542  0.26914  1.0000
  H   H144      1.0  0.25827  0.24842  0.44232  1.0000
  C   C111      1.0  0.09502  0.23070  0.45170  1.0000
  C   C112      1.0  0.17666  0.48114  0.40901  1.0000
  C   C113      1.0  0.23005  0.24683  0.44537  1.0000
  H   H145      1.0  0.27282  0.13570  0.43738  1.0000
  N   N7        1.0  0.13933  0.40796  0.25106  1.0000
  H   H146      1.0  0.13617  0.48476  0.31831  1.0000
  C   C114      1.0  0.19670  0.18146  0.43106  1.0000
  S   S46       1.0  0.25917  0.44745  0.24335  1.0000
  H   H147      1.0  0.18947  0.32198  0.41162  1.0000
  C   C115      1.0  0.16583  0.19907  0.43689  1.0000
  H   H148      1.0  0.99491  0.41197  0.24158  1.0000
  C   C116      1.0  0.27386  0.08968  0.44932  1.0000
  Fe  Fe26      1.0  0.06110  0.20564  0.46197  1.0000
  C   C117      1.0  0.23028  0.31837  0.36664  1.0000
  C   C118      1.0  0.20008  0.33704  0.37459  1.0000
  H   H149      1.0  0.16423  0.14105  0.46602  1.0000
  H   H150      1.0  0.17789  0.31159  0.39074  1.0000
  S   S47       1.0  0.03057  0.20843  0.47319  1.0000
  C   C119      1.0  0.17695  0.13432  0.43158  1.0000
  S   S48       1.0  0.25176  0.18618  0.44313  1.0000
  C   C120      1.0  0.18306  0.45971  0.38822  1.0000
  H   H151      1.0  0.06537  0.47193  0.24021  1.0000
  H   H152      1.0  0.15013  0.46180  0.26118  1.0000
  C   C121      1.0  0.18910  0.43997  0.36549  1.0000
  C   C122      1.0  0.99098  0.17879  0.46283  1.0000
  C   C123      1.0  0.21245  0.31995  0.37803  1.0000
  H   H153      1.0  0.09412  0.14554  0.45488  1.0000
  H   H154      1.0  0.21141  0.18074  0.42834  1.0000
  H   H155      1.0  0.26063  0.21726  0.48014  1.0000
  S   S49       1.0  0.22159  0.27014  0.44624  1.0000
  C   C124      1.0  0.24378  0.20955  0.44393  1.0000
  C   C125      1.0  0.24894  0.23960  0.44335  1.0000
  H   H156      1.0  0.21745  0.17760  0.47236  1.0000
  N   N8        1.0  0.20655  0.30477  0.39288  1.0000
  H   H157      1.0  0.04963  0.45560  0.28966  1.0000
  H   H158      1.0  0.15441  0.16101  0.41150  1.0000
  H   H159      1.0  0.23053  0.98891  0.40031  1.0000
  C   C126      1.0  0.15953  0.44537  0.38521  1.0000
  S   S50       1.0  0.03589  0.44472  0.23754  1.0000
  C   C127      1.0  0.11583  0.12313  0.44734  1.0000
  C   C128      1.0  0.24129  0.43530  0.25292  1.0000
  H   H160      1.0  0.15774  0.48074  0.34836  1.0000
  Fe  Fe27      1.0  0.30315  0.15903  0.47681  1.0000
  C   C129      1.0  0.19538  0.47054  0.37595  1.0000
  H   H161      1.0  0.14995  0.40008  0.27608  1.0000
  H   H162      1.0  0.23563  0.15111  0.46161  1.0000
  C   C130      1.0  0.23551  0.14455  0.47635  1.0000
  C   C131      1.0  0.12149  0.21641  0.46585  1.0000
  C   C132      1.0  0.13773  0.42812  0.24766  1.0000
  H   H163      1.0  0.27401  0.46471  0.26804  1.0000
  H   H164      1.0  0.14690  0.38638  0.23549  1.0000
  C   C133      1.0  0.14372  0.45567  0.25388  1.0000
  S   S51       1.0  0.17172  0.05262  0.46867  1.0000
  H   H165      1.0  0.20426  0.43734  0.36386  1.0000
  H   H166      1.0  0.06583  0.47014  0.30420  1.0000
  H   H167      1.0  0.15497  0.38225  0.26365  1.0000
  H   H168      1.0  0.13625  0.16427  0.43118  1.0000
  C   C134      1.0  0.24405  0.47426  0.29129  1.0000
  S   S52       1.0  0.13816  0.28823  0.46981  1.0000
  H   H169      1.0  0.15883  0.00288  0.43354  1.0000
  C   C135      1.0  0.12357  0.45917  0.23327  1.0000
  H   H170      1.0  0.24933  0.46939  0.30426  1.0000
  H   H171      1.0  0.28073  0.47357  0.28435  1.0000
  H   H172      1.0  0.99668  0.20605  0.45374  1.0000
  C   C136      1.0  0.03703  0.48122  0.27423  1.0000
  C   C137      1.0  0.14410  0.40165  0.23337  1.0000
  H   H173      1.0  0.25291  0.41311  0.23840  1.0000
  C   C138      1.0  0.20413  0.17403  0.47795  1.0000
  H   H174      1.0  0.14081  0.09203  0.47657  1.0000
  H   H175      1.0  0.16725  0.40068  0.25518  1.0000
  C   C139      1.0  0.13222  0.46694  0.24235  1.0000
  H   H176      1.0  0.12949  0.20425  0.47296  1.0000
  C   C140      1.0  0.27356  0.47753  0.27262  1.0000
  H   H177      1.0  0.12975  0.48173  0.24073  1.0000
  Fe  Fe28      1.0  0.32258  0.16714  0.43703  1.0000
  H   H178      1.0  0.24691  0.13225  0.47653  1.0000
  H   H179      1.0  0.22709  0.11399  0.47624  1.0000
  H   H180      1.0  0.11013  0.41024  0.25388  1.0000
  C   C141      1.0  0.07127  0.48395  0.23390  1.0000
  H   H181      1.0  0.24592  0.48198  0.25555  1.0000
  H   H182      1.0  0.16919  0.48554  0.42166  1.0000
  H   H183      1.0  0.24127  0.24828  0.48103  1.0000
  C   C142      1.0  0.19806  0.48619  0.38020  1.0000
  H   H184      1.0  0.28190  0.48562  0.26090  1.0000
  H   H185      1.0  0.20930  0.98637  0.41664  1.0000
  H   H186      1.0  0.26886  0.40180  0.63648  1.0000
  S   S53       1.0  0.18098  0.05875  0.51400  1.0000
  H   H187      1.0  0.23189  0.27058  0.67451  1.0000
  Fe  Fe29      1.0  0.18668  0.12280  0.56603  1.0000
  S   S54       1.0  0.21686  0.11398  0.55664  1.0000
  S   S55       1.0  0.17063  0.13088  0.54360  1.0000
  Fe  Fe30      1.0  0.18980  0.11647  0.60561  1.0000
  S   S56       1.0  0.22037  0.10643  0.59929  1.0000
  S   S57       1.0  0.17668  0.11775  0.63492  1.0000
  Fe  Fe31      1.0  0.21947  0.13054  0.57564  1.0000
  S   S58       1.0  0.23814  0.15097  0.56532  1.0000
  Fe  Fe32      1.0  0.21438  0.09075  0.58113  1.0000
  S   S59       1.0  0.22979  0.06208  0.57750  1.0000
  S   S60       1.0  0.18926  0.14152  0.58290  1.0000
  S   S61       1.0  0.18383  0.09876  0.58967  1.0000
  Fe  Fe33      1.0  0.03882  0.19386  0.49988  1.0000
  S   S62       1.0  0.02604  0.20155  0.52715  1.0000
  H   H188      1.0  0.22330  0.43201  0.64441  1.0000
  Fe  Fe34      1.0  0.09135  0.18931  0.62393  1.0000
  S   S63       1.0  0.07910  0.21938  0.62200  1.0000
  S   S64       1.0  0.10014  0.17187  0.64955  1.0000
  Fe  Fe35      1.0  0.08935  0.19025  0.58512  1.0000
  S   S65       1.0  0.07782  0.22047  0.57935  1.0000
  S   S66       1.0  0.09417  0.17337  0.56408  1.0000
  Fe  Fe36      1.0  0.09825  0.22267  0.59447  1.0000
  S   S67       1.0  0.11898  0.24078  0.58211  1.0000
  Fe  Fe37      1.0  0.05972  0.21411  0.60715  1.0000
  S   S68       1.0  0.02920  0.22590  0.61146  1.0000
  S   S69       1.0  0.11153  0.19295  0.59738  1.0000
  S   S70       1.0  0.07032  0.18362  0.61198  1.0000
  H   H189      1.0  0.06668  0.23556  0.49414  1.0000
  C   C143      1.0  0.18367  0.15275  0.49201  1.0000
  C   C144      1.0  0.12298  0.24995  0.51424  1.0000
  H   H190      1.0  0.01677  0.17211  0.59677  1.0000
  C   C145      1.0  0.01099  0.18566  0.59980  1.0000
  C   C146      1.0  0.07648  0.24185  0.49784  1.0000
  H   H191      1.0  0.22525  0.41845  0.66671  1.0000
  S   S71       1.0  0.15132  0.29125  0.51493  1.0000
  C   C147      1.0  0.29499  0.11220  0.52929  1.0000
  C   C148      1.0  0.19860  0.04833  0.58183  1.0000
  S   S72       1.0  0.21809  0.38110  0.67598  1.0000
  Fe  Fe38      1.0  0.16707  0.28985  0.62439  1.0000
  S   S73       1.0  0.19310  0.27636  0.60799  1.0000
  S   S74       1.0  0.14273  0.27616  0.63589  1.0000
  Fe  Fe39      1.0  0.18250  0.32318  0.62411  1.0000
  S   S75       1.0  0.20978  0.31252  0.60714  1.0000
  S   S76       1.0  0.17332  0.34945  0.63562  1.0000
  Fe  Fe40      1.0  0.19348  0.30466  0.59067  1.0000
  S   S77       1.0  0.20165  0.30838  0.55960  1.0000
  Fe  Fe41      1.0  0.20695  0.28515  0.62567  1.0000
  S   S78       1.0  0.22867  0.26539  0.63960  1.0000
  S   S79       1.0  0.16629  0.31776  0.60597  1.0000
  S   S80       1.0  0.18087  0.29619  0.64376  1.0000
  Fe  Fe42      1.0  0.30975  0.17562  0.60479  1.0000
  S   S81       1.0  0.30954  0.19587  0.57822  1.0000
  S   S82       1.0  0.28702  0.15945  0.61664  1.0000
  H   H192      1.0  0.18104  0.13916  0.49809  1.0000
  S   S83       1.0  0.30204  0.24363  0.58380  1.0000
  C   C149      1.0  0.25402  0.40682  0.64175  1.0000
  C   C150      1.0  0.24959  0.26053  0.62435  1.0000
  C   C151      1.0  0.25172  0.26929  0.60584  1.0000
  C   C152      1.0  0.26825  0.26460  0.59362  1.0000
  C   C153      1.0  0.28246  0.25080  0.59977  1.0000
  C   C154      1.0  0.28044  0.24227  0.61835  1.0000
  C   C155      1.0  0.26403  0.24720  0.63065  1.0000
  H   H193      1.0  0.24058  0.27952  0.60087  1.0000
  H   H194      1.0  0.26982  0.27130  0.57927  1.0000
  H   H195      1.0  0.29149  0.23181  0.62320  1.0000
  H   H196      1.0  0.26243  0.24042  0.64498  1.0000
  C   C156      1.0  0.20528  0.37270  0.66477  1.0000
  C   C157      1.0  0.21464  0.36009  0.65339  1.0000
  C   C158      1.0  0.20506  0.35288  0.64438  1.0000
  C   C159      1.0  0.18599  0.35823  0.64663  1.0000
  C   C160      1.0  0.17667  0.37114  0.65769  1.0000
  C   C161      1.0  0.18622  0.37827  0.66681  1.0000
  H   H197      1.0  0.22939  0.35584  0.65156  1.0000
  H   H198      1.0  0.21239  0.34345  0.63544  1.0000
  H   H199      1.0  0.12548  0.31724  0.54567  1.0000
  C   C162      1.0  0.28626  0.20266  0.53719  1.0000
  C   C163      1.0  0.16703  0.29358  0.52700  1.0000
  C   C164      1.0  0.18297  0.30026  0.51793  1.0000
  C   C165      1.0  0.19382  0.30425  0.52811  1.0000
  C   C166      1.0  0.18885  0.30150  0.54735  1.0000
  C   C167      1.0  0.17336  0.29408  0.55641  1.0000
  C   C168      1.0  0.16255  0.29012  0.54626  1.0000
  H   H200      1.0  0.18654  0.30302  0.50308  1.0000
  H   H201      1.0  0.20581  0.30997  0.52100  1.0000
  H   H202      1.0  0.16936  0.29203  0.57119  1.0000
  H   H203      1.0  0.15030  0.28486  0.55332  1.0000
  H   H204      1.0  0.11457  0.23594  0.49833  1.0000
  Fe  Fe43      1.0  0.17755  0.41749  0.72549  1.0000
  H   H205      1.0  0.16781  0.01435  0.49880  1.0000
  C   C169      1.0  0.31513  0.16161  0.51674  1.0000
  H   H206      1.0  0.24364  0.06761  0.53739  1.0000
  H   H207      1.0  0.27561  0.11876  0.56144  1.0000
  C   C170      1.0  0.11026  0.24220  0.51019  1.0000
  H   H208      1.0  0.27276  0.43492  0.63003  1.0000
  H   H209      1.0  0.28311  0.20415  0.49977  1.0000
  C   C171      1.0  0.11914  0.11448  0.48406  1.0000
  H   H210      1.0  0.32141  0.16295  0.55868  1.0000
  H   H211      1.0  0.23101  0.32260  0.69602  1.0000
  C   C172      1.0  0.12580  0.25002  0.59737  1.0000
  C   C173      1.0  0.14132  0.25800  0.59131  1.0000
  C   C174      1.0  0.14678  0.26586  0.60314  1.0000
  C   C175      1.0  0.13665  0.26585  0.62102  1.0000
  C   C176      1.0  0.12137  0.25749  0.62719  1.0000
  C   C177      1.0  0.11599  0.24952  0.61541  1.0000
  H   H212      1.0  0.14906  0.25823  0.57742  1.0000
  H   H213      1.0  0.15862  0.27218  0.59839  1.0000
  H   H214      1.0  0.11353  0.25743  0.64105  1.0000
  H   H215      1.0  0.10400  0.24341  0.62020  1.0000
  H   H216      1.0  0.15954  0.19666  0.48366  1.0000
  C   C178      1.0  0.22108  0.28180  0.67975  1.0000
  H   H217      1.0  0.30043  0.15391  0.54447  1.0000
  C   C179      1.0  0.01522  0.21338  0.60659  1.0000
  H   H218      1.0  0.14897  0.22961  0.55498  1.0000
  H   H219      1.0  0.26572  0.19507  0.61833  1.0000
  C   C180      1.0  0.02242  0.19587  0.60261  1.0000
  C   C181      1.0  0.20374  0.33716  0.70202  1.0000
  Fe  Fe44      1.0  0.31682  0.21445  0.59206  1.0000
  H   H220      1.0  0.20591  0.12593  0.51310  1.0000
  C   C182      1.0  0.21670  0.47876  0.70529  1.0000
  C   C183      1.0  0.04259  0.19057  0.54042  1.0000
  C   C184      1.0  0.05690  0.17681  0.53428  1.0000
  C   C185      1.0  0.07254  0.17099  0.54193  1.0000
  C   C186      1.0  0.07357  0.17835  0.55636  1.0000
  C   C187      1.0  0.05852  0.19085  0.56365  1.0000
  C   C188      1.0  0.04304  0.19709  0.55561  1.0000
  H   H221      1.0  0.05635  0.17113  0.52305  1.0000
  H   H222      1.0  0.08399  0.16144  0.53600  1.0000
  H   H223      1.0  0.05896  0.19624  0.57508  1.0000
  H   H224      1.0  0.03186  0.20754  0.56063  1.0000
  C   C189      1.0  0.25209  0.15245  0.57962  1.0000
  C   C190      1.0  0.24940  0.14402  0.59823  1.0000
  C   C191      1.0  0.26040  0.14604  0.60938  1.0000
  C   C192      1.0  0.27425  0.15631  0.60198  1.0000
  C   C193      1.0  0.27706  0.16448  0.58328  1.0000
  C   C194      1.0  0.26591  0.16269  0.57219  1.0000
  H   H225      1.0  0.23879  0.13607  0.60410  1.0000
  H   H226      1.0  0.25817  0.13963  0.62382  1.0000
  H   H227      1.0  0.28786  0.17208  0.57733  1.0000
  H   H228      1.0  0.26812  0.16911  0.55776  1.0000
  C   C195      1.0  0.15479  0.13175  0.63874  1.0000
  C   C196      1.0  0.14535  0.14002  0.62442  1.0000
  C   C197      1.0  0.12812  0.15174  0.62781  1.0000
  C   C198      1.0  0.12058  0.15560  0.64536  1.0000
  C   C199      1.0  0.12986  0.14694  0.65971  1.0000
  C   C200      1.0  0.14688  0.13498  0.65643  1.0000
  H   H229      1.0  0.15124  0.13722  0.61082  1.0000
  H   H230      1.0  0.12061  0.15756  0.61691  1.0000
  H   H231      1.0  0.12402  0.14968  0.67335  1.0000
  H   H232      1.0  0.15408  0.12844  0.66756  1.0000
  S   S84       1.0  0.29841  0.15763  0.50720  1.0000
  H   H233      1.0  0.19086  0.06138  0.58488  1.0000
  H   H234      1.0  0.16764  0.25258  0.53976  1.0000
  C   C201      1.0  0.00561  0.14846  0.52726  1.0000
  C   C202      1.0  0.16885  0.47050  0.72524  1.0000
  C   C203      1.0  0.26160  0.20653  0.60700  1.0000
  C   C204      1.0  0.18130  0.33047  0.68913  1.0000
  C   C205      1.0  0.18575  0.34033  0.69969  1.0000
  C   C206      1.0  0.22971  0.30573  0.65402  1.0000
  C   C207      1.0  0.17794  0.07887  0.52198  1.0000
  C   C208      1.0  0.18603  0.07839  0.53644  1.0000
  C   C209      1.0  0.18393  0.09443  0.54285  1.0000
  C   C210      1.0  0.17336  0.11092  0.53515  1.0000
  C   C211      1.0  0.16517  0.11139  0.52067  1.0000
  C   C212      1.0  0.16755  0.09538  0.51402  1.0000
  H   H235      1.0  0.19412  0.06564  0.54259  1.0000
  H   H236      1.0  0.19052  0.09382  0.55382  1.0000
  H   H237      1.0  0.15694  0.12401  0.51460  1.0000
  H   H238      1.0  0.16095  0.09567  0.50306  1.0000
  N   N9        1.0  0.11354  0.11850  0.55382  1.0000
  C   C213      1.0  0.11205  0.11324  0.53704  1.0000
  C   C214      1.0  0.09471  0.12262  0.56493  1.0000
  C   C215      1.0  0.12109  0.13548  0.54792  1.0000
  C   C216      1.0  0.12546  0.10416  0.56499  1.0000
  C   C217      1.0  0.12725  0.10669  0.58207  1.0000
  C   C218      1.0  0.13584  0.08770  0.55925  1.0000
  C   C219      1.0  0.13844  0.09343  0.59288  1.0000
  C   C220      1.0  0.14704  0.07456  0.57015  1.0000
  C   C221      1.0  0.14827  0.07738  0.58694  1.0000
  H   H239      1.0  0.10640  0.10052  0.54046  1.0000
  H   H240      1.0  0.10278  0.12420  0.52907  1.0000
  H   H241      1.0  0.12557  0.11109  0.52748  1.0000
  H   H242      1.0  0.08931  0.10982  0.57130  1.0000
  H   H243      1.0  0.08495  0.13198  0.55646  1.0000
  H   H244      1.0  0.09407  0.12977  0.57603  1.0000
  H   H245      1.0  0.11275  0.14664  0.53930  1.0000
  H   H246      1.0  0.12182  0.14092  0.55973  1.0000
  H   H247      1.0  0.13517  0.13294  0.53969  1.0000
  H   H248      1.0  0.12018  0.11908  0.58708  1.0000
  H   H249      1.0  0.13585  0.08470  0.54627  1.0000
  H   H250      1.0  0.13974  0.09575  0.60579  1.0000
  H   H251      1.0  0.15512  0.06226  0.56532  1.0000
  H   H252      1.0  0.15708  0.06724  0.59526  1.0000
  C   C222      1.0  0.24546  0.29627  0.67908  1.0000
  H   H253      1.0  0.25149  0.30883  0.67425  1.0000
  C   C223      1.0  0.25115  0.24255  0.48992  1.0000
  H   H254      1.0  0.26190  0.23457  0.58092  1.0000
  H   H255      1.0  0.24457  0.29158  0.69417  1.0000
  N   N10       1.0  0.07941  0.23368  0.51683  1.0000
  C   C224      1.0  0.08728  0.21375  0.51823  1.0000
  C   C225      1.0  0.06108  0.23561  0.52929  1.0000
  H   H256      1.0  0.01438  0.13506  0.52662  1.0000
  C   C226      1.0  0.09237  0.24251  0.52119  1.0000
  C   C227      1.0  0.99644  0.22072  0.60741  1.0000
  C   C228      1.0  0.08806  0.25092  0.53665  1.0000
  H   H257      1.0  0.25045  0.13459  0.53305  1.0000
  C   C229      1.0  0.10098  0.25842  0.54073  1.0000
  C   C230      1.0  0.11836  0.25799  0.52954  1.0000
  H   H258      1.0  0.09110  0.20740  0.53183  1.0000
  H   H259      1.0  0.07729  0.20624  0.51683  1.0000
  H   H260      1.0  0.09965  0.21099  0.50734  1.0000
  C   C231      1.0  0.19407  0.03011  0.62993  1.0000
  C   C232      1.0  0.21848  0.13123  0.50534  1.0000
  H   H261      1.0  0.20467  0.05495  0.62301  1.0000
  C   C233      1.0  0.24106  0.25202  0.56754  1.0000
  H   H262      1.0  0.31046  0.20404  0.50545  1.0000
  H   H263      1.0  0.31344  0.22707  0.50274  1.0000
  H   H264      1.0  0.24682  0.40944  0.63019  1.0000
  H   H265      1.0  0.07485  0.25183  0.54587  1.0000
  H   H266      1.0  0.23423  0.31912  0.64935  1.0000
  H   H267      1.0  0.09753  0.26456  0.55272  1.0000
  C   C234      1.0  0.26562  0.13295  0.52914  1.0000
  H   H268      1.0  0.29638  0.19601  0.54618  1.0000
  H   H269      1.0  0.25178  0.44912  0.66839  1.0000
  H   H270      1.0  0.21203  0.00807  0.48819  1.0000
  H   H271      1.0  0.24480  0.00599  0.61708  1.0000
  C   C235      1.0  0.27739  0.22778  0.51281  1.0000
  S   S85       1.0  0.19484  0.38886  0.72753  1.0000
  C   C236      1.0  0.26588  0.24547  0.51314  1.0000
  H   H272      1.0  0.17985  0.00009  0.54275  1.0000
  Fe  Fe45      1.0  0.07035  0.16629  0.48294  1.0000
  H   H273      1.0  0.08928  0.23979  0.48734  1.0000
  Fe  Fe46      1.0  0.18554  0.06501  0.48339  1.0000
  C   C237      1.0  0.18534  0.01007  0.53055  1.0000
  C   C238      1.0  0.99619  0.15762  0.51320  1.0000
  H   H274      1.0  0.25360  0.45183  0.63819  1.0000
  H   H275      1.0  0.07100  0.25694  0.49604  1.0000
  H   H276      1.0  0.27722  0.09509  0.56128  1.0000
  H   H277      1.0  0.06200  0.22869  0.54373  1.0000
  C   C239      1.0  0.20400  0.01453  0.50000  1.0000
  H   H278      1.0  0.30011  0.12074  0.53588  1.0000
  C   C240      1.0  0.25938  0.43551  0.67307  1.0000
  H   H279      1.0  0.26661  0.25408  0.52193  1.0000
  C   C241      1.0  0.21360  0.98888  0.52304  1.0000
  C   C242      1.0  0.23084  0.42934  0.65571  1.0000
  H   H280      1.0  0.25462  0.08563  0.55230  1.0000
  H   H281      1.0  0.99773  0.15133  0.50161  1.0000
  N   N11       1.0  0.25092  0.42353  0.64942  1.0000
  C   C243      1.0  0.16858  0.16738  0.49138  1.0000
  H   H282      1.0  0.26678  0.21828  0.60828  1.0000
  H   H283      1.0  0.15059  0.99747  0.48869  1.0000
  H   H284      1.0  0.28035  0.11324  0.49860  1.0000
  H   H285      1.0  0.19284  0.01801  0.53534  1.0000
  C   C244      1.0  0.20799  0.04011  0.62450  1.0000
  Fe  Fe47      1.0  0.15960  0.28845  0.48507  1.0000
  C   C245      1.0  0.27721  0.41579  0.69508  1.0000
  H   H286      1.0  0.17465  0.03663  0.58676  1.0000
  S   S86       1.0  0.18704  0.99957  0.58184  1.0000
  H   H287      1.0  0.29927  0.11730  0.51428  1.0000
  C   C246      1.0  0.21843  0.01425  0.57398  1.0000
  C   C247      1.0  0.21735  0.32402  0.69391  1.0000
  H   H288      1.0  0.12825  0.26397  0.53269  1.0000
  C   C248      1.0  0.19828  0.01105  0.63121  1.0000
  S   S87       1.0  0.06867  0.19357  0.48921  1.0000
  S   S88       1.0  0.04098  0.16560  0.49593  1.0000
  C   C249      1.0  0.25817  0.08818  0.53748  1.0000
  C   C250      1.0  0.25572  0.07984  0.50999  1.0000
  N   N12       1.0  0.27484  0.11368  0.53527  1.0000
  H   H289      1.0  0.11272  0.36212  0.55264  1.0000
  H   H290      1.0  0.27952  0.23535  0.54599  1.0000
  N   N13       1.0  0.22722  0.29962  0.67425  1.0000
  H   H291      1.0  0.25561  0.11143  0.56128  1.0000
  N   N14       1.0  0.15661  0.19746  0.62928  1.0000
  C   C251      1.0  0.15605  0.21460  0.63516  1.0000
  C   C252      1.0  0.15796  0.18212  0.64551  1.0000
  C   C253      1.0  0.17190  0.19484  0.61336  1.0000
  C   C254      1.0  0.17313  0.20878  0.59713  1.0000
  C   C255      1.0  0.18561  0.17843  0.61316  1.0000
  C   C256      1.0  0.18736  0.20660  0.58187  1.0000
  C   C257      1.0  0.19978  0.17643  0.59783  1.0000
  C   C258      1.0  0.20068  0.19046  0.58224  1.0000
  H   H292      1.0  0.17989  0.03726  0.63275  1.0000
  H   H293      1.0  0.14492  0.21674  0.64739  1.0000
  H   H294      1.0  0.16925  0.21438  0.63874  1.0000
  H   H295      1.0  0.17081  0.18026  0.65049  1.0000
  H   H296      1.0  0.14627  0.18449  0.65723  1.0000
  H   H297      1.0  0.15739  0.16894  0.64237  1.0000
  H   H298      1.0  0.16293  0.22142  0.59606  1.0000
  H   H299      1.0  0.19269  0.02533  0.49510  1.0000
  H   H300      1.0  0.18800  0.21745  0.56964  1.0000
  H   H301      1.0  0.21003  0.16375  0.59793  1.0000
  H   H302      1.0  0.21167  0.18864  0.57038  1.0000
  H   H303      1.0  0.13647  0.24982  0.50540  1.0000
  H   H304      1.0  0.24018  0.29559  0.64676  1.0000
  H   H305      1.0  0.26932  0.13780  0.51404  1.0000
  H   H306      1.0  0.21686  0.30746  0.64908  1.0000
  C   C259      1.0  0.26767  0.43307  0.68797  1.0000
  H   H307      1.0  0.27249  0.20559  0.54615  1.0000
  C   C260      1.0  0.18660  0.99012  0.51029  1.0000
  H   H308      1.0  0.28339  0.41389  0.70683  1.0000
  H   H309      1.0  0.05428  0.25030  0.52883  1.0000
  H   H310      1.0  0.20899  0.28229  0.67407  1.0000
  C   C261      1.0  0.26864  0.10154  0.52694  1.0000
  H   H311      1.0  0.26953  0.14261  0.53542  1.0000
  H   H312      1.0  0.26946  0.09419  0.48451  1.0000
  C   C262      1.0  0.00438  0.15692  0.54167  1.0000
  C   C263      1.0  0.19929  0.01709  0.57922  1.0000
  C   C264      1.0  0.25174  0.07762  0.52903  1.0000
  H   H313      1.0  0.24114  0.19026  0.59417  1.0000
  H   H314      1.0  0.25552  0.28541  0.67245  1.0000
  H   H315      1.0  0.25032  0.26063  0.55860  1.0000
  S   S89       1.0  0.31477  0.19511  0.61966  1.0000
  H   H316      1.0  0.23687  0.03914  0.61518  1.0000
  H   H317      1.0  0.30242  0.09772  0.53275  1.0000
  S   S90       1.0  0.09264  0.14358  0.49347  1.0000
  H   H318      1.0  0.24444  0.26624  0.50211  1.0000
  C   C265      1.0  0.21775  0.04528  0.57731  1.0000
  C   C266      1.0  0.31216  0.15928  0.53586  1.0000
  C   C267      1.0  0.26613  0.09264  0.49930  1.0000
  H   H319      1.0  0.25081  0.07152  0.50353  1.0000
  C   C268      1.0  0.99212  0.18348  0.65481  1.0000
  H   H320      1.0  0.11061  0.29316  0.56593  1.0000
  C   C269      1.0  0.18944  0.03428  0.58287  1.0000
  C   C270      1.0  0.11468  0.30260  0.57177  1.0000
  H   H321      1.0  0.13170  0.37339  0.54852  1.0000
  H   H322      1.0  0.15325  0.22711  0.62441  1.0000
  H   H323      1.0  0.02982  0.17590  0.68626  1.0000
  H   H324      1.0  0.02912  0.16883  0.64936  1.0000
  H   H325      1.0  0.12145  0.36383  0.57152  1.0000
  H   H326      1.0  0.12368  0.19388  0.55326  1.0000
  H   H327      1.0  0.12719  0.21529  0.55498  1.0000
  H   H328      1.0  0.13079  0.21004  0.53275  1.0000
  C   C271      1.0  0.23589  0.19398  0.60791  1.0000
  C   C272      1.0  0.27499  0.21778  0.50067  1.0000
  H   H329      1.0  0.22162  0.99720  0.52660  1.0000
  H   H330      1.0  0.10518  0.28939  0.59963  1.0000
  C   C273      1.0  0.12554  0.36158  0.55717  1.0000
  H   H331      1.0  0.18564  0.16677  0.62457  1.0000
  S   S91       1.0  0.21698  0.46378  0.69111  1.0000
  C   C274      1.0  0.13270  0.20409  0.54711  1.0000
  H   H332      1.0  0.13907  0.18634  0.61930  1.0000
  C   C275      1.0  0.13903  0.19893  0.62393  1.0000
  H   H333      1.0  0.12954  0.33515  0.59365  1.0000
  C   C276      1.0  0.11167  0.30039  0.59076  1.0000
  C   C277      1.0  0.12333  0.31658  0.56025  1.0000
  Fe  Fe48      1.0  0.20720  0.39883  0.69778  1.0000
  H   H334      1.0  0.17883  0.38803  0.67542  1.0000
  H   H335      1.0  0.20661  0.22398  0.60132  1.0000
  H   H336      1.0  0.14774  0.16934  0.54621  1.0000
  H   H337      1.0  0.14660  0.17807  0.57426  1.0000
  H   H338      1.0  0.16193  0.37551  0.65938  1.0000
  H   H339      1.0  0.19603  0.24996  0.57786  1.0000
  C   C278      1.0  0.27015  0.40312  0.67248  1.0000
  H   H340      1.0  0.11526  0.31006  0.61321  1.0000
  N   N15       1.0  0.19728  0.00057  0.51591  1.0000
  C   C279      1.0  0.26029  0.42061  0.66487  1.0000
  S   S92       1.0  0.22907  0.40922  0.70463  1.0000
  H   H341      1.0  0.24243  0.02578  0.56956  1.0000
  H   H342      1.0  0.23621  0.22938  0.62673  1.0000
  N   N16       1.0  0.15226  0.19563  0.54754  1.0000
  C   C280      1.0  0.15700  0.17921  0.53911  1.0000
  C   C281      1.0  0.15436  0.18917  0.56693  1.0000
  H   H343      1.0  0.15568  0.18309  0.52448  1.0000
  H   H344      1.0  0.14926  0.20044  0.57475  1.0000
  H   H345      1.0  0.21750  0.21871  0.62882  1.0000
  H   H346      1.0  0.18309  0.19387  0.51822  1.0000
  H   H347      1.0  0.12710  0.20048  0.63562  1.0000
  C   C282      1.0  0.25300  0.25266  0.50180  1.0000
  C   C283      1.0  0.24751  0.23700  0.58063  1.0000
  C   C284      1.0  0.12942  0.32870  0.56757  1.0000
  H   H348      1.0  0.15212  0.34820  0.57544  1.0000
  H   H349      1.0  0.22004  0.14142  0.51257  1.0000
  H   H350      1.0  0.28608  0.19214  0.52966  1.0000
  N   N17       1.0  0.13846  0.34380  0.55584  1.0000
  S   S93       1.0  0.18840  0.42672  0.69531  1.0000
  C   C285      1.0  0.21047  0.24603  0.57845  1.0000
  C   C286      1.0  0.16389  0.20937  0.53818  1.0000
  C   C287      1.0  0.17920  0.20631  0.52358  1.0000
  H   H351      1.0  0.23733  0.20566  0.63782  1.0000
  C   C288      1.0  0.21669  0.23117  0.59180  1.0000
  H   H352      1.0  0.16901  0.18345  0.56780  1.0000
  C   C289      1.0  0.23271  0.21636  0.62617  1.0000
  H   H353      1.0  0.03677  0.19002  0.60183  1.0000
  C   C290      1.0  0.01660  0.17977  0.68143  1.0000
  H   H354      1.0  0.22081  0.19516  0.61133  1.0000
  C   C291      1.0  0.25754  0.43818  0.63426  1.0000
  N   N18       1.0  0.21752  0.13960  0.48587  1.0000
  H   H355      1.0  0.19413  0.24647  0.51461  1.0000
  H   H356      1.0  0.24847  0.39550  0.65222  1.0000
  C   C292      1.0  0.12578  0.32624  0.58701  1.0000
  C   C293      1.0  0.11729  0.31211  0.59838  1.0000
  H   H357      1.0  0.15345  0.32919  0.53437  1.0000
  H   H358      1.0  0.17114  0.17129  0.54004  1.0000
  H   H359      1.0  0.24147  0.18204  0.61812  1.0000
  C   C294      1.0  0.27846  0.40087  0.68735  1.0000
  C   C295      1.0  0.17122  0.18530  0.48420  1.0000
  C   C296      1.0  0.21676  0.00141  0.62720  1.0000
  H   H360      1.0  0.16371  0.35325  0.55225  1.0000
  C   C297      1.0  0.14408  0.34255  0.53614  1.0000
  C   C298      1.0  0.15522  0.34378  0.56212  1.0000
  H   H361      1.0  0.29647  0.24498  0.52743  1.0000
  C   C299      1.0  0.03213  0.18209  0.64975  1.0000
  H   H362      1.0  0.13210  0.34413  0.52985  1.0000
  H   H363      1.0  0.12045  0.11102  0.49823  1.0000
  H   H364      1.0  0.22715  0.44208  0.66134  1.0000
  C   C300      1.0  0.22618  0.03114  0.62018  1.0000
  C   C301      1.0  0.21322  0.31359  0.68316  1.0000
  C   C302      1.0  0.19000  0.21956  0.51530  1.0000
  H   H365      1.0  0.13621  0.21094  0.61266  1.0000
  H   H366      1.0  0.17540  0.35092  0.70554  1.0000
  H   H367      1.0  0.30329  0.22553  0.54444  1.0000
  C   C303      1.0  0.27064  0.10942  0.55569  1.0000
  C   C304      1.0  0.30960  0.21485  0.51304  1.0000
  H   H368      1.0  0.05162  0.22906  0.52539  1.0000
  H   H369      1.0  0.26906  0.20216  0.59392  1.0000
  H   H370      1.0  0.25165  0.43995  0.62195  1.0000
  C   C305      1.0  0.16027  0.22632  0.54394  1.0000
  H   H371      1.0  0.17343  0.02013  0.52578  1.0000
  N   N19       1.0  0.24144  0.21104  0.60824  1.0000
  N   N20       1.0  0.29115  0.21963  0.52461  1.0000
  H   H372      1.0  0.16413  0.32983  0.56381  1.0000
  C   C306      1.0  0.22762  0.02822  0.57323  1.0000
  H   H373      1.0  0.21739  0.27756  0.69496  1.0000
  C   C307      1.0  0.17105  0.23950  0.53548  1.0000
  C   C308      1.0  0.18595  0.23609  0.52127  1.0000
  C   C309      1.0  0.23542  0.22618  0.59332  1.0000
  C   C310      1.0  0.99367  0.17454  0.54214  1.0000
  H   H374      1.0  0.15160  0.35350  0.52775  1.0000
  Fe  Fe49      1.0  0.20918  0.43616  0.70474  1.0000
  C   C311      1.0  0.21431  0.47289  0.72436  1.0000
  H   H375      1.0  0.19073  0.31055  0.67237  1.0000
  H   H376      1.0  0.20144  0.21715  0.50398  1.0000
  C   C312      1.0  0.23055  0.01212  0.62134  1.0000
  H   H377      1.0  0.02652  0.21788  0.65036  1.0000
  H   H378      1.0  0.21763  0.26848  0.55661  1.0000
  H   H379      1.0  0.22619  0.00129  0.57060  1.0000
  C   C313      1.0  0.19479  0.31736  0.68091  1.0000
  C   C314      1.0  0.22261  0.25652  0.56645  1.0000
  H   H380      1.0  0.23021  0.11933  0.50658  1.0000
  C   C315      1.0  0.27244  0.10341  0.50756  1.0000
  H   H381      1.0  0.16746  0.33350  0.68668  1.0000
  H   H382      1.0  0.27129  0.39086  0.66752  1.0000
  H   H383      1.0  0.28560  0.38738  0.69321  1.0000
  H   H384      1.0  0.99380  0.18043  0.55346  1.0000
  H   H385      1.0  0.26632  0.44459  0.69429  1.0000
  H   H386      1.0  0.99451  0.22684  0.65680  1.0000
  H   H387      1.0  0.99924  0.16930  0.65611  1.0000
  H   H388      1.0  0.21281  0.02205  0.50352  1.0000
  H   H389      1.0  0.20726  0.34541  0.70966  1.0000
  C   C316      1.0  0.17167  0.99951  0.50153  1.0000
  H   H390      1.0  0.01224  0.15008  0.55225  1.0000
  H   H391      1.0  0.17962  0.47004  0.71248  1.0000
  C   C317      1.0  0.02515  0.20806  0.66387  1.0000
  H   H392      1.0  0.32044  0.20932  0.52143  1.0000
  H   H393      1.0  0.15479  0.16481  0.49659  1.0000
  C   C318      1.0  0.29253  0.23199  0.53605  1.0000
  C   C319      1.0  0.26209  0.22512  0.48941  1.0000
  H   H394      1.0  0.03304  0.19060  0.63564  1.0000
  H   H395      1.0  0.13804  0.48129  0.71162  1.0000
  C   C320      1.0  0.00007  0.19713  0.65753  1.0000
  C   C321      1.0  0.20190  0.15552  0.48507  1.0000
  H   H396      1.0  0.26472  0.44032  0.72997  1.0000
  H   H397      1.0  0.99499  0.21538  0.51012  1.0000
  C   C322      1.0  0.99220  0.19284  0.60095  1.0000
  H   H398      1.0  0.04607  0.17882  0.65299  1.0000
  H   H399      1.0  0.23914  0.15411  0.48293  1.0000
  H   H400      1.0  0.16161  0.45928  0.72647  1.0000
  C   C323      1.0  0.16152  0.98997  0.49592  1.0000
  N   N21       1.0  0.01815  0.19201  0.66300  1.0000
  H   H401      1.0  0.18677  0.00430  0.63501  1.0000
  H   H402      1.0  0.01607  0.21554  0.67454  1.0000
  H   H403      1.0  0.03904  0.20387  0.66732  1.0000
  H   H404      1.0  0.00594  0.18659  0.69175  1.0000
  H   H405      1.0  0.01276  0.16673  0.68153  1.0000
  H   H406      1.0  0.21385  0.45869  0.73056  1.0000
  H   H407      1.0  0.20316  0.11895  0.48485  1.0000
  H   H408      1.0  0.24098  0.42301  0.73161  1.0000
  H   H409      1.0  0.99072  0.23427  0.61045  1.0000
  Fe  Fe50      1.0  0.06371  0.41955  0.85712  1.0000
  S   S94       1.0  0.07800  0.42767  0.82795  1.0000
  S   S95       1.0  0.03627  0.41087  0.86575  1.0000
  Fe  Fe51      1.0  0.09388  0.42648  0.87263  1.0000
  S   S96       1.0  0.11080  0.43490  0.84473  1.0000
  S   S97       1.0  0.09895  0.43146  0.89839  1.0000
  Fe  Fe52      1.0  0.08402  0.45039  0.83721  1.0000
  H   H410      1.0  0.99558  0.46486  0.84376  1.0000
  Fe  Fe53      1.0  0.10343  0.41129  0.83796  1.0000
  S   S98       1.0  0.12406  0.39204  0.82159  1.0000
  S   S99       1.0  0.06748  0.44393  0.86556  1.0000
  S   S100      1.0  0.08876  0.40122  0.86672  1.0000
  C   C324      1.0  0.04710  0.38081  0.79997  1.0000
  S   S101      1.0  0.18299  0.44765  0.92207  1.0000
  S   S102      1.0  0.23135  0.45505  0.90022  1.0000
  Fe  Fe54      1.0  0.29932  0.43036  0.77897  1.0000
  S   S103      1.0  0.29208  0.43414  0.75151  1.0000
  Fe  Fe55      1.0  0.28453  0.41877  0.81962  1.0000
  S   S104      1.0  0.26255  0.40598  0.84035  1.0000
  Fe  Fe56      1.0  0.29679  0.45541  0.80469  1.0000
  H   H411      1.0  0.13174  0.40597  0.88453  1.0000
  S   S105      1.0  0.27604  0.44334  0.79856  1.0000
  C   C325      1.0  0.15405  0.40916  0.91647  1.0000
  C   C326      1.0  0.10247  0.48033  0.87971  1.0000
  H   H412      1.0  0.08288  0.35987  0.79814  1.0000
  H   H413      1.0  0.00113  0.38284  0.81462  1.0000
  H   H414      1.0  0.04106  0.37593  0.84656  1.0000
  H   H415      1.0  0.27234  0.47052  0.75935  1.0000
  H   H416      1.0  0.30266  0.47316  0.74831  1.0000
  H   H417      1.0  0.00973  0.37800  0.84457  1.0000
  H   H418      1.0  0.11022  0.46666  0.88542  1.0000
  C   C327      1.0  0.23689  0.36555  0.90689  1.0000
  H   H419      1.0  0.06627  0.48189  0.91584  1.0000
  C   C328      1.0  0.27537  0.42171  0.75276  1.0000
  C   C329      1.0  0.27367  0.40572  0.76618  1.0000
  C   C330      1.0  0.26054  0.39568  0.76683  1.0000
  C   C331      1.0  0.24872  0.40181  0.75437  1.0000
  H   H420      1.0  0.27732  0.48098  0.73525  1.0000
  H   H421      1.0  0.22812  0.33316  0.97174  1.0000
  H   H422      1.0  0.28278  0.40083  0.77580  1.0000
  H   H423      1.0  0.25956  0.38310  0.77699  1.0000
  H   H424      1.0  0.24307  0.43414  0.78538  1.0000
  C   C332      1.0  0.21214  0.36816  0.97481  1.0000
  C   C333      1.0  0.23867  0.44171  0.88326  1.0000
  C   C334      1.0  0.23437  0.42437  0.88646  1.0000
  C   C335      1.0  0.24130  0.41354  0.87306  1.0000
  C   C336      1.0  0.25257  0.42004  0.85649  1.0000
  C   C337      1.0  0.25605  0.43775  0.85295  1.0000
  C   C338      1.0  0.24909  0.44854  0.86630  1.0000
  H   H425      1.0  0.22592  0.41916  0.89930  1.0000
  H   H426      1.0  0.23829  0.39999  0.87571  1.0000
  H   H427      1.0  0.26421  0.44314  0.83996  1.0000
  H   H428      1.0  0.25188  0.46214  0.86351  1.0000
  C   C339      1.0  0.13073  0.40196  0.79829  1.0000
  C   C340      1.0  0.12135  0.41922  0.79061  1.0000
  C   C341      1.0  0.12648  0.42668  0.77185  1.0000
  C   C342      1.0  0.14145  0.41725  0.76086  1.0000
  C   C343      1.0  0.15110  0.40019  0.76861  1.0000
  C   C344      1.0  0.14555  0.39243  0.78724  1.0000
  H   H429      1.0  0.11004  0.42677  0.79904  1.0000
  H   H430      1.0  0.11893  0.43984  0.76587  1.0000
  H   H431      1.0  0.16263  0.39280  0.76018  1.0000
  H   H432      1.0  0.15289  0.37909  0.79313  1.0000
  C   C345      1.0  0.12036  0.42274  0.90488  1.0000
  H   H433      1.0  0.19145  0.43445  0.83356  1.0000
  C   C346      1.0  0.14046  0.42187  0.92513  1.0000
  C   C347      1.0  0.12353  0.42829  0.91962  1.0000
  H   H434      1.0  0.14275  0.42618  0.93657  1.0000
  H   H435      1.0  0.11272  0.43731  0.92708  1.0000
  C   C348      1.0  0.02145  0.41691  0.85008  1.0000
  C   C349      1.0  0.00330  0.41435  0.85636  1.0000
  H   H436      1.0  0.22221  0.42473  0.83409  1.0000
  Fe  Fe57      1.0  0.18370  0.41853  0.93700  1.0000
  S   S106      1.0  0.28566  0.48482  0.80761  1.0000
  C   C350      1.0  0.02749  0.42404  0.83149  1.0000
  H   H437      1.0  0.20753  0.37398  0.91145  1.0000
  H   H438      1.0  0.09591  0.47766  0.86954  1.0000
  H   H439      1.0  0.02067  0.43279  0.80466  1.0000
  H   H440      1.0  0.04138  0.42611  0.82650  1.0000
  H   H441      1.0  0.20699  0.38281  0.96881  1.0000
  H   H442      1.0  0.25127  0.33598  0.96830  1.0000
  C   C351      1.0  0.18855  0.42850  0.82357  1.0000
  S   S107      1.0  0.23165  0.38959  0.75618  1.0000
  C   C352      1.0  0.17185  0.44383  0.87625  1.0000
  H   H443      1.0  0.99853  0.40881  0.87074  1.0000
  C   C353      1.0  0.17856  0.41302  0.79933  1.0000
  H   H444      1.0  0.21742  0.44675  0.81849  1.0000
  H   H445      1.0  0.07884  0.34870  0.82190  1.0000
  C   C354      1.0  0.03846  0.37744  0.83304  1.0000
  H   H446      1.0  0.11945  0.46756  0.81607  1.0000
  C   C355      1.0  0.99765  0.42505  0.82535  1.0000
  H   H447      1.0  0.09214  0.39516  0.80508  1.0000
  H   H448      1.0  0.06566  0.39138  0.84027  1.0000
  C   C356      1.0  0.21733  0.36808  0.93664  1.0000
  H   H449      1.0  0.17092  0.43022  0.87543  1.0000
  C   C357      1.0  0.07841  0.39401  0.80372  1.0000
  C   C358      1.0  0.01570  0.42789  0.81914  1.0000
  C   C359      1.0  0.24322  0.37211  0.96811  1.0000
  N   N22       1.0  0.22195  0.42298  0.80655  1.0000
  H   H450      1.0  0.24804  0.40412  0.80726  1.0000
  H   H451      1.0  0.26577  0.35689  0.90637  1.0000
  H   H452      1.0  0.12375  0.46421  0.78266  1.0000
  S   S108      1.0  0.30631  0.40430  0.79959  1.0000
  H   H453      1.0  0.11594  0.46722  0.91194  1.0000
  H   H454      1.0  0.21034  0.48077  0.75027  1.0000
  C   C360      1.0  0.07733  0.47564  0.90545  1.0000
  H   H455      1.0  0.20236  0.35986  0.97442  1.0000
  N   N23       1.0  0.99838  0.47036  0.86886  1.0000
  H   H456      1.0  0.07090  0.47041  0.89688  1.0000
  C   C361      1.0  0.99771  0.47769  0.80430  1.0000
  H   H457      1.0  0.99427  0.47720  0.89523  1.0000
  H   H458      1.0  0.08894  0.37929  0.83513  1.0000
  C   C362      1.0  0.19684  0.41423  0.79711  1.0000
  C   C363      1.0  0.23320  0.40406  0.80908  1.0000
  C   C364      1.0  0.22540  0.43238  0.81963  1.0000
  C   C365      1.0  0.17028  0.42716  0.82568  1.0000
  H   H459      1.0  0.24029  0.38665  0.96056  1.0000
  C   C366      1.0  0.20243  0.42208  0.80911  1.0000
  N   N24       1.0  0.07177  0.37821  0.81719  1.0000
  C   C367      1.0  0.07447  0.37891  0.83545  1.0000
  H   H460      1.0  0.15990  0.43196  0.83687  1.0000
  H   H461      1.0  0.09807  0.35995  0.81232  1.0000
  C   C368      1.0  0.21250  0.48541  0.73551  1.0000
  C   C369      1.0  0.16531  0.41942  0.81360  1.0000
  H   H462      1.0  0.01967  0.45344  0.88317  1.0000
  H   H463      1.0  0.08015  0.39286  0.78925  1.0000
  Fe  Fe58      1.0  0.21213  0.44249  0.92478  1.0000
  H   H464      1.0  0.23216  0.39633  0.79909  1.0000
  C   C370      1.0  0.26358  0.42785  0.74025  1.0000
  H   H465      1.0  0.25801  0.36646  0.96362  1.0000
  C   C371      1.0  0.01539  0.38127  0.81526  1.0000
  H   H466      1.0  0.00440  0.44106  0.88000  1.0000
  H   H467      1.0  0.14275  0.45357  0.88137  1.0000
  H   H468      1.0  0.22887  0.39601  0.82312  1.0000
  H   H469      1.0  0.24011  0.43315  0.81704  1.0000
  H   H470      1.0  0.05701  0.38146  0.78716  1.0000
  C   C372      1.0  0.13414  0.41044  0.89581  1.0000
  H   H471      1.0  0.16130  0.39347  0.89517  1.0000
  S   S109      1.0  0.17476  0.39982  0.92425  1.0000
  H   H472      1.0  0.17473  0.40684  0.79003  1.0000
  H   H473      1.0  0.22781  0.42611  0.77694  1.0000
  C   C373      1.0  0.01147  0.45281  0.87341  1.0000
  S   S110      1.0  0.21363  0.41274  0.93785  1.0000
  S   S111      1.0  0.20557  0.45095  0.95184  1.0000
  C   C374      1.0  0.15085  0.40340  0.90183  1.0000
  C   C375      1.0  0.11570  0.48009  0.82129  1.0000
  C   C376      1.0  0.23275  0.36277  0.94523  1.0000
  H   H474      1.0  0.20662  0.40868  0.78601  1.0000
  Fe  Fe59      1.0  0.17629  0.45412  0.94997  1.0000
  H   H475      1.0  0.22005  0.44723  0.78502  1.0000
  H   H476      1.0  0.07137  0.36658  0.84604  1.0000
  C   C377      1.0  0.15595  0.45702  0.87973  1.0000
  C   C378      1.0  0.02027  0.37860  0.83213  1.0000
  C   C379      1.0  0.18892  0.44803  0.87417  1.0000
  C   C380      1.0  0.01455  0.48010  0.80606  1.0000
  C   C381      1.0  0.08339  0.36093  0.81215  1.0000
  H   H477      1.0  0.06871  0.40718  0.80560  1.0000
  C   C382      1.0  0.02880  0.38222  0.79922  1.0000
  H   H478      1.0  0.15120  0.41815  0.81543  1.0000
  H   H479      1.0  0.30528  0.47687  0.84517  1.0000
  C   C383      1.0  0.05243  0.37886  0.81686  1.0000
  N   N25       1.0  0.23108  0.36131  0.96516  1.0000
  S   S112      1.0  0.30347  0.43179  0.82759  1.0000
  S   S113      1.0  0.17389  0.42533  0.96521  1.0000
  H   H480      1.0  0.03606  0.47174  0.85972  1.0000
  C   C384      1.0  0.25026  0.35844  0.93379  1.0000
  H   H481      1.0  0.20126  0.43763  0.87172  1.0000
  C   C385      1.0  0.22844  0.43308  0.78770  1.0000
  H   H482      1.0  0.02108  0.44909  0.86081  1.0000
  C   C386      1.0  0.28324  0.46856  0.87714  1.0000
  C   C387      1.0  0.21949  0.36952  0.91774  1.0000
  H   H483      1.0  0.02490  0.38427  0.78613  1.0000
  H   H484      1.0  0.99649  0.46391  0.80457  1.0000
  S   S114      1.0  0.15772  0.48089  0.95453  1.0000
  C   C388      1.0  0.13943  0.47451  0.75611  1.0000
  H   H485      1.0  0.29247  0.46458  0.88717  1.0000
  H   H486      1.0  0.25418  0.48328  0.74775  1.0000
  Fe  Fe60      1.0  0.20389  0.42178  0.96494  1.0000
  H   H487      1.0  0.20341  0.37162  0.94407  1.0000
  C   C389      1.0  0.12573  0.47622  0.77186  1.0000
  H   H488      1.0  0.23845  0.36685  0.89222  1.0000
  C   C390      1.0  0.19019  0.46529  0.87604  1.0000
  Fe  Fe61      1.0  0.21530  0.40148  0.73394  1.0000
  C   C391      1.0  0.25225  0.35996  0.91490  1.0000
  C   C392      1.0  0.02684  0.48446  0.85572  1.0000
  H   H489      1.0  0.26927  0.46688  0.88499  1.0000
  S   S115      1.0  0.08015  0.47952  0.82194  1.0000
  H   H490      1.0  0.08553  0.46337  0.91312  1.0000
  C   C393      1.0  0.23673  0.34177  0.97393  1.0000
  C   C394      1.0  0.25018  0.41801  0.74114  1.0000
  H   H491      1.0  0.20386  0.46738  0.87474  1.0000
  H   H492      1.0  0.26259  0.35389  0.93935  1.0000
  H   H493      1.0  0.28760  0.45823  0.86818  1.0000
  H   H494      1.0  0.13131  0.47516  0.93214  1.0000
  C   C395      1.0  0.99135  0.41856  0.84405  1.0000
  H   H495      1.0  0.02579  0.46836  0.80768  1.0000
  H   H496      1.0  0.14745  0.46081  0.75551  1.0000
  S   S116      1.0  0.14776  0.42697  0.73747  1.0000
  S   S117      1.0  0.31981  0.44433  0.78334  1.0000
  H   H497      1.0  0.14367  0.48127  0.82026  1.0000
  H   H498      1.0  0.27265  0.48289  0.84519  1.0000
  S   S118      1.0  0.19688  0.42898  0.73460  1.0000
  C   C396      1.0  0.26845  0.48294  0.74879  1.0000
  C   C397      1.0  0.15705  0.47438  0.88153  1.0000
  C   C398      1.0  0.17419  0.47885  0.88031  1.0000
  H   H499      1.0  0.17603  0.46715  0.73691  1.0000
  H   H500      1.0  0.19127  0.48255  0.92792  1.0000
  C   C399      1.0  0.11193  0.48104  0.91436  1.0000
  C   C400      1.0  0.12078  0.48542  0.92598  1.0000
  H   H501      1.0  0.14439  0.48424  0.88420  1.0000
  H   H502      1.0  0.20258  0.48439  0.97341  1.0000
  H   H503      1.0  0.31319  0.48328  0.86223  1.0000
  C   C401      1.0  0.30396  0.48548  0.75179  1.0000
  C   C402      1.0  0.00751  0.48600  0.85917  1.0000
  C   C403      1.0  0.32152  0.48621  0.75325  1.0000
  H   H504      1.0  0.21659  0.53102  0.99206  1.0000
  Fe  Fe62      1.0  0.20946  0.58531  0.14260  1.0000
  S   S119      1.0  0.20107  0.55826  0.15521  1.0000
  S   S120      1.0  0.21452  0.60082  0.16148  1.0000
  Fe  Fe63      1.0  0.20522  0.58459  0.10457  1.0000
  S   S121      1.0  0.19642  0.55746  0.11397  1.0000
  S   S122      1.0  0.20706  0.60186  0.07574  1.0000
  Fe  Fe64      1.0  0.17928  0.56861  0.13848  1.0000
  S   S123      1.0  0.15219  0.56012  0.15041  1.0000
  Fe  Fe65      1.0  0.21891  0.54924  0.12995  1.0000
  S   S124      1.0  0.23648  0.52096  0.13439  1.0000
  S   S125      1.0  0.18593  0.59665  0.12787  1.0000
  S   S126      1.0  0.22939  0.57539  0.11858  1.0000
  H   H505      1.0  0.22126  0.61599  0.12134  1.0000
  H   H506      1.0  0.15795  0.59544  0.99129  1.0000
  C   C404      1.0  0.21948  0.62681  0.10880  1.0000
  S   S127      1.0  0.09768  0.60156  0.21051  1.0000
  H   H507      1.0  0.17919  0.60780  0.21554  1.0000
  H   H508      1.0  0.24650  0.64671  0.14923  1.0000
  H   H509      1.0  0.17052  0.55664  0.07507  1.0000
  S   S128      1.0  0.20442  0.56145  0.01425  1.0000
  C   C405      1.0  0.16485  0.56923  0.06637  1.0000
  H   H510      1.0  0.18123  0.53044  0.14523  1.0000
  Fe  Fe66      1.0  0.30145  0.60114  0.18890  1.0000
  S   S129      1.0  0.28054  0.59024  0.21226  1.0000
  S   S130      1.0  0.29518  0.60711  0.16063  1.0000
  H   H511      1.0  0.09037  0.52854  0.21275  1.0000
  H   H512      1.0  0.30476  0.52226  0.17653  1.0000
  H   H513      1.0  0.15719  0.52331  0.13324  1.0000
  H   H514      1.0  0.12354  0.50480  0.21109  1.0000
  C   C406      1.0  0.16062  0.56862  0.04991  1.0000
  N   N26       1.0  0.28609  0.50834  0.15741  1.0000
  H   H515      1.0  0.20320  0.61580  0.03802  1.0000
  H   H516      1.0  0.21193  0.62192  0.10100  1.0000
  C   C407      1.0  0.30394  0.49686  0.16123  1.0000
  H   H517      1.0  0.21200  0.56335  0.07476  1.0000
  C   C408      1.0  0.30513  0.49301  0.21576  1.0000
  H   H518      1.0  0.16733  0.55950  0.01534  1.0000
  N   N27       1.0  0.23747  0.63056  0.09761  1.0000
  C   C409      1.0  0.08499  0.51612  0.21868  1.0000
  C   C410      1.0  0.23714  0.60188  0.16120  1.0000
  C   C411      1.0  0.24043  0.60884  0.17496  1.0000
  C   C412      1.0  0.25826  0.61023  0.17497  1.0000
  C   C413      1.0  0.27289  0.60482  0.16110  1.0000
  C   C414      1.0  0.26959  0.59796  0.14726  1.0000
  C   C415      1.0  0.25177  0.59631  0.14741  1.0000
  H   H519      1.0  0.22911  0.61340  0.18552  1.0000
  H   H520      1.0  0.26060  0.61607  0.18535  1.0000
  H   H521      1.0  0.28087  0.59384  0.13648  1.0000
  H   H522      1.0  0.24939  0.59091  0.13678  1.0000
  C   C416      1.0  0.13776  0.57158  0.16747  1.0000
  C   C417      1.0  0.13954  0.58893  0.16859  1.0000
  C   C418      1.0  0.12712  0.59821  0.18175  1.0000
  C   C419      1.0  0.11331  0.58989  0.19416  1.0000
  C   C420      1.0  0.11199  0.57229  0.19339  1.0000
  C   C421      1.0  0.12398  0.56330  0.17988  1.0000
  H   H523      1.0  0.15009  0.59543  0.15896  1.0000
  H   H524      1.0  0.12815  0.61185  0.18226  1.0000
  H   H525      1.0  0.10138  0.56579  0.20285  1.0000
  H   H526      1.0  0.12248  0.54994  0.17899  1.0000
  C   C422      1.0  0.23553  0.50958  0.11772  1.0000
  C   C423      1.0  0.23089  0.51969  0.10106  1.0000
  C   C424      1.0  0.22812  0.51068  0.08857  1.0000
  H   H527      1.0  0.23156  0.57799  0.20884  1.0000
  C   C425      1.0  0.24111  0.64004  0.12576  1.0000
  C   C426      1.0  0.26278  0.53662  0.16425  1.0000
  H   H528      1.0  0.22945  0.53446  0.09773  1.0000
  H   H529      1.0  0.22429  0.51857  0.07579  1.0000
  C   C427      1.0  0.00019  0.53377  0.20270  1.0000
  H   H530      1.0  0.29189  0.64268  0.10382  1.0000
  C   C428      1.0  0.22983  0.49158  0.09282  1.0000
  H   H531      1.0  0.27306  0.63564  0.08629  1.0000
  H   H532      1.0  0.25903  0.50310  0.16023  1.0000
  H   H533      1.0  0.20558  0.50858  0.98290  1.0000
  C   C429      1.0  0.25687  0.55239  0.17178  1.0000
  C   C430      1.0  0.30540  0.52303  0.22077  1.0000
  C   C431      1.0  0.20638  0.57316  0.03043  1.0000
  C   C432      1.0  0.20920  0.56284  0.04774  1.0000
  C   C433      1.0  0.20977  0.57152  0.06154  1.0000
  C   C434      1.0  0.20740  0.59064  0.05820  1.0000
  C   C435      1.0  0.20495  0.60100  0.04074  1.0000
  C   C436      1.0  0.20444  0.59229  0.02686  1.0000
  H   H534      1.0  0.21079  0.54804  0.05058  1.0000
  H   H535      1.0  0.15500  0.61532  0.06346  1.0000
  C   C437      1.0  0.01252  0.50405  0.19432  1.0000
  H   H536      1.0  0.16958  0.52490  0.17577  1.0000
  Fe  Fe67      1.0  0.30399  0.56863  0.22101  1.0000
  H   H537      1.0  0.22562  0.64159  0.07352  1.0000
  N   N28       1.0  0.17560  0.50353  0.14899  1.0000
  S   S131      1.0  0.30619  0.62089  0.20358  1.0000
  H   H538      1.0  0.12115  0.61937  0.22024  1.0000
  H   H539      1.0  0.17514  0.59090  0.00488  1.0000
  C   C438      1.0  0.16554  0.61146  0.22360  1.0000
  H   H540      1.0  0.27894  0.64788  0.13536  1.0000
  H   H541      1.0  0.22907  0.52321  0.02024  1.0000
  C   C439      1.0  0.22542  0.49522  0.02706  1.0000
  C   C440      1.0  0.07511  0.51022  0.20903  1.0000
  H   H542      1.0  0.12065  0.58560  0.03248  1.0000
  C   C441      1.0  0.13424  0.50428  0.19888  1.0000
  H   H543      1.0  0.29256  0.50190  0.13047  1.0000
  H   H544      1.0  0.14591  0.52492  0.20336  1.0000
  H   H545      1.0  0.14912  0.56677  0.00302  1.0000
  C   C442      1.0  0.06841  0.49402  0.21660  1.0000
  Fe  Fe68      1.0  0.28747  0.60747  0.22785  1.0000
  C   C443      1.0  0.14853  0.49247  0.17122  1.0000
  C   C444      1.0  0.27762  0.64213  0.10980  1.0000
  C   C445      1.0  0.24832  0.63616  0.10788  1.0000
  C   C446      1.0  0.99484  0.49955  0.19944  1.0000
  C   C447      1.0  0.16176  0.50375  0.16635  1.0000
  H   H546      1.0  0.21023  0.63936  0.11304  1.0000
  H   H547      1.0  0.15750  0.49975  0.13339  1.0000
  C   C448      1.0  0.28014  0.52491  0.16564  1.0000
  C   C449      1.0  0.15258  0.56630  0.01638  1.0000
  H   H548      1.0  0.00218  0.54682  0.20402  1.0000
  C   C450      1.0  0.00157  0.57655  0.22266  1.0000
  C   C451      1.0  0.27032  0.64525  0.12751  1.0000
  H   H549      1.0  0.02763  0.57596  0.22887  1.0000
  C   C452      1.0  0.16059  0.51534  0.17856  1.0000
  H   H550      1.0  0.00647  0.57964  0.20794  1.0000
  C   C453      1.0  0.14699  0.51552  0.19456  1.0000
  H   H551      1.0  0.19856  0.51557  0.13274  1.0000
  N   N29       1.0  0.14917  0.58497  0.02034  1.0000
  H   H552      1.0  0.25998  0.61586  0.07991  1.0000
  H   H553      1.0  0.29415  0.54998  0.18884  1.0000
  C   C454      1.0  0.15171  0.60186  0.04339  1.0000
  C   C455      1.0  0.26677  0.63788  0.09999  1.0000
  H   H554      1.0  0.24674  0.64827  0.07192  1.0000
  H   H555      1.0  0.02468  0.49476  0.18907  1.0000
  H   H556      1.0  0.19669  0.51201  0.15697  1.0000
  H   H557      1.0  0.17617  0.51006  0.11983  1.0000
  C   C456      1.0  0.12946  0.59323  0.02072  1.0000
  H   H558      1.0  0.25286  0.56537  0.22663  1.0000
  H   H559      1.0  0.02878  0.52385  0.19224  1.0000
  C   C457      1.0  0.32277  0.49217  0.20486  1.0000
  C   C458      1.0  0.16619  0.50940  0.13321  1.0000
  H   H560      1.0  0.15197  0.61069  0.20264  1.0000
  C   C459      1.0  0.18977  0.56694  0.21984  1.0000
  H   H561      1.0  0.16335  0.55518  0.04669  1.0000
  H   H562      1.0  0.26380  0.56961  0.18605  1.0000
  C   C460      1.0  0.21714  0.51730  0.00050  1.0000
  C   C461      1.0  0.27221  0.49653  0.16470  1.0000
  C   C462      1.0  0.15620  0.60229  0.05977  1.0000
  H   H563      1.0  0.26926  0.49332  0.17997  1.0000
  H   H564      1.0  0.16666  0.58642  0.08371  1.0000
  H   H565      1.0  0.07278  0.51813  0.19571  1.0000
  H   H566      1.0  0.25275  0.60272  0.10237  1.0000
  C   C463      1.0  0.25203  0.64452  0.13533  1.0000
  H   H567      1.0  0.22728  0.63909  0.13300  1.0000
  H   H568      1.0  0.14686  0.61487  0.03488  1.0000
  C   C464      1.0  0.18855  0.51591  0.14600  1.0000
  H   H569      1.0  0.14418  0.55735  0.02712  1.0000
  C   C465      1.0  0.28795  0.51400  0.13719  1.0000
  H   H570      1.0  0.23931  0.60778  0.08498  1.0000
  C   C466      1.0  0.23804  0.49040  0.12164  1.0000
  C   C467      1.0  0.22430  0.51290  0.01633  1.0000
  H   H571      1.0  0.23126  0.49178  0.03924  1.0000
  C   C468      1.0  0.15383  0.58500  0.03789  1.0000
  C   C469      1.0  0.26816  0.55714  0.18063  1.0000
  H   H572      1.0  0.24361  0.56118  0.17038  1.0000
  H   H573      1.0  0.20235  0.60035  0.01353  1.0000
  H   H574      1.0  0.22611  0.65842  0.08591  1.0000
  C   C470      1.0  0.24784  0.61354  0.09098  1.0000
  H   H575      1.0  0.17991  0.56455  0.21327  1.0000
  H   H576      1.0  0.25372  0.53379  0.15709  1.0000
  C   C471      1.0  0.01508  0.52090  0.19601  1.0000
  C   C472      1.0  0.21899  0.57457  0.21767  1.0000
  C   C473      1.0  0.23385  0.64537  0.08153  1.0000
  H   H577      1.0  0.23780  0.59844  0.22224  1.0000
  C   C474      1.0  0.16272  0.58601  0.07125  1.0000
  C   C475      1.0  0.16026  0.59602  0.00487  1.0000
  C   C476      1.0  0.29129  0.53014  0.17484  1.0000
  C   C477      1.0  0.28532  0.54608  0.18212  1.0000
  C   C478      1.0  0.29647  0.50843  0.22360  1.0000
  C   C479      1.0  0.21069  0.50421  0.99549  1.0000
  C   C480      1.0  0.13497  0.49278  0.18723  1.0000
  H   H578      1.0  0.15708  0.61080  0.00550  1.0000
  C   C481      1.0  0.20631  0.57124  0.20933  1.0000
  H   H579      1.0  0.20926  0.57221  0.19458  1.0000
  H   H580      1.0  0.30346  0.49223  0.17626  1.0000
  C   C482      1.0  0.32286  0.52241  0.20953  1.0000
  H   H581      1.0  0.31539  0.50437  0.15514  1.0000
  H   H582      1.0  0.29803  0.52316  0.13119  1.0000
  H   H583      1.0  0.27473  0.52160  0.13315  1.0000
  Fe  Fe69      1.0  0.20414  0.57252  0.98403  1.0000
  C   C483      1.0  0.15022  0.61314  0.21634  1.0000
  H   H584      1.0  0.12604  0.60784  0.02205  1.0000
  H   H585      1.0  0.12543  0.59305  0.00783  1.0000
  H   H586      1.0  0.18211  0.49093  0.99010  1.0000
  H   H587      1.0  0.10095  0.64465  0.23127  1.0000
  C   C484      1.0  0.13257  0.61803  0.22659  1.0000
  S   S132      1.0  0.29441  0.54157  0.23184  1.0000
  S   S133      1.0  0.05624  0.48638  0.20471  1.0000
  H   H588      1.0  0.32211  0.63293  0.23187  1.0000
  H   H589      1.0  0.28277  0.50910  0.23173  1.0000
  S   S134      1.0  0.06996  0.54572  0.27667  1.0000
  H   H590      1.0  0.99524  0.78963  0.45561  1.0000
  S   S135      1.0  0.09269  0.57027  0.30002  1.0000
  S   S136      1.0  0.18022  0.91615  0.42904  1.0000
  H   H591      1.0  0.18513  0.64934  0.46656  1.0000
  C   C485      1.0  0.30297  0.63300  0.27663  1.0000
  S   S137      1.0  0.07263  0.82340  0.43913  1.0000
  H   H592      1.0  0.14762  0.78017  0.46931  1.0000
  H   H593      1.0  0.10130  0.52387  0.33665  1.0000
  S   S138      1.0  0.03753  0.84665  0.46520  1.0000
  H   H594      1.0  0.20215  0.50468  0.31305  1.0000
  Fe  Fe70      1.0  0.04374  0.82077  0.45421  1.0000
  S   S139      1.0  0.02512  0.80860  0.44428  1.0000
  Fe  Fe71      1.0  0.06712  0.84789  0.45226  1.0000
  S   S140      1.0  0.07640  0.87489  0.44083  1.0000
  H   H595      1.0  0.21615  0.93593  0.41782  1.0000
  H   H596      1.0  0.23442  0.57792  0.27145  1.0000
  Fe  Fe72      1.0  0.28589  0.81286  0.47376  1.0000
  C   C486      1.0  0.16641  0.49066  0.34513  1.0000
  H   H597      1.0  0.04855  0.74416  0.45590  1.0000
  H   H598      1.0  0.13466  0.52362  0.27826  1.0000
  Fe  Fe73      1.0  0.20625  0.90432  0.43952  1.0000
  S   S141      1.0  0.23412  0.89547  0.42289  1.0000
  H   H599      1.0  0.08490  0.74447  0.40815  1.0000
  C   C487      1.0  0.24080  0.95438  0.39569  1.0000
  C   C488      1.0  0.25420  0.50391  0.28498  1.0000
  Fe  Fe74      1.0  0.05222  0.56703  0.25912  1.0000
  S   S142      1.0  0.27796  0.80595  0.45074  1.0000
  C   C489      1.0  0.12017  0.53732  0.34090  1.0000
  H   H600      1.0  0.05256  0.75439  0.42069  1.0000
  C   C490      1.0  0.01650  0.50226  0.24693  1.0000
  C   C491      1.0  0.14567  0.61936  0.25161  1.0000
  Fe  Fe75      1.0  0.17607  0.71724  0.42595  1.0000
  S   S143      1.0  0.20223  0.70331  0.40977  1.0000
  S   S144      1.0  0.15440  0.73857  0.41321  1.0000
  H   H601      1.0  0.09195  0.51800  0.31297  1.0000
  S   S145      1.0  0.21315  0.68279  0.44964  1.0000
  C   C492      1.0  0.00723  0.57076  0.25351  1.0000
  Fe  Fe76      1.0  0.21567  0.70941  0.42980  1.0000
  S   S146      1.0  0.24174  0.72033  0.42261  1.0000
  Fe  Fe77      1.0  0.19720  0.67783  0.43099  1.0000
  S   S147      1.0  0.20315  0.64873  0.42553  1.0000
  S   S148      1.0  0.18995  0.72552  0.44392  1.0000
  S   S149      1.0  0.17004  0.69149  0.44594  1.0000
  Fe  Fe78      1.0  0.17974  0.55950  0.35433  1.0000
  S   S150      1.0  0.15788  0.58504  0.35003  1.0000
  S   S151      1.0  0.17100  0.53210  0.36681  1.0000
  Fe  Fe79      1.0  0.21033  0.58036  0.33525  1.0000
  S   S152      1.0  0.19088  0.60718  0.32894  1.0000
  S   S153      1.0  0.24092  0.57700  0.32552  1.0000
  Fe  Fe80      1.0  0.17615  0.59929  0.35817  1.0000
  S   S154      1.0  0.16516  0.62261  0.37412  1.0000
  Fe  Fe81      1.0  0.17475  0.59057  0.32150  1.0000
  S   S155      1.0  0.16629  0.59571  0.29429  1.0000
  S   S156      1.0  0.19665  0.57312  0.36495  1.0000
  S   S157      1.0  0.19553  0.56446  0.32544  1.0000
  C   C493      1.0  0.11072  0.85708  0.44710  1.0000
  H   H602      1.0  0.04553  0.51971  0.23656  1.0000
  H   H603      1.0  0.22968  0.89316  0.46137  1.0000
  C   C494      1.0  0.25358  0.53594  0.29746  1.0000
  N   N30       1.0  0.25442  0.48762  0.27785  1.0000
  C   C495      1.0  0.16342  0.50343  0.35644  1.0000
  C   C496      1.0  0.17443  0.51664  0.35212  1.0000
  C   C497      1.0  0.18846  0.51690  0.33646  1.0000
  C   C498      1.0  0.19141  0.50421  0.32521  1.0000
  H   H604      1.0  0.22849  0.62501  0.47788  1.0000
  H   H605      1.0  0.08815  0.64995  0.25278  1.0000
  H   H606      1.0  0.19729  0.52663  0.33321  1.0000
  Fe  Fe82      1.0  0.08517  0.58136  0.23401  1.0000
  H   H607      1.0  0.20156  0.95453  0.42802  1.0000
  C   C499      1.0  0.27149  0.59728  0.27696  1.0000
  C   C500      1.0  0.26602  0.58707  0.29461  1.0000
  C   C501      1.0  0.24748  0.58951  0.30323  1.0000
  C   C502      1.0  0.23445  0.60214  0.29410  1.0000
  C   C503      1.0  0.23997  0.61279  0.27674  1.0000
  C   C504      1.0  0.24680  0.56408  0.24153  1.0000
  H   H608      1.0  0.27617  0.57728  0.30159  1.0000
  H   H609      1.0  0.22011  0.60381  0.30035  1.0000
  C   C505      1.0  0.19253  0.64178  0.41105  1.0000
  C   C506      1.0  0.17772  0.65329  0.40372  1.0000
  C   C507      1.0  0.16942  0.64711  0.39265  1.0000
  C   C508      1.0  0.17602  0.62951  0.38843  1.0000
  C   C509      1.0  0.19106  0.61811  0.39547  1.0000
  C   C510      1.0  0.19907  0.62413  0.40691  1.0000
  H   H610      1.0  0.17248  0.66688  0.40678  1.0000
  H   H611      1.0  0.15782  0.65605  0.38728  1.0000
  H   H612      1.0  0.19631  0.60455  0.39237  1.0000
  H   H613      1.0  0.21048  0.61507  0.41251  1.0000
  C   C511      1.0  0.24389  0.73326  0.43761  1.0000
  C   C512      1.0  0.23185  0.73362  0.45462  1.0000
  C   C513      1.0  0.23377  0.74410  0.46631  1.0000
  C   C514      1.0  0.24779  0.75416  0.46113  1.0000
  C   C515      1.0  0.25990  0.75372  0.44421  1.0000
  C   C516      1.0  0.25794  0.74329  0.43248  1.0000
  H   H614      1.0  0.22129  0.72557  0.45892  1.0000
  H   H615      1.0  0.14499  0.62134  0.26520  1.0000
  H   H616      1.0  0.27076  0.76143  0.44011  1.0000
  H   H617      1.0  0.26733  0.74300  0.41938  1.0000
  H   H618      1.0  0.24594  0.93921  0.39884  1.0000
  Fe  Fe83      1.0  0.30792  0.79336  0.44318  1.0000
  C   C517      1.0  0.24679  0.88104  0.43900  1.0000
  C   C518      1.0  0.26172  0.86728  0.43394  1.0000
  C   C519      1.0  0.27030  0.85456  0.44748  1.0000
  H   H619      1.0  0.14903  0.49499  0.29696  1.0000
  H   H620      1.0  0.04159  0.52340  0.27733  1.0000
  C   C520      1.0  0.24102  0.88253  0.45740  1.0000
  H   H621      1.0  0.26638  0.86618  0.41968  1.0000
  H   H622      1.0  0.28179  0.84388  0.44356  1.0000
  H   H623      1.0  0.23512  0.98518  0.42883  1.0000
  H   H624      1.0  0.25375  0.50307  0.25020  1.0000
  C   C521      1.0  0.11759  0.77127  0.45555  1.0000
  C   C522      1.0  0.11771  0.77829  0.43686  1.0000
  C   C523      1.0  0.12889  0.76815  0.42380  1.0000
  C   C524      1.0  0.14030  0.75126  0.42941  1.0000
  C   C525      1.0  0.14036  0.74447  0.44809  1.0000
  C   C526      1.0  0.12887  0.75435  0.46111  1.0000
  H   H625      1.0  0.10933  0.79156  0.43247  1.0000
  H   H626      1.0  0.12894  0.77347  0.40933  1.0000
  H   H627      1.0  0.14886  0.73132  0.45254  1.0000
  C   C527      1.0  0.00591  0.52241  0.26839  1.0000
  C   C528      1.0  0.09901  0.87400  0.44265  1.0000
  S   S158      1.0  0.31601  0.80244  0.46510  1.0000
  C   C529      1.0  0.13507  0.49280  0.30422  1.0000
  Fe  Fe84      1.0  0.08516  0.56768  0.27447  1.0000
  C   C530      1.0  0.12303  0.88966  0.44246  1.0000
  C   C531      1.0  0.10526  0.89031  0.44016  1.0000
  H   H628      1.0  0.11968  0.90922  0.47576  1.0000
  C   C532      1.0  0.26506  0.51698  0.27460  1.0000
  H   H629      1.0  0.12778  0.90226  0.44051  1.0000
  H   H630      1.0  0.09631  0.90345  0.43657  1.0000
  H   H631      1.0  0.23415  0.49866  0.31079  1.0000
  C   C533      1.0  0.18855  0.49162  0.39655  1.0000
  S   S159      1.0  0.30453  0.76540  0.46020  1.0000
  C   C534      1.0  0.00117  0.81681  0.44884  1.0000
  H   H632      1.0  0.15338  0.52297  0.29760  1.0000
  H   H633      1.0  0.08358  0.78161  0.42618  1.0000
  S   S160      1.0  0.06585  0.58968  0.25921  1.0000
  H   H634      1.0  0.00253  0.84547  0.44227  1.0000
  H   H635      1.0  0.07505  0.87919  0.47849  1.0000
  H   H636      1.0  0.05751  0.75632  0.46770  1.0000
  C   C535      1.0  0.11385  0.57587  0.29864  1.0000
  C   C536      1.0  0.11626  0.58232  0.31317  1.0000
  C   C537      1.0  0.13257  0.58790  0.31213  1.0000
  C   C538      1.0  0.14652  0.58718  0.29648  1.0000
  C   C539      1.0  0.14427  0.58042  0.28207  1.0000
  C   C540      1.0  0.12805  0.57459  0.28321  1.0000
  H   H637      1.0  0.10536  0.58325  0.32518  1.0000
  H   H638      1.0  0.13407  0.59328  0.32323  1.0000
  H   H639      1.0  0.15501  0.57987  0.26996  1.0000
  H   H640      1.0  0.12646  0.56937  0.27206  1.0000
  S   S161      1.0  0.10549  0.56118  0.24938  1.0000
  H   H641      1.0  0.11734  0.63909  0.27434  1.0000
  H   H642      1.0  0.22460  0.74412  0.47953  1.0000
  C   C541      1.0  0.19951  0.98414  0.45872  1.0000
  C   C542      1.0  0.24735  0.96631  0.44971  1.0000
  H   H643      1.0  0.22126  0.56146  0.27263  1.0000
  C   C543      1.0  0.31102  0.63389  0.24429  1.0000
  H   H644      1.0  0.22983  0.62275  0.26987  1.0000
  H   H645      1.0  0.29352  0.64669  0.27496  1.0000
  C   C544      1.0  0.24255  0.52358  0.30790  1.0000
  H   H646      1.0  0.27730  0.70326  0.45074  1.0000
  H   H647      1.0  0.11101  0.54168  0.35295  1.0000
  H   H648      1.0  0.17492  0.81469  0.42126  1.0000
  C   C545      1.0  0.16326  0.61444  0.24124  1.0000
  C   C546      1.0  0.12842  0.85642  0.44928  1.0000
  C   C547      1.0  0.10617  0.72524  0.41948  1.0000
  N   N31       1.0  0.02251  0.51262  0.25747  1.0000
  H   H649      1.0  0.18986  0.78182  0.42316  1.0000
  H   H650      1.0  0.11642  0.61498  0.28208  1.0000
  S   S162      1.0  0.02188  0.56723  0.26893  1.0000
  H   H651      1.0  0.30363  0.62268  0.24599  1.0000
  C   C548      1.0  0.23915  0.97069  0.43444  1.0000
  H   H652      1.0  0.06607  0.77187  0.40918  1.0000
  H   H653      1.0  0.23608  0.79130  0.43781  1.0000
  H   H654      1.0  0.29789  0.72185  0.45380  1.0000
  H   H655      1.0  0.17276  0.56293  0.24677  1.0000
  C   C549      1.0  0.23576  0.95674  0.42737  1.0000
  H   H656      1.0  0.27393  0.51524  0.26155  1.0000
  H   H657      1.0  0.23495  0.95751  0.38313  1.0000
  H   H658      1.0  0.22030  0.77044  0.43161  1.0000
  H   H659      1.0  0.16522  0.75043  0.46884  1.0000
  H   H660      1.0  0.99624  0.53128  0.25958  1.0000
  H   H661      1.0  0.19173  0.95802  0.46457  1.0000
  H   H662      1.0  0.11236  0.72050  0.40674  1.0000
  C   C550      1.0  0.11480  0.52696  0.33138  1.0000
  C   C551      1.0  0.03216  0.52644  0.24390  1.0000
  N   N32       1.0  0.12140  0.51028  0.30493  1.0000
  C   C552      1.0  0.09961  0.61335  0.25614  1.0000
  C   C553      1.0  0.19829  0.56953  0.24722  1.0000
  H   H663      1.0  0.00936  0.53156  0.27562  1.0000
  C   C554      1.0  0.12655  0.52123  0.31544  1.0000
  C   C555      1.0  0.14375  0.52674  0.30960  1.0000
  N   N33       1.0  0.11086  0.62685  0.25497  1.0000
  C   C556      1.0  0.14884  0.53731  0.31909  1.0000
  H   H664      1.0  0.08589  0.61618  0.26527  1.0000
  C   C557      1.0  0.13716  0.54243  0.33481  1.0000
  H   H665      1.0  0.09583  0.63196  0.28170  1.0000
  H   H666      1.0  0.11394  0.71885  0.46233  1.0000
  H   H667      1.0  0.30755  0.63054  0.28980  1.0000
  H   H668      1.0  0.00815  0.51160  0.23709  1.0000
  H   H669      1.0  0.24030  0.92690  0.43112  1.0000
  H   H670      1.0  0.08705  0.74371  0.46437  1.0000
  H   H671      1.0  0.27365  0.54211  0.27281  1.0000
  H   H672      1.0  0.02852  0.49425  0.23875  1.0000
  C   C558      1.0  0.24608  0.49382  0.26136  1.0000
  N   N34       1.0  0.22917  0.57728  0.24533  1.0000
  C   C559      1.0  0.11018  0.62830  0.27405  1.0000
  H   H673      1.0  0.16194  0.54153  0.31433  1.0000
  H   H674      1.0  0.23381  0.52627  0.32084  1.0000
  H   H675      1.0  0.14125  0.55050  0.34220  1.0000
  C   C560      1.0  0.22361  0.57550  0.26559  1.0000
  C   C561      1.0  0.03453  0.50073  0.27003  1.0000
  C   C562      1.0  0.18063  0.49089  0.32963  1.0000
  H   H676      1.0  0.26353  0.59386  0.37405  1.0000
  C   C563      1.0  0.13461  0.87266  0.44706  1.0000
  C   C564      1.0  0.04341  0.50865  0.27925  1.0000
  H   H677      1.0  0.02396  0.53473  0.23348  1.0000
  C   C565      1.0  0.24986  0.93402  0.45141  1.0000
  C   C566      1.0  0.25254  0.94804  0.45828  1.0000
  H   H678      1.0  0.17516  0.61285  0.24706  1.0000
  C   C567      1.0  0.10226  0.64505  0.24526  1.0000
  N   N35       1.0  0.22703  0.96083  0.41127  1.0000
  N   N36       1.0  0.31859  0.63225  0.26073  1.0000
  Fe  Fe85      1.0  0.08861  0.54121  0.25012  1.0000
  H   H679      1.0  0.13742  0.84323  0.45251  1.0000
  H   H680      1.0  0.10630  0.84444  0.44842  1.0000
  N   N37       1.0  0.06653  0.76162  0.43804  1.0000
  C   C568      1.0  0.07292  0.77804  0.43857  1.0000
  C   C569      1.0  0.05713  0.76644  0.42226  1.0000
  C   C570      1.0  0.05261  0.75732  0.45502  1.0000
  C   C571      1.0  0.08251  0.74611  0.43683  1.0000
  C   C572      1.0  0.09038  0.73914  0.42050  1.0000
  C   C573      1.0  0.09151  0.73840  0.45188  1.0000
  S   S163      1.0  0.06981  0.56061  0.23249  1.0000
  H   H681      1.0  0.18737  0.66437  0.47989  1.0000
  Fe  Fe86      1.0  0.08084  0.80685  0.46549  1.0000
  Fe  Fe87      1.0  0.17340  0.93304  0.45099  1.0000
  H   H682      1.0  0.24252  0.59944  0.24334  1.0000
  C   C574      1.0  0.26485  0.53261  0.28086  1.0000
  H   H683      1.0  0.15252  0.50315  0.36852  1.0000
  H   H684      1.0  0.11141  0.53449  0.28611  1.0000
  C   C575      1.0  0.10706  0.72426  0.45081  1.0000
  H   H685      1.0  0.11636  0.51353  0.27780  1.0000
  C   C576      1.0  0.18013  0.77421  0.47888  1.0000
  H   H686      1.0  0.25348  0.54805  0.30234  1.0000
  C   C577      1.0  0.21954  0.98074  0.40525  1.0000
  C   C578      1.0  0.23230  0.59623  0.23730  1.0000
  C   C579      1.0  0.25848  0.61026  0.26807  1.0000
  H   H687      1.0  0.21939  0.60663  0.23975  1.0000
  C   C580      1.0  0.21544  0.57371  0.23690  1.0000
  C   C581      1.0  0.10308  0.50546  0.31286  1.0000
  S   S164      1.0  0.15690  0.87079  0.45024  1.0000
  S   S165      1.0  0.10377  0.78319  0.47246  1.0000
  H   H688      1.0  0.23165  0.50138  0.26469  1.0000
  S   S166      1.0  0.16178  0.96367  0.44552  1.0000
  H   H689      1.0  0.11053  0.65556  0.24364  1.0000
  S   S167      1.0  0.10135  0.51233  0.24752  1.0000
  N   N38       1.0  0.22405  0.63930  0.34031  1.0000
  C   C582      1.0  0.23003  0.62815  0.32585  1.0000
  C   C583      1.0  0.20413  0.64022  0.34734  1.0000
  C   C584      1.0  0.22720  0.65813  0.33144  1.0000
  C   C585      1.0  0.23370  0.63164  0.35585  1.0000
  C   C586      1.0  0.23061  0.64148  0.37003  1.0000
  C   C587      1.0  0.24581  0.61414  0.35776  1.0000
  C   C588      1.0  0.23948  0.63456  0.38488  1.0000
  C   C589      1.0  0.25450  0.60729  0.37277  1.0000
  C   C590      1.0  0.25139  0.61750  0.38625  1.0000
  H   H690      1.0  0.22285  0.63440  0.31416  1.0000
  H   H691      1.0  0.24502  0.62660  0.32010  1.0000
  H   H692      1.0  0.22678  0.61420  0.33127  1.0000
  H   H693      1.0  0.20136  0.62633  0.35443  1.0000
  H   H694      1.0  0.19616  0.64542  0.33618  1.0000
  H   H695      1.0  0.19823  0.64933  0.35744  1.0000
  H   H696      1.0  0.22094  0.66808  0.34067  1.0000
  H   H697      1.0  0.24214  0.65819  0.32718  1.0000
  H   H698      1.0  0.22100  0.66381  0.31903  1.0000
  H   H699      1.0  0.22090  0.65443  0.37008  1.0000
  H   H700      1.0  0.24861  0.60532  0.34803  1.0000
  H   H701      1.0  0.23662  0.64227  0.39567  1.0000
  C   C591      1.0  0.27618  0.70673  0.46386  1.0000
  H   H702      1.0  0.25797  0.61207  0.39796  1.0000
  N   N39       1.0  0.22525  0.82871  0.43534  1.0000
  C   C592      1.0  0.22838  0.82347  0.45442  1.0000
  C   C593      1.0  0.24328  0.82753  0.42240  1.0000
  C   C594      1.0  0.21563  0.84830  0.43225  1.0000
  C   C595      1.0  0.21498  0.81604  0.43258  1.0000
  C   C596      1.0  0.19723  0.82205  0.42816  1.0000
  C   C597      1.0  0.22278  0.79698  0.43418  1.0000
  C   C598      1.0  0.18829  0.80975  0.42495  1.0000
  C   C599      1.0  0.21378  0.78485  0.43082  1.0000
  C   C600      1.0  0.19664  0.79124  0.42606  1.0000
  H   H703      1.0  0.23652  0.80924  0.45755  1.0000
  H   H704      1.0  0.23612  0.83274  0.45698  1.0000
  C   C601      1.0  0.12971  0.62124  0.24460  1.0000
  H   H705      1.0  0.25224  0.81366  0.42477  1.0000
  H   H706      1.0  0.25119  0.83730  0.42371  1.0000
  H   H707      1.0  0.24155  0.83080  0.40790  1.0000
  H   H708      1.0  0.21329  0.85338  0.41794  1.0000
  H   H709      1.0  0.20218  0.85048  0.44194  1.0000
  H   H710      1.0  0.22377  0.85748  0.43429  1.0000
  H   H711      1.0  0.19000  0.83622  0.42686  1.0000
  Fe  Fe88      1.0  0.27522  0.77892  0.46960  1.0000
  H   H712      1.0  0.28582  0.59539  0.27049  1.0000
  H   H713      1.0  0.00765  0.49277  0.25607  1.0000
  Fe  Fe89      1.0  0.18641  0.69860  0.46265  1.0000
  C   C602      1.0  0.21751  0.63730  0.47521  1.0000
  S   S168      1.0  0.32081  0.80232  0.41332  1.0000
  H   H714      1.0  0.06149  0.79019  0.43903  1.0000
  H   H715      1.0  0.25289  0.96099  0.39229  1.0000
  C   C603      1.0  0.21157  0.95112  0.41554  1.0000
  S   S169      1.0  0.05263  0.80229  0.47944  1.0000
  C   C604      1.0  0.11448  0.71781  0.43459  1.0000
  H   H716      1.0  0.22260  0.64950  0.47559  1.0000
  H   H717      1.0  0.07895  0.77598  0.45083  1.0000
  H   H718      1.0  0.20386  0.95497  0.40422  1.0000
  H   H719      1.0  0.25860  0.94477  0.47030  1.0000
  C   C605      1.0  0.08138  0.48967  0.24336  1.0000
  H   H720      1.0  0.10246  0.49705  0.32705  1.0000
  Fe  Fe90      1.0  0.16831  0.89469  0.45161  1.0000
  C   C606      1.0  0.24180  0.93826  0.43607  1.0000
  H   H721      1.0  0.03994  0.76833  0.45554  1.0000
  C   C607      1.0  0.18883  0.97222  0.45777  1.0000
  S   S170      1.0  0.30935  0.58515  0.23862  1.0000
  H   H722      1.0  0.04469  0.77761  0.42404  1.0000
  H   H723      1.0  0.03501  0.53656  0.25029  1.0000
  S   S171      1.0  0.20048  0.92263  0.45959  1.0000
  H   H724      1.0  0.30084  0.64693  0.24161  1.0000
  H   H725      1.0  0.25394  0.91977  0.45803  1.0000
  H   H726      1.0  0.21095  0.58575  0.26957  1.0000
  S   S172      1.0  0.19512  0.88172  0.46025  1.0000
  H   H727      1.0  0.21515  0.82414  0.46455  1.0000
  H   H728      1.0  0.99845  0.51258  0.27907  1.0000
  C   C608      1.0  0.24286  0.50773  0.30189  1.0000
  H   H729      1.0  0.12706  0.70749  0.43351  1.0000
  H   H730      1.0  0.19409  0.56900  0.26185  1.0000
  C   C609      1.0  0.12100  0.52092  0.28595  1.0000
  H   H731      1.0  0.06168  0.50408  0.29779  1.0000
  H   H732      1.0  0.25745  0.56627  0.24780  1.0000
  H   H733      1.0  0.19007  0.50426  0.39931  1.0000
  H   H734      1.0  0.29479  0.62244  0.27811  1.0000
  C   C610      1.0  0.26406  0.85582  0.46598  1.0000
  S   S173      1.0  0.26498  0.62341  0.24613  1.0000
  H   H735      1.0  0.24506  0.54962  0.24704  1.0000
  H   H736      1.0  0.21232  0.98339  0.39370  1.0000
  C   C611      1.0  0.24971  0.87010  0.47085  1.0000
  H   H737      1.0  0.21614  0.63852  0.46082  1.0000
  C   C612      1.0  0.01356  0.57452  0.23447  1.0000
  S   S174      1.0  0.15915  0.91247  0.47274  1.0000
  S   S175      1.0  0.07779  0.83151  0.47710  1.0000
  H   H738      1.0  0.19428  0.61595  0.47674  1.0000
  Fe  Fe91      1.0  0.18700  0.90081  0.47952  1.0000
  H   H739      1.0  0.09980  0.49702  0.30471  1.0000
  C   C613      1.0  0.17435  0.97877  0.44837  1.0000
  H   H740      1.0  0.10642  0.59914  0.26165  1.0000
  H   H741      1.0  0.24924  0.97727  0.45516  1.0000
  H   H742      1.0  0.19355  0.76505  0.48074  1.0000
  H   H743      1.0  0.21064  0.97887  0.46605  1.0000
  H   H744      1.0  0.18040  0.77760  0.46386  1.0000
  C   C614      1.0  0.05472  0.49771  0.29125  1.0000
  C   C615      1.0  0.99361  0.83566  0.44637  1.0000
  C   C616      1.0  0.08836  0.50564  0.23572  1.0000
  H   H745      1.0  0.20690  0.49472  0.37037  1.0000
  H   H746      1.0  0.12859  0.74874  0.47557  1.0000
  C   C617      1.0  0.28771  0.71728  0.46559  1.0000
  S   S176      1.0  0.24945  0.76758  0.47587  1.0000
  H   H747      1.0  0.09965  0.88867  0.47747  1.0000
  C   C618      1.0  0.18578  0.56608  0.23872  1.0000
  H   H748      1.0  0.09694  0.61338  0.24260  1.0000
  H   H749      1.0  0.25393  0.69289  0.47745  1.0000
  C   C619      1.0  0.18530  0.65034  0.48074  1.0000
  C   C620      1.0  0.26297  0.70098  0.47889  1.0000
  H   H750      1.0  0.32375  0.66307  0.23198  1.0000
  Fe  Fe92      1.0  0.11239  0.82454  0.56314  1.0000
  S   S177      1.0  0.09713  0.85368  0.56079  1.0000
  S   S178      1.0  0.11482  0.80893  0.54155  1.0000
  Fe  Fe93      1.0  0.12050  0.82284  0.59977  1.0000
  S   S179      1.0  0.10519  0.85177  0.60120  1.0000
  S   S180      1.0  0.13829  0.80537  0.61933  1.0000
  Fe  Fe94      1.0  0.08409  0.84438  0.59017  1.0000
  Fe  Fe95      1.0  0.11948  0.85838  0.57174  1.0000
  S   S181      1.0  0.13223  0.88293  0.55737  1.0000
  S   S182      1.0  0.09799  0.81478  0.59175  1.0000
  S   S183      1.0  0.13618  0.82997  0.57107  1.0000
  Fe  Fe96      1.0  0.19202  0.93073  0.58968  1.0000
  S   S184      1.0  0.22148  0.91841  0.58016  1.0000
  S   S185      1.0  0.17410  0.90987  0.60364  1.0000
  Fe  Fe97      1.0  0.20017  0.96975  0.58075  1.0000
  S   S186      1.0  0.23028  0.96005  0.57063  1.0000
  C   C621      1.0  0.21649  0.62718  0.51486  1.0000
  Fe  Fe98      1.0  0.22091  0.94264  0.55687  1.0000
  S   S187      1.0  0.23403  0.93843  0.52841  1.0000
  Fe  Fe99      1.0  0.22768  0.93676  0.59504  1.0000
  S   S188      1.0  0.24726  0.92400  0.61410  1.0000
  S   S189      1.0  0.19077  0.95391  0.56504  1.0000
  S   S190      1.0  0.19827  0.94760  0.60639  1.0000
  H   H751      1.0  0.99395  0.84050  0.60036  1.0000
  C   C622      1.0  0.23638  0.97269  0.63903  1.0000
  Fe  Fe100     1.0  0.22350  0.58154  0.70095  1.0000
  H   H752      1.0  0.27914  0.83289  0.54240  1.0000
  S   S191      1.0  0.22438  0.59327  0.67063  1.0000
  H   H753      1.0  0.01279  0.76931  0.58500  1.0000
  C   C623      1.0  0.04437  0.82024  0.60601  1.0000
  H   H754      1.0  0.24079  0.72018  0.52590  1.0000
  S   S192      1.0  0.24090  0.55571  0.71418  1.0000
  H   H755      1.0  0.26414  0.85229  0.53129  1.0000
  Fe  Fe101     1.0  0.19913  0.71607  0.59345  1.0000
  S   S193      1.0  0.20965  0.68565  0.59541  1.0000
  S   S194      1.0  0.16877  0.72718  0.59825  1.0000
  Fe  Fe102     1.0  0.23692  0.72539  0.57965  1.0000
  S   S195      1.0  0.25067  0.69578  0.58046  1.0000
  S   S196      1.0  0.25352  0.74755  0.56637  1.0000
  Fe  Fe103     1.0  0.22776  0.69408  0.56812  1.0000
  S   S197      1.0  0.23447  0.68073  0.54357  1.0000
  Fe  Fe104     1.0  0.23145  0.68989  0.60770  1.0000
  S   S198      1.0  0.24198  0.67259  0.63307  1.0000
  S   S199      1.0  0.21555  0.72408  0.56523  1.0000
  S   S200      1.0  0.21941  0.71988  0.60789  1.0000
  Fe  Fe105     1.0  0.31103  0.83650  0.59099  1.0000
  S   S201      1.0  0.29629  0.82735  0.61974  1.0000
  S   S202      1.0  0.30733  0.86556  0.57496  1.0000
  H   H756      1.0  0.15178  0.81383  0.52485  1.0000
  H   H757      1.0  0.00386  0.84705  0.51263  1.0000
  H   H758      1.0  0.27650  0.87464  0.53974  1.0000
  Fe  Fe106     1.0  0.29074  0.80536  0.60869  1.0000
  S   S203      1.0  0.26325  0.79708  0.61620  1.0000
  C   C624      1.0  0.18049  0.62788  0.68901  1.0000
  C   C625      1.0  0.01468  0.76950  0.57008  1.0000
  S   S204      1.0  0.30302  0.81630  0.57953  1.0000
  H   H759      1.0  0.05341  0.85908  0.65494  1.0000
  C   C626      1.0  0.20614  0.97180  0.63687  1.0000
  H   H760      1.0  0.16817  0.62734  0.68432  1.0000
  H   H761      1.0  0.05207  0.79774  0.66159  1.0000
  H   H762      1.0  0.03252  0.76884  0.53597  1.0000
  C   C627      1.0  0.21804  0.49713  0.69742  1.0000
  C   C628      1.0  0.23387  0.80797  0.54383  1.0000
  C   C629      1.0  0.08774  0.88660  0.50669  1.0000
  H   H763      1.0  0.30791  0.78536  0.52337  1.0000
  H   H764      1.0  0.22304  0.98109  0.51275  1.0000
  H   H765      1.0  0.13055  0.85557  0.49072  1.0000
  N   N40       1.0  0.26914  0.72308  0.51539  1.0000
  H   H766      1.0  0.23223  0.97621  0.65288  1.0000
  C   C630      1.0  0.18386  0.82752  0.57868  1.0000
  C   C631      1.0  0.19531  0.85532  0.57213  1.0000
  C   C632      1.0  0.21825  0.68660  0.52937  1.0000
  C   C633      1.0  0.22334  0.68144  0.51226  1.0000
  C   C634      1.0  0.21077  0.68596  0.50060  1.0000
  C   C635      1.0  0.18763  0.70016  0.52344  1.0000
  C   C636      1.0  0.20039  0.69610  0.53489  1.0000
  H   H767      1.0  0.23706  0.67383  0.50804  1.0000
  H   H768      1.0  0.17368  0.70706  0.52800  1.0000
  H   H769      1.0  0.19627  0.69988  0.54819  1.0000
  C   C637      1.0  0.25473  0.76245  0.57983  1.0000
  C   C638      1.0  0.24477  0.76155  0.59787  1.0000
  C   C639      1.0  0.24708  0.77264  0.60877  1.0000
  C   C640      1.0  0.25957  0.78443  0.60178  1.0000
  C   C641      1.0  0.26915  0.78569  0.58356  1.0000
  C   C642      1.0  0.26664  0.77482  0.57259  1.0000
  H   H770      1.0  0.23550  0.75212  0.60356  1.0000
  H   H771      1.0  0.23959  0.77163  0.62283  1.0000
  H   H772      1.0  0.27865  0.79485  0.57795  1.0000
  H   H773      1.0  0.27436  0.77563  0.55861  1.0000
  H   H774      1.0  0.16157  0.66577  0.70761  1.0000
  C   C643      1.0  0.30714  0.68394  0.61509  1.0000
  H   H775      1.0  0.06170  0.85666  0.63129  1.0000
  H   H776      1.0  0.27868  0.83556  0.51875  1.0000
  C   C644      1.0  0.30762  0.73765  0.56949  1.0000
  C   C645      1.0  0.22934  0.61533  0.66040  1.0000
  C   C646      1.0  0.23846  0.62372  0.66852  1.0000
  C   C647      1.0  0.24225  0.64127  0.65997  1.0000
  C   C648      1.0  0.23684  0.65061  0.64334  1.0000
  C   C649      1.0  0.22753  0.64232  0.63533  1.0000
  C   C650      1.0  0.22392  0.62469  0.64377  1.0000
  H   H777      1.0  0.24285  0.61658  0.68122  1.0000
  H   H778      1.0  0.24949  0.64759  0.66623  1.0000
  H   H779      1.0  0.22330  0.64938  0.62253  1.0000
  H   H780      1.0  0.21688  0.61828  0.63739  1.0000
  C   C651      1.0  0.18003  0.96115  0.50800  1.0000
  C   C652      1.0  0.26457  0.90805  0.60343  1.0000
  C   C653      1.0  0.27410  0.89268  0.61397  1.0000
  C   C654      1.0  0.28713  0.87936  0.60537  1.0000
  C   C655      1.0  0.29093  0.88170  0.58622  1.0000
  C   C656      1.0  0.28161  0.89724  0.57572  1.0000
  C   C657      1.0  0.26830  0.91027  0.58432  1.0000
  H   H781      1.0  0.27129  0.89096  0.62875  1.0000
  H   H782      1.0  0.29456  0.86757  0.61351  1.0000
  H   H783      1.0  0.28462  0.89920  0.56090  1.0000
  H   H784      1.0  0.26113  0.92220  0.57607  1.0000
  H   H785      1.0  0.05190  0.86365  0.52449  1.0000
  H   H786      1.0  0.03590  0.79412  0.61560  1.0000
  S   S205      1.0  0.22426  0.59802  0.72083  1.0000
  S   S206      1.0  0.05348  0.85444  0.59752  1.0000
  S   S207      1.0  0.03900  0.82988  0.51863  1.0000
  C   C658      1.0  0.20412  0.90149  0.51409  1.0000
  C   C659      1.0  0.22727  0.92021  0.50537  1.0000
  C   C660      1.0  0.22299  0.92368  0.52311  1.0000
  C   C661      1.0  0.20959  0.91563  0.53646  1.0000
  C   C662      1.0  0.20037  0.90434  0.53200  1.0000
  H   H787      1.0  0.20603  0.91834  0.55013  1.0000
  H   H788      1.0  0.18984  0.89840  0.54223  1.0000
  C   C663      1.0  0.14716  0.78369  0.61337  1.0000
  C   C664      1.0  0.16457  0.77379  0.61623  1.0000
  C   C665      1.0  0.17162  0.75657  0.61122  1.0000
  C   C666      1.0  0.16105  0.74906  0.60379  1.0000
  C   C667      1.0  0.14367  0.75895  0.60104  1.0000
  C   C668      1.0  0.13685  0.77628  0.60561  1.0000
  H   H789      1.0  0.17261  0.77943  0.62225  1.0000
  H   H790      1.0  0.18500  0.74894  0.61350  1.0000
  H   H791      1.0  0.13541  0.75316  0.59540  1.0000
  H   H792      1.0  0.12336  0.78360  0.60362  1.0000
  C   C669      1.0  0.14385  0.89038  0.57027  1.0000
  C   C670      1.0  0.14404  0.88195  0.58866  1.0000
  C   C671      1.0  0.15329  0.88813  0.59874  1.0000
  C   C672      1.0  0.16265  0.90259  0.59046  1.0000
  C   C673      1.0  0.16271  0.91084  0.57200  1.0000
  C   C674      1.0  0.15327  0.90478  0.56196  1.0000
  H   H793      1.0  0.13684  0.87084  0.59520  1.0000
  H   H794      1.0  0.15304  0.88184  0.61306  1.0000
  H   H795      1.0  0.16986  0.92201  0.56550  1.0000
  H   H796      1.0  0.15329  0.91129  0.54770  1.0000
  H   H797      1.0  0.05826  0.81447  0.60784  1.0000
  C   C675      1.0  0.05833  0.81997  0.52845  1.0000
  C   C676      1.0  0.07285  0.80799  0.51974  1.0000
  C   C677      1.0  0.09009  0.80376  0.52443  1.0000
  C   C678      1.0  0.09264  0.81115  0.53818  1.0000
  C   C679      1.0  0.07761  0.82158  0.54818  1.0000
  C   C680      1.0  0.06043  0.82603  0.54330  1.0000
  H   H798      1.0  0.07114  0.80263  0.50874  1.0000
  H   H799      1.0  0.10154  0.79539  0.51686  1.0000
  H   H800      1.0  0.07922  0.82666  0.55938  1.0000
  H   H801      1.0  0.04910  0.83490  0.55044  1.0000
  S   S208      1.0  0.19119  0.88886  0.50830  1.0000
  H   H802      1.0  0.24018  0.84735  0.51297  1.0000
  C   C681      1.0  0.09942  0.89280  0.48992  1.0000
  C   C682      1.0  0.32321  0.83790  0.53380  1.0000
  H   H803      1.0  0.18273  0.86121  0.58139  1.0000
  H   H804      1.0  0.19599  0.65785  0.70394  1.0000
  N   N41       1.0  0.19989  0.63601  0.48857  1.0000
  H   H805      1.0  0.03796  0.79129  0.53019  1.0000
  H   H806      1.0  0.20604  0.66823  0.67265  1.0000
  H   H807      1.0  0.08328  0.74315  0.56015  1.0000
  C   C683      1.0  0.04455  0.77732  0.56360  1.0000
  C   C684      1.0  0.01339  0.83744  0.64580  1.0000
  C   C685      1.0  0.31508  0.69904  0.60534  1.0000
  C   C686      1.0  0.11120  0.90437  0.48887  1.0000
  H   H808      1.0  0.01281  0.80193  0.57669  1.0000
  Fe  Fe107     1.0  0.04897  0.82819  0.48907  1.0000
  H   H809      1.0  0.05246  0.75178  0.55346  1.0000
  C   C687      1.0  0.28486  0.71722  0.60236  1.0000
  H   H810      1.0  0.27562  0.72969  0.59756  1.0000
  H   H811      1.0  0.12163  0.91825  0.50385  1.0000
  C   C688      1.0  0.22314  0.83495  0.61476  1.0000
  C   C689      1.0  0.21142  0.82285  0.61738  1.0000
  C   C690      1.0  0.19251  0.82872  0.62246  1.0000
  H   H812      1.0  0.25211  0.86509  0.62756  1.0000
  H   H813      1.0  0.25220  0.84354  0.62310  1.0000
  H   H814      1.0  0.23766  0.82981  0.61069  1.0000
  H   H815      1.0  0.21716  0.80877  0.61573  1.0000
  H   H816      1.0  0.18342  0.81926  0.62475  1.0000
  C   C691      1.0  0.05100  0.78797  0.57232  1.0000
  H   H817      1.0  0.01609  0.86110  0.59362  1.0000
  C   C692      1.0  0.06167  0.87203  0.52481  1.0000
  C   C693      1.0  0.16640  0.74802  0.48343  1.0000
  C   C694      1.0  0.19569  0.64458  0.70082  1.0000
  C   C695      1.0  0.18009  0.65996  0.67467  1.0000
  C   C696      1.0  0.19416  0.67027  0.66677  1.0000
  C   C697      1.0  0.16563  0.66351  0.66506  1.0000
  C   C698      1.0  0.19342  0.68358  0.65056  1.0000
  C   C699      1.0  0.16508  0.67682  0.64882  1.0000
  C   C700      1.0  0.17890  0.68691  0.64165  1.0000
  C   C701      1.0  0.07720  0.82130  0.63809  1.0000
  H   H818      1.0  0.07820  0.80617  0.64175  1.0000
  H   H819      1.0  0.18243  0.61634  0.50012  1.0000
  H   H820      1.0  0.04285  0.80070  0.57590  1.0000
  H   H821      1.0  0.28203  0.67379  0.62604  1.0000
  H   H822      1.0  0.22118  0.90655  0.48718  1.0000
  H   H823      1.0  0.31335  0.74975  0.56102  1.0000
  C   C702      1.0  0.27710  0.70210  0.61220  1.0000
  H   H824      1.0  0.25079  0.70103  0.50696  1.0000
  N   N42       1.0  0.02620  0.78278  0.55876  1.0000
  H   H825      1.0  0.15462  0.65602  0.67005  1.0000
  H   H826      1.0  0.20432  0.69125  0.64475  1.0000
  H   H827      1.0  0.15393  0.67938  0.64168  1.0000
  H   H828      1.0  0.17843  0.69724  0.62908  1.0000
  H   H829      1.0  0.22003  0.50178  0.68266  1.0000
  C   C703      1.0  0.05658  0.76079  0.55968  1.0000
  H   H830      1.0  0.31334  0.72616  0.56200  1.0000
  H   H831      1.0  0.17090  0.83379  0.58725  1.0000
  H   H832      1.0  0.05840  0.89479  0.49129  1.0000
  C   C704      1.0  0.07420  0.75566  0.56357  1.0000
  C   C705      1.0  0.19072  0.65220  0.53382  1.0000
  H   H833      1.0  0.19338  0.82038  0.58818  1.0000
  C   C706      1.0  0.30410  0.71623  0.59869  1.0000
  H   H834      1.0  0.21777  0.98287  0.60125  1.0000
  H   H835      1.0  0.06918  0.80905  0.67419  1.0000
  H   H836      1.0  0.19500  0.63435  0.71408  1.0000
  H   H837      1.0  0.15683  0.49036  0.69589  1.0000
  H   H838      1.0  0.22931  0.87592  0.58720  1.0000
  H   H839      1.0  0.27320  0.71067  0.54291  1.0000
  C   C707      1.0  0.16747  0.50275  0.72053  1.0000
  C   C708      1.0  0.08741  0.85554  0.50627  1.0000
  C   C709      1.0  0.08925  0.89199  0.52254  1.0000
  C   C710      1.0  0.10148  0.90314  0.52145  1.0000
  H   H840      1.0  0.00299  0.80543  0.55717  1.0000
  H   H841      1.0  0.30075  0.87258  0.53617  1.0000
  C   C711      1.0  0.21780  0.90917  0.50086  1.0000
  H   H842      1.0  0.18134  0.61703  0.70173  1.0000
  H   H843      1.0  0.02258  0.79133  0.66150  1.0000
  H   H844      1.0  0.07411  0.82614  0.62409  1.0000
  N   N43       1.0  0.16441  0.76550  0.48935  1.0000
  H   H845      1.0  0.17841  0.78964  0.53066  1.0000
  H   H846      1.0  0.00266  0.84822  0.64063  1.0000
  C   C712      1.0  0.01342  0.81593  0.60846  1.0000
  C   C713      1.0  0.16431  0.76171  0.50925  1.0000
  C   C714      1.0  0.14985  0.77018  0.52201  1.0000
  C   C715      1.0  0.17912  0.74921  0.51640  1.0000
  C   C716      1.0  0.15019  0.76602  0.54076  1.0000
  C   C717      1.0  0.17924  0.74513  0.53515  1.0000
  C   C718      1.0  0.16481  0.75347  0.54733  1.0000
  C   C719      1.0  0.14186  0.84440  0.49529  1.0000
  H   H847      1.0  0.10266  0.90686  0.53377  1.0000
  C   C720      1.0  0.28820  0.68549  0.61852  1.0000
  N   N44       1.0  0.29272  0.85397  0.52426  1.0000
  H   H848      1.0  0.99784  0.81632  0.65109  1.0000
  H   H849      1.0  0.15958  0.51701  0.71730  1.0000
  C   C721      1.0  0.04150  0.80922  0.65738  1.0000
  H   H850      1.0  0.03154  0.85558  0.64016  1.0000
  H   H851      1.0  0.13504  0.77206  0.49155  1.0000
  H   H852      1.0  0.13798  0.77993  0.51799  1.0000
  H   H853      1.0  0.19061  0.74223  0.50758  1.0000
  H   H854      1.0  0.13895  0.77247  0.55031  1.0000
  H   H855      1.0  0.19046  0.73519  0.54032  1.0000
  H   H856      1.0  0.16489  0.75008  0.56190  1.0000
  C   C722      1.0  0.22874  0.97768  0.60942  1.0000
  H   H857      1.0  0.31528  0.79385  0.54960  1.0000
  H   H858      1.0  0.02075  0.75526  0.56797  1.0000
  Fe  Fe108     1.0  0.21461  0.54836  0.73153  1.0000
  H   H859      1.0  0.16274  0.64219  0.71929  1.0000
  N   N45       1.0  0.15611  0.48865  0.72449  1.0000
  C   C723      1.0  0.02798  0.78283  0.53904  1.0000
  N   N46       1.0  0.19184  0.84154  0.56364  1.0000
  H   H860      1.0  0.30207  0.87524  0.50219  1.0000
  H   H861      1.0  0.23071  0.62160  0.53718  1.0000
  C   C724      1.0  0.02466  0.80537  0.65745  1.0000
  H   H862      1.0  0.27750  0.87770  0.50840  1.0000
  H   H863      1.0  0.07751  0.85315  0.64574  1.0000
  H   H864      1.0  0.02427  0.81206  0.55420  1.0000
  H   H865      1.0  0.20642  0.60633  0.49519  1.0000
  C   C725      1.0  0.21335  0.50387  0.72769  1.0000
  H   H866      1.0  0.05338  0.88568  0.52719  1.0000
  H   H867      1.0  0.17882  0.50123  0.70834  1.0000
  H   H868      1.0  0.14302  0.87864  0.49517  1.0000
  H   H869      1.0  0.19267  0.62381  0.67835  1.0000
  N   N47       1.0  0.17994  0.64628  0.69220  1.0000
  N   N48       1.0  0.31193  0.73247  0.58811  1.0000
  H   H870      1.0  0.21219  0.80489  0.56684  1.0000
  S   S209      1.0  0.17617  0.69908  0.49281  1.0000
  N   N49       1.0  0.15093  0.84993  0.50733  1.0000
  C   C726      1.0  0.14676  0.49165  0.70901  1.0000
  S   S210      1.0  0.31629  0.78536  0.61490  1.0000
  C   C727      1.0  0.15540  0.86818  0.49813  1.0000
  C   C728      1.0  0.16721  0.83552  0.51113  1.0000
  H   H871      1.0  0.17137  0.64914  0.48901  1.0000
  H   H872      1.0  0.09545  0.85033  0.51738  1.0000
  H   H873      1.0  0.23956  0.95739  0.64091  1.0000
  H   H874      1.0  0.18092  0.66217  0.54106  1.0000
  C   C729      1.0  0.13769  0.85233  0.52468  1.0000
  H   H875      1.0  0.28872  0.75212  0.59904  1.0000
  H   H876      1.0  0.19526  0.97631  0.62853  1.0000
  H   H877      1.0  0.20817  0.64427  0.55356  1.0000
  H   H878      1.0  0.16156  0.87354  0.50681  1.0000
  H   H879      1.0  0.18844  0.85218  0.49877  1.0000
  N   N50       1.0  0.07577  0.87392  0.50754  1.0000
  C   C730      1.0  0.11229  0.90948  0.50463  1.0000
  H   H880      1.0  0.28949  0.85538  0.55260  1.0000
  C   C731      1.0  0.27201  0.71735  0.49770  1.0000
  C   C732      1.0  0.06585  0.88025  0.49205  1.0000
  H   H881      1.0  0.05571  0.87167  0.49330  1.0000
  H   H882      1.0  0.12569  0.86368  0.52233  1.0000
  H   H883      1.0  0.14423  0.85586  0.53431  1.0000
  C   C733      1.0  0.00801  0.83478  0.60182  1.0000
  H   H884      1.0  0.20963  0.97892  0.53587  1.0000
  C   C734      1.0  0.06857  0.78264  0.57629  1.0000
  C   C735      1.0  0.29071  0.86751  0.50687  1.0000
  H   H885      1.0  0.19996  0.97430  0.65098  1.0000
  H   H886      1.0  0.13582  0.83207  0.50226  1.0000
  H   H887      1.0  0.24960  0.97700  0.63215  1.0000
  H   H888      1.0  0.08052  0.82758  0.67024  1.0000
  H   H889      1.0  0.08124  0.88769  0.53599  1.0000
  C   C736      1.0  0.04479  0.82742  0.65151  1.0000
  H   H890      1.0  0.15179  0.84126  0.48261  1.0000
  H   H891      1.0  0.26235  0.70322  0.61491  1.0000
  C   C737      1.0  0.02057  0.84642  0.59801  1.0000
  C   C738      1.0  0.14741  0.77794  0.48426  1.0000
  H   H892      1.0  0.20122  0.96221  0.52028  1.0000
  S   S211      1.0  0.99755  0.80122  0.61563  1.0000
  C   C739      1.0  0.03018  0.84146  0.64562  1.0000
  H   H893      1.0  0.15801  0.96351  0.49445  1.0000
  H   H894      1.0  0.26709  0.69600  0.53171  1.0000
  H   H895      1.0  0.24045  0.98442  0.60184  1.0000
  C   C740      1.0  0.19799  0.80698  0.51775  1.0000
  C   C741      1.0  0.18542  0.83879  0.50557  1.0000
  H   H896      1.0  0.23766  0.92632  0.49507  1.0000
  C   C742      1.0  0.16517  0.81736  0.52026  1.0000
  H   H897      1.0  0.17947  0.78715  0.48325  1.0000
  C   C743      1.0  0.19278  0.69508  0.50627  1.0000
  C   C744      1.0  0.19034  0.97058  0.51355  1.0000
  C   C745      1.0  0.32035  0.77828  0.52830  1.0000
  H   H898      1.0  0.24019  0.79345  0.54673  1.0000
  H   H899      1.0  0.20896  0.63970  0.69188  1.0000
  N   N51       1.0  0.06290  0.83104  0.65124  1.0000
  C   C746      1.0  0.24293  0.85592  0.62769  1.0000
  H   H900      1.0  0.00076  0.77316  0.56671  1.0000
  H   H901      1.0  0.21218  0.85987  0.53293  1.0000
  C   C747      1.0  0.21635  0.85317  0.61768  1.0000
  C   C748      1.0  0.18035  0.80338  0.52358  1.0000
  H   H902      1.0  0.29074  0.86099  0.49554  1.0000
  C   C749      1.0  0.18834  0.65018  0.51705  1.0000
  C   C750      1.0  0.28981  0.86457  0.53879  1.0000
  C   C751      1.0  0.18528  0.84682  0.62453  1.0000
  C   C752      1.0  0.23396  0.83830  0.52493  1.0000
  H   H903      1.0  0.21241  0.88103  0.63594  1.0000
  C   C753      1.0  0.20051  0.82463  0.50873  1.0000
  H   H904      1.0  0.18336  0.94624  0.51039  1.0000
  C   C754      1.0  0.31607  0.83102  0.50766  1.0000
  H   H905      1.0  0.23605  0.85147  0.64220  1.0000
  H   H906      1.0  0.20976  0.79608  0.52021  1.0000
  H   H907      1.0  0.21426  0.82740  0.50414  1.0000
  H   H908      1.0  0.31835  0.62897  0.71904  1.0000
  H   H909      1.0  0.32036  0.84473  0.54517  1.0000
  H   H910      1.0  0.07897  0.84532  0.50764  1.0000
  C   C755      1.0  0.03166  0.80869  0.61043  1.0000
  H   H911      1.0  0.25441  0.81431  0.51958  1.0000
  N   N52       1.0  0.22924  0.86524  0.61592  1.0000
  C   C756      1.0  0.30383  0.74819  0.59751  1.0000
  H   H912      1.0  0.05637  0.83046  0.68025  1.0000
  C   C757      1.0  0.21638  0.50968  0.70858  1.0000
  C   C758      1.0  0.16291  0.65160  0.70560  1.0000
  H   H913      1.0  0.13209  0.83982  0.53172  1.0000
  C   C759      1.0  0.03874  0.83922  0.60024  1.0000
  C   C760      1.0  0.22006  0.88307  0.62145  1.0000
  C   C761      1.0  0.19693  0.85896  0.62216  1.0000
  C   C762      1.0  0.21784  0.84530  0.53640  1.0000
  H   H914      1.0  0.17054  0.85143  0.62824  1.0000
  H   H915      1.0  0.17571  0.84127  0.54467  1.0000
  H   H916      1.0  0.23009  0.89174  0.62030  1.0000
  C   C763      1.0  0.16568  0.97083  0.49917  1.0000
  H   H917      1.0  0.16436  0.85575  0.56092  1.0000
  H   H918      1.0  0.21712  0.52388  0.70241  1.0000
  C   C764      1.0  0.24195  0.81967  0.52861  1.0000
  C   C765      1.0  0.20147  0.63791  0.50679  1.0000
  H   H919      1.0  0.07330  0.79121  0.58261  1.0000
  C   C766      1.0  0.08023  0.76665  0.57175  1.0000
  H   H920      1.0  0.27594  0.74959  0.50345  1.0000
  H   H921      1.0  0.20617  0.84910  0.58035  1.0000
  H   H922      1.0  0.30679  0.74489  0.61156  1.0000
  H   H923      1.0  0.27627  0.74226  0.52745  1.0000
  C   C767      1.0  0.27508  0.70689  0.52940  1.0000
  H   H924      1.0  0.21033  0.89143  0.61251  1.0000
  C   C768      1.0  0.17781  0.85078  0.55232  1.0000
  C   C769      1.0  0.24939  0.73078  0.52172  1.0000
  H   H925      1.0  0.19971  0.86722  0.56171  1.0000
  H   H926      1.0  0.09110  0.82369  0.63731  1.0000
  S   S212      1.0  0.28059  0.78699  0.49350  1.0000
  H   H927      1.0  0.29263  0.74140  0.56987  1.0000
  H   H928      1.0  0.01469  0.78863  0.53445  1.0000
  H   H929      1.0  0.29460  0.73217  0.51140  1.0000
  C   C770      1.0  0.31078  0.84122  0.52186  1.0000
  H   H930      1.0  0.24491  0.87132  0.48507  1.0000
  C   C771      1.0  0.01064  0.81945  0.65168  1.0000
  C   C772      1.0  0.27949  0.73738  0.51430  1.0000
  H   H931      1.0  0.28980  0.70062  0.52512  1.0000
  H   H932      1.0  0.09397  0.76280  0.57455  1.0000
  C   C773      1.0  0.23911  0.86924  0.59656  1.0000
  H   H933      1.0  0.24762  0.85659  0.59190  1.0000
  H   H934      1.0  0.19035  0.87275  0.62406  1.0000
  H   H935      1.0  0.18142  0.86320  0.54221  1.0000
  H   H936      1.0  0.21049  0.95662  0.63797  1.0000
  H   H937      1.0  0.30715  0.83239  0.49834  1.0000
  H   H938      1.0  0.24705  0.73688  0.53400  1.0000
  H   H939      1.0  0.06783  0.86477  0.53700  1.0000
  C   C774      1.0  0.06739  0.82423  0.66978  1.0000
  H   H940      1.0  0.09718  0.85564  0.49281  1.0000
  H   H941      1.0  0.30928  0.76075  0.58977  1.0000
  H   H942      1.0  0.17640  0.65890  0.51218  1.0000
  H   H943      1.0  0.24863  0.87869  0.59461  1.0000
  C   C775      1.0  0.20907  0.83376  0.55190  1.0000
  C   C776      1.0  0.21766  0.81480  0.55535  1.0000
  H   H944      1.0  0.18034  0.81704  0.57319  1.0000
  H   H945      1.0  0.99650  0.86354  0.48397  1.0000
  H   H946      1.0  0.24392  0.74176  0.51072  1.0000
  H   H947      1.0  0.15037  0.65113  0.70125  1.0000
  H   H948      1.0  0.22672  0.61715  0.50818  1.0000
  C   C777      1.0  0.01623  0.80136  0.56187  1.0000
  C   C778      1.0  0.20605  0.64210  0.54091  1.0000
  S   S213      1.0  0.19721  0.57258  0.71645  1.0000
  C   C779      1.0  0.06382  0.85086  0.64561  1.0000
  C   C780      1.0  0.27800  0.84324  0.52940  1.0000
  H   H949      1.0  0.29513  0.73065  0.48263  1.0000
  C   C781      1.0  0.21881  0.62946  0.53155  1.0000
  H   H950      1.0  0.23355  0.96272  0.60955  1.0000
  Fe  Fe109     1.0  0.31001  0.77568  0.48290  1.0000
  H   H951      1.0  0.17992  0.73869  0.48442  1.0000
  H   H952      1.0  0.13776  0.50551  0.70676  1.0000
  H   H953      1.0  0.00423  0.82938  0.49059  1.0000
  H   H954      1.0  0.21484  0.68183  0.48751  1.0000
  H   H955      1.0  0.31880  0.60732  0.71373  1.0000
  H   H956      1.0  0.14545  0.79179  0.48730  1.0000
  H   H957      1.0  0.16489  0.86763  0.48468  1.0000
  C   C782      1.0  0.26104  0.70599  0.49563  1.0000
  C   C783      1.0  0.19559  0.61784  0.49024  1.0000
  N   N53       1.0  0.22177  0.98127  0.62822  1.0000
  C   C784      1.0  0.32228  0.61377  0.72351  1.0000
  H   H958      1.0  0.31570  0.67093  0.62001  1.0000
  H   H959      1.0  0.31897  0.84944  0.69054  1.0000
  H   H960      1.0  0.15569  0.74023  0.49195  1.0000
  S   S214      1.0  0.27333  0.83924  0.48332  1.0000
  H   H961      1.0  0.27356  0.51550  0.72589  1.0000
  C   C785      1.0  0.28580  0.72245  0.48227  1.0000
  Fe  Fe110     1.0  0.32338  0.80836  0.62335  1.0000
  H   H962      1.0  0.32376  0.84572  0.65857  1.0000
  Fe  Fe111     1.0  0.09086  0.55763  0.86409  1.0000
  S   S215      1.0  0.10407  0.56101  0.83427  1.0000
  Fe  Fe112     1.0  0.12675  0.55687  0.87541  1.0000
  S   S216      1.0  0.14275  0.56001  0.84636  1.0000
  S   S217      1.0  0.14267  0.54747  0.89815  1.0000
  Fe  Fe113     1.0  0.11773  0.58090  0.83995  1.0000
  S   S218      1.0  0.11787  0.60777  0.81986  1.0000
  Fe  Fe114     1.0  0.12774  0.53985  0.84348  1.0000
  S   S219      1.0  0.14158  0.51437  0.83237  1.0000
  S   S220      1.0  0.10258  0.57939  0.86940  1.0000
  S   S221      1.0  0.11373  0.53500  0.87279  1.0000
  Fe  Fe115     1.0  0.17972  0.58684  0.95542  1.0000
  S   S222      1.0  0.20272  0.57950  0.93248  1.0000
  S   S223      1.0  0.15158  0.59713  0.94873  1.0000
  H   H963      1.0  0.21537  0.49999  0.92380  1.0000
  S   S224      1.0  0.22901  0.56365  0.96309  1.0000
  Fe  Fe116     1.0  0.21951  0.59073  0.94513  1.0000
  S   S225      1.0  0.23770  0.60905  0.92539  1.0000
  Fe  Fe117     1.0  0.20991  0.55335  0.95232  1.0000
  S   S226      1.0  0.21784  0.52722  0.94177  1.0000
  H   H964      1.0  0.28151  0.52710  0.76253  1.0000
  C   C786      1.0  0.10476  0.54250  0.79281  1.0000
  S   S227      1.0  0.21367  0.56289  0.75382  1.0000
  S   S228      1.0  0.17332  0.60907  0.74339  1.0000
  C   C787      1.0  0.17232  0.49665  0.94814  1.0000
  C   C788      1.0  0.28541  0.52560  0.88939  1.0000
  S   S229      1.0  0.31043  0.56701  0.88169  1.0000
  H   H965      1.0  0.99400  0.57662  0.88572  1.0000
  H   H966      1.0  0.15640  0.55098  0.74831  1.0000
  H   H967      1.0  0.16868  0.52552  0.87071  1.0000
  H   H968      1.0  0.29421  0.53502  0.88830  1.0000
  H   H969      1.0  0.29024  0.55677  0.77089  1.0000
  Fe  Fe118     1.0  0.29875  0.59227  0.81726  1.0000
  S   S230      1.0  0.27203  0.60431  0.80755  1.0000
  C   C789      1.0  0.09808  0.49415  0.90615  1.0000
  S   S231      1.0  0.30176  0.56422  0.83540  1.0000
  C   C790      1.0  0.19951  0.51687  0.94313  1.0000
  C   C791      1.0  0.12853  0.56710  0.78148  1.0000
  C   C792      1.0  0.25716  0.50164  0.77144  1.0000
  H   H970      1.0  0.31668  0.57929  0.74050  1.0000
  C   C793      1.0  0.29521  0.51634  0.80854  1.0000
  C   C794      1.0  0.30750  0.52691  0.80886  1.0000
  H   H971      1.0  0.28076  0.52243  0.80967  1.0000
  H   H972      1.0  0.30250  0.54104  0.81024  1.0000
  H   H973      1.0  0.24013  0.59550  0.76359  1.0000
  H   H974      1.0  0.07819  0.51178  0.83514  1.0000
  S   S232      1.0  0.00330  0.56820  0.82582  1.0000
  H   H975      1.0  0.31372  0.58275  0.76337  1.0000
  C   C795      1.0  0.27001  0.49274  0.85441  1.0000
  C   C796      1.0  0.26505  0.57519  0.76554  1.0000
  C   C797      1.0  0.27981  0.56835  0.77461  1.0000
  C   C798      1.0  0.28150  0.57679  0.78811  1.0000
  C   C799      1.0  0.26853  0.59222  0.79255  1.0000
  C   C800      1.0  0.25334  0.59867  0.78402  1.0000
  C   C801      1.0  0.25156  0.59013  0.77054  1.0000
  H   H976      1.0  0.29321  0.57174  0.79463  1.0000
  H   H977      1.0  0.24323  0.61060  0.78742  1.0000
  C   C802      1.0  0.04612  0.55655  0.86175  1.0000
  N   N54       1.0  0.26997  0.49995  0.75365  1.0000
  C   C803      1.0  0.02886  0.55196  0.86941  1.0000
  H   H978      1.0  0.06328  0.56842  0.83707  1.0000
  C   C804      1.0  0.03495  0.49957  0.84678  1.0000
  C   C805      1.0  0.12455  0.50411  0.83029  1.0000
  H   H979      1.0  0.10423  0.58806  0.78605  1.0000
  C   C806      1.0  0.25814  0.59738  0.91356  1.0000
  C   C807      1.0  0.26504  0.57881  0.92009  1.0000
  C   C808      1.0  0.28134  0.56969  0.91040  1.0000
  C   C809      1.0  0.29036  0.57889  0.89374  1.0000
  C   C810      1.0  0.28332  0.59738  0.88699  1.0000
  C   C811      1.0  0.26747  0.60672  0.89713  1.0000
  H   H980      1.0  0.25806  0.57156  0.93282  1.0000
  H   H981      1.0  0.28685  0.55543  0.91575  1.0000
  H   H982      1.0  0.29022  0.60459  0.87415  1.0000
  H   H983      1.0  0.26218  0.62112  0.89207  1.0000
  H   H984      1.0  0.05070  0.59171  0.87536  1.0000
  H   H985      1.0  0.07027  0.50056  0.87515  1.0000
  C   C812      1.0  0.09725  0.48885  0.82521  1.0000
  S   S233      1.0  0.20949  0.51933  0.74239  1.0000
  C   C813      1.0  0.09773  0.56125  0.79179  1.0000
  C   C814      1.0  0.13406  0.60767  0.79911  1.0000
  C   C815      1.0  0.12974  0.62046  0.78350  1.0000
  C   C816      1.0  0.14203  0.62070  0.76661  1.0000
  C   C817      1.0  0.15888  0.60831  0.76518  1.0000
  C   C818      1.0  0.16357  0.59577  0.78084  1.0000
  C   C819      1.0  0.15105  0.59534  0.79784  1.0000
  H   H986      1.0  0.11674  0.63014  0.78445  1.0000
  H   H987      1.0  0.13840  0.63055  0.75459  1.0000
  C   C820      1.0  0.16363  0.55198  0.75872  1.0000
  H   H988      1.0  0.15461  0.58574  0.81000  1.0000
  C   C821      1.0  0.14454  0.56196  0.91181  1.0000
  C   C822      1.0  0.13347  0.57951  0.91195  1.0000
  C   C823      1.0  0.13541  0.59030  0.92345  1.0000
  C   C824      1.0  0.14870  0.58372  0.93446  1.0000
  C   C825      1.0  0.15980  0.56628  0.93405  1.0000
  C   C826      1.0  0.15755  0.55537  0.92301  1.0000
  H   H989      1.0  0.12335  0.58470  0.90337  1.0000
  H   H990      1.0  0.12680  0.60381  0.92364  1.0000
  H   H991      1.0  0.17002  0.56104  0.94245  1.0000
  H   H992      1.0  0.16603  0.54177  0.92311  1.0000
  H   H993      1.0  0.17713  0.51753  0.77261  1.0000
  C   C827      1.0  0.31989  0.58766  0.74872  1.0000
  H   H994      1.0  0.00251  0.55175  0.86463  1.0000
  H   H995      1.0  0.15567  0.51817  0.76716  1.0000
  C   C828      1.0  0.10606  0.51244  0.83481  1.0000
  S   S234      1.0  0.26500  0.56583  0.74690  1.0000
  H   H996      1.0  0.10217  0.52468  0.84040  1.0000
  H   H997      1.0  0.08436  0.51545  0.87589  1.0000
  C   C829      1.0  0.01159  0.62183  0.85105  1.0000
  H   H998      1.0  0.08290  0.52270  0.90533  1.0000
  H   H999      1.0  0.03061  0.52819  0.83384  1.0000
  C   C830      1.0  0.99698  0.50360  0.85320  1.0000
  H   H1000     1.0  0.08310  0.56624  0.79586  1.0000
  H   H1001     1.0  0.10347  0.49432  0.78571  1.0000
  C   C831      1.0  0.09244  0.50503  0.83196  1.0000
  H   H1002     1.0  0.17852  0.54664  0.75406  1.0000
  H   H1003     1.0  0.09550  0.53294  0.79771  1.0000
  H   H1004     1.0  0.17390  0.50156  0.73234  1.0000
  H   H1005     1.0  0.31217  0.52750  0.76551  1.0000
  H   H1006     1.0  0.24290  0.50143  0.77087  1.0000
  H   H1007     1.0  0.02571  0.54561  0.88381  1.0000
  H   H1008     1.0  0.13712  0.57717  0.77755  1.0000
  H   H1009     1.0  0.19925  0.48718  0.89510  1.0000
  H   H1010     1.0  0.16239  0.56682  0.75835  1.0000
  H   H1011     1.0  0.00120  0.63062  0.84379  1.0000
  C   C832      1.0  0.12369  0.53591  0.78822  1.0000
  C   C833      1.0  0.04366  0.61359  0.85304  1.0000
  S   S235      1.0  0.19574  0.60062  0.96678  1.0000
  C   C834      1.0  0.01953  0.56378  0.83995  1.0000
  C   C835      1.0  0.30591  0.63465  0.78026  1.0000
  H   H1012     1.0  0.09932  0.52998  0.92475  1.0000
  C   C836      1.0  0.29302  0.61024  0.74248  1.0000
  H   H1013     1.0  0.15618  0.51376  0.96713  1.0000
  H   H1014     1.0  0.15419  0.51209  0.86789  1.0000
  H   H1015     1.0  0.06499  0.51135  0.89426  1.0000
  S   S236      1.0  0.30967  0.60496  0.83464  1.0000
  H   H1016     1.0  0.03280  0.63482  0.83209  1.0000
  C   C837      1.0  0.01698  0.49756  0.80568  1.0000
  N   N55       1.0  0.31279  0.60760  0.74270  1.0000
  H   H1017     1.0  0.03006  0.49939  0.80707  1.0000
  C   C838      1.0  0.00257  0.51266  0.80354  1.0000
  H   H1018     1.0  0.26576  0.53495  0.91230  1.0000
  C   C839      1.0  0.02174  0.59735  0.87547  1.0000
  C   C840      1.0  0.16197  0.52177  0.77694  1.0000
  C   C841      1.0  0.18257  0.52108  0.95492  1.0000
  H   H1019     1.0  0.01986  0.58641  0.88737  1.0000
  C   C842      1.0  0.11625  0.50303  0.92967  1.0000
  C   C843      1.0  0.00710  0.60806  0.86677  1.0000
  C   C844      1.0  0.27912  0.50067  0.87870  1.0000
  C   C845      1.0  0.16517  0.54511  0.79072  1.0000
  C   C846      1.0  0.13013  0.50704  0.74385  1.0000
  C   C847      1.0  0.10962  0.57352  0.78622  1.0000
  C   C848      1.0  0.07660  0.50478  0.88452  1.0000
  H   H1020     1.0  0.28775  0.62587  0.76949  1.0000
  H   H1021     1.0  0.11244  0.48927  0.87198  1.0000
  N   N56       1.0  0.23836  0.58336  0.86933  1.0000
  C   C849      1.0  0.23248  0.59778  0.88048  1.0000
  C   C850      1.0  0.25554  0.57102  0.87405  1.0000
  C   C851      1.0  0.24278  0.59258  0.84971  1.0000
  C   C852      1.0  0.22361  0.57285  0.87349  1.0000
  C   C853      1.0  0.21908  0.56182  0.89122  1.0000
  C   C854      1.0  0.21253  0.57420  0.86073  1.0000
  C   C855      1.0  0.20426  0.55295  0.89596  1.0000
  C   C856      1.0  0.19773  0.56524  0.86565  1.0000
  C   C857      1.0  0.19356  0.55473  0.88325  1.0000
  H   H1022     1.0  0.24262  0.60680  0.87716  1.0000
  H   H1023     1.0  0.21908  0.60674  0.87812  1.0000
  H   H1024     1.0  0.23073  0.59187  0.89549  1.0000
  H   H1025     1.0  0.26734  0.57815  0.86939  1.0000
  H   H1026     1.0  0.25931  0.55886  0.86750  1.0000
  H   H1027     1.0  0.25450  0.56602  0.88909  1.0000
  H   H1028     1.0  0.25439  0.59980  0.84690  1.0000
  H   H1029     1.0  0.24700  0.58253  0.84047  1.0000
  H   H1030     1.0  0.23108  0.60338  0.84546  1.0000
  H   H1031     1.0  0.22653  0.56046  0.90183  1.0000
  H   H1032     1.0  0.21474  0.58240  0.84699  1.0000
  H   H1033     1.0  0.20069  0.54515  0.90980  1.0000
  H   H1034     1.0  0.18910  0.56686  0.85594  1.0000
  H   H1035     1.0  0.18175  0.54829  0.88720  1.0000
  C   C858      1.0  0.05010  0.56466  0.84310  1.0000
  H   H1036     1.0  0.30283  0.51417  0.86728  1.0000
  C   C859      1.0  0.13619  0.54811  0.78221  1.0000
  N   N57       1.0  0.15633  0.54171  0.77723  1.0000
  H   H1037     1.0  0.17681  0.58652  0.77986  1.0000
  C   C860      1.0  0.29026  0.51338  0.87739  1.0000
  C   C861      1.0  0.10261  0.51620  0.92203  1.0000
  Fe  Fe119     1.0  0.23919  0.57151  0.73574  1.0000
  N   N58       1.0  0.17489  0.49684  0.88359  1.0000
  C   C862      1.0  0.09335  0.51182  0.91071  1.0000
  H   H1038     1.0  0.26156  0.49019  0.78265  1.0000
  H   H1039     1.0  0.16193  0.55979  0.79152  1.0000
  H   H1040     1.0  0.13093  0.51925  0.73318  1.0000
  H   H1041     1.0  0.04001  0.57457  0.81784  1.0000
  S   S237      1.0  0.06206  0.55234  0.87609  1.0000
  C   C863      1.0  0.19357  0.49833  0.88433  1.0000
  H   H1042     1.0  0.05768  0.61548  0.84769  1.0000
  N   N59       1.0  0.28371  0.48753  0.86629  1.0000
  C   C864      1.0  0.28876  0.50013  0.75509  1.0000
  H   H1043     1.0  0.10734  0.52169  0.76099  1.0000
  C   C865      1.0  0.03686  0.56823  0.83224  1.0000
  H   H1044     1.0  0.28676  0.62503  0.73838  1.0000
  C   C866      1.0  0.16263  0.49997  0.90135  1.0000
  C   C867      1.0  0.02420  0.51658  0.84096  1.0000
  C   C868      1.0  0.01563  0.55555  0.85858  1.0000
  H   H1045     1.0  0.12819  0.52119  0.78993  1.0000
  C   C869      1.0  0.12939  0.48785  0.82363  1.0000
  Fe  Fe120     1.0  0.31516  0.57610  0.85101  1.0000
  H   H1046     1.0  0.26275  0.52918  0.74289  1.0000
  H   H1047     1.0  0.18018  0.53149  0.96277  1.0000
  H   H1048     1.0  0.28518  0.60467  0.75610  1.0000
  C   C870      1.0  0.32027  0.49022  0.80512  1.0000
  C   C871      1.0  0.20237  0.50330  0.93302  1.0000
  S   S238      1.0  0.18584  0.55985  0.97457  1.0000
  H   H1049     1.0  0.30327  0.50052  0.84460  1.0000
  H   H1050     1.0  0.15823  0.51317  0.79086  1.0000
  C   C872      1.0  0.03968  0.60022  0.86867  1.0000
  C   C873      1.0  0.02963  0.62442  0.84427  1.0000
  C   C874      1.0  0.26271  0.50141  0.89232  1.0000
  C   C875      1.0  0.00524  0.51861  0.84429  1.0000
  H   H1051     1.0  0.18039  0.54089  0.78723  1.0000
  H   H1052     1.0  0.16471  0.48768  0.91256  1.0000
  C   C876      1.0  0.29234  0.51544  0.75978  1.0000
  H   H1053     1.0  0.19353  0.51160  0.88773  1.0000
  C   C877      1.0  0.30202  0.62612  0.76805  1.0000
  H   H1054     1.0  0.12344  0.50650  0.93839  1.0000
  C   C878      1.0  0.16853  0.51172  0.86864  1.0000
  C   C879      1.0  0.30156  0.49795  0.80682  1.0000
  C   C880      1.0  0.16892  0.51104  0.95736  1.0000
  H   H1055     1.0  0.16496  0.51170  0.90590  1.0000
  H   H1056     1.0  0.16035  0.53749  0.80478  1.0000
  H   H1057     1.0  0.17720  0.50990  0.85499  1.0000
  H   H1058     1.0  0.04971  0.49808  0.84428  1.0000
  C   C881      1.0  0.25805  0.51365  0.90421  1.0000
  H   H1059     1.0  0.14790  0.50352  0.90057  1.0000
  C   C882      1.0  0.26940  0.52564  0.90285  1.0000
  H   H1060     1.0  0.00453  0.52626  0.80325  1.0000
  H   H1061     1.0  0.31441  0.61128  0.89033  1.0000
  H   H1062     1.0  0.29486  0.64044  0.79041  1.0000
  H   H1063     1.0  0.24559  0.51372  0.91467  1.0000
  H   H1064     1.0  0.20325  0.49768  0.87093  1.0000
  H   H1065     1.0  0.25001  0.51570  0.73728  1.0000
  C   C883      1.0  0.18873  0.49335  0.93541  1.0000
  H   H1066     1.0  0.29072  0.60276  0.73287  1.0000
  C   C884      1.0  0.26383  0.51574  0.73932  1.0000
  H   H1067     1.0  0.99688  0.53190  0.83985  1.0000
  Fe  Fe121     1.0  0.19878  0.58784  0.73702  1.0000
  H   H1068     1.0  0.25647  0.51469  0.77559  1.0000
  C   C885      1.0  0.14214  0.48998  0.74163  1.0000
  C   C886      1.0  0.11649  0.50857  0.75966  1.0000
  N   N60       1.0  0.08875  0.48899  0.89411  1.0000
  C   C887      1.0  0.30218  0.48707  0.85415  1.0000
  H   H1069     1.0  0.27040  0.50663  0.84551  1.0000
  C   C888      1.0  0.30991  0.51593  0.76135  1.0000
  C   C889      1.0  0.31627  0.61768  0.75512  1.0000
  C   C890      1.0  0.11428  0.49319  0.77362  1.0000
  H   H1070     1.0  0.25329  0.49249  0.89395  1.0000
  H   H1071     1.0  0.25580  0.49294  0.86250  1.0000
  Fe  Fe122     1.0  0.48215  0.18969  0.08100  1.0000
  S   S239      1.0  0.45787  0.21283  0.07874  1.0000
  S   S240      1.0  0.51043  0.19565  0.07225  1.0000
  Fe  Fe123     1.0  0.45901  0.16061  0.09430  1.0000
  S   S241      1.0  0.43269  0.18141  0.09350  1.0000
  S   S242      1.0  0.46149  0.13003  0.10190  1.0000
  Fe  Fe124     1.0  0.44800  0.19454  0.06621  1.0000
  S   S243      1.0  0.43610  0.20511  0.04044  1.0000
  Fe  Fe125     1.0  0.44539  0.19733  0.10610  1.0000
  S   S244      1.0  0.43013  0.20985  0.13074  1.0000
  S   S245      1.0  0.47348  0.17270  0.06635  1.0000
  S   S246      1.0  0.47046  0.17516  0.10914  1.0000
  C   C891      1.0  0.62725  0.16709  0.14600  1.0000
  C   C892      1.0  0.54115  0.25857  0.06544  1.0000
  C   C893      1.0  0.64281  0.15405  0.15004  1.0000
  C   C894      1.0  0.58787  0.00304  0.20842  1.0000
  H   H1072     1.0  0.53884  0.99679  0.18644  1.0000
  C   C895      1.0  0.58664  0.21521  0.02001  1.0000
  C   C896      1.0  0.60366  0.26629  0.15118  1.0000
  C   C897      1.0  0.63950  0.19896  0.03691  1.0000
  C   C898      1.0  0.47450  0.22985  0.02722  1.0000
  S   S247      1.0  0.42374  0.06327  0.22581  1.0000
  S   S248      1.0  0.47740  0.29468  0.22196  1.0000
  H   H1073     1.0  0.53817  0.23742  0.98807  1.0000
  S   S249      1.0  0.58278  0.18139  0.01686  1.0000
  Fe  Fe126     1.0  0.56391  0.21486  0.12822  1.0000
  S   S250      1.0  0.56328  0.24252  0.10999  1.0000
  S   S251      1.0  0.53649  0.20698  0.13863  1.0000
  S   S252      1.0  0.58121  0.21916  0.14562  1.0000
  S   S253      1.0  0.58724  0.20074  0.10921  1.0000
  H   H1074     1.0  0.47894  0.20181  0.00149  1.0000
  C   C899      1.0  0.60977  0.16342  0.15440  1.0000
  C   C900      1.0  0.58843  0.22738  0.03005  1.0000
  Fe  Fe127     1.0  0.55616  0.10690  0.20057  1.0000
  S   S254      1.0  0.56894  0.12864  0.20382  1.0000
  S   S255      1.0  0.58241  0.08622  0.19659  1.0000
  Fe  Fe128     1.0  0.56254  0.33568  0.20508  1.0000
  S   S256      1.0  0.53791  0.34375  0.19156  1.0000
  S   S257      1.0  0.57240  0.30595  0.21652  1.0000
  C   C901      1.0  0.62854  0.17055  0.05008  1.0000
  H   H1075     1.0  0.54852  0.25308  0.05336  1.0000
  S   S258      1.0  0.41979  0.28971  0.18133  1.0000
  H   H1076     1.0  0.58948  0.04796  0.20346  1.0000
  Fe  Fe129     1.0  0.45667  0.29423  0.20582  1.0000
  S   S259      1.0  0.45340  0.26687  0.20316  1.0000
  Fe  Fe130     1.0  0.59468  0.10710  0.20251  1.0000
  Fe  Fe131     1.0  0.45036  0.28046  0.17436  1.0000
  S   S260      1.0  0.46645  0.26526  0.15179  1.0000
  S   S261      1.0  0.45613  0.30717  0.17629  1.0000
  C   C902      1.0  0.36464  0.38087  0.19083  1.0000
  C   C903      1.0  0.38174  0.37265  0.18138  1.0000
  H   H1077     1.0  0.35865  0.39505  0.18589  1.0000
  H   H1078     1.0  0.38873  0.38055  0.16903  1.0000
  C   C904      1.0  0.49358  0.30903  0.21341  1.0000
  C   C905      1.0  0.49527  0.31986  0.19567  1.0000
  C   C906      1.0  0.50872  0.33073  0.18920  1.0000
  C   C907      1.0  0.52087  0.33040  0.20022  1.0000
  C   C908      1.0  0.35801  0.33986  0.17365  1.0000
  S   S262      1.0  0.46465  0.03702  0.22418  1.0000
  H   H1079     1.0  0.48646  0.31968  0.18682  1.0000
  H   H1080     1.0  0.51001  0.33911  0.17547  1.0000
  H   H1081     1.0  0.45679  0.33811  0.19579  1.0000
  S   S263      1.0  0.59032  0.23737  0.06117  1.0000
  Fe  Fe132     1.0  0.42550  0.31525  0.18609  1.0000
  H   H1082     1.0  0.59769  0.17343  0.15127  1.0000
  H   H1083     1.0  0.59449  0.14392  0.17337  1.0000
  C   C909      1.0  0.58341  0.19772  0.02906  1.0000
  C   C910      1.0  0.58313  0.20490  0.05826  1.0000
  C   C911      1.0  0.58141  0.19271  0.04822  1.0000
  H   H1084     1.0  0.58169  0.20082  0.07297  1.0000
  H   H1085     1.0  0.57881  0.17922  0.05528  1.0000
  H   H1086     1.0  0.59568  0.02411  0.18520  1.0000
  C   C912      1.0  0.58700  0.03444  0.21022  1.0000
  H   H1087     1.0  0.49555  0.18941  0.02706  1.0000
  H   H1088     1.0  0.62569  0.26065  0.16583  1.0000
  H   H1089     1.0  0.65554  0.36042  0.18943  1.0000
  C   C913      1.0  0.34379  0.36919  0.15606  1.0000
  H   H1090     1.0  0.59142  0.24072  0.02294  1.0000
  C   C914      1.0  0.38985  0.35429  0.18780  1.0000
  H   H1091     1.0  0.60835  0.25372  0.14596  1.0000
  Fe  Fe133     1.0  0.60465  0.20781  0.12468  1.0000
  C   C915      1.0  0.43996  0.22579  0.13603  1.0000
  C   C916      1.0  0.43080  0.23455  0.15072  1.0000
  C   C917      1.0  0.43879  0.24665  0.15572  1.0000
  C   C918      1.0  0.45600  0.25011  0.14597  1.0000
  C   C919      1.0  0.46516  0.24129  0.13131  1.0000
  C   C920      1.0  0.45714  0.22926  0.12629  1.0000
  H   H1092     1.0  0.41741  0.23209  0.15818  1.0000
  H   H1093     1.0  0.43157  0.25339  0.16701  1.0000
  H   H1094     1.0  0.47845  0.24380  0.12370  1.0000
  H   H1095     1.0  0.46421  0.22269  0.11488  1.0000
  C   C921      1.0  0.43020  0.11098  0.15978  1.0000
  C   C922      1.0  0.44435  0.09870  0.15109  1.0000
  C   C923      1.0  0.45347  0.10447  0.13303  1.0000
  C   C924      1.0  0.44887  0.12272  0.12385  1.0000
  C   C925      1.0  0.43481  0.13509  0.13255  1.0000
  C   C926      1.0  0.42535  0.12916  0.15044  1.0000
  H   H1096     1.0  0.44822  0.08470  0.15821  1.0000
  H   H1097     1.0  0.46438  0.09487  0.12637  1.0000
  H   H1098     1.0  0.43122  0.14922  0.12556  1.0000
  H   H1099     1.0  0.41444  0.13872  0.15716  1.0000
  C   C927      1.0  0.45057  0.17289  0.99413  1.0000
  C   C928      1.0  0.44031  0.19089  0.99188  1.0000
  C   C929      1.0  0.43624  0.20074  0.00605  1.0000
  C   C930      1.0  0.44266  0.19282  0.02242  1.0000
  C   C931      1.0  0.45361  0.17513  0.02429  1.0000
  C   C932      1.0  0.45728  0.16510  0.01036  1.0000
  C   C933      1.0  0.42098  0.16230  0.20810  1.0000
  H   H1100     1.0  0.42779  0.21442  0.00443  1.0000
  H   H1101     1.0  0.45917  0.16910  0.03648  1.0000
  H   H1102     1.0  0.46536  0.15125  0.01215  1.0000
  C   C934      1.0  0.51620  0.20247  0.08972  1.0000
  C   C935      1.0  0.53353  0.20645  0.08711  1.0000
  C   C936      1.0  0.53936  0.20901  0.10195  1.0000
  C   C937      1.0  0.52804  0.20722  0.11945  1.0000
  C   C938      1.0  0.51030  0.20442  0.12175  1.0000
  C   C939      1.0  0.50436  0.20217  0.10685  1.0000
  H   H1103     1.0  0.54271  0.20686  0.07383  1.0000
  H   H1104     1.0  0.55285  0.21175  0.09985  1.0000
  H   H1105     1.0  0.50130  0.20353  0.13511  1.0000
  H   H1106     1.0  0.49081  0.19967  0.10882  1.0000
  Fe  Fe134     1.0  0.58787  0.22909  0.09202  1.0000
  H   H1107     1.0  0.50223  0.13783  0.09025  1.0000
  Fe  Fe135     1.0  0.58234  0.24614  0.12578  1.0000
  H   H1108     1.0  0.49696  0.10858  0.11122  1.0000
  S   S264      1.0  0.41114  0.34431  0.17534  1.0000
  H   H1109     1.0  0.51121  0.09704  0.13856  1.0000
  H   H1110     1.0  0.52204  0.15522  0.09537  1.0000
  H   H1111     1.0  0.55173  0.23781  0.00346  1.0000
  H   H1112     1.0  0.63632  0.98784  0.19895  1.0000
  C   C940      1.0  0.50603  0.23472  0.01484  1.0000
  C   C941      1.0  0.37183  0.34986  0.14196  1.0000
  H   H1113     1.0  0.45503  0.24207  0.00969  1.0000
  H   H1114     1.0  0.64415  0.15221  0.21216  1.0000
  H   H1115     1.0  0.64349  0.36144  0.14940  1.0000
  C   C942      1.0  0.63574  0.18488  0.05256  1.0000
  H   H1116     1.0  0.49624  0.21824  0.04159  1.0000
  H   H1117     1.0  0.52086  0.24927  0.03457  1.0000
  C   C943      1.0  0.61117  0.18193  0.22714  1.0000
  H   H1118     1.0  0.62503  0.15934  0.06112  1.0000
  C   C944      1.0  0.64312  0.32861  0.18856  1.0000
  H   H1119     1.0  0.51154  0.99097  0.20298  1.0000
  S   S265      1.0  0.33371  0.38020  0.21882  1.0000
  H   H1120     1.0  0.46163  0.36937  0.22228  1.0000
  H   H1121     1.0  0.64428  0.45805  0.22020  1.0000
  H   H1122     1.0  0.63525  0.14050  0.20005  1.0000
  H   H1123     1.0  0.32494  0.38883  0.18268  1.0000
  S   S266      1.0  0.32643  0.42864  0.18387  1.0000
  H   H1124     1.0  0.64037  0.32033  0.15817  1.0000
  H   H1125     1.0  0.53275  0.15028  0.99773  1.0000
  C   C945      1.0  0.45730  0.18876  0.22279  1.0000
  H   H1126     1.0  0.62256  0.11991  0.22462  1.0000
  N   N61       1.0  0.54289  0.26838  0.19348  1.0000
  C   C946      1.0  0.56296  0.26153  0.19216  1.0000
  C   C947      1.0  0.54016  0.28710  0.18178  1.0000
  C   C948      1.0  0.53469  0.26963  0.21289  1.0000
  C   C949      1.0  0.53386  0.25659  0.18759  1.0000
  C   C950      1.0  0.54361  0.24031  0.18115  1.0000
  C   C951      1.0  0.51468  0.26144  0.18794  1.0000
  C   C952      1.0  0.53466  0.22970  0.17540  1.0000
  C   C953      1.0  0.50591  0.25074  0.18210  1.0000
  C   C954      1.0  0.51590  0.23493  0.17579  1.0000
  H   H1127     1.0  0.57004  0.26041  0.17786  1.0000
  H   H1128     1.0  0.56943  0.27105  0.19607  1.0000
  H   H1129     1.0  0.56612  0.24786  0.20130  1.0000
  H   H1130     1.0  0.54547  0.28656  0.16700  1.0000
  H   H1131     1.0  0.54734  0.29633  0.18521  1.0000
  H   H1132     1.0  0.52551  0.29402  0.18333  1.0000
  H   H1133     1.0  0.51046  0.09461  0.20840  1.0000
  H   H1134     1.0  0.59701  0.44759  0.22602  1.0000
  H   H1135     1.0  0.51971  0.27531  0.21501  1.0000
  H   H1136     1.0  0.55821  0.23554  0.18019  1.0000
  H   H1137     1.0  0.50630  0.27364  0.19265  1.0000
  H   H1138     1.0  0.54237  0.21742  0.17037  1.0000
  H   H1139     1.0  0.49133  0.25488  0.18217  1.0000
  H   H1140     1.0  0.50917  0.22683  0.17092  1.0000
  C   C955      1.0  0.53292  0.21058  0.01699  1.0000
  H   H1141     1.0  0.63834  0.33838  0.19808  1.0000
  Fe  Fe136     1.0  0.43881  0.03736  0.21558  1.0000
  H   H1142     1.0  0.60044  0.14152  0.20850  1.0000
  H   H1143     1.0  0.55052  0.02972  0.20671  1.0000
  H   H1144     1.0  0.38154  0.40859  0.22268  1.0000
  Fe  Fe137     1.0  0.57533  0.07681  0.22720  1.0000
  H   H1145     1.0  0.54777  0.20677  0.01748  1.0000
  H   H1146     1.0  0.47763  0.25605  0.98423  1.0000
  C   C956      1.0  0.37199  0.33711  0.15847  1.0000
  C   C957      1.0  0.53777  0.03268  0.21628  1.0000
  H   H1147     1.0  0.41513  0.19699  0.17122  1.0000
  C   C958      1.0  0.58779  0.27863  0.14683  1.0000
  C   C959      1.0  0.58692  0.22217  0.04917  1.0000
  H   H1148     1.0  0.51976  0.24323  0.07169  1.0000
  H   H1149     1.0  0.44696  0.22041  0.20053  1.0000
  Fe  Fe138     1.0  0.42327  0.27790  0.21041  1.0000
  C   C960      1.0  0.50546  0.30905  0.22456  1.0000
  H   H1150     1.0  0.56064  0.27516  0.06281  1.0000
  H   H1151     1.0  0.63462  0.21523  0.06635  1.0000
  S   S267      1.0  0.40576  0.25864  0.22916  1.0000
  H   H1152     1.0  0.38310  0.32518  0.15962  1.0000
  C   C961      1.0  0.62523  0.17053  0.03302  1.0000
  C   C962      1.0  0.42685  0.37109  0.21685  1.0000
  C   C963      1.0  0.33837  0.40258  0.14734  1.0000
  H   H1153     1.0  0.64234  0.43822  0.21299  1.0000
  C   C964      1.0  0.50928  0.00197  0.21083  1.0000
  H   H1154     1.0  0.52008  0.22602  0.04634  1.0000
  H   H1155     1.0  0.54159  0.23177  0.03538  1.0000
  H   H1156     1.0  0.52714  0.25203  0.13227  1.0000
  H   H1157     1.0  0.53823  0.28161  0.12243  1.0000
  C   C965      1.0  0.64099  0.13746  0.16250  1.0000
  H   H1158     1.0  0.41168  0.41748  0.21569  1.0000
  C   C966      1.0  0.54798  0.27107  0.07081  1.0000
  H   H1159     1.0  0.46459  0.22366  0.03819  1.0000
  C   C967      1.0  0.42729  0.38988  0.21510  1.0000
  H   H1160     1.0  0.44299  0.14406  0.17486  1.0000
  S   S268      1.0  0.59015  0.33990  0.18810  1.0000
  C   C968      1.0  0.44415  0.34871  0.19853  1.0000
  H   H1161     1.0  0.54089  0.27881  0.21758  1.0000
  H   H1162     1.0  0.34804  0.40253  0.15596  1.0000
  C   C969      1.0  0.46908  0.24030  0.01113  1.0000
  C   C970      1.0  0.63158  0.15183  0.20772  1.0000
  C   C971      1.0  0.52090  0.16141  0.99786  1.0000
  H   H1163     1.0  0.64491  0.21034  0.03772  1.0000
  C   C972      1.0  0.63601  0.19885  0.01996  1.0000
  H   H1164     1.0  0.63096  0.32317  0.18878  1.0000
  C   C973      1.0  0.40926  0.36658  0.22083  1.0000
  H   H1165     1.0  0.52590  0.20175  0.02921  1.0000
  H   H1166     1.0  0.35829  0.37498  0.12751  1.0000
  H   H1167     1.0  0.37991  0.37620  0.22604  1.0000
  H   H1168     1.0  0.50912  0.25176  0.98693  1.0000
  C   C974      1.0  0.53597  0.98947  0.22423  1.0000
  H   H1169     1.0  0.54579  0.05588  0.22071  1.0000
  C   C975      1.0  0.35786  0.36557  0.14065  1.0000
  H   H1170     1.0  0.40777  0.35268  0.22196  1.0000
  C   C976      1.0  0.39408  0.39824  0.22119  1.0000
  H   H1171     1.0  0.52250  0.16383  0.02474  1.0000
  N   N62       1.0  0.43806  0.19816  0.22205  1.0000
  C   C977      1.0  0.48178  0.24816  0.99689  1.0000
  C   C978      1.0  0.46095  0.36341  0.21077  1.0000
  H   H1172     1.0  0.63156  0.01882  0.20357  1.0000
  H   H1173     1.0  0.35830  0.32997  0.18653  1.0000
  H   H1174     1.0  0.62358  0.45759  0.21422  1.0000
  N   N63       1.0  0.41849  0.14236  0.06579  1.0000
  C   C979      1.0  0.42338  0.12238  0.07370  1.0000
  C   C980      1.0  0.43352  0.15085  0.06633  1.0000
  C   C981      1.0  0.40149  0.15015  0.07793  1.0000
  C   C982      1.0  0.41587  0.14644  0.04662  1.0000
  C   C983      1.0  0.42051  0.13275  0.03584  1.0000
  C   C984      1.0  0.40933  0.16479  0.03787  1.0000
  C   C985      1.0  0.41856  0.13728  0.01752  1.0000
  C   C986      1.0  0.40717  0.16907  0.01966  1.0000
  C   C987      1.0  0.41186  0.15537  0.00947  1.0000
  H   H1175     1.0  0.43694  0.11587  0.06631  1.0000
  H   H1176     1.0  0.42481  0.11986  0.08828  1.0000
  H   H1177     1.0  0.41274  0.11503  0.07345  1.0000
  H   H1178     1.0  0.44669  0.14502  0.05782  1.0000
  H   H1179     1.0  0.43574  0.14837  0.08055  1.0000
  H   H1180     1.0  0.43066  0.16601  0.06120  1.0000
  H   H1181     1.0  0.38948  0.14528  0.07673  1.0000
  H   H1182     1.0  0.40270  0.14621  0.09264  1.0000
  H   H1183     1.0  0.39830  0.16544  0.07472  1.0000
  H   H1184     1.0  0.42602  0.11852  0.04107  1.0000
  H   H1185     1.0  0.40647  0.17613  0.04478  1.0000
  H   H1186     1.0  0.42267  0.12681  0.00928  1.0000
  H   H1187     1.0  0.40258  0.18324  0.01313  1.0000
  H   H1188     1.0  0.41095  0.15890  0.99509  1.0000
  N   N64       1.0  0.47255  0.13547  0.16944  1.0000
  C   C988      1.0  0.48583  0.11889  0.17616  1.0000
  C   C989      1.0  0.45407  0.13338  0.18040  1.0000
  C   C990      1.0  0.47301  0.13575  0.14997  1.0000
  C   C991      1.0  0.47652  0.15291  0.17079  1.0000
  C   C992      1.0  0.46547  0.17000  0.16417  1.0000
  C   C993      1.0  0.49155  0.15359  0.17806  1.0000
  C   C994      1.0  0.46951  0.18669  0.16432  1.0000
  C   C995      1.0  0.49997  0.24557  0.99867  1.0000
  C   C996      1.0  0.35543  0.37069  0.20669  1.0000
  H   H1189     1.0  0.48548  0.11723  0.19105  1.0000
  H   H1190     1.0  0.48274  0.10601  0.17458  1.0000
  H   H1191     1.0  0.50006  0.11934  0.16837  1.0000
  H   H1192     1.0  0.45104  0.11994  0.18043  1.0000
  H   H1193     1.0  0.46147  0.14592  0.14466  1.0000
  H   H1194     1.0  0.48593  0.13931  0.14093  1.0000
  H   H1195     1.0  0.47195  0.12221  0.14805  1.0000
  H   H1196     1.0  0.45375  0.17061  0.15850  1.0000
  H   H1197     1.0  0.50065  0.14134  0.18361  1.0000
  H   H1198     1.0  0.46103  0.19954  0.15887  1.0000
  C   C997      1.0  0.43068  0.18929  0.21126  1.0000
  C   C998      1.0  0.59061  0.02083  0.19989  1.0000
  N   N65       1.0  0.54147  0.14607  0.12431  1.0000
  C   C999      1.0  0.53129  0.15549  0.13957  1.0000
  C   C1000     1.0  0.55817  0.13330  0.12977  1.0000
  C   C1001     1.0  0.54781  0.16011  0.10830  1.0000
  C   C1002     1.0  0.52932  0.13598  0.12035  1.0000
  C   C1003     1.0  0.52515  0.11964  0.13255  1.0000
  C   C1004     1.0  0.52045  0.14251  0.10508  1.0000
  C   C1005     1.0  0.51390  0.10970  0.12914  1.0000
  C   C1006     1.0  0.50894  0.13264  0.10192  1.0000
  C   C1007     1.0  0.50587  0.11616  0.11378  1.0000
  H   H1199     1.0  0.53958  0.16390  0.14264  1.0000
  H   H1200     1.0  0.51843  0.16492  0.13621  1.0000
  H   H1201     1.0  0.52742  0.14550  0.15247  1.0000
  H   H1202     1.0  0.56824  0.14081  0.13111  1.0000
  H   H1203     1.0  0.56516  0.12447  0.11955  1.0000
  H   H1204     1.0  0.55518  0.12414  0.14345  1.0000
  H   H1205     1.0  0.53623  0.17122  0.10467  1.0000
  H   H1206     1.0  0.55748  0.16711  0.11122  1.0000
  H   H1207     1.0  0.55478  0.15399  0.09604  1.0000
  H   H1208     1.0  0.53043  0.11457  0.14496  1.0000
  S   S269      1.0  0.60726  0.23528  0.10605  1.0000
  S   S270      1.0  0.57406  0.27351  0.13441  1.0000
  C   C1008     1.0  0.52701  0.23462  0.03396  1.0000
  C   C1009     1.0  0.38078  0.34422  0.20384  1.0000
  H   H1209     1.0  0.46598  0.18945  0.20876  1.0000
  H   H1210     1.0  0.42744  0.21237  0.18775  1.0000
  C   C1010     1.0  0.41109  0.40319  0.21723  1.0000
  H   H1211     1.0  0.54946  0.99129  0.22537  1.0000
  H   H1212     1.0  0.48820  0.29244  0.12780  1.0000
  C   C1011     1.0  0.62953  0.20317  0.07576  1.0000
  C   C1012     1.0  0.61342  0.27019  0.16247  1.0000
  S   S271      1.0  0.53709  0.11268  0.18127  1.0000
  C   C1013     1.0  0.53733  0.24096  0.00143  1.0000
  H   H1213     1.0  0.38277  0.34762  0.13019  1.0000
  C   C1014     1.0  0.49075  0.19060  0.00042  1.0000
  C   C1015     1.0  0.63346  0.17051  0.08569  1.0000
  H   H1214     1.0  0.47328  0.35211  0.20927  1.0000
  C   C1016     1.0  0.62890  0.18466  0.01803  1.0000
  C   C1017     1.0  0.58180  0.29484  0.15371  1.0000
  H   H1215     1.0  0.45284  0.13402  0.19497  1.0000
  C   C1018     1.0  0.51553  0.08729  0.19723  1.0000
  C   C1019     1.0  0.52977  0.09240  0.18292  1.0000
  H   H1216     1.0  0.53221  0.25604  0.00020  1.0000
  Fe  Fe139     1.0  0.60023  0.31081  0.20136  1.0000
  H   H1217     1.0  0.56964  0.30453  0.15028  1.0000
  C   C1020     1.0  0.52390  0.28877  0.12122  1.0000
  H   H1218     1.0  0.51699  0.29235  0.13481  1.0000
  C   C1021     1.0  0.41875  0.18972  0.18433  1.0000
  H   H1219     1.0  0.63850  0.21000  0.00832  1.0000
  H   H1220     1.0  0.62822  0.16466  0.19747  1.0000
  Fe  Fe140     1.0  0.59527  0.34742  0.21259  1.0000
  C   C1022     1.0  0.60708  0.28618  0.16975  1.0000
  H   H1221     1.0  0.63091  0.20355  0.08974  1.0000
  H   H1222     1.0  0.52428  0.30201  0.11113  1.0000
  H   H1223     1.0  0.50418  0.25406  0.09980  1.0000
  H   H1224     1.0  0.52841  0.31933  0.22656  1.0000
  C   C1023     1.0  0.50722  0.07324  0.19668  1.0000
  N   N66       1.0  0.61622  0.14919  0.22372  1.0000
  H   H1225     1.0  0.49624  0.06930  0.20775  1.0000
  C   C1024     1.0  0.65360  0.32416  0.15764  1.0000
  H   H1226     1.0  0.46256  0.37386  0.19774  1.0000
  C   C1025     1.0  0.59122  0.29845  0.16537  1.0000
  C   C1026     1.0  0.51327  0.26047  0.13107  1.0000
  C   C1027     1.0  0.51633  0.25916  0.09203  1.0000
  C   C1028     1.0  0.52515  0.25291  0.07585  1.0000
  H   H1227     1.0  0.42365  0.22586  0.21319  1.0000
  C   C1029     1.0  0.63393  0.39215  0.20594  1.0000
  H   H1228     1.0  0.50732  0.17062  0.18323  1.0000
  H   H1229     1.0  0.41022  0.16522  0.18402  1.0000
  H   H1230     1.0  0.50656  0.26435  0.14453  1.0000
  C   C1030     1.0  0.51315  0.06428  0.18187  1.0000
  C   C1031     1.0  0.53665  0.08249  0.16884  1.0000
  H   H1231     1.0  0.61844  0.17120  0.08792  1.0000
  H   H1232     1.0  0.53359  0.02121  0.18473  1.0000
  C   C1032     1.0  0.53861  0.00781  0.19353  1.0000
  C   C1033     1.0  0.39318  0.37997  0.22306  1.0000
  H   H1233     1.0  0.58623  0.31085  0.17084  1.0000
  C   C1034     1.0  0.59916  0.15173  0.21697  1.0000
  H   H1234     1.0  0.50507  0.25134  0.12923  1.0000
  H   H1235     1.0  0.55325  0.00686  0.19365  1.0000
  N   N67       1.0  0.51424  0.27697  0.11603  1.0000
  C   C1035     1.0  0.52330  0.27136  0.09831  1.0000
  H   H1236     1.0  0.62745  0.40251  0.19579  1.0000
  S   S272      1.0  0.50100  0.04883  0.17955  1.0000
  C   C1036     1.0  0.52832  0.06843  0.16830  1.0000
  H   H1237     1.0  0.45841  0.17398  0.22952  1.0000
  S   S273      1.0  0.63031  0.18776  0.13040  1.0000
  C   C1037     1.0  0.53913  0.27763  0.08686  1.0000
  S   S274      1.0  0.46001  0.08085  0.20436  1.0000
  H   H1238     1.0  0.43246  0.34186  0.20087  1.0000
  H   H1239     1.0  0.44251  0.22457  0.22321  1.0000
  H   H1240     1.0  0.53664  0.25583  0.22211  1.0000
  C   C1038     1.0  0.41607  0.17179  0.19145  1.0000
  H   H1241     1.0  0.58840  0.21912  0.00522  1.0000
  S   S275      1.0  0.60842  0.37261  0.20607  1.0000
  S   S276      1.0  0.61877  0.29067  0.18456  1.0000
  H   H1242     1.0  0.53318  0.06128  0.15700  1.0000
  C   C1039     1.0  0.36361  0.35238  0.21318  1.0000
  H   H1243     1.0  0.38684  0.33006  0.20890  1.0000
  C   C1040     1.0  0.49533  0.28736  0.11495  1.0000
  H   H1244     1.0  0.61075  0.18677  0.21273  1.0000
  H   H1245     1.0  0.61470  0.20550  0.07573  1.0000
  N   N68       1.0  0.44366  0.35664  0.21435  1.0000
  H   H1246     1.0  0.34616  0.40318  0.13299  1.0000
  S   S277      1.0  0.44765  0.05193  0.18650  1.0000
  H   H1247     1.0  0.54804  0.08603  0.15801  1.0000
  H   H1248     1.0  0.44807  0.00799  0.18892  1.0000
  S   S278      1.0  0.42648  0.30411  0.21591  1.0000
  C   C1041     1.0  0.44228  0.99586  0.19515  1.0000
  N   N69       1.0  0.63939  0.18545  0.07041  1.0000
  C   C1042     1.0  0.62727  0.37578  0.21354  1.0000
  S   S279      1.0  0.56640  0.34597  0.22846  1.0000
  C   C1043     1.0  0.50011  0.18364  0.01481  1.0000
  S   S280      1.0  0.62231  0.11323  0.18763  1.0000
  H   H1249     1.0  0.48658  0.27871  0.11311  1.0000
  H   H1250     1.0  0.54550  0.28690  0.09040  1.0000
  H   H1251     1.0  0.49535  0.29944  0.10330  1.0000
  N   N70       1.0  0.65112  0.33736  0.16967  1.0000
  S   S281      1.0  0.41911  0.10414  0.18260  1.0000
  N   N71       1.0  0.52687  0.00569  0.21230  1.0000
  C   C1044     1.0  0.49267  0.22699  0.02907  1.0000
  C   C1045     1.0  0.60795  0.14672  0.16696  1.0000
  C   C1046     1.0  0.42591  0.19843  0.19403  1.0000
  S   S282      1.0  0.60739  0.31829  0.22478  1.0000
  H   H1252     1.0  0.44341  0.35951  0.18578  1.0000
  H   H1253     1.0  0.32803  0.41575  0.14715  1.0000
  C   C1047     1.0  0.43086  0.99460  0.21257  1.0000
  H   H1254     1.0  0.35659  0.34442  0.22546  1.0000
  Fe  Fe141     1.0  0.47228  0.05376  0.19606  1.0000
  C   C1048     1.0  0.49552  0.17041  0.17804  1.0000
  C   C1049     1.0  0.63588  0.36245  0.22655  1.0000
  Fe  Fe142     1.0  0.43464  0.07787  0.19729  1.0000
  H   H1255     1.0  0.32637  0.38544  0.12763  1.0000
  N   N72       1.0  0.52547  0.23043  0.01666  1.0000
  C   C1050     1.0  0.64888  0.39528  0.21140  1.0000
  C   C1051     1.0  0.48459  0.18691  0.17108  1.0000
  C   C1052     1.0  0.62361  0.13375  0.17109  1.0000
  H   H1256     1.0  0.61916  0.15985  0.03147  1.0000
  C   C1053     1.0  0.52409  0.02198  0.22043  1.0000
  H   H1257     1.0  0.53137  0.20675  0.00450  1.0000
  H   H1258     1.0  0.48790  0.19993  0.17074  1.0000
  H   H1259     1.0  0.63370  0.36390  0.17265  1.0000
  C   C1054     1.0  0.51518  0.16913  0.01353  1.0000
  H   H1260     1.0  0.62477  0.35053  0.16260  1.0000
  C   C1055     1.0  0.63775  0.35401  0.16328  1.0000
  C   C1056     1.0  0.51923  0.31948  0.21791  1.0000
  H   H1261     1.0  0.50090  0.01451  0.20371  1.0000
  C   C1057     1.0  0.42840  0.17078  0.21778  1.0000
  S   S283      1.0  0.33385  0.47299  0.19479  1.0000
  C   C1058     1.0  0.43781  0.21805  0.21431  1.0000
  H   H1262     1.0  0.59569  0.16552  0.20816  1.0000
  C   C1059     1.0  0.34412  0.35565  0.17260  1.0000
  H   H1263     1.0  0.57855  0.42613  0.22562  1.0000
  H   H1264     1.0  0.65320  0.31683  0.19446  1.0000
  C   C1060     1.0  0.49618  0.18283  0.98483  1.0000
  C   C1061     1.0  0.58070  0.03037  0.22921  1.0000
  H   H1265     1.0  0.33410  0.35708  0.18512  1.0000
  H   H1266     1.0  0.63610  0.17151  0.09897  1.0000
  H   H1267     1.0  0.41893  0.14830  0.21360  1.0000
  H   H1268     1.0  0.62570  0.18483  0.00502  1.0000
  H   H1269     1.0  0.64104  0.15668  0.08318  1.0000
  N   N73       1.0  0.32958  0.38632  0.15451  1.0000
  H   H1270     1.0  0.45971  0.10183  0.23117  1.0000
  C   C1062     1.0  0.63015  0.00764  0.21542  1.0000
  H   H1271     1.0  0.43996  0.39472  0.21194  1.0000
  C   C1063     1.0  0.53528  0.04771  0.22441  1.0000
  C   C1064     1.0  0.63287  0.98963  0.21298  1.0000
  H   H1272     1.0  0.50094  0.99686  0.22440  1.0000
  H   H1273     1.0  0.46337  0.19501  0.23081  1.0000
  H   H1274     1.0  0.65390  0.40785  0.20535  1.0000
  Fe  Fe143     1.0  0.58144  0.18965  0.98672  1.0000
  S   S284      1.0  0.42648  0.01179  0.22554  1.0000
  H   H1275     1.0  0.65314  0.12753  0.16561  1.0000
  C   C1065     1.0  0.63477  0.44888  0.22116  1.0000
  S   S285      1.0  0.54795  0.09625  0.23071  1.0000
  C   C1066     1.0  0.58150  0.99887  0.22744  1.0000
  H   H1276     1.0  0.43218  0.16275  0.23054  1.0000
  H   H1277     1.0  0.45631  0.33096  0.22988  1.0000
  S   S286      1.0  0.59337  0.98642  0.19473  1.0000
  C   C1067     1.0  0.51158  0.16813  0.98294  1.0000
  H   H1278     1.0  0.65633  0.15681  0.14358  1.0000
  C   C1068     1.0  0.44353  0.34177  0.23106  1.0000
  H   H1279     1.0  0.58723  0.15003  0.22861  1.0000
  C   C1069     1.0  0.65725  0.38212  0.22470  1.0000
  H   H1280     1.0  0.60747  0.20958  0.23111  1.0000
  C   C1070     1.0  0.65335  0.24652  0.34104  1.0000
  H   H1281     1.0  0.60523  0.46326  0.24404  1.0000
  H   H1282     1.0  0.58228  0.10953  0.26683  1.0000
  C   C1071     1.0  0.58413  0.12014  0.36839  1.0000
  H   H1283     1.0  0.64017  0.42529  0.26380  1.0000
  C   C1072     1.0  0.60343  0.24381  0.28125  1.0000
  H   H1284     1.0  0.34871  0.19620  0.35383  1.0000
  H   H1285     1.0  0.50804  0.26836  0.26198  1.0000
  C   C1073     1.0  0.65073  0.36566  0.23211  1.0000
  S   S287      1.0  0.45351  0.06892  0.25880  1.0000
  C   C1074     1.0  0.62043  0.12981  0.23373  1.0000
  N   N74       1.0  0.35005  0.10221  0.41126  1.0000
  S   S288      1.0  0.61785  0.17505  0.32047  1.0000
  H   H1286     1.0  0.56780  0.27391  0.30085  1.0000
  C   C1075     1.0  0.56067  0.15102  0.27744  1.0000
  Fe  Fe144     1.0  0.56619  0.19498  0.33353  1.0000
  S   S289      1.0  0.53549  0.20506  0.33867  1.0000
  C   C1076     1.0  0.58299  0.27970  0.27306  1.0000
  H   H1287     1.0  0.33591  0.12723  0.39641  1.0000
  C   C1077     1.0  0.56498  0.13608  0.26874  1.0000
  C   C1078     1.0  0.58512  0.13680  0.29435  1.0000
  H   H1288     1.0  0.54961  0.16244  0.27422  1.0000
  H   H1289     1.0  0.53962  0.11152  0.29108  1.0000
  H   H1290     1.0  0.49260  0.13714  0.26045  1.0000
  C   C1079     1.0  0.59607  0.12486  0.37661  1.0000
  H   H1291     1.0  0.56743  0.16310  0.29656  1.0000
  C   C1080     1.0  0.62562  0.21296  0.39018  1.0000
  Fe  Fe145     1.0  0.44679  0.15747  0.29296  1.0000
  S   S290      1.0  0.44853  0.13884  0.32044  1.0000
  S   S291      1.0  0.45236  0.15005  0.26509  1.0000
  Fe  Fe146     1.0  0.43905  0.19195  0.30882  1.0000
  S   S292      1.0  0.44026  0.17619  0.33758  1.0000
  S   S293      1.0  0.43592  0.22266  0.30190  1.0000
  Fe  Fe147     1.0  0.46485  0.15793  0.32381  1.0000
  S   S294      1.0  0.49298  0.14762  0.33079  1.0000
  Fe  Fe148     1.0  0.42368  0.15889  0.33162  1.0000
  S   S295      1.0  0.39750  0.14995  0.34893  1.0000
  S   S296      1.0  0.46476  0.17510  0.29559  1.0000
  S   S297      1.0  0.42083  0.17606  0.30363  1.0000
  S   S298      1.0  0.55230  0.13626  0.25259  1.0000
  H   H1292     1.0  0.60009  0.11015  0.28937  1.0000
  S   S299      1.0  0.34810  0.17768  0.42046  1.0000
  H   H1293     1.0  0.56474  0.08518  0.28997  1.0000
  C   C1081     1.0  0.38382  0.15837  0.36848  1.0000
  C   C1082     1.0  0.39018  0.16848  0.37744  1.0000
  C   C1083     1.0  0.37905  0.17439  0.39330  1.0000
  C   C1084     1.0  0.36163  0.17001  0.40049  1.0000
  C   C1085     1.0  0.35521  0.16004  0.39145  1.0000
  C   C1086     1.0  0.36626  0.15426  0.37550  1.0000
  H   H1294     1.0  0.40381  0.17141  0.37242  1.0000
  H   H1295     1.0  0.38405  0.18220  0.40019  1.0000
  H   H1296     1.0  0.34169  0.15692  0.39672  1.0000
  H   H1297     1.0  0.36127  0.14642  0.36865  1.0000
  C   C1087     1.0  0.50792  0.22986  0.29639  1.0000
  C   C1088     1.0  0.40723  0.23401  0.26159  1.0000
  C   C1089     1.0  0.41431  0.22558  0.27749  1.0000
  C   C1090     1.0  0.42716  0.23286  0.28193  1.0000
  C   C1091     1.0  0.43297  0.24852  0.27040  1.0000
  Fe  Fe149     1.0  0.57832  0.31621  0.23875  1.0000
  H   H1298     1.0  0.39706  0.22857  0.25832  1.0000
  H   H1299     1.0  0.40957  0.21369  0.28643  1.0000
  H   H1300     1.0  0.44269  0.25437  0.27392  1.0000
  H   H1301     1.0  0.61536  0.14376  0.26173  1.0000
  S   S300      1.0  0.57974  0.19116  0.30498  1.0000
  H   H1302     1.0  0.51657  0.12836  0.25255  1.0000
  H   H1303     1.0  0.42788  0.18219  0.24878  1.0000
  H   H1304     1.0  0.49980  0.11483  0.25508  1.0000
  S   S301      1.0  0.61642  0.22147  0.28611  1.0000
  H   H1305     1.0  0.61895  0.24981  0.25361  1.0000
  C   C1092     1.0  0.55118  0.06989  0.27971  1.0000
  C   C1093     1.0  0.52352  0.18982  0.33522  1.0000
  C   C1094     1.0  0.50428  0.19315  0.33977  1.0000
  C   C1095     1.0  0.49469  0.18070  0.33767  1.0000
  C   C1096     1.0  0.50432  0.16480  0.33111  1.0000
  C   C1097     1.0  0.52349  0.16189  0.32588  1.0000
  C   C1098     1.0  0.53305  0.17433  0.32796  1.0000
  H   H1306     1.0  0.49679  0.20519  0.34525  1.0000
  H   H1307     1.0  0.47989  0.18309  0.34171  1.0000
  H   H1308     1.0  0.53095  0.14996  0.32024  1.0000
  H   H1309     1.0  0.54783  0.17186  0.32413  1.0000
  C   C1099     1.0  0.53763  0.10010  0.28654  1.0000
  C   C1100     1.0  0.57886  0.26859  0.29050  1.0000
  C   C1101     1.0  0.45252  0.09171  0.26031  1.0000
  C   C1102     1.0  0.45634  0.10522  0.24458  1.0000
  C   C1103     1.0  0.45616  0.12309  0.24622  1.0000
  C   C1104     1.0  0.45189  0.12764  0.26358  1.0000
  C   C1105     1.0  0.44781  0.11424  0.27929  1.0000
  C   C1106     1.0  0.44839  0.09627  0.27766  1.0000
  H   H1310     1.0  0.48910  0.00875  0.28050  1.0000
  H   H1311     1.0  0.49762  0.01892  0.23848  1.0000
  H   H1312     1.0  0.44427  0.11766  0.29272  1.0000
  H   H1313     1.0  0.44535  0.08590  0.28987  1.0000
  H   H1314     1.0  0.54772  0.27096  0.27762  1.0000
  C   C1107     1.0  0.61377  0.15784  0.25428  1.0000
  H   H1315     1.0  0.53801  0.25904  0.30966  1.0000
  H   H1316     1.0  0.33049  0.12514  0.42086  1.0000
  Fe  Fe150     1.0  0.60191  0.20260  0.30931  1.0000
  Fe  Fe151     1.0  0.59412  0.16401  0.31890  1.0000
  S   S302      1.0  0.61878  0.17088  0.37057  1.0000
  C   C1108     1.0  0.58891  0.25057  0.29451  1.0000
  C   C1109     1.0  0.48416  0.99987  0.27475  1.0000
  C   C1110     1.0  0.50830  0.02674  0.23395  1.0000
  H   H1317     1.0  0.36413  0.07996  0.39731  1.0000
  C   C1111     1.0  0.52133  0.10050  0.28080  1.0000
  C   C1112     1.0  0.48862  0.11072  0.29140  1.0000
  C   C1113     1.0  0.57078  0.15143  0.29012  1.0000
  Fe  Fe152     1.0  0.60200  0.18058  0.34804  1.0000
  C   C1114     1.0  0.53560  0.26744  0.27497  1.0000
  C   C1115     1.0  0.41358  0.24922  0.24971  1.0000
  C   C1116     1.0  0.58909  0.12159  0.28605  1.0000
  H   H1318     1.0  0.46104  0.02066  0.26751  1.0000
  H   H1319     1.0  0.54460  0.22307  0.29770  1.0000
  C   C1117     1.0  0.63979  0.20446  0.39995  1.0000
  C   C1118     1.0  0.59737  0.27285  0.25975  1.0000
  H   H1320     1.0  0.47683  0.12263  0.29166  1.0000
  C   C1119     1.0  0.36799  0.22790  0.36251  1.0000
  C   C1120     1.0  0.42647  0.25647  0.25410  1.0000
  H   H1321     1.0  0.52383  0.24240  0.31787  1.0000
  C   C1121     1.0  0.55229  0.08500  0.28594  1.0000
  H   H1322     1.0  0.43131  0.26832  0.24505  1.0000
  N   N75       1.0  0.50583  0.11654  0.28054  1.0000
  H   H1323     1.0  0.51396  0.26579  0.30895  1.0000
  C   C1122     1.0  0.50444  0.25602  0.27115  1.0000
  C   C1123     1.0  0.61638  0.42726  0.24109  1.0000
  C   C1124     1.0  0.52635  0.25469  0.30695  1.0000
  H   H1324     1.0  0.33984  0.08578  0.39863  1.0000
  S   S303      1.0  0.32573  0.14200  0.45971  1.0000
  H   H1325     1.0  0.61657  0.23072  0.34431  1.0000
  H   H1326     1.0  0.33546  0.21959  0.40119  1.0000
  N   N76       1.0  0.64295  0.22632  0.32626  1.0000
  H   H1327     1.0  0.35511  0.12186  0.43421  1.0000
  H   H1328     1.0  0.59865  0.14060  0.39497  1.0000
  C   C1125     1.0  0.53536  0.06974  0.27416  1.0000
  H   H1329     1.0  0.44229  0.34731  0.24345  1.0000
  H   H1330     1.0  0.37853  0.23598  0.35730  1.0000
  S   S304      1.0  0.64733  0.21768  0.41144  1.0000
  H   H1331     1.0  0.50416  0.30079  0.23834  1.0000
  C   C1126     1.0  0.46193  0.99519  0.25999  1.0000
  C   C1127     1.0  0.36658  0.11982  0.42295  1.0000
  S   S305      1.0  0.58731  0.20902  0.33686  1.0000
  C   C1128     1.0  0.57792  0.01254  0.23781  1.0000
  C   C1129     1.0  0.64757  0.18586  0.40022  1.0000
  H   H1332     1.0  0.48802  0.21260  0.30278  1.0000
  H   H1333     1.0  0.35960  0.23796  0.38775  1.0000
  H   H1334     1.0  0.48178  0.25886  0.25813  1.0000
  H   H1335     1.0  0.62190  0.25103  0.32814  1.0000
  H   H1336     1.0  0.63603  0.20004  0.34042  1.0000
  H   H1337     1.0  0.47156  0.23101  0.27830  1.0000
  H   H1338     1.0  0.43206  0.33449  0.23368  1.0000
  C   C1130     1.0  0.52064  0.08480  0.27463  1.0000
  C   C1131     1.0  0.60907  0.39644  0.24972  1.0000
  C   C1132     1.0  0.58927  0.13651  0.38907  1.0000
  H   H1339     1.0  0.33012  0.19927  0.38384  1.0000
  H   H1340     1.0  0.49318  0.04583  0.25144  1.0000
  H   H1341     1.0  0.61123  0.44900  0.26497  1.0000
  H   H1342     1.0  0.65332  0.42049  0.24182  1.0000
  H   H1343     1.0  0.65412  0.26108  0.46139  1.0000
  H   H1344     1.0  0.61745  0.00051  0.26179  1.0000
  H   H1345     1.0  0.45940  0.13336  0.23400  1.0000
  C   C1133     1.0  0.62011  0.40835  0.24975  1.0000
  C   C1134     1.0  0.59423  0.40282  0.24095  1.0000
  C   C1135     1.0  0.38143  0.12778  0.42158  1.0000
  C   C1136     1.0  0.61376  0.16285  0.23515  1.0000
  C   C1137     1.0  0.39642  0.12618  0.40706  1.0000
  C   C1138     1.0  0.49272  0.22467  0.29387  1.0000
  H   H1346     1.0  0.52443  0.27983  0.27601  1.0000
  H   H1347     1.0  0.48467  0.10077  0.28562  1.0000
  H   H1348     1.0  0.55914  0.23920  0.28788  1.0000
  C   C1139     1.0  0.64104  0.17585  0.39106  1.0000
  C   C1140     1.0  0.61693  0.45494  0.25045  1.0000
  C   C1141     1.0  0.60946  0.18970  0.25620  1.0000
  H   H1349     1.0  0.62539  0.46474  0.25060  1.0000
  H   H1350     1.0  0.63180  0.40220  0.25619  1.0000
  H   H1351     1.0  0.48982  0.10430  0.30587  1.0000
  H   H1352     1.0  0.54932  0.23123  0.27325  1.0000
  H   H1353     1.0  0.38100  0.13581  0.43148  1.0000
  C   C1142     1.0  0.48341  0.23506  0.28007  1.0000
  H   H1354     1.0  0.40764  0.13289  0.40570  1.0000
  C   C1143     1.0  0.48923  0.25070  0.26874  1.0000
  H   H1355     1.0  0.51012  0.12630  0.30278  1.0000
  C   C1144     1.0  0.60773  0.25500  0.26392  1.0000
  N   N77       1.0  0.37744  0.21469  0.33397  1.0000
  C   C1145     1.0  0.37327  0.20158  0.32508  1.0000
  C   C1146     1.0  0.37541  0.23300  0.32143  1.0000
  C   C1147     1.0  0.39685  0.20837  0.33588  1.0000
  C   C1148     1.0  0.36552  0.21609  0.35220  1.0000
  H   H1356     1.0  0.51716  0.06448  0.24275  1.0000
  H   H1357     1.0  0.60055  0.28129  0.24622  1.0000
  S   S306      1.0  0.57669  0.04718  0.24248  1.0000
  C   C1149     1.0  0.61168  0.17114  0.26455  1.0000
  H   H1358     1.0  0.61569  0.23393  0.32051  1.0000
  H   H1359     1.0  0.35897  0.20570  0.32274  1.0000
  H   H1360     1.0  0.38244  0.20088  0.31140  1.0000
  H   H1361     1.0  0.37539  0.18730  0.33345  1.0000
  H   H1362     1.0  0.36083  0.23864  0.32023  1.0000
  H   H1363     1.0  0.38371  0.23234  0.30736  1.0000
  H   H1364     1.0  0.38020  0.24318  0.32611  1.0000
  H   H1365     1.0  0.39889  0.19484  0.34550  1.0000
  C   C1150     1.0  0.51924  0.05248  0.23696  1.0000
  H   H1366     1.0  0.40185  0.21816  0.34090  1.0000
  H   H1367     1.0  0.60807  0.20961  0.37375  1.0000
  C   C1151     1.0  0.50578  0.04197  0.24179  1.0000
  H   H1368     1.0  0.49612  0.14295  0.28856  1.0000
  H   H1369     1.0  0.58551  0.24205  0.30791  1.0000
  H   H1370     1.0  0.41238  0.20298  0.24110  1.0000
  H   H1371     1.0  0.40801  0.11605  0.38217  1.0000
  S   S307      1.0  0.56959  0.30181  0.26797  1.0000
  H   H1372     1.0  0.51458  0.22144  0.30737  1.0000
  N   N78       1.0  0.55263  0.12267  0.36274  1.0000
  S   S308      1.0  0.59841  0.13722  0.30977  1.0000
  C   C1152     1.0  0.55965  0.12614  0.34255  1.0000
  C   C1153     1.0  0.55196  0.10292  0.36932  1.0000
  C   C1154     1.0  0.56494  0.12733  0.37214  1.0000
  C   C1155     1.0  0.55838  0.13874  0.38537  1.0000
  C   C1156     1.0  0.50826  0.13140  0.28833  1.0000
  C   C1157     1.0  0.57047  0.14327  0.39359  1.0000
  C   C1158     1.0  0.34347  0.21903  0.38746  1.0000
  H   H1373     1.0  0.63099  0.34977  0.23249  1.0000
  C   C1159     1.0  0.39661  0.11661  0.39385  1.0000
  H   H1374     1.0  0.38271  0.10192  0.38403  1.0000
  H   H1375     1.0  0.59018  0.11117  0.35873  1.0000
  H   H1376     1.0  0.56179  0.14049  0.33722  1.0000
  H   H1377     1.0  0.55009  0.12394  0.33499  1.0000
  H   H1378     1.0  0.57293  0.11691  0.33835  1.0000
  H   H1379     1.0  0.54703  0.09967  0.38448  1.0000
  H   H1380     1.0  0.54258  0.09889  0.36282  1.0000
  H   H1381     1.0  0.56571  0.09397  0.36611  1.0000
  H   H1382     1.0  0.54405  0.14477  0.38928  1.0000
  S   S309      1.0  0.57935  0.16713  0.34737  1.0000
  H   H1383     1.0  0.56531  0.15249  0.40316  1.0000
  C   C1160     1.0  0.51429  0.24567  0.28511  1.0000
  H   H1384     1.0  0.53324  0.14853  0.36201  1.0000
  C   C1161     1.0  0.62684  0.18433  0.38134  1.0000
  H   H1385     1.0  0.61951  0.22734  0.38990  1.0000
  H   H1386     1.0  0.64697  0.16141  0.39161  1.0000
  H   H1387     1.0  0.61076  0.11987  0.37296  1.0000
  H   H1388     1.0  0.53939  0.26535  0.26059  1.0000
  H   H1389     1.0  0.57314  0.00928  0.25253  1.0000
  C   C1162     1.0  0.50361  0.12452  0.26133  1.0000
  N   N79       1.0  0.53038  0.25085  0.28822  1.0000
  C   C1163     1.0  0.60916  0.19510  0.23753  1.0000
  C   C1164     1.0  0.53352  0.13347  0.36608  1.0000
  H   H1390     1.0  0.52480  0.13059  0.35797  1.0000
  C   C1165     1.0  0.57909  0.12126  0.27321  1.0000
  H   H1391     1.0  0.52653  0.13021  0.38072  1.0000
  H   H1392     1.0  0.60799  0.19992  0.26422  1.0000
  C   C1166     1.0  0.35137  0.20591  0.36031  1.0000
  C   C1167     1.0  0.61922  0.20300  0.38086  1.0000
  H   H1393     1.0  0.52016  0.13756  0.28010  1.0000
  C   C1168     1.0  0.54651  0.23544  0.28666  1.0000
  H   H1394     1.0  0.53483  0.05805  0.26897  1.0000
  C   C1169     1.0  0.33375  0.11731  0.40974  1.0000
  C   C1170     1.0  0.36625  0.11002  0.40972  1.0000
  H   H1395     1.0  0.50886  0.08426  0.26969  1.0000
  H   H1396     1.0  0.65262  0.44152  0.24822  1.0000
  C   C1171     1.0  0.34047  0.20756  0.37761  1.0000
  H   H1397     1.0  0.43206  0.20358  0.24939  1.0000
  H   H1398     1.0  0.35875  0.07857  0.43152  1.0000
  H   H1399     1.0  0.56273  0.05839  0.27884  1.0000
  S   S310      1.0  0.59023  0.09580  0.23294  1.0000
  H   H1400     1.0  0.40612  0.20675  0.32251  1.0000
  C   C1172     1.0  0.38179  0.10864  0.39505  1.0000
  H   H1401     1.0  0.63592  0.20560  0.31643  1.0000
  C   C1173     1.0  0.62211  0.99733  0.24820  1.0000
  C   C1174     1.0  0.34647  0.08958  0.42936  1.0000
  H   H1402     1.0  0.58622  0.39332  0.24031  1.0000
  C   C1175     1.0  0.65171  0.23437  0.30737  1.0000
  H   H1403     1.0  0.64693  0.25865  0.33244  1.0000
  N   N80       1.0  0.62793  0.44026  0.24050  1.0000
  C   C1176     1.0  0.64313  0.20681  0.32678  1.0000
  H   H1404     1.0  0.61247  0.38197  0.25593  1.0000
  H   H1405     1.0  0.64515  0.23235  0.29685  1.0000
  C   C1177     1.0  0.62347  0.23593  0.33000  1.0000
  H   H1406     1.0  0.61180  0.16698  0.27912  1.0000
  C   C1178     1.0  0.42709  0.19663  0.24109  1.0000
  C   C1179     1.0  0.64418  0.43142  0.24898  1.0000
  C   C1180     1.0  0.46833  0.00652  0.26751  1.0000
  C   C1181     1.0  0.35717  0.22923  0.37991  1.0000
  H   H1407     1.0  0.44995  0.00131  0.25395  1.0000
  H   H1408     1.0  0.60892  0.12642  0.24521  1.0000
  C   C1182     1.0  0.35215  0.09167  0.39686  1.0000
  H   H1409     1.0  0.35380  0.10062  0.38288  1.0000
  C   C1183     1.0  0.60082  0.43341  0.23273  1.0000
  H   H1410     1.0  0.63316  0.12692  0.23920  1.0000
  H   H1411     1.0  0.62188  0.02560  0.23469  1.0000
  H   H1412     1.0  0.64102  0.23756  0.47636  1.0000
  H   H1413     1.0  0.34255  0.09685  0.44101  1.0000
  H   H1414     1.0  0.33476  0.08293  0.43073  1.0000
  H   H1415     1.0  0.65059  0.24945  0.30523  1.0000
  C   C1184     1.0  0.65261  0.22864  0.33966  1.0000
  H   H1416     1.0  0.52752  0.98696  0.23835  1.0000
  Fe  Fe153     1.0  0.56349  0.11601  0.23384  1.0000
  C   C1185     1.0  0.59005  0.42129  0.23255  1.0000
  H   H1417     1.0  0.65715  0.35534  0.24235  1.0000
  Fe  Fe154     1.0  0.45046  0.06411  0.23197  1.0000
  C   C1186     1.0  0.62470  0.01150  0.23296  1.0000
  Fe  Fe155     1.0  0.59371  0.21493  0.69291  1.0000
  C   C1187     1.0  0.37299  0.14426  0.72767  1.0000
  S   S311      1.0  0.60577  0.21559  0.66270  1.0000
  C   C1188     1.0  0.35187  0.15980  0.67821  1.0000
  H   H1418     1.0  0.40516  0.22956  0.64647  1.0000
  S   S312      1.0  0.56759  0.23263  0.70518  1.0000
  S   S313      1.0  0.58560  0.18853  0.70977  1.0000
  C   C1189     1.0  0.49090  0.20416  0.70129  1.0000
  C   C1190     1.0  0.50897  0.20593  0.69263  1.0000
  H   H1419     1.0  0.63003  0.17319  0.69364  1.0000
  C   C1191     1.0  0.36190  0.15779  0.69166  1.0000
  S   S314      1.0  0.60985  0.21767  0.71219  1.0000
  H   H1420     1.0  0.61454  0.25365  0.50534  1.0000
  H   H1421     1.0  0.62282  0.28692  0.71822  1.0000
  H   H1422     1.0  0.42379  0.21446  0.66814  1.0000
  S   S315      1.0  0.42200  0.21725  0.70912  1.0000
  H   H1423     1.0  0.46220  0.19614  0.65852  1.0000
  S   S316      1.0  0.38657  0.20905  0.68443  1.0000
  C   C1192     1.0  0.51666  0.20318  0.72215  1.0000
  H   H1424     1.0  0.42689  0.23734  0.65632  1.0000
  S   S317      1.0  0.36833  0.17453  0.62555  1.0000
  H   H1425     1.0  0.53577  0.20664  0.69626  1.0000
  N   N81       1.0  0.44341  0.21555  0.64251  1.0000
  C   C1193     1.0  0.52184  0.20544  0.70303  1.0000
  C   C1194     1.0  0.38180  0.19922  0.66805  1.0000
  C   C1195     1.0  0.39389  0.18434  0.66134  1.0000
  C   C1196     1.0  0.38959  0.17706  0.64825  1.0000
  C   C1197     1.0  0.37333  0.18473  0.64149  1.0000
  C   C1198     1.0  0.36138  0.19980  0.64798  1.0000
  C   C1199     1.0  0.36558  0.20693  0.66126  1.0000
  H   H1426     1.0  0.40664  0.17859  0.66604  1.0000
  H   H1427     1.0  0.38661  0.11428  0.68919  1.0000
  H   H1428     1.0  0.34883  0.20582  0.64293  1.0000
  H   H1429     1.0  0.35621  0.21854  0.66626  1.0000
  C   C1200     1.0  0.64504  0.24037  0.51832  1.0000
  H   H1430     1.0  0.40688  0.15162  0.71305  1.0000
  H   H1431     1.0  0.46403  0.19143  0.63666  1.0000
  C   C1201     1.0  0.39797  0.15284  0.70330  1.0000
  S   S318      1.0  0.35234  0.18064  0.54258  1.0000
  H   H1432     1.0  0.34250  0.17265  0.67444  1.0000
  Fe  Fe156     1.0  0.40881  0.19791  0.70146  1.0000
  C   C1202     1.0  0.34243  0.17327  0.51381  1.0000
  H   H1433     1.0  0.33294  0.16991  0.49092  1.0000
  C   C1203     1.0  0.33051  0.16820  0.50570  1.0000
  S   S319      1.0  0.34719  0.20503  0.58313  1.0000
  H   H1434     1.0  0.63627  0.22322  0.49829  1.0000
  H   H1435     1.0  0.63473  0.23158  0.52516  1.0000
  H   H1436     1.0  0.46480  0.22239  0.61915  1.0000
  H   H1437     1.0  0.46621  0.22818  0.63982  1.0000
  H   H1438     1.0  0.63398  0.32541  0.73138  1.0000
  C   C1204     1.0  0.45399  0.19671  0.64825  1.0000
  H   H1439     1.0  0.62744  0.23397  0.67551  1.0000
  H   H1440     1.0  0.44902  0.24176  0.62699  1.0000
  C   C1205     1.0  0.63472  0.23098  0.66229  1.0000
  C   C1206     1.0  0.62696  0.22251  0.65291  1.0000
  C   C1207     1.0  0.63644  0.21906  0.63555  1.0000
  Fe  Fe157     1.0  0.34492  0.18416  0.60977  1.0000
  H   H1441     1.0  0.44387  0.22222  0.66809  1.0000
  H   H1442     1.0  0.63051  0.21252  0.62822  1.0000
  H   H1443     1.0  0.64889  0.15285  0.71363  1.0000
  H   H1444     1.0  0.38523  0.22716  0.62782  1.0000
  H   H1445     1.0  0.39724  0.21096  0.60203  1.0000
  H   H1446     1.0  0.65643  0.19829  0.68767  1.0000
  C   C1208     1.0  0.41155  0.22286  0.63501  1.0000
  H   H1447     1.0  0.63915  0.18658  0.67236  1.0000
  S   S320      1.0  0.40199  0.18247  0.73056  1.0000
  H   H1448     1.0  0.59266  0.29640  0.72691  1.0000
  S   S321      1.0  0.43549  0.17851  0.69435  1.0000
  Fe  Fe158     1.0  0.44823  0.19640  0.70445  1.0000
  H   H1449     1.0  0.35408  0.17886  0.50525  1.0000
  H   H1450     1.0  0.40716  0.15024  0.69010  1.0000
  C   C1209     1.0  0.43063  0.21508  0.63117  1.0000
  C   C1210     1.0  0.49857  0.20165  0.73075  1.0000
  H   H1451     1.0  0.64855  0.18478  0.70939  1.0000
  C   C1211     1.0  0.62603  0.26088  0.49810  1.0000
  H   H1452     1.0  0.39893  0.16544  0.64325  1.0000
  C   C1212     1.0  0.42526  0.20518  0.60531  1.0000
  S   S322      1.0  0.47501  0.20431  0.68812  1.0000
  C   C1213     1.0  0.40657  0.21249  0.60977  1.0000
  C   C1214     1.0  0.39678  0.12107  0.71538  1.0000
  H   H1453     1.0  0.36001  0.16951  0.69778  1.0000
  C   C1215     1.0  0.45643  0.22748  0.63161  1.0000
  C   C1216     1.0  0.43402  0.22271  0.65945  1.0000
  C   C1217     1.0  0.35457  0.14575  0.66884  1.0000
  Fe  Fe159     1.0  0.33962  0.18466  0.57149  1.0000
  H   H1454     1.0  0.43045  0.19818  0.59388  1.0000
  C   C1218     1.0  0.48575  0.20221  0.72038  1.0000
  C   C1219     1.0  0.43719  0.20661  0.61569  1.0000
  H   H1455     1.0  0.45157  0.20080  0.61164  1.0000
  H   H1456     1.0  0.51308  0.20753  0.67787  1.0000
  C   C1220     1.0  0.37699  0.12714  0.68677  1.0000
  H   H1457     1.0  0.44464  0.18684  0.65454  1.0000
  C   C1221     1.0  0.39981  0.22158  0.62436  1.0000
  H   H1458     1.0  0.36932  0.11873  0.66548  1.0000
  H   H1459     1.0  0.47183  0.20130  0.72717  1.0000
  C   C1222     1.0  0.36708  0.12946  0.67311  1.0000
  C   C1223     1.0  0.33890  0.17184  0.53289  1.0000
  H   H1460     1.0  0.40424  0.12024  0.72637  1.0000
  H   H1461     1.0  0.62457  0.27269  0.50465  1.0000
  Fe  Fe160     1.0  0.42964  0.16442  0.72392  1.0000
  N   N82       1.0  0.38543  0.13972  0.71048  1.0000
  H   H1462     1.0  0.63076  0.31729  0.71275  1.0000
  S   S323      1.0  0.43610  0.13364  0.73118  1.0000
  C   C1224     1.0  0.63467  0.31279  0.72644  1.0000
  Fe  Fe161     1.0  0.56110  0.20650  0.72388  1.0000
  H   H1463     1.0  0.36602  0.15899  0.72596  1.0000
  C   C1225     1.0  0.37465  0.14131  0.69650  1.0000
  S   S324      1.0  0.33960  0.16286  0.59721  1.0000
  C   C1226     1.0  0.64526  0.23290  0.48985  1.0000
  C   C1227     1.0  0.65184  0.23588  0.65441  1.0000
  H   H1464     1.0  0.40766  0.11735  0.70352  1.0000
  H   H1465     1.0  0.34733  0.14774  0.65784  1.0000
  C   C1228     1.0  0.64189  0.17300  0.68175  1.0000
  H   H1466     1.0  0.39044  0.16739  0.70082  1.0000
  Fe  Fe162     1.0  0.58318  0.23292  0.72613  1.0000
  H   H1467     1.0  0.64158  0.16238  0.67440  1.0000
  N   N83       1.0  0.64410  0.24836  0.49873  1.0000
  H   H1468     1.0  0.38819  0.11042  0.72062  1.0000
  Fe  Fe163     1.0  0.60031  0.19231  0.72974  1.0000
  H   H1469     1.0  0.64927  0.30540  0.72448  1.0000
  H   H1470     1.0  0.62412  0.26672  0.48372  1.0000
  H   H1471     1.0  0.64222  0.25115  0.52653  1.0000
  C   C1229     1.0  0.65367  0.22383  0.62771  1.0000
  C   C1230     1.0  0.32397  0.16446  0.54393  1.0000
  H   H1472     1.0  0.57318  0.11722  0.90066  1.0000
  Fe  Fe164     1.0  0.45804  0.06706  0.82681  1.0000
  S   S325      1.0  0.45322  0.05054  0.85543  1.0000
  S   S326      1.0  0.48716  0.06520  0.81187  1.0000
  Fe  Fe165     1.0  0.41786  0.08019  0.82679  1.0000
  S   S327      1.0  0.40947  0.06423  0.85536  1.0000
  S   S328      1.0  0.39749  0.09990  0.81107  1.0000
  Fe  Fe166     1.0  0.43135  0.07485  0.86172  1.0000
  S   S329      1.0  0.42666  0.08478  0.88808  1.0000
  Fe  Fe167     1.0  0.43216  0.04136  0.84629  1.0000
  S   S330      1.0  0.43238  0.01079  0.85460  1.0000
  S   S331      1.0  0.43813  0.09236  0.83375  1.0000
  S   S332      1.0  0.43849  0.05638  0.81710  1.0000
  Fe  Fe168     1.0  0.56068  0.08481  0.85675  1.0000
  S   S333      1.0  0.56721  0.09520  0.82626  1.0000
  Fe  Fe169     1.0  0.55512  0.12342  0.86508  1.0000
  S   S334      1.0  0.56092  0.13662  0.83519  1.0000
  S   S335      1.0  0.54443  0.14377  0.88398  1.0000
  Fe  Fe170     1.0  0.54384  0.11877  0.83152  1.0000
  S   S336      1.0  0.52052  0.13018  0.81667  1.0000
  Fe  Fe171     1.0  0.58370  0.11204  0.83283  1.0000
  S   S337      1.0  0.61179  0.11418  0.81617  1.0000
  S   S338      1.0  0.53609  0.10751  0.86142  1.0000
  S   S339      1.0  0.57928  0.09981  0.86318  1.0000
  H   H1473     1.0  0.42781  0.00370  0.79420  1.0000
  S   S340      1.0  0.40141  0.22028  0.92273  1.0000
  Fe  Fe172     1.0  0.55404  0.20837  0.96231  1.0000
  Fe  Fe173     1.0  0.59396  0.20822  0.94713  1.0000
  S   S341      1.0  0.60310  0.17998  0.96341  1.0000
  S   S342      1.0  0.61227  0.22471  0.92530  1.0000
  Fe  Fe174     1.0  0.58026  0.17283  0.95501  1.0000
  S   S343      1.0  0.58453  0.14626  0.94551  1.0000
  H   H1474     1.0  0.50760  0.10570  0.77385  1.0000
  S   S344      1.0  0.57286  0.20027  0.93705  1.0000
  S   S345      1.0  0.57450  0.21862  0.97114  1.0000
  S   S346      1.0  0.64006  0.40049  0.84772  1.0000
  H   H1475     1.0  0.39003  0.99381  0.82777  1.0000
  H   H1476     1.0  0.55209  0.33797  0.75002  1.0000
  C   C1231     1.0  0.34813  0.35502  0.86363  1.0000
  C   C1232     1.0  0.51690  0.25771  0.77525  1.0000
  Fe  Fe175     1.0  0.57711  0.30034  0.84850  1.0000
  S   S347      1.0  0.60695  0.29302  0.83612  1.0000
  S   S348      1.0  0.56465  0.29064  0.87827  1.0000
  Fe  Fe176     1.0  0.56741  0.32138  0.81204  1.0000
  S   S349      1.0  0.59677  0.31593  0.79690  1.0000
  S   S350      1.0  0.54476  0.33400  0.79601  1.0000
  Fe  Fe177     1.0  0.59747  0.28727  0.81339  1.0000
  S   S351      1.0  0.61045  0.26151  0.80229  1.0000
  Fe  Fe178     1.0  0.60370  0.32247  0.82103  1.0000
  S   S352      1.0  0.52526  0.22446  0.96379  1.0000
  S   S353      1.0  0.56784  0.29224  0.82691  1.0000
  S   S354      1.0  0.57410  0.33035  0.83495  1.0000
  C   C1233     1.0  0.43425  0.39420  0.80966  1.0000
  H   H1477     1.0  0.57482  0.15202  0.74724  1.0000
  H   H1478     1.0  0.49439  0.20001  0.74552  1.0000
  S   S355      1.0  0.35193  0.40585  0.81461  1.0000
  Fe  Fe179     1.0  0.45162  0.29990  0.82015  1.0000
  S   S356      1.0  0.44425  0.27214  0.82655  1.0000
  S   S357      1.0  0.47177  0.30415  0.83471  1.0000
  Fe  Fe180     1.0  0.42315  0.31778  0.79646  1.0000
  S   S358      1.0  0.41351  0.29157  0.80038  1.0000
  S   S359      1.0  0.41022  0.34362  0.77859  1.0000
  Fe  Fe181     1.0  0.41514  0.28775  0.82986  1.0000
  S   S360      1.0  0.39065  0.28167  0.85164  1.0000
  Fe  Fe182     1.0  0.44324  0.27807  0.79666  1.0000
  S   S361      1.0  0.45680  0.25636  0.77985  1.0000
  S   S362      1.0  0.42240  0.31500  0.82629  1.0000
  S   S363      1.0  0.45312  0.30469  0.78987  1.0000
  C   C1234     1.0  0.62600  0.32945  0.88249  1.0000
  N   N84       1.0  0.49525  0.07874  0.88897  1.0000
  H   H1479     1.0  0.47571  0.07304  0.91420  1.0000
  H   H1480     1.0  0.53712  0.17197  0.76608  1.0000
  H   H1481     1.0  0.35025  0.00253  0.86755  1.0000
  H   H1482     1.0  0.48819  0.26832  0.75704  1.0000
  S   S364      1.0  0.40659  0.21115  0.76345  1.0000
  H   H1483     1.0  0.43685  0.19825  0.84561  1.0000
  S   S365      1.0  0.62237  0.16924  0.73937  1.0000
  H   H1484     1.0  0.50913  0.08671  0.86098  1.0000
  C   C1235     1.0  0.44255  0.24419  0.77520  1.0000
  C   C1236     1.0  0.42456  0.24452  0.78513  1.0000
  C   C1237     1.0  0.41358  0.23438  0.78140  1.0000
  C   C1238     1.0  0.42044  0.22410  0.76757  1.0000
  C   C1239     1.0  0.43844  0.22375  0.75766  1.0000
  C   C1240     1.0  0.44953  0.23364  0.76159  1.0000
  H   H1485     1.0  0.41915  0.25242  0.79580  1.0000
  H   H1486     1.0  0.39970  0.23458  0.78918  1.0000
  C   C1241     1.0  0.34038  0.31401  0.82604  1.0000
  C   C1242     1.0  0.53235  0.24624  0.74661  1.0000
  C   C1243     1.0  0.36731  0.38808  0.80466  1.0000
  C   C1244     1.0  0.36752  0.38628  0.78696  1.0000
  C   C1245     1.0  0.38078  0.37259  0.77906  1.0000
  C   C1246     1.0  0.39347  0.36033  0.78901  1.0000
  C   C1247     1.0  0.39289  0.36185  0.80689  1.0000
  C   C1248     1.0  0.38004  0.37586  0.81456  1.0000
  H   H1487     1.0  0.35782  0.39574  0.77919  1.0000
  H   H1488     1.0  0.38120  0.37151  0.76519  1.0000
  H   H1489     1.0  0.40265  0.35262  0.81465  1.0000
  H   H1490     1.0  0.37996  0.37725  0.82823  1.0000
  H   H1491     1.0  0.32583  0.31984  0.83164  1.0000
  H   H1492     1.0  0.46345  0.23328  0.75389  1.0000
  C   C1249     1.0  0.52465  0.32532  0.80646  1.0000
  C   C1250     1.0  0.51286  0.32408  0.79574  1.0000
  C   C1251     1.0  0.49671  0.31726  0.80412  1.0000
  C   C1252     1.0  0.49205  0.31222  0.82328  1.0000
  C   C1253     1.0  0.50372  0.31374  0.83391  1.0000
  C   C1254     1.0  0.52008  0.31997  0.82555  1.0000
  H   H1493     1.0  0.51644  0.32805  0.78094  1.0000
  H   H1494     1.0  0.48796  0.31589  0.79576  1.0000
  H   H1495     1.0  0.50004  0.31024  0.84872  1.0000
  H   H1496     1.0  0.52898  0.32108  0.83393  1.0000
  S   S366      1.0  0.45018  0.19749  0.89764  1.0000
  H   H1497     1.0  0.53515  0.11169  0.77881  1.0000
  C   C1255     1.0  0.52755  0.12239  0.76982  1.0000
  H   H1498     1.0  0.45830  0.33614  0.80706  1.0000
  C   C1256     1.0  0.44725  0.34862  0.80547  1.0000
  C   C1257     1.0  0.58527  0.25841  0.75574  1.0000
  C   C1258     1.0  0.59925  0.24413  0.76156  1.0000
  C   C1259     1.0  0.60664  0.24482  0.77627  1.0000
  C   C1260     1.0  0.59995  0.25970  0.78521  1.0000
  C   C1261     1.0  0.58554  0.27361  0.77978  1.0000
  C   C1262     1.0  0.57819  0.27289  0.76513  1.0000
  H   H1499     1.0  0.60476  0.23286  0.75438  1.0000
  H   H1500     1.0  0.61780  0.23402  0.78046  1.0000
  H   H1501     1.0  0.58025  0.28513  0.78660  1.0000
  H   H1502     1.0  0.56707  0.28372  0.76098  1.0000
  C   C1263     1.0  0.59895  0.24278  0.91215  1.0000
  C   C1264     1.0  0.60698  0.25104  0.89451  1.0000
  C   C1265     1.0  0.59641  0.26536  0.88383  1.0000
  C   C1266     1.0  0.57793  0.27191  0.89093  1.0000
  C   C1267     1.0  0.56991  0.26363  0.90860  1.0000
  C   C1268     1.0  0.58033  0.24893  0.91908  1.0000
  H   H1503     1.0  0.55562  0.26856  0.91420  1.0000
  H   H1504     1.0  0.57400  0.24261  0.93268  1.0000
  C   C1269     1.0  0.39917  0.23732  0.90279  1.0000
  C   C1270     1.0  0.41424  0.24029  0.88848  1.0000
  C   C1271     1.0  0.41187  0.25400  0.87269  1.0000
  C   C1272     1.0  0.39441  0.26466  0.87120  1.0000
  C   C1273     1.0  0.37945  0.26178  0.88557  1.0000
  C   C1274     1.0  0.38183  0.24821  0.90133  1.0000
  H   H1505     1.0  0.42765  0.23204  0.88956  1.0000
  H   H1506     1.0  0.42342  0.25611  0.86159  1.0000
  H   H1507     1.0  0.36593  0.26998  0.88449  1.0000
  H   H1508     1.0  0.37017  0.24599  0.91235  1.0000
  C   C1275     1.0  0.61370  0.12990  0.79502  1.0000
  C   C1276     1.0  0.59873  0.14331  0.78975  1.0000
  C   C1277     1.0  0.60110  0.15571  0.77268  1.0000
  C   C1278     1.0  0.61839  0.15451  0.76094  1.0000
  C   C1279     1.0  0.63320  0.14109  0.76625  1.0000
  C   C1280     1.0  0.63088  0.12892  0.78323  1.0000
  H   H1509     1.0  0.58548  0.14424  0.79890  1.0000
  H   H1510     1.0  0.58970  0.16622  0.76867  1.0000
  H   H1511     1.0  0.56487  0.13897  0.73734  1.0000
  H   H1512     1.0  0.64247  0.11865  0.78726  1.0000
  C   C1281     1.0  0.55688  0.14460  0.89994  1.0000
  C   C1282     1.0  0.56999  0.12955  0.90618  1.0000
  C   C1283     1.0  0.57860  0.13026  0.92002  1.0000
  C   C1284     1.0  0.57436  0.14609  0.92745  1.0000
  C   C1285     1.0  0.56162  0.16127  0.92083  1.0000
  C   C1286     1.0  0.55280  0.16049  0.90723  1.0000
  H   H1513     1.0  0.50388  0.05096  0.90326  1.0000
  S   S367      1.0  0.53234  0.20161  0.73599  1.0000
  H   H1514     1.0  0.55831  0.17352  0.92642  1.0000
  H   H1515     1.0  0.54266  0.17218  0.90244  1.0000
  C   C1287     1.0  0.40830  0.10932  0.78893  1.0000
  C   C1288     1.0  0.42573  0.10062  0.78102  1.0000
  C   C1289     1.0  0.43417  0.10812  0.76322  1.0000
  C   C1290     1.0  0.42552  0.12471  0.75356  1.0000
  C   C1291     1.0  0.40833  0.13373  0.76166  1.0000
  C   C1292     1.0  0.39957  0.12586  0.77921  1.0000
  H   H1516     1.0  0.43260  0.08792  0.78843  1.0000
  H   H1517     1.0  0.44750  0.10112  0.75700  1.0000
  H   H1518     1.0  0.40168  0.14663  0.75438  1.0000
  H   H1519     1.0  0.38614  0.13271  0.78537  1.0000
  C   C1293     1.0  0.43491  0.10447  0.88711  1.0000
  C   C1294     1.0  0.43038  0.11235  0.90268  1.0000
  C   C1295     1.0  0.43815  0.12703  0.90282  1.0000
  C   C1296     1.0  0.44701  0.11157  0.87153  1.0000
  H   H1520     1.0  0.42108  0.10686  0.91479  1.0000
  H   H1521     1.0  0.43485  0.13281  0.91498  1.0000
  H   H1522     1.0  0.45086  0.10542  0.85960  1.0000
  C   C1297     1.0  0.49583  0.08326  0.81407  1.0000
  C   C1298     1.0  0.48532  0.10116  0.81233  1.0000
  C   C1299     1.0  0.49282  0.11566  0.81328  1.0000
  C   C1300     1.0  0.51067  0.11212  0.81637  1.0000
  C   C1301     1.0  0.52088  0.09413  0.81862  1.0000
  C   C1302     1.0  0.51360  0.07977  0.81718  1.0000
  H   H1523     1.0  0.47171  0.10385  0.80955  1.0000
  H   H1524     1.0  0.48493  0.12959  0.81146  1.0000
  H   H1525     1.0  0.53459  0.09124  0.82102  1.0000
  H   H1526     1.0  0.52173  0.06593  0.81853  1.0000
  C   C1303     1.0  0.63718  0.38245  0.83875  1.0000
  H   H1527     1.0  0.60191  0.20513  0.90294  1.0000
  H   H1528     1.0  0.46860  0.09427  0.89931  1.0000
  C   C1304     1.0  0.43412  0.99825  0.83771  1.0000
  C   C1305     1.0  0.43102  0.00711  0.82014  1.0000
  C   C1306     1.0  0.43061  0.99676  0.80763  1.0000
  C   C1307     1.0  0.53395  0.14560  0.96587  1.0000
  H   H1529     1.0  0.37266  0.31384  0.80068  1.0000
  H   H1530     1.0  0.42833  0.02195  0.81636  1.0000
  H   H1531     1.0  0.62962  0.30730  0.76247  1.0000
  H   H1532     1.0  0.36226  0.13578  0.73258  1.0000
  S   S368      1.0  0.45443  0.15939  0.97748  1.0000
  H   H1533     1.0  0.50825  0.18575  0.94792  1.0000
  H   H1534     1.0  0.37987  0.32996  0.80918  1.0000
  C   C1308     1.0  0.43467  0.15929  0.83367  1.0000
  C   C1309     1.0  0.43730  0.17063  0.84401  1.0000
  H   H1535     1.0  0.44735  0.13129  0.81462  1.0000
  H   H1536     1.0  0.41490  0.13564  0.82983  1.0000
  H   H1537     1.0  0.43636  0.14472  0.83953  1.0000
  H   H1538     1.0  0.44089  0.16478  0.85736  1.0000
  H   H1539     1.0  0.48985  0.16326  0.96183  1.0000
  H   H1540     1.0  0.52498  0.01862  0.81248  1.0000
  C   C1310     1.0  0.43924  0.38164  0.79760  1.0000
  H   H1541     1.0  0.34759  0.36163  0.87468  1.0000
  H   H1542     1.0  0.49524  0.05273  0.88317  1.0000
  N   N85       1.0  0.46314  0.26517  0.88914  1.0000
  C   C1311     1.0  0.46615  0.25551  0.87382  1.0000
  C   C1312     1.0  0.45310  0.25432  0.90580  1.0000
  C   C1313     1.0  0.45114  0.28344  0.88476  1.0000
  C   C1314     1.0  0.48086  0.26770  0.89145  1.0000
  C   C1315     1.0  0.48577  0.26379  0.90889  1.0000
  C   C1316     1.0  0.49352  0.27507  0.87607  1.0000
  C   C1317     1.0  0.50252  0.26652  0.91061  1.0000
  C   C1318     1.0  0.51021  0.27776  0.87795  1.0000
  C   C1319     1.0  0.51472  0.27347  0.89518  1.0000
  H   H1543     1.0  0.45341  0.25164  0.87306  1.0000
  H   H1544     1.0  0.47050  0.26416  0.86015  1.0000
  H   H1545     1.0  0.47679  0.24266  0.87554  1.0000
  H   H1546     1.0  0.44864  0.26152  0.91751  1.0000
  H   H1547     1.0  0.46165  0.24058  0.91012  1.0000
  H   H1548     1.0  0.44030  0.25186  0.90343  1.0000
  H   H1549     1.0  0.45757  0.29218  0.87208  1.0000
  H   H1550     1.0  0.43777  0.28224  0.88250  1.0000
  H   H1551     1.0  0.44826  0.29106  0.89603  1.0000
  H   H1552     1.0  0.47703  0.25834  0.92141  1.0000
  H   H1553     1.0  0.49053  0.27898  0.86246  1.0000
  H   H1554     1.0  0.50615  0.26304  0.92400  1.0000
  H   H1555     1.0  0.51969  0.28336  0.86601  1.0000
  H   H1556     1.0  0.52766  0.27566  0.89657  1.0000
  N   N86       1.0  0.50595  0.17624  0.85220  1.0000
  C   C1320     1.0  0.49918  0.18147  0.87042  1.0000
  C   C1321     1.0  0.50637  0.15626  0.85517  1.0000
  C   C1322     1.0  0.52492  0.17943  0.84522  1.0000
  C   C1323     1.0  0.49466  0.18684  0.83847  1.0000
  C   C1324     1.0  0.48100  0.20284  0.84128  1.0000
  C   C1325     1.0  0.49792  0.18183  0.82119  1.0000
  C   C1326     1.0  0.47133  0.21310  0.82756  1.0000
  C   C1327     1.0  0.48804  0.19208  0.80766  1.0000
  C   C1328     1.0  0.47482  0.20772  0.81082  1.0000
  H   H1557     1.0  0.48486  0.17955  0.87626  1.0000
  H   H1558     1.0  0.50761  0.17287  0.88060  1.0000
  H   H1559     1.0  0.49995  0.19589  0.86976  1.0000
  H   H1560     1.0  0.49234  0.15356  0.85751  1.0000
  H   H1561     1.0  0.51241  0.14817  0.86725  1.0000
  H   H1562     1.0  0.51488  0.15016  0.84343  1.0000
  H   H1563     1.0  0.52519  0.19429  0.84275  1.0000
  H   H1564     1.0  0.53393  0.17189  0.85516  1.0000
  H   H1565     1.0  0.53137  0.17467  0.83212  1.0000
  H   H1566     1.0  0.47751  0.20770  0.85397  1.0000
  H   H1567     1.0  0.50820  0.16995  0.81801  1.0000
  H   H1568     1.0  0.46098  0.22528  0.82992  1.0000
  H   H1569     1.0  0.49066  0.18784  0.79466  1.0000
  H   H1570     1.0  0.46718  0.21566  0.80029  1.0000
  C   C1329     1.0  0.43504  0.18953  0.83740  1.0000
  C   C1330     1.0  0.42785  0.38437  0.78481  1.0000
  H   H1571     1.0  0.47894  0.03226  0.80944  1.0000
  H   H1572     1.0  0.53142  0.18190  0.95070  1.0000
  H   H1573     1.0  0.60724  0.33093  0.75573  1.0000
  C   C1331     1.0  0.51614  0.02718  0.85501  1.0000
  H   H1574     1.0  0.50612  0.14515  0.95281  1.0000
  C   C1332     1.0  0.57824  0.02532  0.83100  1.0000
  N   N87       1.0  0.45473  0.36563  0.79881  1.0000
  H   H1575     1.0  0.54144  0.22248  0.92582  1.0000
  C   C1333     1.0  0.35555  0.33632  0.86488  1.0000
  H   H1576     1.0  0.51752  0.05717  0.88058  1.0000
  C   C1334     1.0  0.45483  0.12614  0.87171  1.0000
  C   C1335     1.0  0.57373  0.00814  0.83974  1.0000
  H   H1577     1.0  0.43781  0.34872  0.81909  1.0000
  H   H1578     1.0  0.52227  0.03250  0.86322  1.0000
  C   C1336     1.0  0.61570  0.19230  0.86171  1.0000
  C   C1337     1.0  0.59137  0.18385  0.88651  1.0000
  C   C1338     1.0  0.57391  0.22335  0.88449  1.0000
  C   C1339     1.0  0.56168  0.23973  0.87950  1.0000
  C   C1340     1.0  0.57159  0.31713  0.73708  1.0000
  H   H1579     1.0  0.62483  0.17903  0.86647  1.0000
  H   H1580     1.0  0.58284  0.18203  0.87762  1.0000
  H   H1581     1.0  0.60065  0.17037  0.89028  1.0000
  H   H1582     1.0  0.58211  0.18656  0.89958  1.0000
  H   H1583     1.0  0.57175  0.21663  0.89878  1.0000
  H   H1584     1.0  0.55058  0.24511  0.88983  1.0000
  H   H1585     1.0  0.62482  0.20230  0.85480  1.0000
  C   C1341     1.0  0.46683  0.36502  0.78045  1.0000
  H   H1586     1.0  0.43937  0.34692  0.79593  1.0000
  H   H1587     1.0  0.47154  0.37824  0.77429  1.0000
  H   H1588     1.0  0.47926  0.35381  0.78121  1.0000
  H   H1589     1.0  0.45994  0.36226  0.77065  1.0000
  H   H1590     1.0  0.44189  0.39317  0.81998  1.0000
  H   H1591     1.0  0.52864  0.21721  0.90153  1.0000
  H   H1592     1.0  0.34568  0.30303  0.83715  1.0000
  H   H1593     1.0  0.58999  0.32868  0.88181  1.0000
  C   C1342     1.0  0.58881  0.21606  0.87142  1.0000
  C   C1343     1.0  0.52722  0.22158  0.92852  1.0000
  H   H1594     1.0  0.45867  0.36432  0.82602  1.0000
  C   C1344     1.0  0.50693  0.23414  0.76668  1.0000
  H   H1595     1.0  0.48913  0.10307  0.86809  1.0000
  C   C1345     1.0  0.50123  0.26378  0.78831  1.0000
  C   C1346     1.0  0.47610  0.07988  0.89953  1.0000
  C   C1347     1.0  0.35007  0.33791  0.83432  1.0000
  C   C1348     1.0  0.50060  0.13196  0.75619  1.0000
  C   C1349     1.0  0.37080  0.31985  0.81293  1.0000
  H   H1596     1.0  0.49755  0.14258  0.97726  1.0000
  H   H1597     1.0  0.55371  0.12399  0.78892  1.0000
  H   H1598     1.0  0.53197  0.13352  0.97723  1.0000
  H   H1599     1.0  0.53532  0.15568  0.78735  1.0000
  H   H1600     1.0  0.51612  0.22294  0.77443  1.0000
  H   H1601     1.0  0.60423  0.30949  0.90805  1.0000
  H   H1602     1.0  0.50729  0.01460  0.79515  1.0000
  S   S369      1.0  0.62884  0.33445  0.81794  1.0000
  C   C1350     1.0  0.63204  0.30411  0.86686  1.0000
  N   N88       1.0  0.35142  0.32855  0.81926  1.0000
  H   H1603     1.0  0.48663  0.11448  0.89373  1.0000
  C   C1351     1.0  0.50337  0.05901  0.88907  1.0000
  C   C1352     1.0  0.53424  0.25838  0.77816  1.0000
  H   H1604     1.0  0.34628  0.33379  0.79181  1.0000
  C   C1353     1.0  0.62466  0.36186  0.88207  1.0000
  H   H1605     1.0  0.54216  0.23492  0.75340  1.0000
  H   H1606     1.0  0.60378  0.33089  0.85866  1.0000
  C   C1354     1.0  0.51158  0.11878  0.76716  1.0000
  H   H1607     1.0  0.58847  0.11844  0.92509  1.0000
  C   C1355     1.0  0.45059  0.13377  0.88740  1.0000
  H   H1608     1.0  0.35834  0.01149  0.88283  1.0000
  C   C1356     1.0  0.56387  0.00578  0.85788  1.0000
  H   H1609     1.0  0.59609  0.31002  0.87034  1.0000
  H   H1610     1.0  0.58591  0.02727  0.81700  1.0000
  H   H1611     1.0  0.47827  0.35379  0.81164  1.0000
  H   H1612     1.0  0.46453  0.13127  0.85977  1.0000
  H   H1613     1.0  0.34062  0.30700  0.81494  1.0000
  N   N89       1.0  0.51481  0.25094  0.75963  1.0000
  C   C1357     1.0  0.57287  0.04008  0.84023  1.0000
  H   H1614     1.0  0.54698  0.25393  0.76913  1.0000
  C   C1358     1.0  0.41875  0.40843  0.80893  1.0000
  H   H1615     1.0  0.62133  0.24624  0.88903  1.0000
  H   H1616     1.0  0.55141  0.01844  0.88133  1.0000
  H   H1617     1.0  0.35734  0.98775  0.88777  1.0000
  H   H1618     1.0  0.64470  0.29688  0.87208  1.0000
  H   H1619     1.0  0.57644  0.05321  0.83334  1.0000
  N   N90       1.0  0.60167  0.19876  0.87720  1.0000
  C   C1359     1.0  0.41137  0.14491  0.81697  1.0000
  C   C1360     1.0  0.51991  0.21887  0.91470  1.0000
  H   H1620     1.0  0.57395  0.13166  0.77576  1.0000
  H   H1621     1.0  0.64162  0.28572  0.75710  1.0000
  C   C1361     1.0  0.44327  0.14030  0.80190  1.0000
  H   H1622     1.0  0.44136  0.13099  0.79381  1.0000
  H   H1623     1.0  0.40802  0.13607  0.80935  1.0000
  C   C1362     1.0  0.36054  0.99944  0.87639  1.0000
  H   H1624     1.0  0.41495  0.41768  0.81844  1.0000
  Fe  Fe183     1.0  0.42845  0.20059  0.92279  1.0000
  C   C1363     1.0  0.50144  0.21777  0.91814  1.0000
  C   C1364     1.0  0.51602  0.22333  0.94568  1.0000
  H   H1625     1.0  0.60920  0.18992  0.85136  1.0000
  S   S370      1.0  0.55623  0.05586  0.87058  1.0000
  C   C1365     1.0  0.60134  0.32147  0.87234  1.0000
  H   H1626     1.0  0.46519  0.02203  0.83014  1.0000
  C   C1366     1.0  0.50429  0.00172  0.80485  1.0000
  H   H1627     1.0  0.60267  0.36435  0.83382  1.0000
  H   H1628     1.0  0.60269  0.27140  0.87024  1.0000
  H   H1629     1.0  0.39277  0.00226  0.88382  1.0000
  H   H1630     1.0  0.45503  0.14685  0.79391  1.0000
  H   H1631     1.0  0.39860  0.15501  0.82088  1.0000
  C   C1367     1.0  0.53306  0.13945  0.76140  1.0000
  H   H1632     1.0  0.54893  0.26557  0.79492  1.0000
  C   C1368     1.0  0.46639  0.36567  0.81155  1.0000
  N   N91       1.0  0.42640  0.15437  0.80587  1.0000
  C   C1369     1.0  0.42963  0.16663  0.81630  1.0000
  S   S371      1.0  0.49277  0.21267  0.90151  1.0000
  C   C1370     1.0  0.49734  0.22336  0.94873  1.0000
  C   C1371     1.0  0.49011  0.22036  0.93504  1.0000
  H   H1633     1.0  0.48861  0.22495  0.96193  1.0000
  C   C1372     1.0  0.64929  0.35523  0.82537  1.0000
  H   H1634     1.0  0.33733  0.36589  0.82182  1.0000
  H   H1635     1.0  0.35289  0.35218  0.79707  1.0000
  C   C1373     1.0  0.49938  0.02172  0.86221  1.0000
  H   H1636     1.0  0.47216  0.37836  0.80751  1.0000
  C   C1374     1.0  0.51739  0.01899  0.82630  1.0000
  H   H1637     1.0  0.49053  0.27527  0.81263  1.0000
  H   H1638     1.0  0.36230  0.31331  0.85217  1.0000
  H   H1639     1.0  0.37315  0.01760  0.84277  1.0000
  H   H1640     1.0  0.38135  0.02414  0.85952  1.0000
  C   C1375     1.0  0.55880  0.02045  0.86722  1.0000
  C   C1376     1.0  0.56318  0.03769  0.85842  1.0000
  S   S372      1.0  0.46230  0.15064  0.88752  1.0000
  H   H1641     1.0  0.47578  0.22003  0.93765  1.0000
  C   C1377     1.0  0.40786  0.41062  0.79626  1.0000
  C   C1378     1.0  0.57939  0.33589  0.75356  1.0000
  C   C1379     1.0  0.52191  0.07856  0.90319  1.0000
  H   H1642     1.0  0.46838  0.01385  0.80954  1.0000
  H   H1643     1.0  0.52499  0.16962  0.93690  1.0000
  C   C1380     1.0  0.34481  0.34114  0.80302  1.0000
  H   H1644     1.0  0.63614  0.31337  0.85344  1.0000
  S   S373      1.0  0.44463  0.18041  0.73349  1.0000
  C   C1381     1.0  0.59084  0.22637  0.85305  1.0000
  C   C1382     1.0  0.56404  0.24948  0.86143  1.0000
  H   H1645     1.0  0.56037  0.99260  0.86478  1.0000
  N   N92       1.0  0.37947  0.99544  0.86549  1.0000
  C   C1383     1.0  0.38285  0.01275  0.85237  1.0000
  H   H1646     1.0  0.56550  0.11604  0.76793  1.0000
  C   C1384     1.0  0.57857  0.24281  0.84823  1.0000
  H   H1647     1.0  0.62153  0.18904  0.89481  1.0000
  H   H1648     1.0  0.60187  0.22224  0.84211  1.0000
  H   H1649     1.0  0.55477  0.26240  0.85776  1.0000
  C   C1385     1.0  0.42117  0.16421  0.78803  1.0000
  H   H1650     1.0  0.41909  0.15463  0.78042  1.0000
  C   C1386     1.0  0.39261  0.99043  0.87799  1.0000
  C   C1387     1.0  0.48629  0.98810  0.83304  1.0000
  H   H1651     1.0  0.47455  0.99022  0.84469  1.0000
  H   H1652     1.0  0.53897  0.25834  0.74050  1.0000
  H   H1653     1.0  0.39554  0.42131  0.79608  1.0000
  Fe  Fe184     1.0  0.45422  0.16728  0.90972  1.0000
  Fe  Fe185     1.0  0.46936  0.19816  0.91473  1.0000
  H   H1654     1.0  0.53247  0.11338  0.91585  1.0000
  C   C1388     1.0  0.56118  0.12816  0.77458  1.0000
  C   C1389     1.0  0.41252  0.39874  0.78410  1.0000
  H   H1655     1.0  0.50486  0.22883  0.75530  1.0000
  N   N93       1.0  0.54983  0.14387  0.76393  1.0000
  S   S374      1.0  0.44726  0.20409  0.93901  1.0000
  H   H1656     1.0  0.43024  0.37498  0.77570  1.0000
  H   H1657     1.0  0.57517  0.34663  0.76150  1.0000
  C   C1390     1.0  0.47538  0.01898  0.81765  1.0000
  N   N94       1.0  0.51713  0.16030  0.96616  1.0000
  H   H1658     1.0  0.60766  0.39015  0.84483  1.0000
  H   H1659     1.0  0.49234  0.02286  0.87610  1.0000
  C   C1391     1.0  0.52506  0.02590  0.83710  1.0000
  C   C1392     1.0  0.61144  0.20159  0.89026  1.0000
  H   H1660     1.0  0.48675  0.08234  0.86329  1.0000
  H   H1661     1.0  0.61782  0.37620  0.87928  1.0000
  C   C1393     1.0  0.64162  0.35732  0.88714  1.0000
  H   H1662     1.0  0.39708  0.01102  0.84418  1.0000
  C   C1394     1.0  0.35645  0.32785  0.85052  1.0000
  C   C1395     1.0  0.50043  0.01300  0.83331  1.0000
  C   C1396     1.0  0.56161  0.14961  0.74579  1.0000
  H   H1663     1.0  0.53800  0.14038  0.95285  1.0000
  C   C1397     1.0  0.42760  0.18599  0.80989  1.0000
  C   C1398     1.0  0.63146  0.35305  0.82620  1.0000
  H   H1664     1.0  0.51748  0.99245  0.80744  1.0000
  H   H1665     1.0  0.50349  0.12995  0.90581  1.0000
  H   H1666     1.0  0.36075  0.32829  0.87698  1.0000
  H   H1667     1.0  0.40377  0.40022  0.77453  1.0000
  C   C1399     1.0  0.52145  0.15259  0.75045  1.0000
  C   C1400     1.0  0.49152  0.01488  0.85151  1.0000
  C   C1401     1.0  0.51990  0.27124  0.80529  1.0000
  H   H1668     1.0  0.33003  0.34761  0.80654  1.0000
  H   H1669     1.0  0.58053  0.25053  0.83417  1.0000
  S   S375      1.0  0.57741  0.25946  0.73590  1.0000
  C   C1402     1.0  0.43029  0.19718  0.82035  1.0000
  H   H1670     1.0  0.43198  0.17146  0.77878  1.0000
  C   C1403     1.0  0.50552  0.14886  0.74787  1.0000
  C   C1404     1.0  0.52478  0.10618  0.91103  1.0000
  C   C1405     1.0  0.49501  0.08813  0.86956  1.0000
  S   S376      1.0  0.57529  0.20774  0.74562  1.0000
  H   H1671     1.0  0.44383  0.21584  0.74700  1.0000
  H   H1672     1.0  0.38057  0.14176  0.73891  1.0000
  C   C1406     1.0  0.65215  0.36978  0.83166  1.0000
  H   H1673     1.0  0.48764  0.26344  0.78719  1.0000
  Fe  Fe186     1.0  0.41754  0.19995  0.73757  1.0000
  C   C1407     1.0  0.54455  0.15922  0.77385  1.0000
  S   S377      1.0  0.43069  0.17016  0.93385  1.0000
  C   C1408     1.0  0.50849  0.11551  0.90532  1.0000
  H   H1674     1.0  0.54438  0.08066  0.91400  1.0000
  H   H1675     1.0  0.55673  0.16272  0.77642  1.0000
  H   H1676     1.0  0.55504  0.16276  0.73775  1.0000
  C   C1409     1.0  0.50233  0.26519  0.74893  1.0000
  N   N95       1.0  0.49190  0.00554  0.82231  1.0000
  C   C1410     1.0  0.61404  0.30195  0.89776  1.0000
  C   C1411     1.0  0.58978  0.30745  0.73419  1.0000
  H   H1677     1.0  0.40805  0.17448  0.78996  1.0000
  H   H1678     1.0  0.62650  0.29326  0.86409  1.0000
  C   C1412     1.0  0.53145  0.08776  0.90998  1.0000
  S   S378      1.0  0.58101  0.99000  0.82756  1.0000
  C   C1413     1.0  0.52068  0.17502  0.94976  1.0000
  C   C1414     1.0  0.59766  0.32655  0.75048  1.0000
  H   H1679     1.0  0.37618  0.30844  0.82358  1.0000
  H   H1680     1.0  0.42371  0.19291  0.79692  1.0000
  C   C1415     1.0  0.50275  0.27049  0.80302  1.0000
  C   C1416     1.0  0.53560  0.26507  0.79299  1.0000
  H   H1681     1.0  0.49333  0.23663  0.77596  1.0000
  Fe  Fe187     1.0  0.45138  0.17350  0.94833  1.0000
  H   H1682     1.0  0.49816  0.99477  0.79753  1.0000
  H   H1683     1.0  0.48807  0.18834  0.97433  1.0000
  H   H1684     1.0  0.42846  0.21193  0.81525  1.0000
  H   H1685     1.0  0.60763  0.29096  0.89652  1.0000
  H   H1686     1.0  0.43485  0.19697  0.97957  1.0000
  H   H1687     1.0  0.52813  0.06443  0.90241  1.0000
  H   H1688     1.0  0.61890  0.21309  0.88407  1.0000
  C   C1417     1.0  0.61646  0.36571  0.83328  1.0000
  H   H1689     1.0  0.46792  0.07339  0.89386  1.0000
  C   C1418     1.0  0.65068  0.33901  0.89045  1.0000
  H   H1690     1.0  0.52102  0.27672  0.81655  1.0000
  C   C1419     1.0  0.49892  0.10648  0.89839  1.0000
  C   C1420     1.0  0.61933  0.38039  0.83942  1.0000
  N   N96       1.0  0.61838  0.31463  0.87987  1.0000
  C   C1421     1.0  0.60328  0.31150  0.74139  1.0000
  H   H1691     1.0  0.33594  0.37990  0.84697  1.0000
  S   S379      1.0  0.47523  0.16777  0.92512  1.0000
  C   C1422     1.0  0.50537  0.08774  0.89699  1.0000
  C   C1423     1.0  0.34150  0.36527  0.84805  1.0000
  C   C1424     1.0  0.34240  0.35694  0.83357  1.0000
  C   C1425     1.0  0.50208  0.15242  0.96447  1.0000
  H   H1692     1.0  0.53802  0.03034  0.83151  1.0000
  H   H1693     1.0  0.54593  0.15075  0.96676  1.0000
  H   H1694     1.0  0.48823  0.12909  0.75419  1.0000
  H   H1695     1.0  0.50094  0.26070  0.73675  1.0000
  H   H1696     1.0  0.32525  0.47604  0.80375  1.0000
  S   S380      1.0  0.55934  0.18012  0.97961  1.0000
  H   H1697     1.0  0.61796  0.28859  0.76822  1.0000
  H   H1698     1.0  0.49695  0.15917  0.73934  1.0000
  C   C1426     1.0  0.62815  0.29549  0.75749  1.0000
  H   H1699     1.0  0.64658  0.14014  0.75726  1.0000
  H   H1700     1.0  0.50745  0.27827  0.74399  1.0000
  H   H1701     1.0  0.62646  0.29489  0.90354  1.0000
  C   C1427     1.0  0.56634  0.33105  0.74707  1.0000
  H   H1702     1.0  0.47827  0.01129  0.85751  1.0000
  C   C1428     1.0  0.64295  0.32522  0.88836  1.0000
  C   C1429     1.0  0.61692  0.34824  0.87964  1.0000
  H   H1703     1.0  0.60405  0.35291  0.87507  1.0000
  H   H1704     1.0  0.52456  0.16593  0.74382  1.0000
  H   H1705     1.0  0.65046  0.31122  0.89119  1.0000
  H   H1706     1.0  0.53030  0.24132  0.73497  1.0000
  H   H1707     1.0  0.61604  0.27476  0.74150  1.0000
  H   H1708     1.0  0.58205  0.99250  0.76676  1.0000
  H   H1709     1.0  0.64779  0.36812  0.88826  1.0000
  N   N97       1.0  0.62246  0.30101  0.73943  1.0000
  H   H1710     1.0  0.33286  0.47480  0.75092  1.0000
  Fe  Fe188     1.0  0.32492  0.41932  0.80576  1.0000
  H   H1711     1.0  0.63953  0.27581  0.73194  1.0000
  C   C1430     1.0  0.62527  0.28394  0.73244  1.0000
  H   H1712     1.0  0.56140  0.31329  0.73209  1.0000
  Fe  Fe189     1.0  0.58066  0.83167  0.09672  1.0000
  S   S381      1.0  0.56208  0.81165  0.10353  1.0000
  S   S382      1.0  0.59009  0.84555  0.06736  1.0000
  Fe  Fe190     1.0  0.57985  0.83014  0.13673  1.0000
  S   S383      1.0  0.56151  0.80964  0.14698  1.0000
  S   S384      1.0  0.58852  0.83877  0.15861  1.0000
  Fe  Fe191     1.0  0.57916  0.79590  0.12432  1.0000
  S   S385      1.0  0.58619  0.76515  0.12902  1.0000
  Fe  Fe192     1.0  0.54611  0.82702  0.12556  1.0000
  S   S386      1.0  0.51547  0.83402  0.13261  1.0000
  S   S387      1.0  0.59925  0.81463  0.11589  1.0000
  S   S388      1.0  0.56293  0.84878  0.11688  1.0000
  H   H1713     1.0  0.32984  0.53363  0.20721  1.0000
  H   H1714     1.0  0.40007  0.76258  0.10774  1.0000
  H   H1715     1.0  0.63756  0.88032  0.06998  1.0000
  C   C1431     1.0  0.63718  0.68629  0.22155  1.0000
  H   H1716     1.0  0.42542  0.69379  0.16412  1.0000
  Fe  Fe193     1.0  0.43570  0.84231  0.09190  1.0000
  S   S389      1.0  0.43929  0.81544  0.11165  1.0000
  S   S390      1.0  0.44038  0.86711  0.09941  1.0000
  Fe  Fe194     1.0  0.43207  0.82449  0.06177  1.0000
  S   S391      1.0  0.43624  0.79590  0.07917  1.0000
  S   S392      1.0  0.42747  0.83364  0.03250  1.0000
  Fe  Fe195     1.0  0.41714  0.80941  0.10162  1.0000
  S   S393      1.0  0.39627  0.79637  0.12381  1.0000
  Fe  Fe196     1.0  0.45804  0.80462  0.08774  1.0000
  S   S394      1.0  0.48605  0.78913  0.09197  1.0000
  S   S395      1.0  0.41144  0.83760  0.08382  1.0000
  S   S396      1.0  0.45578  0.83181  0.06831  1.0000
  C   C1432     1.0  0.40815  0.74959  0.11354  1.0000
  Fe  Fe197     1.0  0.43938  0.88022  0.19744  1.0000
  H   H1717     1.0  0.47183  0.75556  0.22855  1.0000
  S   S397      1.0  0.43153  0.86022  0.18510  1.0000
  C   C1433     1.0  0.39999  0.73787  0.12880  1.0000
  Fe  Fe198     1.0  0.46712  0.88565  0.21660  1.0000
  H   H1718     1.0  0.39945  0.81269  0.20135  1.0000
  S   S398      1.0  0.41872  0.90469  0.20581  1.0000
  Fe  Fe199     1.0  0.58035  0.92943  0.18580  1.0000
  S   S399      1.0  0.56740  0.91344  0.21248  1.0000
  S   S400      1.0  0.58338  0.92221  0.15848  1.0000
  Fe  Fe200     1.0  0.58334  0.95976  0.20349  1.0000
  H   H1719     1.0  0.40781  0.92087  0.09361  1.0000
  H   H1720     1.0  0.40640  0.68266  0.17190  1.0000
  C   C1434     1.0  0.47332  0.69500  0.22204  1.0000
  H   H1721     1.0  0.62340  0.92388  0.10712  1.0000
  Fe  Fe201     1.0  0.55099  0.94095  0.21751  1.0000
  H   H1722     1.0  0.62814  0.96143  0.19858  1.0000
  S   S401      1.0  0.60276  0.93395  0.19690  1.0000
  S   S402      1.0  0.56222  0.95649  0.18989  1.0000
  H   H1723     1.0  0.59214  0.80673  0.07231  1.0000
  C   C1435     1.0  0.39941  0.90096  0.11750  1.0000
  C   C1436     1.0  0.46904  0.76438  0.21567  1.0000
  H   H1724     1.0  0.42385  0.84077  0.99505  1.0000
  C   C1437     1.0  0.62462  0.87518  0.07620  1.0000
  N   N98       1.0  0.62385  0.86633  0.09591  1.0000
  C   C1438     1.0  0.45074  0.86838  0.99489  1.0000
  H   H1725     1.0  0.43936  0.87788  0.05778  1.0000
  H   H1726     1.0  0.40894  0.94244  0.17197  1.0000
  S   S403      1.0  0.59935  0.73272  0.20968  1.0000
  S   S404      1.0  0.46271  0.89523  0.18770  1.0000
  C   C1439     1.0  0.65157  0.66308  0.20314  1.0000
  S   S405      1.0  0.42665  0.68700  0.20404  1.0000
  C   C1440     1.0  0.43741  0.72881  0.11412  1.0000
  Fe  Fe202     1.0  0.42132  0.71710  0.20381  1.0000
  S   S406      1.0  0.43720  0.73393  0.17944  1.0000
  Fe  Fe203     1.0  0.44260  0.91887  0.19861  1.0000
  S   S407      1.0  0.35432  0.60201  0.21878  1.0000
  H   H1727     1.0  0.49821  0.92609  0.16128  1.0000
  H   H1728     1.0  0.46741  0.88387  0.06293  1.0000
  C   C1441     1.0  0.58533  0.81074  0.02926  1.0000
  H   H1729     1.0  0.43021  0.90487  0.16451  1.0000
  C   C1442     1.0  0.37117  0.65779  0.20934  1.0000
  C   C1443     1.0  0.42938  0.71694  0.12936  1.0000
  H   H1730     1.0  0.58833  0.78806  0.05225  1.0000
  H   H1731     1.0  0.54978  0.84982  0.07347  1.0000
  C   C1444     1.0  0.47411  0.78145  0.20986  1.0000
  H   H1732     1.0  0.39274  0.88279  0.14340  1.0000
  S   S408      1.0  0.44865  0.91016  0.22689  1.0000
  H   H1733     1.0  0.44064  0.92384  0.16199  1.0000
  H   H1734     1.0  0.59441  0.87231  0.10245  1.0000
  H   H1735     1.0  0.49797  0.82824  0.03744  1.0000
  H   H1736     1.0  0.48070  0.78588  0.21841  1.0000
  C   C1445     1.0  0.36060  0.62366  0.21481  1.0000
  C   C1446     1.0  0.35222  0.63934  0.20367  1.0000
  H   H1737     1.0  0.43846  0.70475  0.13495  1.0000
  S   S409      1.0  0.58093  0.79697  0.01641  1.0000
  H   H1738     1.0  0.43949  0.86798  0.03024  1.0000
  H   H1739     1.0  0.54926  0.80039  0.05284  1.0000
  C   C1447     1.0  0.38538  0.70438  0.14937  1.0000
  C   C1448     1.0  0.43596  0.81567  0.98514  1.0000
  C   C1449     1.0  0.61876  0.67507  0.20743  1.0000
  C   C1450     1.0  0.42681  0.74506  0.10621  1.0000
  H   H1740     1.0  0.40645  0.72151  0.17306  1.0000
  H   H1741     1.0  0.37427  0.71660  0.14685  1.0000
  H   H1742     1.0  0.49907  0.86498  0.16690  1.0000
  H   H1743     1.0  0.49982  0.89398  0.16153  1.0000
  H   H1744     1.0  0.41899  0.68318  0.14879  1.0000
  C   C1451     1.0  0.41031  0.72108  0.13711  1.0000
  C   C1452     1.0  0.50316  0.89504  0.22295  1.0000
  H   H1745     1.0  0.45481  0.98252  0.17215  1.0000
  Fe  Fe204     1.0  0.57495  0.80690  0.98792  1.0000
  S   S410      1.0  0.44387  0.94750  0.18168  1.0000
  H   H1746     1.0  0.61816  0.66928  0.19577  1.0000
  C   C1453     1.0  0.50544  0.84083  0.06528  1.0000
  H   H1747     1.0  0.38537  0.73226  0.16542  1.0000
  C   C1454     1.0  0.53855  0.83525  0.05988  1.0000
  N   N99       1.0  0.40133  0.70903  0.15341  1.0000
  C   C1455     1.0  0.39474  0.71883  0.16885  1.0000
  H   H1748     1.0  0.53563  0.84485  0.15602  1.0000
  H   H1749     1.0  0.45019  0.76482  0.18039  1.0000
  C   C1456     1.0  0.45183  0.87667  0.04728  1.0000
  H   H1750     1.0  0.38705  0.71066  0.18109  1.0000
  C   C1457     1.0  0.39786  0.89522  0.13642  1.0000
  H   H1751     1.0  0.37899  0.69450  0.16114  1.0000
  H   H1752     1.0  0.43312  0.75439  0.09460  1.0000
  C   C1458     1.0  0.62580  0.90183  0.13052  1.0000
  H   H1753     1.0  0.45610  0.74550  0.20951  1.0000
  H   H1754     1.0  0.52694  0.83836  0.01992  1.0000
  H   H1755     1.0  0.60442  0.85110  0.09486  1.0000
  H   H1756     1.0  0.41032  0.83172  0.21568  1.0000
  H   H1757     1.0  0.45200  0.72553  0.10855  1.0000
  H   H1758     1.0  0.62526  0.91079  0.13958  1.0000
  C   C1459     1.0  0.49979  0.92823  0.21605  1.0000
  C   C1460     1.0  0.49453  0.91248  0.21484  1.0000
  C   C1461     1.0  0.62686  0.88306  0.13737  1.0000
  H   H1759     1.0  0.50829  0.80514  0.03486  1.0000
  H   H1760     1.0  0.49315  0.94165  0.20960  1.0000
  H   H1761     1.0  0.48402  0.91389  0.20730  1.0000
  C   C1462     1.0  0.40740  0.77931  0.13966  1.0000
  C   C1463     1.0  0.42625  0.77250  0.13495  1.0000
  C   C1464     1.0  0.43513  0.75857  0.14732  1.0000
  C   C1465     1.0  0.42532  0.75147  0.16455  1.0000
  C   C1466     1.0  0.40652  0.75848  0.16949  1.0000
  C   C1467     1.0  0.39752  0.77228  0.15695  1.0000
  H   H1762     1.0  0.43390  0.77751  0.12150  1.0000
  H   H1763     1.0  0.44958  0.75304  0.14332  1.0000
  H   H1764     1.0  0.39892  0.75324  0.18291  1.0000
  H   H1765     1.0  0.38294  0.77759  0.16064  1.0000
  C   C1468     1.0  0.43850  0.86475  0.12321  1.0000
  C   C1469     1.0  0.42708  0.85377  0.13589  1.0000
  C   C1470     1.0  0.42501  0.85264  0.15480  1.0000
  C   C1471     1.0  0.43456  0.86222  0.16120  1.0000
  C   C1472     1.0  0.44648  0.87270  0.14857  1.0000
  C   C1473     1.0  0.44819  0.87423  0.12960  1.0000
  H   H1766     1.0  0.41935  0.84663  0.13110  1.0000
  H   H1767     1.0  0.41578  0.84449  0.16449  1.0000
  H   H1768     1.0  0.45450  0.87944  0.15342  1.0000
  H   H1769     1.0  0.45722  0.88255  0.11984  1.0000
  C   C1474     1.0  0.62442  0.89781  0.10068  1.0000
  S   S411      1.0  0.56737  0.69639  0.21933  1.0000
  C   C1475     1.0  0.43086  0.82662  0.99846  1.0000
  C   C1476     1.0  0.43427  0.81925  0.01626  1.0000
  C   C1477     1.0  0.44315  0.80086  0.02056  1.0000
  C   C1478     1.0  0.44814  0.78986  0.00726  1.0000
  H   H1770     1.0  0.49256  0.83866  0.06402  1.0000
  H   H1771     1.0  0.63782  0.84080  0.11076  1.0000
  H   H1772     1.0  0.44587  0.79504  0.03422  1.0000
  H   H1773     1.0  0.45463  0.77554  0.01080  1.0000
  C   C1479     1.0  0.59077  0.75582  0.15106  1.0000
  C   C1480     1.0  0.59507  0.76674  0.16075  1.0000
  C   C1481     1.0  0.59791  0.75946  0.17871  1.0000
  C   C1482     1.0  0.59587  0.74147  0.18720  1.0000
  C   C1483     1.0  0.59153  0.73053  0.17754  1.0000
  C   C1484     1.0  0.58922  0.73764  0.15936  1.0000
  H   H1774     1.0  0.59644  0.78073  0.15434  1.0000
  H   H1775     1.0  0.60142  0.76789  0.18611  1.0000
  H   H1776     1.0  0.59018  0.71654  0.18398  1.0000
  H   H1777     1.0  0.58596  0.72918  0.15183  1.0000
  C   C1485     1.0  0.58582  0.86214  0.15886  1.0000
  C   C1486     1.0  0.58030  0.87601  0.14443  1.0000
  C   C1487     1.0  0.57935  0.89448  0.14452  1.0000
  C   C1488     1.0  0.58351  0.89915  0.15925  1.0000
  C   C1489     1.0  0.58839  0.88534  0.17401  1.0000
  C   C1490     1.0  0.58969  0.86684  0.17372  1.0000
  H   H1778     1.0  0.57696  0.87258  0.13310  1.0000
  H   H1779     1.0  0.57550  0.90518  0.13313  1.0000
  H   H1780     1.0  0.59174  0.88886  0.18535  1.0000
  H   H1781     1.0  0.59397  0.85614  0.18493  1.0000
  C   C1491     1.0  0.50727  0.82136  0.12160  1.0000
  C   C1492     1.0  0.51752  0.80432  0.11805  1.0000
  C   C1493     1.0  0.51124  0.79464  0.10850  1.0000
  C   C1494     1.0  0.49462  0.80189  0.10266  1.0000
  C   C1495     1.0  0.48459  0.81908  0.10597  1.0000
  C   C1496     1.0  0.49067  0.82861  0.11577  1.0000
  H   H1782     1.0  0.53023  0.79851  0.12277  1.0000
  H   H1783     1.0  0.51929  0.78158  0.10559  1.0000
  H   H1784     1.0  0.47231  0.82538  0.10068  1.0000
  H   H1785     1.0  0.48282  0.84193  0.11820  1.0000
  C   C1497     1.0  0.58935  0.83207  0.05226  1.0000
  C   C1498     1.0  0.59002  0.81322  0.05857  1.0000
  H   H1786     1.0  0.40301  0.89928  0.16078  1.0000
  C   C1499     1.0  0.39689  0.81051  0.21619  1.0000
  H   H1787     1.0  0.58310  0.83590  0.00885  1.0000
  H   H1788     1.0  0.52826  0.79488  0.06742  1.0000
  C   C1500     1.0  0.52264  0.83141  0.05675  1.0000
  H   H1789     1.0  0.49108  0.85969  0.08319  1.0000
  C   C1501     1.0  0.35755  0.65626  0.20090  1.0000
  C   C1502     1.0  0.44614  0.98138  0.18571  1.0000
  C   C1503     1.0  0.40390  0.93513  0.16399  1.0000
  H   H1790     1.0  0.48764  0.83703  0.00745  1.0000
  C   C1504     1.0  0.63875  0.69519  0.18905  1.0000
  C   C1505     1.0  0.42347  0.97876  0.22050  1.0000
  C   C1506     1.0  0.50438  0.85310  0.07637  1.0000
  C   C1507     1.0  0.45207  0.87112  0.03124  1.0000
  N   N100      1.0  0.53054  0.75316  0.17156  1.0000
  C   C1508     1.0  0.52127  0.76213  0.18741  1.0000
  C   C1509     1.0  0.54266  0.73558  0.17813  1.0000
  C   C1510     1.0  0.54236  0.76540  0.15855  1.0000
  C   C1511     1.0  0.51679  0.74938  0.16332  1.0000
  C   C1512     1.0  0.51646  0.75502  0.14427  1.0000
  C   C1513     1.0  0.50348  0.73922  0.17441  1.0000
  C   C1514     1.0  0.50341  0.75086  0.13700  1.0000
  C   C1515     1.0  0.49047  0.73515  0.16706  1.0000
  C   C1516     1.0  0.49050  0.74090  0.14836  1.0000
  H   H1791     1.0  0.51396  0.75293  0.19900  1.0000
  H   H1792     1.0  0.53127  0.76600  0.19324  1.0000
  H   H1793     1.0  0.51114  0.77478  0.18327  1.0000
  H   H1794     1.0  0.53489  0.72572  0.18835  1.0000
  H   H1795     1.0  0.55285  0.73775  0.18498  1.0000
  H   H1796     1.0  0.55035  0.72864  0.16656  1.0000
  H   H1797     1.0  0.53415  0.77895  0.15307  1.0000
  H   H1798     1.0  0.55242  0.76818  0.16517  1.0000
  H   H1799     1.0  0.55076  0.75902  0.14683  1.0000
  H   H1800     1.0  0.52627  0.76247  0.13466  1.0000
  H   H1801     1.0  0.50337  0.73401  0.18883  1.0000
  H   H1802     1.0  0.50335  0.75530  0.12241  1.0000
  H   H1803     1.0  0.48043  0.72729  0.17586  1.0000
  H   H1804     1.0  0.48060  0.73744  0.14266  1.0000
  N   N101      1.0  0.52475  0.86335  0.17475  1.0000
  C   C1517     1.0  0.53471  0.85072  0.18889  1.0000
  C   C1518     1.0  0.50623  0.85891  0.17858  1.0000
  C   C1519     1.0  0.53461  0.85942  0.15657  1.0000
  C   C1520     1.0  0.52373  0.88297  0.17442  1.0000
  C   C1521     1.0  0.50999  0.89705  0.16702  1.0000
  C   C1522     1.0  0.53721  0.88878  0.18004  1.0000
  C   C1523     1.0  0.50913  0.91560  0.16647  1.0000
  C   C1524     1.0  0.53635  0.90738  0.17920  1.0000
  C   C1525     1.0  0.52228  0.92074  0.17258  1.0000
  H   H1805     1.0  0.52901  0.85456  0.20255  1.0000
  H   H1806     1.0  0.53382  0.83615  0.19043  1.0000
  H   H1807     1.0  0.54970  0.85060  0.18519  1.0000
  H   H1808     1.0  0.49744  0.86374  0.19102  1.0000
  H   H1809     1.0  0.50692  0.84387  0.18086  1.0000
  H   H1810     1.0  0.52757  0.86822  0.14541  1.0000
  H   H1811     1.0  0.54878  0.86195  0.15330  1.0000
  H   H1812     1.0  0.54869  0.87924  0.18500  1.0000
  H   H1813     1.0  0.54675  0.91149  0.18361  1.0000
  H   H1814     1.0  0.52162  0.93510  0.17216  1.0000
  N   N102      1.0  0.45793  0.79889  0.16410  1.0000
  C   C1526     1.0  0.43794  0.80250  0.16452  1.0000
  C   C1527     1.0  0.46344  0.81699  0.15954  1.0000
  C   C1528     1.0  0.46792  0.78905  0.14908  1.0000
  C   C1529     1.0  0.46186  0.78736  0.18185  1.0000
  C   C1530     1.0  0.47062  0.79286  0.19320  1.0000
  C   C1531     1.0  0.45686  0.76992  0.18827  1.0000
  C   C1532     1.0  0.46031  0.75869  0.20494  1.0000
  H   H1815     1.0  0.42990  0.80896  0.17630  1.0000
  H   H1816     1.0  0.43430  0.81193  0.15176  1.0000
  H   H1817     1.0  0.43296  0.78980  0.16562  1.0000
  H   H1818     1.0  0.45617  0.82533  0.17012  1.0000
  H   H1819     1.0  0.46000  0.82538  0.14625  1.0000
  H   H1820     1.0  0.47852  0.81544  0.15791  1.0000
  H   H1821     1.0  0.46374  0.77581  0.15077  1.0000
  H   H1822     1.0  0.46530  0.79723  0.13550  1.0000
  H   H1823     1.0  0.48300  0.78608  0.14825  1.0000
  H   H1824     1.0  0.47481  0.80594  0.18955  1.0000
  S   S412      1.0  0.57041  0.94654  0.23176  1.0000
  S   S413      1.0  0.39115  0.71938  0.21520  1.0000
  C   C1533     1.0  0.33153  0.50698  0.20161  1.0000
  H   H1825     1.0  0.38956  0.69798  0.13709  1.0000
  H   H1826     1.0  0.38559  0.74234  0.13428  1.0000
  Fe  Fe205     1.0  0.39684  0.68856  0.21752  1.0000
  H   H1827     1.0  0.46214  0.98523  0.22715  1.0000
  S   S414      1.0  0.37712  0.67958  0.20534  1.0000
  H   H1828     1.0  0.46234  0.69897  0.21458  1.0000
  H   H1829     1.0  0.42923  0.95404  0.14575  1.0000
  H   H1830     1.0  0.65087  0.68909  0.22080  1.0000
  H   H1831     1.0  0.65194  0.95737  0.20029  1.0000
  H   H1832     1.0  0.42199  0.95195  0.21762  1.0000
  C   C1534     1.0  0.58511  0.82955  0.02266  1.0000
  N   N103      1.0  0.41817  0.93015  0.14799  1.0000
  H   H1833     1.0  0.39962  0.92295  0.17394  1.0000
  C   C1535     1.0  0.58721  0.84020  0.03417  1.0000
  H   H1834     1.0  0.58672  0.85479  0.02920  1.0000
  C   C1536     1.0  0.58802  0.80262  0.04712  1.0000
  H   H1835     1.0  0.62715  0.87750  0.15178  1.0000
  C   C1537     1.0  0.48545  0.70674  0.21909  1.0000
  H   H1836     1.0  0.38993  0.64314  0.22719  1.0000
  H   H1837     1.0  0.48293  0.72006  0.21025  1.0000
  H   H1838     1.0  0.62389  0.86538  0.06801  1.0000
  H   H1839     1.0  0.34181  0.63837  0.19700  1.0000
  H   H1840     1.0  0.44552  0.88345  0.99369  1.0000
  C   C1538     1.0  0.63891  0.84981  0.09685  1.0000
  C   C1539     1.0  0.62643  0.87160  0.12606  1.0000
  H   H1841     1.0  0.60483  0.85265  0.11755  1.0000
  C   C1540     1.0  0.41366  0.69142  0.15969  1.0000
  C   C1541     1.0  0.62528  0.87860  0.10732  1.0000
  H   H1842     1.0  0.53604  0.78938  0.04492  1.0000
  C   C1542     1.0  0.42436  0.94728  0.13714  1.0000
  C   C1543     1.0  0.43412  0.91733  0.15471  1.0000
  H   H1843     1.0  0.55209  0.82863  0.05388  1.0000
  S   S415      1.0  0.32498  0.57853  0.19662  1.0000
  H   H1844     1.0  0.41301  0.95752  0.13150  1.0000
  C   C1544     1.0  0.40367  0.90489  0.14626  1.0000
  H   H1845     1.0  0.39557  0.89299  0.10983  1.0000
  H   H1846     1.0  0.43617  0.94446  0.12570  1.0000
  H   H1847     1.0  0.44480  0.91271  0.14311  1.0000
  C   C1545     1.0  0.41097  0.92091  0.13743  1.0000
  C   C1546     1.0  0.51395  0.92652  0.22508  1.0000
  C   C1547     1.0  0.47349  0.84217  0.00482  1.0000
  C   C1548     1.0  0.37427  0.62518  0.22319  1.0000
  N   N104      1.0  0.63692  0.67966  0.20510  1.0000
  C   C1549     1.0  0.52030  0.85621  0.07945  1.0000
  C   C1550     1.0  0.60612  0.86033  0.10305  1.0000
  C   C1551     1.0  0.46825  0.86911  0.01738  1.0000
  C   C1552     1.0  0.53490  0.79995  0.05294  1.0000
  H   H1848     1.0  0.39141  0.94429  0.15951  1.0000
  C   C1553     1.0  0.53736  0.84742  0.07108  1.0000
  C   C1554     1.0  0.41209  0.92659  0.11813  1.0000
  H   H1849     1.0  0.35105  0.66824  0.19216  1.0000
  H   H1850     1.0  0.53605  0.81492  0.01717  1.0000
  H   H1851     1.0  0.54835  0.82611  0.02604  1.0000
  C   C1555     1.0  0.40643  0.91664  0.10839  1.0000
  H   H1852     1.0  0.41760  0.93843  0.11015  1.0000
  H   H1853     1.0  0.44015  0.86117  0.00449  1.0000
  H   H1854     1.0  0.49858  0.80966  0.05729  1.0000
  C   C1556     1.0  0.53429  0.82470  0.02627  1.0000
  C   C1557     1.0  0.50648  0.81525  0.04362  1.0000
  H   H1855     1.0  0.51941  0.86520  0.08859  1.0000
  Fe  Fe206     1.0  0.57838  0.71678  0.22752  1.0000
  N   N105      1.0  0.52438  0.81810  0.04514  1.0000
  C   C1558     1.0  0.43901  0.96540  0.19383  1.0000
  H   H1856     1.0  0.62318  0.90449  0.08677  1.0000
  C   C1559     1.0  0.48393  0.87763  0.03722  1.0000
  C   C1560     1.0  0.51756  0.89333  0.23167  1.0000
  H   H1857     1.0  0.62620  0.85734  0.13240  1.0000
  C   C1561     1.0  0.46769  0.87993  0.05026  1.0000
  H   H1858     1.0  0.46248  0.96242  0.22508  1.0000
  C   C1562     1.0  0.37945  0.64217  0.22060  1.0000
  H   H1859     1.0  0.49215  0.76568  0.98221  1.0000
  S   S416      1.0  0.49513  0.87554  0.22328  1.0000
  C   C1563     1.0  0.44441  0.79716  0.98955  1.0000
  Fe  Fe207     1.0  0.32811  0.59756  0.21339  1.0000
  H   H1860     1.0  0.49686  0.86337  0.98646  1.0000
  H   H1861     1.0  0.53840  0.97684  0.21870  1.0000
  S   S417      1.0  0.52053  0.94620  0.22660  1.0000
  S   S418      1.0  0.44577  0.86838  0.22551  1.0000
  H   H1862     1.0  0.61539  0.66480  0.22025  1.0000
  H   H1863     1.0  0.49744  0.87007  0.01183  1.0000
  C   C1564     1.0  0.42775  0.96409  0.21132  1.0000
  H   H1864     1.0  0.49634  0.87990  0.03976  1.0000
  C   C1565     1.0  0.48433  0.87210  0.02110  1.0000
  S   S419      1.0  0.55409  0.79291  0.98453  1.0000
  H   H1865     1.0  0.62761  0.70746  0.19101  1.0000
  H   H1866     1.0  0.62682  0.69923  0.22299  1.0000
  N   N106      1.0  0.46873  0.86251  0.00071  1.0000
  H   H1867     1.0  0.64018  0.93868  0.20588  1.0000
  S   S420      1.0  0.51424  0.71754  0.22474  1.0000
  H   H1868     1.0  0.46405  0.83627  0.01721  1.0000
  H   H1869     1.0  0.60752  0.68743  0.20826  1.0000
  C   C1566     1.0  0.62462  0.90918  0.11222  1.0000
  H   H1870     1.0  0.63778  0.69150  0.17628  1.0000
  H   H1871     1.0  0.63874  0.84091  0.08750  1.0000
  C   C1567     1.0  0.63855  0.95325  0.20689  1.0000
  H   H1872     1.0  0.61269  0.88672  0.07424  1.0000
  H   H1873     1.0  0.47271  0.83632  0.99326  1.0000
  H   H1874     1.0  0.40579  0.85459  0.23023  1.0000
  H   H1875     1.0  0.34064  0.68624  0.23034  1.0000
  H   H1876     1.0  0.34514  0.50645  0.19309  1.0000
  H   H1877     1.0  0.65186  0.69982  0.18684  1.0000
  C   C1568     1.0  0.48253  0.86950  0.98474  1.0000
  H   H1878     1.0  0.65254  0.85378  0.09295  1.0000
  H   H1879     1.0  0.48312  0.96848  0.22640  1.0000
  C   C1569     1.0  0.65180  0.64720  0.21745  1.0000
  Fe  Fe208     1.0  0.58810  0.92032  0.22418  1.0000
  N   N107      1.0  0.63267  0.95562  0.22626  1.0000
  H   H1880     1.0  0.64134  0.64693  0.22980  1.0000
  H   H1881     1.0  0.38317  0.78812  0.22039  1.0000
  H   H1882     1.0  0.60413  0.95878  0.22685  1.0000
  C   C1570     1.0  0.40290  0.82145  0.22456  1.0000
  C   C1571     1.0  0.50044  0.70145  0.22777  1.0000
  S   S421      1.0  0.42818  0.71327  0.23126  1.0000
  C   C1572     1.0  0.38764  0.79675  0.22686  1.0000
  C   C1573     1.0  0.63035  0.97482  0.22825  1.0000
  C   C1574     1.0  0.46805  0.97044  0.23181  1.0000
  H   H1883     1.0  0.48052  0.88473  0.98220  1.0000
  H   H1884     1.0  0.38090  0.61314  0.23177  1.0000
  S   S422      1.0  0.40558  0.89391  0.25924  1.0000
  S   S423      1.0  0.55152  0.71647  0.29477  1.0000
  Fe  Fe209     1.0  0.56726  0.83169  0.32729  1.0000
  S   S424      1.0  0.59586  0.81522  0.32073  1.0000
  S   S425      1.0  0.55432  0.85975  0.31308  1.0000
  Fe  Fe210     1.0  0.55387  0.80002  0.35550  1.0000
  S   S426      1.0  0.58109  0.78060  0.35112  1.0000
  S   S427      1.0  0.52816  0.79369  0.37531  1.0000
  Fe  Fe211     1.0  0.59276  0.80470  0.35137  1.0000
  S   S428      1.0  0.61683  0.79735  0.36597  1.0000
  Fe  Fe212     1.0  0.58202  0.79258  0.32118  1.0000
  S   S429      1.0  0.59196  0.77781  0.29748  1.0000
  S   S430      1.0  0.56522  0.82330  0.35785  1.0000
  S   S431      1.0  0.55371  0.80979  0.32557  1.0000
  Fe  Fe213     1.0  0.45552  0.77319  0.33503  1.0000
  S   S432      1.0  0.45037  0.79561  0.31075  1.0000
  S   S433      1.0  0.48504  0.76018  0.33619  1.0000
  Fe  Fe214     1.0  0.41469  0.77414  0.35022  1.0000
  S   S434      1.0  0.40612  0.79682  0.32701  1.0000
  S   S435      1.0  0.39657  0.75937  0.37459  1.0000
  Fe  Fe215     1.0  0.42921  0.78110  0.30887  1.0000
  S   S436      1.0  0.43021  0.77851  0.27997  1.0000
  Fe  Fe216     1.0  0.42813  0.80915  0.33081  1.0000
  S   S437      1.0  0.42535  0.83877  0.33128  1.0000
  S   S438      1.0  0.43615  0.75737  0.33165  1.0000
  S   S439      1.0  0.43484  0.78788  0.35551  1.0000
  H   H1885     1.0  0.64907  0.92886  0.23478  1.0000
  H   H1886     1.0  0.41149  0.74742  0.24192  1.0000
  C   C1575     1.0  0.38430  0.79391  0.24593  1.0000
  H   H1887     1.0  0.39077  0.89346  0.29727  1.0000
  C   C1576     1.0  0.58944  0.81576  0.25144  1.0000
  H   H1888     1.0  0.50633  0.97691  0.27955  1.0000
  C   C1577     1.0  0.53501  0.80481  0.27298  1.0000
  S   S440      1.0  0.38435  0.72735  0.26614  1.0000
  H   H1889     1.0  0.39859  0.87198  0.32554  1.0000
  C   C1578     1.0  0.55078  0.80030  0.41746  1.0000
  C   C1579     1.0  0.34751  0.66006  0.27170  1.0000
  H   H1890     1.0  0.51494  0.84509  0.24871  1.0000
  C   C1580     1.0  0.41653  0.76514  0.27630  1.0000
  C   C1581     1.0  0.41938  0.76137  0.25878  1.0000
  C   C1582     1.0  0.40941  0.74996  0.25555  1.0000
  C   C1583     1.0  0.39644  0.74231  0.26980  1.0000
  C   C1584     1.0  0.39315  0.74658  0.28719  1.0000
  C   C1585     1.0  0.40324  0.75792  0.29048  1.0000
  H   H1891     1.0  0.34098  0.76472  0.42271  1.0000
  C   C1586     1.0  0.59195  0.62978  0.30742  1.0000
  H   H1892     1.0  0.38299  0.74085  0.29822  1.0000
  H   H1893     1.0  0.40087  0.76087  0.30402  1.0000
  C   C1587     1.0  0.37466  0.77086  0.38421  1.0000
  C   C1588     1.0  0.36727  0.78886  0.37627  1.0000
  C   C1589     1.0  0.35041  0.79812  0.38508  1.0000
  C   C1590     1.0  0.34103  0.78960  0.40202  1.0000
  C   C1591     1.0  0.34824  0.77147  0.40978  1.0000
  C   C1592     1.0  0.36492  0.76208  0.40079  1.0000
  H   H1894     1.0  0.37460  0.79571  0.36345  1.0000
  H   H1895     1.0  0.34482  0.81211  0.37895  1.0000
  H   H1896     1.0  0.40496  0.83688  0.27882  1.0000
  H   H1897     1.0  0.37048  0.74807  0.40689  1.0000
  C   C1593     1.0  0.51607  0.78384  0.36507  1.0000
  C   C1594     1.0  0.49694  0.78600  0.37043  1.0000
  C   C1595     1.0  0.48720  0.77886  0.36161  1.0000
  C   C1596     1.0  0.49663  0.76922  0.34768  1.0000
  C   C1597     1.0  0.51577  0.76674  0.34266  1.0000
  C   C1598     1.0  0.52544  0.77424  0.35114  1.0000
  H   H1898     1.0  0.48964  0.79339  0.38123  1.0000
  H   H1899     1.0  0.47245  0.78062  0.36570  1.0000
  H   H1900     1.0  0.52310  0.75929  0.33190  1.0000
  H   H1901     1.0  0.54019  0.77245  0.34701  1.0000
  C   C1599     1.0  0.47091  0.97657  0.26000  1.0000
  C   C1600     1.0  0.61123  0.82835  0.40394  1.0000
  C   C1601     1.0  0.60784  0.82154  0.38998  1.0000
  H   H1902     1.0  0.60138  0.83954  0.40922  1.0000
  H   H1903     1.0  0.59557  0.82763  0.38446  1.0000
  C   C1602     1.0  0.62721  0.82070  0.41118  1.0000
  C   C1603     1.0  0.64442  0.89389  0.40676  1.0000
  H   H1904     1.0  0.57394  0.75612  0.41976  1.0000
  C   C1604     1.0  0.56241  0.73384  0.29540  1.0000
  C   C1605     1.0  0.57463  0.74095  0.27995  1.0000
  C   C1606     1.0  0.58361  0.75443  0.28077  1.0000
  C   C1607     1.0  0.58027  0.76104  0.29695  1.0000
  C   C1608     1.0  0.56786  0.75414  0.31234  1.0000
  C   C1609     1.0  0.55906  0.74044  0.31160  1.0000
  H   H1905     1.0  0.59322  0.75969  0.26884  1.0000
  H   H1906     1.0  0.56533  0.75908  0.32488  1.0000
  H   H1907     1.0  0.54968  0.73492  0.32361  1.0000
  C   C1610     1.0  0.62493  0.97925  0.24596  1.0000
  C   C1611     1.0  0.41176  0.87854  0.27897  1.0000
  C   C1612     1.0  0.42603  0.86311  0.27774  1.0000
  C   C1613     1.0  0.42986  0.85041  0.29374  1.0000
  C   C1614     1.0  0.42003  0.85367  0.31102  1.0000
  C   C1615     1.0  0.40618  0.86938  0.31222  1.0000
  C   C1616     1.0  0.40180  0.88156  0.29623  1.0000
  H   H1908     1.0  0.43395  0.86086  0.26450  1.0000
  H   H1909     1.0  0.44069  0.83836  0.29275  1.0000
  H   H1910     1.0  0.57733  0.73594  0.26740  1.0000
  C   C1617     1.0  0.39958  0.81903  0.24399  1.0000
  C   C1618     1.0  0.56843  0.87089  0.29395  1.0000
  C   C1619     1.0  0.58752  0.86523  0.29090  1.0000
  C   C1620     1.0  0.59851  0.87405  0.27532  1.0000
  C   C1621     1.0  0.57891  0.80051  0.43557  1.0000
  C   C1622     1.0  0.32868  0.64688  0.25899  1.0000
  H   H1911     1.0  0.47091  0.72304  0.25194  1.0000
  S   S441      1.0  0.45757  0.66576  0.24139  1.0000
  C   C1623     1.0  0.55660  0.64962  0.32663  1.0000
  C   C1624     1.0  0.47191  0.94485  0.25709  1.0000
  H   H1912     1.0  0.46983  0.93999  0.27226  1.0000
  H   H1913     1.0  0.48678  0.94171  0.25115  1.0000
  H   H1914     1.0  0.58122  0.68313  0.31612  1.0000
  H   H1915     1.0  0.57338  0.66966  0.33864  1.0000
  H   H1916     1.0  0.55684  0.76551  0.43752  1.0000
  C   C1625     1.0  0.63304  0.61470  0.25822  1.0000
  H   H1917     1.0  0.57956  0.98514  0.23421  1.0000
  H   H1918     1.0  0.54475  0.85222  0.24520  1.0000
  H   H1919     1.0  0.64039  0.60109  0.25632  1.0000
  H   H1920     1.0  0.63431  0.87338  0.44389  1.0000
  Fe  Fe217     1.0  0.42680  0.89377  0.23324  1.0000
  H   H1921     1.0  0.40602  0.81334  0.27966  1.0000
  H   H1922     1.0  0.65216  0.80017  0.40972  1.0000
  N   N108      1.0  0.46381  0.96475  0.25207  1.0000
  H   H1923     1.0  0.60213  0.76407  0.41542  1.0000
  H   H1924     1.0  0.54318  0.65949  0.32832  1.0000
  H   H1925     1.0  0.61329  0.86974  0.27309  1.0000
  H   H1926     1.0  0.45561  0.74090  0.26294  1.0000
  C   C1626     1.0  0.33953  0.67526  0.24243  1.0000
  S   S442      1.0  0.63062  0.82912  0.42928  1.0000
  C   C1627     1.0  0.57545  0.78765  0.39540  1.0000
  H   H1927     1.0  0.44688  0.72483  0.25574  1.0000
  C   C1628     1.0  0.64040  0.62500  0.26605  1.0000
  C   C1629     1.0  0.61368  0.64984  0.26332  1.0000
  H   H1928     1.0  0.63286  0.63732  0.32339  1.0000
  H   H1929     1.0  0.55389  0.81430  0.41174  1.0000
  H   H1930     1.0  0.61996  0.78989  0.44886  1.0000
  C   C1630     1.0  0.54267  0.83888  0.25311  1.0000
  C   C1631     1.0  0.57743  0.84817  0.24893  1.0000
  H   H1931     1.0  0.56634  0.83814  0.28584  1.0000
  H   H1932     1.0  0.58052  0.80070  0.38972  1.0000
  C   C1632     1.0  0.60921  0.78877  0.44264  1.0000
  C   C1633     1.0  0.59045  0.88852  0.26271  1.0000
  C   C1634     1.0  0.56828  0.66702  0.29700  1.0000
  Fe  Fe218     1.0  0.55739  0.70980  0.26676  1.0000
  C   C1635     1.0  0.56036  0.88534  0.28132  1.0000
  S   S443      1.0  0.58580  0.69806  0.25317  1.0000
  H   H1933     1.0  0.59086  0.83214  0.27831  1.0000
  C   C1636     1.0  0.56226  0.76771  0.42243  1.0000
  N   N109      1.0  0.49313  0.83197  0.32217  1.0000
  C   C1637     1.0  0.47543  0.82670  0.33242  1.0000
  C   C1638     1.0  0.50534  0.81562  0.31565  1.0000
  C   C1639     1.0  0.50137  0.83681  0.33536  1.0000
  C   C1640     1.0  0.49120  0.84742  0.30620  1.0000
  C   C1641     1.0  0.47436  0.85489  0.30007  1.0000
  C   C1642     1.0  0.50662  0.85505  0.29586  1.0000
  C   C1643     1.0  0.47315  0.86907  0.28456  1.0000
  C   C1644     1.0  0.50519  0.86938  0.28051  1.0000
  C   C1645     1.0  0.48852  0.87628  0.27481  1.0000
  H   H1934     1.0  0.46907  0.82137  0.32387  1.0000
  H   H1935     1.0  0.47721  0.81551  0.34466  1.0000
  H   H1936     1.0  0.46537  0.83851  0.33745  1.0000
  H   H1937     1.0  0.51925  0.81814  0.30856  1.0000
  H   H1938     1.0  0.49952  0.81125  0.30597  1.0000
  H   H1939     1.0  0.50728  0.80373  0.32725  1.0000
  H   H1940     1.0  0.49311  0.84965  0.33984  1.0000
  H   H1941     1.0  0.50229  0.82568  0.34788  1.0000
  H   H1942     1.0  0.51565  0.83890  0.32955  1.0000
  H   H1943     1.0  0.46186  0.85006  0.30700  1.0000
  H   H1944     1.0  0.51996  0.84998  0.29952  1.0000
  C   C1646     1.0  0.60468  0.64803  0.32058  1.0000
  H   H1945     1.0  0.51712  0.87510  0.27297  1.0000
  C   C1647     1.0  0.63642  0.79938  0.39038  1.0000
  N   N110      1.0  0.39869  0.78931  0.41883  1.0000
  C   C1648     1.0  0.41443  0.79856  0.41504  1.0000
  C   C1649     1.0  0.40584  0.77154  0.41271  1.0000
  C   C1650     1.0  0.38547  0.80115  0.40747  1.0000
  C   C1651     1.0  0.38929  0.78601  0.43840  1.0000
  C   C1652     1.0  0.37414  0.77706  0.44410  1.0000
  C   C1653     1.0  0.39464  0.79152  0.45226  1.0000
  C   C1654     1.0  0.50345  0.68403  0.23921  1.0000
  H   H1946     1.0  0.56209  0.79813  0.27796  1.0000
  S   S444      1.0  0.58493  0.64829  0.24881  1.0000
  H   H1947     1.0  0.40998  0.81241  0.41857  1.0000
  H   H1948     1.0  0.42526  0.79014  0.42268  1.0000
  H   H1949     1.0  0.42107  0.80073  0.40016  1.0000
  H   H1950     1.0  0.41315  0.77342  0.39805  1.0000
  H   H1951     1.0  0.39478  0.76431  0.41354  1.0000
  H   H1952     1.0  0.41551  0.76203  0.42117  1.0000
  H   H1953     1.0  0.37992  0.81477  0.41141  1.0000
  H   H1954     1.0  0.39180  0.80349  0.39253  1.0000
  H   H1955     1.0  0.37352  0.79495  0.40900  1.0000
  H   H1956     1.0  0.36920  0.77253  0.43439  1.0000
  H   H1957     1.0  0.40596  0.79842  0.44931  1.0000
  H   H1958     1.0  0.62243  0.96880  0.25819  1.0000
  H   H1959     1.0  0.38505  0.83010  0.27699  1.0000
  N   N111      1.0  0.45809  0.71399  0.28032  1.0000
  C   C1655     1.0  0.43908  0.71714  0.29129  1.0000
  C   C1656     1.0  0.45792  0.72622  0.26195  1.0000
  C   C1657     1.0  0.46301  0.69461  0.27816  1.0000
  C   C1658     1.0  0.47180  0.71760  0.28875  1.0000
  C   C1659     1.0  0.49030  0.71687  0.27914  1.0000
  C   C1660     1.0  0.46738  0.72188  0.30650  1.0000
  C   C1661     1.0  0.50331  0.72090  0.28654  1.0000
  C   C1662     1.0  0.48055  0.72574  0.31380  1.0000
  C   C1663     1.0  0.49842  0.72543  0.30379  1.0000
  H   H1960     1.0  0.43473  0.73141  0.29375  1.0000
  H   H1961     1.0  0.42895  0.71523  0.28417  1.0000
  H   H1962     1.0  0.43769  0.70738  0.30479  1.0000
  H   H1963     1.0  0.37743  0.78290  0.25423  1.0000
  H   H1964     1.0  0.43209  0.81134  0.25284  1.0000
  H   H1965     1.0  0.65063  0.85784  0.42159  1.0000
  H   H1966     1.0  0.45350  0.69153  0.27106  1.0000
  H   H1967     1.0  0.47701  0.69128  0.26991  1.0000
  H   H1968     1.0  0.46268  0.68493  0.29170  1.0000
  H   H1969     1.0  0.49485  0.71330  0.26575  1.0000
  H   H1970     1.0  0.45379  0.72259  0.31498  1.0000
  H   H1971     1.0  0.51725  0.72067  0.27885  1.0000
  H   H1972     1.0  0.47683  0.72929  0.32723  1.0000
  H   H1973     1.0  0.50847  0.72879  0.30941  1.0000
  C   C1664     1.0  0.52543  0.83490  0.25498  1.0000
  C   C1665     1.0  0.49080  0.67247  0.24271  1.0000
  C   C1666     1.0  0.32983  0.66174  0.24358  1.0000
  C   C1667     1.0  0.42672  0.82630  0.24825  1.0000
  H   H1974     1.0  0.50826  0.81488  0.26622  1.0000
  H   H1975     1.0  0.34387  0.61359  0.25303  1.0000
  H   H1976     1.0  0.38763  0.80138  0.26929  1.0000
  Fe  Fe219     1.0  0.39869  0.71269  0.24285  1.0000
  C   C1668     1.0  0.47531  0.67829  0.23460  1.0000
  H   H1977     1.0  0.60631  0.66325  0.26555  1.0000
  H   H1978     1.0  0.40380  0.85935  0.25209  1.0000
  C   C1669     1.0  0.62042  0.80693  0.38318  1.0000
  C   C1670     1.0  0.36493  0.77383  0.46243  1.0000
  H   H1979     1.0  0.61033  0.60527  0.30005  1.0000
  H   H1980     1.0  0.35337  0.76698  0.46640  1.0000
  N   N112      1.0  0.56771  0.78581  0.41533  1.0000
  C   C1671     1.0  0.62313  0.61962  0.31219  1.0000
  C   C1672     1.0  0.61237  0.77540  0.43231  1.0000
  C   C1673     1.0  0.39988  0.85036  0.24506  1.0000
  N   N113      1.0  0.57174  0.65903  0.31577  1.0000
  H   H1981     1.0  0.58723  0.77636  0.39210  1.0000
  C   C1674     1.0  0.58169  0.78701  0.42490  1.0000
  H   H1982     1.0  0.55919  0.64255  0.34056  1.0000
  H   H1983     1.0  0.56651  0.81086  0.43715  1.0000
  C   C1675     1.0  0.63984  0.80623  0.40426  1.0000
  C   C1676     1.0  0.59256  0.80129  0.44424  1.0000
  H   H1984     1.0  0.54070  0.79909  0.40985  1.0000
  N   N114      1.0  0.57490  0.82969  0.25994  1.0000
  H   H1985     1.0  0.58127  0.62738  0.30204  1.0000
  H   H1986     1.0  0.60336  0.81859  0.24966  1.0000
  H   H1987     1.0  0.43819  0.95695  0.25376  1.0000
  H   H1988     1.0  0.42937  0.76725  0.24766  1.0000
  C   C1677     1.0  0.34849  0.67435  0.25634  1.0000
  C   C1678     1.0  0.57134  0.89409  0.26568  1.0000
  H   H1989     1.0  0.59053  0.81205  0.45178  1.0000
  H   H1990     1.0  0.48746  0.88722  0.26277  1.0000
  H   H1991     1.0  0.63617  0.60996  0.31067  1.0000
  C   C1679     1.0  0.60853  0.61697  0.30625  1.0000
  H   H1992     1.0  0.56502  0.78760  0.38768  1.0000
  H   H1993     1.0  0.56760  0.65653  0.28967  1.0000
  H   H1994     1.0  0.51510  0.67970  0.24584  1.0000
  H   H1995     1.0  0.55474  0.63917  0.31993  1.0000
  H   H1996     1.0  0.61024  0.94921  0.24882  1.0000
  H   H1997     1.0  0.54559  0.88975  0.28363  1.0000
  C   C1680     1.0  0.59885  0.77446  0.42359  1.0000
  C   C1681     1.0  0.58945  0.64566  0.31476  1.0000
  H   H1998     1.0  0.55142  0.76655  0.41575  1.0000
  C   C1682     1.0  0.52162  0.81791  0.26488  1.0000
  H   H1999     1.0  0.56502  0.90526  0.25603  1.0000
  C   C1683     1.0  0.64220  0.88075  0.46517  1.0000
  C   C1684     1.0  0.33101  0.61395  0.26371  1.0000
  C   C1685     1.0  0.40028  0.82753  0.27284  1.0000
  H   H2000     1.0  0.52423  0.87990  0.23793  1.0000
  C   C1686     1.0  0.39022  0.80476  0.25446  1.0000
  C   C1687     1.0  0.62124  0.63513  0.31927  1.0000
  C   C1688     1.0  0.44362  0.96671  0.25847  1.0000
  C   C1689     1.0  0.38531  0.78820  0.47060  1.0000
  H   H2001     1.0  0.59385  0.85424  0.30067  1.0000
  H   H2002     1.0  0.54367  0.79936  0.43210  1.0000
  H   H2003     1.0  0.63624  0.65050  0.27484  1.0000
  H   H2004     1.0  0.61023  0.61389  0.24710  1.0000
  H   H2005     1.0  0.57777  0.81469  0.28728  1.0000
  H   H2006     1.0  0.43594  0.98051  0.25300  1.0000
  H   H2007     1.0  0.55509  0.67722  0.29724  1.0000
  H   H2008     1.0  0.32464  0.60271  0.26300  1.0000
  H   H2009     1.0  0.58983  0.80163  0.26001  1.0000
  H   H2010     1.0  0.49574  0.95683  0.26660  1.0000
  Fe  Fe220     1.0  0.57256  0.67853  0.24641  1.0000
  H   H2011     1.0  0.41440  0.97780  0.23386  1.0000
  H   H2012     1.0  0.58739  0.81540  0.23773  1.0000
  C   C1690     1.0  0.55661  0.82586  0.26129  1.0000
  H   H2013     1.0  0.43236  0.83005  0.23328  1.0000
  H   H2014     1.0  0.60428  0.65984  0.32594  1.0000
  S   S445      1.0  0.54440  0.68871  0.26208  1.0000
  C   C1691     1.0  0.57105  0.67456  0.32435  1.0000
  H   H2015     1.0  0.35638  0.68464  0.25509  1.0000
  C   C1692     1.0  0.63066  0.64256  0.26861  1.0000
  H   H2016     1.0  0.46017  0.87449  0.28010  1.0000
  H   H2017     1.0  0.43972  0.96422  0.27372  1.0000
  H   H2018     1.0  0.55746  0.68423  0.32505  1.0000
  H   H2019     1.0  0.57933  0.67429  0.28850  1.0000
  H   H2020     1.0  0.56743  0.85936  0.25510  1.0000
  S   S446      1.0  0.55103  0.73048  0.24166  1.0000
  C   C1693     1.0  0.60624  0.63954  0.25556  1.0000
  N   N115      1.0  0.40639  0.83055  0.25253  1.0000
  S   S447      1.0  0.40228  0.68204  0.24625  1.0000
  C   C1694     1.0  0.61593  0.62194  0.25308  1.0000
  H   H2021     1.0  0.59126  0.85062  0.24836  1.0000
  C   C1695     1.0  0.57759  0.82864  0.27860  1.0000
  H   H2022     1.0  0.49263  0.65936  0.25219  1.0000
  H   H2023     1.0  0.43253  0.83380  0.25528  1.0000
  C   C1696     1.0  0.55221  0.80871  0.27131  1.0000
  S   S448      1.0  0.60443  0.89948  0.24336  1.0000
  C   C1697     1.0  0.65465  0.88805  0.47009  1.0000
  H   H2024     1.0  0.46576  0.93626  0.25157  1.0000
  H   H2025     1.0  0.62559  0.76608  0.43061  1.0000
  H   H2026     1.0  0.53212  0.79151  0.28061  1.0000
  H   H2027     1.0  0.53370  0.90771  0.24004  1.0000
  H   H2028     1.0  0.38466  0.85383  0.24688  1.0000
  H   H2029     1.0  0.35459  0.65940  0.28246  1.0000
  H   H2030     1.0  0.63114  0.87578  0.47562  1.0000
  H   H2031     1.0  0.64625  0.78811  0.38520  1.0000
  C   C1698     1.0  0.61502  0.94945  0.23388  1.0000
  H   H2032     1.0  0.33506  0.61019  0.27725  1.0000
  Fe  Fe221     1.0  0.65656  0.81786  0.44109  1.0000
  C   C1699     1.0  0.48743  0.97043  0.26687  1.0000
  C   C1700     1.0  0.64666  0.94333  0.23649  1.0000
  C   C1701     1.0  0.49381  0.98195  0.27422  1.0000
  C   C1702     1.0  0.37049  0.77938  0.47566  1.0000
  H   H2033     1.0  0.64573  0.89333  0.39213  1.0000
  Fe  Fe222     1.0  0.54037  0.70840  0.23571  1.0000
  C   C1703     1.0  0.52290  0.90907  0.23283  1.0000
  H   H2034     1.0  0.33735  0.63576  0.28527  1.0000
  C   C1704     1.0  0.33768  0.64657  0.27311  1.0000
  Fe  Fe223     1.0  0.43171  0.68325  0.23236  1.0000
  H   H2035     1.0  0.63186  0.88856  0.41445  1.0000
  H   H2036     1.0  0.57615  0.84985  0.23447  1.0000
  H   H2037     1.0  0.64244  0.94282  0.25151  1.0000
  H   H2038     1.0  0.63391  0.67620  0.23453  1.0000
  C   C1705     1.0  0.64418  0.87941  0.44694  1.0000
  H   H2039     1.0  0.64197  0.90857  0.40769  1.0000
  H   H2040     1.0  0.38959  0.79246  0.48099  1.0000
  H   H2041     1.0  0.61596  0.93525  0.23214  1.0000
  H   H2042     1.0  0.33639  0.72573  0.59933  1.0000
  N   N116      1.0  0.54314  0.83738  0.68113  1.0000
  H   H2043     1.0  0.55899  0.81163  0.69292  1.0000
  C   C1706     1.0  0.37898  0.74674  0.69719  1.0000
  H   H2044     1.0  0.37638  0.88449  0.69974  1.0000
  Fe  Fe224     1.0  0.32897  0.79778  0.58617  1.0000
  C   C1707     1.0  0.43229  0.72430  0.72910  1.0000
  C   C1708     1.0  0.34259  0.86169  0.68550  1.0000
  C   C1709     1.0  0.62459  0.82528  0.66728  1.0000
  S   S449      1.0  0.59997  0.82006  0.69997  1.0000
  H   H2045     1.0  0.38760  0.73561  0.69004  1.0000
  H   H2046     1.0  0.57440  0.83559  0.62025  1.0000
  H   H2047     1.0  0.52818  0.86522  0.67493  1.0000
  C   C1710     1.0  0.58727  0.84762  0.63465  1.0000
  H   H2048     1.0  0.52233  0.83765  0.66672  1.0000
  S   S450      1.0  0.46804  0.79836  0.71868  1.0000
  S   S451      1.0  0.42604  0.83529  0.69824  1.0000
  H   H2049     1.0  0.33745  0.61004  0.72173  1.0000
  S   S452      1.0  0.65718  0.86209  0.63977  1.0000
  Fe  Fe225     1.0  0.40902  0.81806  0.69263  1.0000
  S   S453      1.0  0.40443  0.82022  0.66400  1.0000
  S   S454      1.0  0.42346  0.79182  0.70821  1.0000
  H   H2050     1.0  0.36514  0.75295  0.54567  1.0000
  C   C1711     1.0  0.49710  0.80440  0.72933  1.0000
  H   H2051     1.0  0.37184  0.86850  0.64381  1.0000
  C   C1712     1.0  0.36938  0.81285  0.67498  1.0000
  C   C1713     1.0  0.35367  0.80896  0.67178  1.0000
  H   H2052     1.0  0.37029  0.81288  0.68875  1.0000
  H   H2053     1.0  0.36858  0.75489  0.68884  1.0000
  C   C1714     1.0  0.55104  0.82491  0.69664  1.0000
  H   H2054     1.0  0.59719  0.85874  0.65234  1.0000
  C   C1715     1.0  0.38960  0.86437  0.67405  1.0000
  H   H2055     1.0  0.59852  0.85010  0.62315  1.0000
  H   H2056     1.0  0.54206  0.86132  0.69167  1.0000
  C   C1716     1.0  0.35257  0.76003  0.54097  1.0000
  Fe  Fe226     1.0  0.43828  0.80940  0.71626  1.0000
  C   C1717     1.0  0.57219  0.84915  0.66607  1.0000
  C   C1718     1.0  0.63710  0.83452  0.65364  1.0000
  H   H2057     1.0  0.36712  0.78054  0.70414  1.0000
  H   H2058     1.0  0.37228  0.76515  0.72479  1.0000
  C   C1719     1.0  0.61530  0.83232  0.68308  1.0000
  C   C1720     1.0  0.55925  0.83603  0.64798  1.0000
  H   H2059     1.0  0.35260  0.88695  0.70002  1.0000
  C   C1721     1.0  0.64058  0.85077  0.65583  1.0000
  C   C1722     1.0  0.63110  0.85791  0.67150  1.0000
  C   C1723     1.0  0.61849  0.84876  0.68507  1.0000
  C   C1724     1.0  0.53327  0.85504  0.68664  1.0000
  C   C1725     1.0  0.38392  0.81652  0.66036  1.0000
  H   H2060     1.0  0.63368  0.87051  0.67325  1.0000
  H   H2061     1.0  0.61139  0.85433  0.69715  1.0000
  H   H2062     1.0  0.38047  0.90154  0.66913  1.0000
  H   H2063     1.0  0.52120  0.85323  0.69803  1.0000
  H   H2064     1.0  0.35734  0.90337  0.66677  1.0000
  C   C1726     1.0  0.57368  0.83942  0.63308  1.0000
  H   H2065     1.0  0.35730  0.80539  0.51605  1.0000
  C   C1727     1.0  0.36644  0.81330  0.63921  1.0000
  H   H2066     1.0  0.35744  0.74400  0.52040  1.0000
  C   C1728     1.0  0.55810  0.84080  0.66500  1.0000
  C   C1729     1.0  0.52932  0.82875  0.67786  1.0000
  H   H2067     1.0  0.62202  0.81267  0.66556  1.0000
  H   H2068     1.0  0.39490  0.86317  0.65945  1.0000
  C   C1730     1.0  0.36635  0.87805  0.69665  1.0000
  Fe  Fe227     1.0  0.58211  0.83041  0.72521  1.0000
  C   C1731     1.0  0.36025  0.86497  0.65432  1.0000
  C   C1732     1.0  0.35787  0.86754  0.67249  1.0000
  H   H2069     1.0  0.56062  0.83086  0.70090  1.0000
  S   S455      1.0  0.34733  0.77909  0.56764  1.0000
  H   H2070     1.0  0.57247  0.85288  0.67862  1.0000
  C   C1733     1.0  0.34792  0.85742  0.64939  1.0000
  H   H2071     1.0  0.53563  0.81501  0.67438  1.0000
  C   C1734     1.0  0.40040  0.73481  0.72672  1.0000
  H   H2072     1.0  0.39351  0.81966  0.63105  1.0000
  C   C1735     1.0  0.33280  0.81850  0.50542  1.0000
  H   H2073     1.0  0.33938  0.71857  0.57779  1.0000
  H   H2074     1.0  0.51829  0.82644  0.69034  1.0000
  N   N117      1.0  0.37095  0.87595  0.67722  1.0000
  H   H2075     1.0  0.54023  0.82189  0.70904  1.0000
  C   C1736     1.0  0.38234  0.81681  0.64246  1.0000
  C   C1737     1.0  0.35206  0.80926  0.65389  1.0000
  H   H2076     1.0  0.40712  0.75953  0.67246  1.0000
  H   H2077     1.0  0.36678  0.86450  0.70638  1.0000
  C   C1738     1.0  0.37133  0.89450  0.66542  1.0000
  H   H2078     1.0  0.36539  0.81355  0.62537  1.0000
  H   H2079     1.0  0.37654  0.89399  0.65065  1.0000
  H   H2080     1.0  0.35020  0.85522  0.63552  1.0000
  H   H2081     1.0  0.39977  0.86978  0.67814  1.0000
  C   C1739     1.0  0.43728  0.73630  0.71261  1.0000
  S   S456      1.0  0.33849  0.81902  0.59499  1.0000
  C   C1740     1.0  0.39766  0.76883  0.68131  1.0000
  H   H2082     1.0  0.34253  0.80603  0.68319  1.0000
  C   C1741     1.0  0.40501  0.74687  0.70963  1.0000
  C   C1742     1.0  0.58648  0.85253  0.65108  1.0000
  H   H2083     1.0  0.54924  0.82959  0.64582  1.0000
  H   H2084     1.0  0.38647  0.77657  0.67385  1.0000
  S   S457      1.0  0.56108  0.85674  0.72325  1.0000
  S   S458      1.0  0.38586  0.82327  0.71634  1.0000
  C   C1743     1.0  0.34822  0.75497  0.52662  1.0000
  C   C1744     1.0  0.34078  0.77399  0.54939  1.0000
  C   C1745     1.0  0.33227  0.76415  0.52004  1.0000
  H   H2085     1.0  0.45158  0.73719  0.70746  1.0000
  H   H2086     1.0  0.33744  0.74208  0.57823  1.0000
  C   C1746     1.0  0.33038  0.85408  0.68040  1.0000
  Fe  Fe228     1.0  0.40381  0.83832  0.72330  1.0000
  H   H2087     1.0  0.46022  0.83733  0.71898  1.0000
  H   H2088     1.0  0.33634  0.81065  0.49468  1.0000
  H   H2089     1.0  0.38963  0.85016  0.68216  1.0000
  H   H2090     1.0  0.64411  0.82903  0.64151  1.0000
  C   C1747     1.0  0.47320  0.83109  0.72312  1.0000
  H   H2091     1.0  0.38655  0.78122  0.71273  1.0000
  C   C1748     1.0  0.48324  0.84197  0.72718  1.0000
  H   H2092     1.0  0.36328  0.77677  0.48985  1.0000
  H   H2093     1.0  0.37107  0.74020  0.71039  1.0000
  C   C1749     1.0  0.33981  0.82517  0.53157  1.0000
  C   C1750     1.0  0.33217  0.72941  0.58583  1.0000
  N   N118      1.0  0.39045  0.75841  0.69979  1.0000
  C   C1751     1.0  0.42392  0.74742  0.70291  1.0000
  H   H2094     1.0  0.40494  0.77932  0.68218  1.0000
  C   C1752     1.0  0.37857  0.77188  0.71080  1.0000
  C   C1753     1.0  0.48013  0.81229  0.72411  1.0000
  H   H2095     1.0  0.42875  0.75657  0.69039  1.0000
  C   C1754     1.0  0.33299  0.85205  0.66238  1.0000
  H   H2096     1.0  0.34881  0.82241  0.54120  1.0000
  S   S459      1.0  0.33183  0.80448  0.65072  1.0000
  H   H2097     1.0  0.33985  0.86265  0.69974  1.0000
  C   C1755     1.0  0.34464  0.81557  0.51737  1.0000
  H   H2098     1.0  0.47786  0.85657  0.72619  1.0000
  H   H2099     1.0  0.32982  0.69686  0.60314  1.0000
  S   S460      1.0  0.32786  0.75680  0.50194  1.0000
  C   C1756     1.0  0.32448  0.78304  0.54319  1.0000
  H   H2100     1.0  0.50250  0.78982  0.73015  1.0000
  H   H2101     1.0  0.65329  0.88877  0.48429  1.0000
  Fe  Fe229     1.0  0.43169  0.93457  0.80705  1.0000
  S   S461      1.0  0.42967  0.91936  0.83639  1.0000
  Fe  Fe230     1.0  0.43746  0.89928  0.79252  1.0000
  S   S462      1.0  0.43612  0.88136  0.82059  1.0000
  S   S463      1.0  0.44741  0.88458  0.76896  1.0000
  Fe  Fe231     1.0  0.41264  0.90375  0.82894  1.0000
  S   S464      1.0  0.38621  0.89766  0.84693  1.0000
  Fe  Fe232     1.0  0.45327  0.89858  0.82505  1.0000
  S   S465      1.0  0.47988  0.88679  0.83427  1.0000
  S   S466      1.0  0.41253  0.92052  0.80034  1.0000
  S   S467      1.0  0.45651  0.91486  0.79638  1.0000
  Fe  Fe233     1.0  0.54131  0.94758  0.82883  1.0000
  S   S468      1.0  0.56877  0.95236  0.81301  1.0000
  S   S469      1.0  0.51836  0.95436  0.81373  1.0000
  Fe  Fe234     1.0  0.55453  0.93266  0.86462  1.0000
  S   S470      1.0  0.58351  0.93601  0.85151  1.0000
  S   S471      1.0  0.54385  0.91883  0.89358  1.0000
  Fe  Fe235     1.0  0.56994  0.96366  0.83683  1.0000
  H   H2102     1.0  0.42849  0.76886  0.84040  1.0000
  Fe  Fe236     1.0  0.57943  0.92464  0.82891  1.0000
  H   H2103     1.0  0.59763  0.76550  0.85344  1.0000
  S   S472      1.0  0.54121  0.96105  0.85151  1.0000
  S   S473      1.0  0.55175  0.91909  0.84333  1.0000
  H   H2104     1.0  0.36587  0.84784  0.89530  1.0000
  H   H2105     1.0  0.40222  0.78211  0.80211  1.0000
  H   H2106     1.0  0.44262  0.71593  0.73677  1.0000
  C   C1757     1.0  0.33260  0.50090  0.80522  1.0000
  Fe  Fe237     1.0  0.57304  0.78797  0.95816  1.0000
  S   S474      1.0  0.55987  0.81401  0.94157  1.0000
  S   S475      1.0  0.57980  0.75997  0.95120  1.0000
  Fe  Fe238     1.0  0.58021  0.82654  0.94790  1.0000
  S   S476      1.0  0.59483  0.84396  0.92322  1.0000
  H   H2107     1.0  0.60719  0.95606  0.82067  1.0000
  C   C1758     1.0  0.49613  0.92935  0.77265  1.0000
  S   S477      1.0  0.59492  0.79981  0.96260  1.0000
  H   H2108     1.0  0.54196  0.75203  0.96277  1.0000
  Fe  Fe239     1.0  0.42576  0.81357  0.91365  1.0000
  S   S478      1.0  0.39748  0.82582  0.90832  1.0000
  Fe  Fe240     1.0  0.46497  0.81694  0.90880  1.0000
  S   S479      1.0  0.48922  0.83080  0.89969  1.0000
  Fe  Fe241     1.0  0.45586  0.78112  0.90718  1.0000
  S   S480      1.0  0.46736  0.75749  0.89250  1.0000
  S   S481      1.0  0.45022  0.80977  0.89070  1.0000
  Fe  Fe242     1.0  0.56601  0.72145  0.87434  1.0000
  S   S482      1.0  0.56083  0.69560  0.89460  1.0000
  S   S483      1.0  0.56429  0.75024  0.87784  1.0000
  Fe  Fe243     1.0  0.56673  0.70582  0.84180  1.0000
  S   S484      1.0  0.56166  0.67830  0.85879  1.0000
  S   S485      1.0  0.56592  0.71726  0.81194  1.0000
  Fe  Fe244     1.0  0.54104  0.69460  0.87809  1.0000
  S   S486      1.0  0.51163  0.69239  0.89030  1.0000
  Fe  Fe245     1.0  0.58215  0.68067  0.87414  1.0000
  S   S487      1.0  0.60134  0.65552  0.88694  1.0000
  S   S488      1.0  0.54430  0.72162  0.85976  1.0000
  S   S489      1.0  0.58905  0.70689  0.85529  1.0000
  H   H2109     1.0  0.61062  0.74776  0.88040  1.0000
  C   C1759     1.0  0.64307  0.96109  0.78490  1.0000
  C   C1760     1.0  0.48457  0.94670  0.77207  1.0000
  H   H2110     1.0  0.53995  0.75384  0.93208  1.0000
  C   C1761     1.0  0.36592  0.62656  0.81752  1.0000
  N   N119      1.0  0.62756  0.95250  0.79620  1.0000
  H   H2111     1.0  0.64462  0.58416  0.87812  1.0000
  C   C1762     1.0  0.52334  0.78479  0.94791  1.0000
  Fe  Fe246     1.0  0.40829  0.67312  0.84202  1.0000
  S   S490      1.0  0.43549  0.66535  0.82326  1.0000
  H   H2112     1.0  0.39249  0.96788  0.81430  1.0000
  Fe  Fe247     1.0  0.42028  0.70442  0.85130  1.0000
  S   S491      1.0  0.44799  0.69912  0.83332  1.0000
  S   S492      1.0  0.41077  0.72835  0.86587  1.0000
  Fe  Fe248     1.0  0.43334  0.69585  0.81312  1.0000
  S   S493      1.0  0.44440  0.71030  0.78462  1.0000
  Fe  Fe249     1.0  0.44792  0.66936  0.84511  1.0000
  S   S494      1.0  0.47427  0.65156  0.85258  1.0000
  S   S495      1.0  0.40529  0.70353  0.83014  1.0000
  S   S496      1.0  0.42106  0.67472  0.86487  1.0000
  H   H2113     1.0  0.37464  0.86579  0.83403  1.0000
  C   C1763     1.0  0.39678  0.74404  0.77444  1.0000
  C   C1764     1.0  0.40950  0.72917  0.78180  1.0000
  C   C1765     1.0  0.42830  0.72882  0.77576  1.0000
  C   C1766     1.0  0.43437  0.74344  0.76249  1.0000
  H   H2114     1.0  0.45025  0.85580  0.75085  1.0000
  H   H2115     1.0  0.44890  0.74319  0.75768  1.0000
  H   H2116     1.0  0.50584  0.92593  0.78157  1.0000
  C   C1767     1.0  0.40886  0.84441  0.82157  1.0000
  H   H2117     1.0  0.45562  0.77186  0.82273  1.0000
  H   H2118     1.0  0.34708  0.49491  0.80392  1.0000
  C   C1768     1.0  0.42741  0.83967  0.81246  1.0000
  C   C1769     1.0  0.63460  0.55396  0.85861  1.0000
  C   C1770     1.0  0.38806  0.64305  0.82056  1.0000
  C   C1771     1.0  0.57322  0.90944  0.79334  1.0000
  H   H2119     1.0  0.40113  0.64726  0.81560  1.0000
  C   C1772     1.0  0.39504  0.84971  0.79499  1.0000
  C   C1773     1.0  0.50199  0.68115  0.87898  1.0000
  C   C1774     1.0  0.48401  0.68828  0.87639  1.0000
  C   C1775     1.0  0.47556  0.67923  0.86827  1.0000
  C   C1776     1.0  0.48494  0.66276  0.86290  1.0000
  C   C1777     1.0  0.50301  0.65551  0.86542  1.0000
  C   C1778     1.0  0.51162  0.66482  0.87328  1.0000
  H   H2120     1.0  0.47641  0.70069  0.88088  1.0000
  H   H2121     1.0  0.46149  0.68469  0.86682  1.0000
  H   H2122     1.0  0.51032  0.64274  0.86126  1.0000
  H   H2123     1.0  0.52548  0.65912  0.87539  1.0000
  C   C1779     1.0  0.56705  0.74072  0.80675  1.0000
  C   C1780     1.0  0.56517  0.75157  0.78938  1.0000
  H   H2124     1.0  0.39911  0.88132  0.81666  1.0000
  C   C1781     1.0  0.57096  0.76726  0.81594  1.0000
  C   C1782     1.0  0.56981  0.74869  0.82002  1.0000
  C   C1783     1.0  0.39956  0.87528  0.80486  1.0000
  H   H2125     1.0  0.57336  0.77316  0.82627  1.0000
  H   H2126     1.0  0.57144  0.74051  0.83339  1.0000
  C   C1784     1.0  0.62292  0.64413  0.87625  1.0000
  C   C1785     1.0  0.63296  0.62915  0.88690  1.0000
  S   S497      1.0  0.56159  0.81291  0.74200  1.0000
  C   C1786     1.0  0.37668  0.64771  0.83674  1.0000
  H   H2127     1.0  0.60689  0.78331  0.92075  1.0000
  C   C1787     1.0  0.63006  0.64924  0.85749  1.0000
  C   C1788     1.0  0.41385  0.89052  0.75929  1.0000
  H   H2128     1.0  0.51186  0.90036  0.73397  1.0000
  C   C1789     1.0  0.61781  0.82015  0.88793  1.0000
  H   H2129     1.0  0.62244  0.66072  0.84916  1.0000
  C   C1790     1.0  0.45171  0.75112  0.88333  1.0000
  C   C1791     1.0  0.45812  0.73782  0.87241  1.0000
  C   C1792     1.0  0.44572  0.73081  0.86680  1.0000
  C   C1793     1.0  0.42684  0.73735  0.87183  1.0000
  C   C1794     1.0  0.42050  0.75136  0.88194  1.0000
  C   C1795     1.0  0.43290  0.75821  0.88773  1.0000
  H   H2130     1.0  0.40591  0.75659  0.88575  1.0000
  H   H2131     1.0  0.42781  0.76859  0.89603  1.0000
  C   C1796     1.0  0.57637  0.75754  0.93031  1.0000
  C   C1797     1.0  0.57050  0.77286  0.91725  1.0000
  C   C1798     1.0  0.56688  0.77046  0.90114  1.0000
  C   C1799     1.0  0.56920  0.75273  0.89800  1.0000
  C   C1800     1.0  0.57535  0.73742  0.91088  1.0000
  C   C1801     1.0  0.57897  0.73984  0.92701  1.0000
  H   H2132     1.0  0.56849  0.78652  0.91964  1.0000
  H   H2133     1.0  0.56239  0.78234  0.89106  1.0000
  H   H2134     1.0  0.57726  0.72371  0.90848  1.0000
  H   H2135     1.0  0.58355  0.72794  0.93708  1.0000
  C   C1802     1.0  0.50571  0.83197  0.95227  1.0000
  C   C1803     1.0  0.48963  0.82629  0.95313  1.0000
  C   C1804     1.0  0.48478  0.82579  0.93697  1.0000
  C   C1805     1.0  0.49564  0.83144  0.91983  1.0000
  C   C1806     1.0  0.51163  0.83741  0.91896  1.0000
  C   C1807     1.0  0.51663  0.83775  0.93518  1.0000
  Fe  Fe250     1.0  0.54309  0.82027  0.96839  1.0000
  H   H2136     1.0  0.47273  0.82073  0.93795  1.0000
  H   H2137     1.0  0.52018  0.84164  0.90583  1.0000
  H   H2138     1.0  0.52887  0.84259  0.93446  1.0000
  H   H2139     1.0  0.48124  0.82155  0.96628  1.0000
  C   C1808     1.0  0.64710  0.63946  0.84950  1.0000
  H   H2140     1.0  0.36588  0.86796  0.81414  1.0000
  S   S498      1.0  0.43120  0.96506  0.79712  1.0000
  H   H2141     1.0  0.43184  0.84525  0.79801  1.0000
  H   H2142     1.0  0.34141  0.62719  0.83844  1.0000
  H   H2143     1.0  0.61942  0.76321  0.89988  1.0000
  H   H2144     1.0  0.39905  0.75978  0.81529  1.0000
  C   C1809     1.0  0.55800  0.89787  0.90148  1.0000
  C   C1810     1.0  0.55133  0.88626  0.91779  1.0000
  C   C1811     1.0  0.56249  0.86955  0.92441  1.0000
  C   C1812     1.0  0.58048  0.86456  0.91490  1.0000
  C   C1813     1.0  0.58704  0.87601  0.89843  1.0000
  C   C1814     1.0  0.57577  0.89257  0.89167  1.0000
  H   H2145     1.0  0.53760  0.89030  0.92544  1.0000
  H   H2146     1.0  0.55730  0.86075  0.93707  1.0000
  H   H2147     1.0  0.60092  0.87219  0.89101  1.0000
  H   H2148     1.0  0.58099  0.90143  0.87907  1.0000
  H   H2149     1.0  0.34382  0.62830  0.89385  1.0000
  H   H2150     1.0  0.36133  0.87613  0.87134  1.0000
  H   H2151     1.0  0.38981  0.88500  0.79660  1.0000
  C   C1815     1.0  0.43734  0.97899  0.84247  1.0000
  H   H2152     1.0  0.38410  0.85821  0.78749  1.0000
  H   H2153     1.0  0.59691  0.86794  0.76978  1.0000
  S   S499      1.0  0.59068  0.83437  0.74971  1.0000
  H   H2154     1.0  0.47271  0.73255  0.86874  1.0000
  N   N120      1.0  0.39501  0.85680  0.81127  1.0000
  C   C1816     1.0  0.35440  0.63152  0.83349  1.0000
  C   C1817     1.0  0.60891  0.94242  0.77880  1.0000
  H   H2155     1.0  0.64514  0.93006  0.81097  1.0000
  H   H2156     1.0  0.63514  0.56418  0.88967  1.0000
  H   H2157     1.0  0.45941  0.94503  0.74238  1.0000
  H   H2158     1.0  0.35309  0.58053  0.86362  1.0000
  H   H2159     1.0  0.64901  0.54618  0.85545  1.0000
  C   C1818     1.0  0.60660  0.79799  0.91382  1.0000
  C   C1819     1.0  0.40694  0.87081  0.74273  1.0000
  C   C1820     1.0  0.38983  0.87793  0.86414  1.0000
  C   C1821     1.0  0.37491  0.86996  0.87410  1.0000
  C   C1822     1.0  0.37747  0.85399  0.88764  1.0000
  C   C1823     1.0  0.39493  0.84598  0.89143  1.0000
  C   C1824     1.0  0.40993  0.85399  0.88157  1.0000
  C   C1825     1.0  0.40737  0.86996  0.86785  1.0000
  H   H2160     1.0  0.42343  0.84789  0.88451  1.0000
  H   H2161     1.0  0.41892  0.87620  0.86034  1.0000
  C   C1826     1.0  0.49077  0.90547  0.82810  1.0000
  C   C1827     1.0  0.48048  0.92337  0.82480  1.0000
  C   C1828     1.0  0.48908  0.93839  0.81988  1.0000
  C   C1829     1.0  0.50801  0.93551  0.81831  1.0000
  C   C1830     1.0  0.51841  0.91760  0.82107  1.0000
  C   C1831     1.0  0.50972  0.90258  0.82628  1.0000
  H   H2162     1.0  0.46582  0.92579  0.82630  1.0000
  H   H2163     1.0  0.48097  0.95220  0.81759  1.0000
  H   H2164     1.0  0.53314  0.91533  0.81886  1.0000
  H   H2165     1.0  0.51760  0.88881  0.82884  1.0000
  H   H2166     1.0  0.62358  0.60861  0.86536  1.0000
  S   S500      1.0  0.43972  0.82385  0.93024  1.0000
  C   C1832     1.0  0.58973  0.97854  0.76993  1.0000
  S   S501      1.0  0.57131  0.80117  0.79407  1.0000
  H   H2167     1.0  0.40158  0.61414  0.85936  1.0000
  H   H2168     1.0  0.51461  0.79307  0.93793  1.0000
  C   C1833     1.0  0.57430  0.89109  0.77140  1.0000
  H   H2169     1.0  0.53135  0.76507  0.98018  1.0000
  Fe  Fe251     1.0  0.33730  0.59643  0.81703  1.0000
  H   H2170     1.0  0.48556  0.95571  0.78043  1.0000
  H   H2171     1.0  0.47955  0.91483  0.74269  1.0000
  H   H2172     1.0  0.37446  0.61773  0.88318  1.0000
  H   H2173     1.0  0.61549  0.92812  0.78194  1.0000
  H   H2174     1.0  0.59216  0.93571  0.76380  1.0000
  H   H2175     1.0  0.62788  0.54552  0.87140  1.0000
  C   C1834     1.0  0.42166  0.75839  0.75527  1.0000
  C   C1835     1.0  0.64998  0.61937  0.87893  1.0000
  H   H2176     1.0  0.46197  0.96547  0.76141  1.0000
  C   C1836     1.0  0.34100  0.58351  0.90170  1.0000
  H   H2177     1.0  0.53734  0.78044  0.94008  1.0000
  S   S502      1.0  0.38691  0.77716  0.75205  1.0000
  Fe  Fe252     1.0  0.56864  0.81886  0.76622  1.0000
  C   C1837     1.0  0.43147  0.87962  0.75911  1.0000
  C   C1838     1.0  0.38006  0.94771  0.85900  1.0000
  H   H2178     1.0  0.32647  0.60013  0.87186  1.0000
  C   C1839     1.0  0.38490  0.94975  0.83999  1.0000
  N   N121      1.0  0.45286  0.70292  0.92728  1.0000
  C   C1840     1.0  0.46885  0.71196  0.91926  1.0000
  C   C1841     1.0  0.43629  0.71661  0.92279  1.0000
  C   C1842     1.0  0.45078  0.69830  0.94753  1.0000
  C   C1843     1.0  0.45575  0.68582  0.92043  1.0000
  C   C1844     1.0  0.47177  0.67195  0.92229  1.0000
  C   C1845     1.0  0.44273  0.68211  0.91231  1.0000
  H   H2179     1.0  0.63923  0.77713  0.90502  1.0000
  C   C1846     1.0  0.37839  0.96253  0.86718  1.0000
  C   C1847     1.0  0.46984  0.94069  0.75065  1.0000
  H   H2180     1.0  0.47144  0.71501  0.90404  1.0000
  H   H2181     1.0  0.46660  0.72533  0.92340  1.0000
  H   H2182     1.0  0.48177  0.70351  0.92329  1.0000
  H   H2183     1.0  0.43685  0.72015  0.90774  1.0000
  H   H2184     1.0  0.43498  0.72978  0.92707  1.0000
  H   H2185     1.0  0.42344  0.71151  0.92975  1.0000
  H   H2186     1.0  0.46335  0.68918  0.95188  1.0000
  H   H2187     1.0  0.44802  0.71086  0.95333  1.0000
  H   H2188     1.0  0.43920  0.69103  0.95410  1.0000
  H   H2189     1.0  0.48235  0.67375  0.92821  1.0000
  H   H2190     1.0  0.43017  0.69176  0.91014  1.0000
  H   H2191     1.0  0.61046  0.87438  0.79312  1.0000
  H   H2192     1.0  0.62305  0.82646  0.89662  1.0000
  C   C1848     1.0  0.63482  0.93256  0.80228  1.0000
  N   N122      1.0  0.63387  0.57276  0.86103  1.0000
  H   H2193     1.0  0.35081  0.64576  0.85541  1.0000
  H   H2194     1.0  0.60346  0.82792  0.88788  1.0000
  C   C1849     1.0  0.60324  0.97455  0.78036  1.0000
  C   C1850     1.0  0.61501  0.58372  0.86498  1.0000
  C   C1851     1.0  0.61217  0.60221  0.86686  1.0000
  C   C1852     1.0  0.59905  0.57652  0.86738  1.0000
  C   C1853     1.0  0.59456  0.61282  0.87089  1.0000
  C   C1854     1.0  0.58146  0.58730  0.87134  1.0000
  C   C1855     1.0  0.57922  0.60539  0.87311  1.0000
  H   H2195     1.0  0.62362  0.92539  0.81072  1.0000
  S   S503      1.0  0.54641  0.84401  0.76738  1.0000
  C   C1856     1.0  0.44580  0.66565  0.90630  1.0000
  H   H2196     1.0  0.33500  0.58438  0.74769  1.0000
  H   H2197     1.0  0.64182  0.92579  0.79046  1.0000
  H   H2198     1.0  0.46443  0.64015  0.90266  1.0000
  H   H2199     1.0  0.38063  0.57796  0.83949  1.0000
  H   H2200     1.0  0.65251  0.64355  0.83499  1.0000
  H   H2201     1.0  0.48774  0.88564  0.75513  1.0000
  H   H2202     1.0  0.64693  0.59551  0.84541  1.0000
  H   H2203     1.0  0.56945  0.58158  0.87315  1.0000
  N   N123      1.0  0.56243  0.84547  0.82249  1.0000
  C   C1857     1.0  0.55187  0.83156  0.82301  1.0000
  C   C1858     1.0  0.55401  0.86301  0.81147  1.0000
  C   C1859     1.0  0.58150  0.83959  0.81277  1.0000
  C   C1860     1.0  0.56258  0.84791  0.84097  1.0000
  C   C1861     1.0  0.57044  0.86200  0.84290  1.0000
  C   C1862     1.0  0.55560  0.83616  0.85748  1.0000
  C   C1863     1.0  0.57053  0.86470  0.86018  1.0000
  C   C1864     1.0  0.55595  0.83886  0.87472  1.0000
  C   C1865     1.0  0.56323  0.85321  0.87607  1.0000
  H   H2204     1.0  0.53761  0.83474  0.83093  1.0000
  H   H2205     1.0  0.55072  0.83119  0.80898  1.0000
  H   H2206     1.0  0.55861  0.81738  0.82887  1.0000
  H   H2207     1.0  0.53938  0.86734  0.81771  1.0000
  H   H2208     1.0  0.55464  0.86176  0.79718  1.0000
  H   H2209     1.0  0.56095  0.87445  0.81000  1.0000
  H   H2210     1.0  0.59000  0.84990  0.81095  1.0000
  H   H2211     1.0  0.58833  0.82634  0.82038  1.0000
  H   H2212     1.0  0.58195  0.83751  0.79880  1.0000
  H   H2213     1.0  0.57672  0.87107  0.83106  1.0000
  H   H2214     1.0  0.54983  0.82475  0.85746  1.0000
  H   H2215     1.0  0.57640  0.87578  0.86121  1.0000
  H   H2216     1.0  0.55056  0.82975  0.88714  1.0000
  H   H2217     1.0  0.56336  0.85536  0.88944  1.0000
  N   N124      1.0  0.51619  0.78704  0.86391  1.0000
  C   C1866     1.0  0.49823  0.78579  0.87657  1.0000
  C   C1867     1.0  0.52451  0.76845  0.85982  1.0000
  C   C1868     1.0  0.52819  0.79168  0.87363  1.0000
  C   C1869     1.0  0.51377  0.80152  0.84727  1.0000
  C   C1870     1.0  0.50286  0.81924  0.84880  1.0000
  C   C1871     1.0  0.52241  0.79874  0.82921  1.0000
  C   C1872     1.0  0.49986  0.83287  0.83324  1.0000
  C   C1873     1.0  0.51946  0.81253  0.81374  1.0000
  C   C1874     1.0  0.50803  0.82947  0.81573  1.0000
  H   H2218     1.0  0.48806  0.78430  0.86928  1.0000
  H   H2219     1.0  0.49933  0.77377  0.88826  1.0000
  H   H2220     1.0  0.49233  0.79794  0.88304  1.0000
  H   H2221     1.0  0.51637  0.76439  0.85199  1.0000
  H   H2222     1.0  0.52524  0.75770  0.87263  1.0000
  H   H2223     1.0  0.53896  0.76749  0.85209  1.0000
  H   H2224     1.0  0.52231  0.80516  0.87785  1.0000
  H   H2225     1.0  0.53011  0.78114  0.88638  1.0000
  H   H2226     1.0  0.54207  0.79214  0.86487  1.0000
  H   H2227     1.0  0.49643  0.82272  0.86205  1.0000
  H   H2228     1.0  0.53153  0.78601  0.82661  1.0000
  H   H2229     1.0  0.49112  0.84617  0.83481  1.0000
  H   H2230     1.0  0.52624  0.81004  0.80011  1.0000
  H   H2231     1.0  0.50564  0.84006  0.80370  1.0000
  C   C1875     1.0  0.40466  0.83719  0.84080  1.0000
  C   C1876     1.0  0.41814  0.82565  0.85009  1.0000
  C   C1877     1.0  0.44078  0.82815  0.82190  1.0000
  C   C1878     1.0  0.43613  0.82111  0.84068  1.0000
  H   H2232     1.0  0.39116  0.84053  0.84915  1.0000
  H   H2233     1.0  0.41463  0.82053  0.86484  1.0000
  H   H2234     1.0  0.45487  0.82499  0.81465  1.0000
  H   H2235     1.0  0.44653  0.81240  0.84807  1.0000
  N   N125      1.0  0.42533  0.76597  0.81405  1.0000
  C   C1879     1.0  0.43429  0.74628  0.81777  1.0000
  C   C1880     1.0  0.41801  0.77213  0.83181  1.0000
  C   C1881     1.0  0.43899  0.77675  0.80212  1.0000
  C   C1882     1.0  0.45385  0.77854  0.80892  1.0000
  C   C1883     1.0  0.43847  0.78513  0.78342  1.0000
  C   C1884     1.0  0.46685  0.78876  0.79795  1.0000
  C   C1885     1.0  0.45162  0.79521  0.77256  1.0000
  C   C1886     1.0  0.46564  0.79720  0.77984  1.0000
  H   H2236     1.0  0.44562  0.74368  0.82522  1.0000
  H   H2237     1.0  0.42435  0.73763  0.82641  1.0000
  H   H2238     1.0  0.44005  0.74107  0.80480  1.0000
  H   H2239     1.0  0.41244  0.78721  0.82959  1.0000
  H   H2240     1.0  0.41355  0.87492  0.79623  1.0000
  H   H2241     1.0  0.42812  0.78400  0.77676  1.0000
  H   H2242     1.0  0.47804  0.78997  0.80346  1.0000
  H   H2243     1.0  0.45105  0.80140  0.75829  1.0000
  H   H2244     1.0  0.47575  0.80506  0.77125  1.0000
  S   S504      1.0  0.34183  0.53217  0.80782  1.0000
  H   H2245     1.0  0.56307  0.74549  0.77904  1.0000
  H   H2246     1.0  0.40680  0.76506  0.84052  1.0000
  H   H2247     1.0  0.39159  0.62893  0.79856  1.0000
  C   C1887     1.0  0.59792  0.88315  0.78955  1.0000
  H   H2248     1.0  0.64301  0.79896  0.90495  1.0000
  H   H2249     1.0  0.65433  0.95847  0.79250  1.0000
  C   C1888     1.0  0.64303  0.57074  0.87642  1.0000
  S   S505      1.0  0.56439  0.88747  0.75469  1.0000
  H   H2250     1.0  0.62812  0.55439  0.84707  1.0000
  S   S506      1.0  0.35987  0.61302  0.80530  1.0000
  H   H2251     1.0  0.42884  0.84828  0.73609  1.0000
  H   H2252     1.0  0.61732  0.97569  0.80989  1.0000
  C   C1889     1.0  0.58933  0.89808  0.79815  1.0000
  H   H2253     1.0  0.56643  0.92096  0.79987  1.0000
  C   C1890     1.0  0.59026  0.87947  0.77638  1.0000
  H   H2254     1.0  0.39291  0.83531  0.79903  1.0000
  C   C1891     1.0  0.43671  0.86433  0.75086  1.0000
  C   C1892     1.0  0.51677  0.89260  0.77812  1.0000
  C   C1893     1.0  0.56592  0.90614  0.77981  1.0000
  H   H2255     1.0  0.35383  0.60900  0.90991  1.0000
  H   H2256     1.0  0.52811  0.88351  0.74559  1.0000
  C   C1894     1.0  0.35972  0.64210  0.84299  1.0000
  H   H2257     1.0  0.44132  0.86609  0.92807  1.0000
  N   N126      1.0  0.51401  0.70021  0.81438  1.0000
  C   C1895     1.0  0.50287  0.68573  0.82000  1.0000
  C   C1896     1.0  0.53224  0.69238  0.80416  1.0000
  C   C1897     1.0  0.51641  0.70432  0.83137  1.0000
  C   C1898     1.0  0.50570  0.71729  0.80273  1.0000
  C   C1899     1.0  0.51466  0.73248  0.79636  1.0000
  C   C1900     1.0  0.48903  0.71926  0.79690  1.0000
  C   C1901     1.0  0.50756  0.74845  0.78466  1.0000
  C   C1902     1.0  0.48211  0.73527  0.78515  1.0000
  C   C1903     1.0  0.49138  0.74979  0.77896  1.0000
  H   H2258     1.0  0.50093  0.68142  0.80797  1.0000
  H   H2259     1.0  0.50955  0.67302  0.82856  1.0000
  H   H2260     1.0  0.48916  0.69036  0.82840  1.0000
  H   H2261     1.0  0.53108  0.68929  0.79117  1.0000
  H   H2262     1.0  0.53892  0.67945  0.81246  1.0000
  H   H2263     1.0  0.54196  0.70187  0.80045  1.0000
  H   H2264     1.0  0.50308  0.71069  0.83926  1.0000
  H   H2265     1.0  0.52217  0.69166  0.84066  1.0000
  H   H2266     1.0  0.52610  0.71373  0.82852  1.0000
  H   H2267     1.0  0.52746  0.73195  0.80012  1.0000
  H   H2268     1.0  0.48117  0.70853  0.80091  1.0000
  H   H2269     1.0  0.51485  0.75970  0.77973  1.0000
  H   H2270     1.0  0.46963  0.73623  0.78053  1.0000
  H   H2271     1.0  0.48610  0.76199  0.76955  1.0000
  H   H2272     1.0  0.59338  0.79934  0.84581  1.0000
  N   N127      1.0  0.50162  0.88894  0.88398  1.0000
  C   C1904     1.0  0.50987  0.87607  0.87124  1.0000
  C   C1905     1.0  0.49668  0.90779  0.87312  1.0000
  C   C1906     1.0  0.51602  0.88902  0.89367  1.0000
  C   C1907     1.0  0.48493  0.88333  0.89642  1.0000
  C   C1908     1.0  0.47021  0.88206  0.88908  1.0000
  C   C1909     1.0  0.48284  0.87869  0.91587  1.0000
  C   C1910     1.0  0.45466  0.87600  0.90042  1.0000
  C   C1911     1.0  0.46721  0.87262  0.92709  1.0000
  C   C1912     1.0  0.45322  0.87117  0.91938  1.0000
  H   H2273     1.0  0.52295  0.87927  0.86222  1.0000
  H   H2274     1.0  0.51262  0.86161  0.87893  1.0000
  H   H2275     1.0  0.50067  0.87657  0.86204  1.0000
  H   H2276     1.0  0.49033  0.91784  0.88225  1.0000
  H   H2277     1.0  0.48676  0.90875  0.86447  1.0000
  H   H2278     1.0  0.50891  0.91256  0.86362  1.0000
  H   H2279     1.0  0.52074  0.87521  0.90191  1.0000
  H   H2280     1.0  0.52840  0.89308  0.88384  1.0000
  H   H2281     1.0  0.51119  0.89917  0.90282  1.0000
  H   H2282     1.0  0.47075  0.88540  0.87444  1.0000
  H   H2283     1.0  0.49328  0.87915  0.92274  1.0000
  H   H2284     1.0  0.59212  0.80459  0.91303  1.0000
  H   H2285     1.0  0.46617  0.86849  0.94181  1.0000
  H   H2286     1.0  0.49792  0.97828  0.83861  1.0000
  C   C1913     1.0  0.40286  0.75863  0.76114  1.0000
  H   H2287     1.0  0.37175  0.84552  0.82797  1.0000
  H   H2288     1.0  0.44383  0.87471  0.89442  1.0000
  C   C1914     1.0  0.43324  0.97752  0.81261  1.0000
  C   C1915     1.0  0.51202  0.75792  0.94802  1.0000
  C   C1916     1.0  0.49483  0.75304  0.95030  1.0000
  C   C1917     1.0  0.52635  0.75137  0.93407  1.0000
  C   C1918     1.0  0.49206  0.74309  0.93866  1.0000
  C   C1919     1.0  0.52348  0.74140  0.92252  1.0000
  C   C1920     1.0  0.50629  0.73742  0.92468  1.0000
  H   H2289     1.0  0.59281  0.62688  0.87242  1.0000
  H   H2290     1.0  0.52475  0.79411  0.95621  1.0000
  H   H2291     1.0  0.43918  0.95387  0.83388  1.0000
  H   H2292     1.0  0.43591  0.66324  0.89979  1.0000
  H   H2293     1.0  0.52812  0.90748  0.74248  1.0000
  H   H2294     1.0  0.62752  0.62514  0.90144  1.0000
  H   H2295     1.0  0.50267  0.86996  0.76855  1.0000
  N   N128      1.0  0.50603  0.89813  0.76334  1.0000
  H   H2296     1.0  0.43986  0.97201  0.85598  1.0000
  Fe  Fe253     1.0  0.56771  0.85922  0.74920  1.0000
  H   H2297     1.0  0.38800  0.89459  0.75111  1.0000
  H   H2298     1.0  0.47864  0.74014  0.94033  1.0000
  H   H2299     1.0  0.53468  0.73666  0.91188  1.0000
  H   H2300     1.0  0.50404  0.72989  0.91554  1.0000
  H   H2301     1.0  0.52480  0.87830  0.77887  1.0000
  Fe  Fe254     1.0  0.54127  0.83965  0.74165  1.0000
  H   H2302     1.0  0.55364  0.91528  0.77597  1.0000
  C   C1921     1.0  0.38264  0.63260  0.81096  1.0000
  C   C1922     1.0  0.36079  0.59931  0.87602  1.0000
  C   C1923     1.0  0.37526  0.60840  0.87450  1.0000
  C   C1924     1.0  0.36346  0.58788  0.86330  1.0000
  C   C1925     1.0  0.39112  0.60639  0.86080  1.0000
  C   C1926     1.0  0.37929  0.58612  0.84956  1.0000
  C   C1927     1.0  0.39305  0.59543  0.84827  1.0000
  H   H2303     1.0  0.32808  0.58468  0.91230  1.0000
  C   C1928     1.0  0.47477  0.65566  0.91603  1.0000
  S   S507      1.0  0.56226  0.83497  0.97373  1.0000
  H   H2304     1.0  0.48345  0.88533  0.77922  1.0000
  Fe  Fe255     1.0  0.44688  0.79413  0.94392  1.0000
  H   H2305     1.0  0.60224  0.81569  0.86435  1.0000
  C   C1929     1.0  0.59542  0.94659  0.76830  1.0000
  H   H2306     1.0  0.41354  0.76154  0.79330  1.0000
  H   H2307     1.0  0.50758  0.89337  0.79179  1.0000
  C   C1930     1.0  0.49453  0.91689  0.76250  1.0000
  N   N129      1.0  0.34344  0.60162  0.88981  1.0000
  C   C1931     1.0  0.43689  0.96866  0.82998  1.0000
  C   C1932     1.0  0.52846  0.75731  0.97117  1.0000
  H   H2308     1.0  0.40501  0.59455  0.83722  1.0000
  N   N130      1.0  0.61859  0.80014  0.89532  1.0000
  C   C1933     1.0  0.63780  0.79158  0.89722  1.0000
  C   C1934     1.0  0.47132  0.95227  0.76128  1.0000
  H   H2309     1.0  0.32701  0.64128  0.78977  1.0000
  C   C1935     1.0  0.61264  0.79100  0.88368  1.0000
  C   C1936     1.0  0.61443  0.77160  0.88784  1.0000
  C   C1937     1.0  0.60465  0.80088  0.86828  1.0000
  C   C1938     1.0  0.60938  0.76258  0.87682  1.0000
  C   C1939     1.0  0.59944  0.79169  0.85748  1.0000
  C   C1940     1.0  0.60192  0.77260  0.86166  1.0000
  H   H2310     1.0  0.52706  0.90132  0.77561  1.0000
  C   C1941     1.0  0.46182  0.65253  0.90803  1.0000
  H   H2311     1.0  0.42647  0.76962  0.74506  1.0000
  H   H2312     1.0  0.48312  0.75714  0.96067  1.0000
  S   S508      1.0  0.43059  0.78424  0.92919  1.0000
  H   H2313     1.0  0.34615  0.61142  0.74661  1.0000
  H   H2314     1.0  0.45077  0.72010  0.85895  1.0000
  S   S509      1.0  0.59852  0.90221  0.81516  1.0000
  C   C1942     1.0  0.56632  0.77025  0.78527  1.0000
  H   H2315     1.0  0.56559  0.61369  0.87629  1.0000
  C   C1943     1.0  0.56938  0.77804  0.79854  1.0000
  H   H2316     1.0  0.38224  0.74418  0.77899  1.0000
  H   H2317     1.0  0.40475  0.71775  0.79175  1.0000
  S   S510      1.0  0.38345  0.65942  0.85027  1.0000
  S   S511      1.0  0.47277  0.78793  0.92327  1.0000
  H   H2318     1.0  0.43290  0.82142  0.97162  1.0000
  C   C1944     1.0  0.62023  0.96041  0.81296  1.0000
  C   C1945     1.0  0.37602  0.85900  0.82239  1.0000
  H   H2319     1.0  0.56512  0.77848  0.77179  1.0000
  C   C1946     1.0  0.65710  0.62447  0.86017  1.0000
  H   H2320     1.0  0.63730  0.58544  0.83231  1.0000
  C   C1947     1.0  0.40937  0.76755  0.80578  1.0000
  H   H2321     1.0  0.59976  0.56259  0.86634  1.0000
  H   H2322     1.0  0.48803  0.78548  0.96400  1.0000
  C   C1948     1.0  0.51906  0.89736  0.74556  1.0000
  H   H2323     1.0  0.40806  0.85001  0.78461  1.0000
  S   S512      1.0  0.34348  0.56832  0.83468  1.0000
  H   H2324     1.0  0.62995  0.95616  0.82252  1.0000
  N   N131      1.0  0.51535  0.76898  0.95964  1.0000
  C   C1949     1.0  0.32772  0.60929  0.88037  1.0000
  H   H2325     1.0  0.38623  0.93821  0.83372  1.0000
  H   H2326     1.0  0.41004  0.71464  0.74929  1.0000
  H   H2327     1.0  0.52306  0.74517  0.98009  1.0000
  H   H2328     1.0  0.61073  0.80459  0.92303  1.0000
  C   C1950     1.0  0.61315  0.95632  0.78530  1.0000
  S   S513      1.0  0.39169  0.86519  0.73247  1.0000
  H   H2329     1.0  0.34004  0.57364  0.89380  1.0000
  C   C1951     1.0  0.48136  0.92333  0.75107  1.0000
  H   H2330     1.0  0.62627  0.82282  0.87384  1.0000
  C   C1952     1.0  0.64453  0.58232  0.84392  1.0000
  H   H2331     1.0  0.48745  0.64564  0.91692  1.0000
  H   H2332     1.0  0.40982  0.90249  0.76547  1.0000
  C   C1953     1.0  0.42451  0.85995  0.74266  1.0000
  H   H2333     1.0  0.37771  0.93447  0.86736  1.0000
  C   C1954     1.0  0.49448  0.88427  0.76674  1.0000
  H   H2334     1.0  0.63877  0.97628  0.78081  1.0000
  H   H2335     1.0  0.64712  0.79166  0.88352  1.0000
  C   C1955     1.0  0.33451  0.61827  0.75533  1.0000
  C   C1956     1.0  0.40157  0.88609  0.75111  1.0000
  S   S514      1.0  0.51275  0.83024  0.97266  1.0000
  C   C1957     1.0  0.33821  0.62702  0.76747  1.0000
  H   H2336     1.0  0.35228  0.62689  0.76777  1.0000
  S   S515      1.0  0.41716  0.81373  0.74174  1.0000
  Fe  Fe256     1.0  0.40146  0.79833  0.73235  1.0000
  H   H2337     1.0  0.35270  0.57709  0.90880  1.0000
  C   C1958     1.0  0.38830  0.96651  0.82909  1.0000
  C   C1959     1.0  0.58580  0.96458  0.76393  1.0000
  S   S516      1.0  0.45022  0.78269  0.97346  1.0000
  C   C1960     1.0  0.34269  0.61419  0.90193  1.0000
  H   H2338     1.0  0.48186  0.86564  0.97194  1.0000
  H   H2339     1.0  0.57512  0.96766  0.75609  1.0000
  Fe  Fe257     1.0  0.32961  0.55889  0.81743  1.0000
  H   H2340     1.0  0.32947  0.61564  0.91210  1.0000
  H   H2341     1.0  0.64884  0.95568  0.77205  1.0000
  C   C1961     1.0  0.49846  0.77665  0.97199  1.0000
  H   H2342     1.0  0.51999  0.80901  0.73788  1.0000
  H   H2343     1.0  0.48160  0.98117  0.82451  1.0000
  H   H2344     1.0  0.33795  0.50158  0.75983  1.0000
  H   H2345     1.0  0.37471  0.96022  0.88198  1.0000
  C   C1962     1.0  0.50706  0.81525  0.73363  1.0000
  S   S517      1.0  0.51219  0.84852  0.73721  1.0000
  C   C1963     1.0  0.50015  0.83412  0.73247  1.0000
  H   H2346     1.0  0.60563  0.98586  0.78480  1.0000
  H   H2347     1.0  0.32911  0.62283  0.87114  1.0000
  C   C1964     1.0  0.41389  0.72357  0.73613  1.0000
  H   H2348     1.0  0.38629  0.73425  0.73318  1.0000
  C   C1965     1.0  0.38676  0.98141  0.83710  1.0000
  H   H2349     1.0  0.45155  0.86491  0.98146  1.0000
  C   C1966     1.0  0.32621  0.51922  0.80726  1.0000
  C   C1967     1.0  0.38153  0.97992  0.85646  1.0000
  S   S518      1.0  0.32585  0.58621  0.79808  1.0000
  H   H2350     1.0  0.38952  0.97903  0.88975  1.0000
  H   H2351     1.0  0.50124  0.78546  0.98004  1.0000
  H   H2352     1.0  0.65703  0.56202  0.87426  1.0000
  H   H2353     1.0  0.40684  0.98593  0.87054  1.0000
  C   C1968     1.0  0.32445  0.50131  0.75817  1.0000
  C   C1969     1.0  0.32396  0.63513  0.77995  1.0000
  Fe  Fe258     1.0  0.82500  0.43269  0.05677  1.0000
  S   S519      1.0  0.79694  0.43824  0.07474  1.0000
  S   S520      1.0  0.83272  0.42930  0.02711  1.0000
  Fe  Fe259     1.0  0.84433  0.43951  0.08397  1.0000
  S   S521      1.0  0.81818  0.44589  0.10393  1.0000
  S   S522      1.0  0.87009  0.44493  0.08844  1.0000
  Fe  Fe260     1.0  0.81102  0.42188  0.09797  1.0000
  S   S523      1.0  0.79843  0.40363  0.12349  1.0000
  Fe  Fe261     1.0  0.80619  0.46166  0.07958  1.0000
  H   H2354     1.0  0.99048  0.43026  0.18495  1.0000
  S   S524      1.0  0.83849  0.41394  0.07964  1.0000
  S   S525      1.0  0.83303  0.45765  0.05993  1.0000
  H   H2355     1.0  0.80563  0.46707  0.20911  1.0000
  C   C1970     1.0  0.95080  0.35147  0.20115  1.0000
  C   C1971     1.0  0.80981  0.44157  0.98244  1.0000
  H   H2356     1.0  0.77702  0.46310  0.23053  1.0000
  C   C1972     1.0  0.97642  0.38471  0.17437  1.0000
  H   H2357     1.0  0.93961  0.39099  0.17068  1.0000
  C   C1973     1.0  0.82629  0.41750  0.15256  1.0000
  H   H2358     1.0  0.81057  0.38670  0.98776  1.0000
  Fe  Fe262     1.0  0.90282  0.42195  0.17544  1.0000
  S   S526      1.0  0.88513  0.45015  0.17132  1.0000
  S   S527      1.0  0.90147  0.40182  0.15945  1.0000
  Fe  Fe263     1.0  0.90877  0.45907  0.17615  1.0000
  H   H2359     1.0  0.83871  0.36192  0.99431  1.0000
  C   C1974     1.0  0.77791  0.43331  0.20615  1.0000
  N   N132      1.0  0.94873  0.37157  0.19399  1.0000
  C   C1975     1.0  0.70152  0.34134  0.15948  1.0000
  C   C1976     1.0  0.98278  0.47228  0.21602  1.0000
  H   H2360     1.0  0.76432  0.46693  0.00527  1.0000
  H   H2361     1.0  0.93745  0.37740  0.22133  1.0000
  C   C1977     1.0  0.82359  0.45025  0.14803  1.0000
  H   H2362     1.0  0.93475  0.46214  0.19263  1.0000
  C   C1978     1.0  0.93240  0.47635  0.19370  1.0000
  H   H2363     1.0  0.83337  0.48596  0.99511  1.0000
  C   C1979     1.0  0.85928  0.48517  0.11503  1.0000
  Fe  Fe264     1.0  0.87662  0.44384  0.20193  1.0000
  S   S528      1.0  0.72102  0.40632  0.21449  1.0000
  C   C1980     1.0  0.79128  0.43628  0.17372  1.0000
  Fe  Fe265     1.0  0.71418  0.43462  0.19741  1.0000
  S   S529      1.0  0.72637  0.44654  0.16814  1.0000
  S   S530      1.0  0.68368  0.43690  0.20688  1.0000
  H   H2364     1.0  0.68355  0.36910  0.19041  1.0000
  C   C1981     1.0  0.93439  0.48048  0.20970  1.0000
  H   H2365     1.0  0.95753  0.42923  0.19350  1.0000
  H   H2366     1.0  0.96909  0.48016  0.22149  1.0000
  S   S531      1.0  0.89308  0.41509  0.20598  1.0000
  H   H2367     1.0  0.98044  0.45875  0.21538  1.0000
  Fe  Fe266     1.0  0.91628  0.42743  0.20728  1.0000
  S   S532      1.0  0.89843  0.45549  0.20658  1.0000
  N   N133      1.0  0.82536  0.43266  0.16169  1.0000
  C   C1982     1.0  0.68412  0.35991  0.18152  1.0000
  H   H2368     1.0  0.96756  0.36897  0.22091  1.0000
  C   C1983     1.0  0.81076  0.43070  0.19570  1.0000
  Fe  Fe267     1.0  0.68692  0.44914  0.22919  1.0000
  H   H2369     1.0  0.95440  0.34729  0.21496  1.0000
  C   C1984     1.0  0.77589  0.43630  0.18807  1.0000
  H   H2370     1.0  0.83657  0.48447  0.01783  1.0000
  H   H2371     1.0  0.66301  0.31101  0.16212  1.0000
  H   H2372     1.0  0.76236  0.43817  0.18521  1.0000
  H   H2373     1.0  0.95132  0.36844  0.16620  1.0000
  H   H2374     1.0  0.66258  0.18393  0.08205  1.0000
  H   H2375     1.0  0.92829  0.37210  0.17887  1.0000
  C   C1985     1.0  0.70080  0.35321  0.17078  1.0000
  H   H2376     1.0  0.82377  0.42847  0.19971  1.0000
  H   H2377     1.0  0.84963  0.37909  0.99619  1.0000
  C   C1986     1.0  0.80924  0.43334  0.17709  1.0000
  H   H2378     1.0  0.81421  0.41958  0.14625  1.0000
  H   H2379     1.0  0.83851  0.41615  0.14119  1.0000
  C   C1987     1.0  0.66813  0.35480  0.18094  1.0000
  H   H2380     1.0  0.82696  0.40406  0.16246  1.0000
  C   C1988     1.0  0.79288  0.43626  0.98947  1.0000
  H   H2381     1.0  0.84595  0.41604  0.17699  1.0000
  C   C1989     1.0  0.84312  0.42957  0.16747  1.0000
  H   H2382     1.0  0.75743  0.47894  0.14903  1.0000
  H   H2383     1.0  0.93340  0.39630  0.20284  1.0000
  C   C1990     1.0  0.66833  0.34265  0.16972  1.0000
  C   C1991     1.0  0.97441  0.37443  0.20721  1.0000
  H   H2384     1.0  0.83480  0.44386  0.98870  1.0000
  C   C1992     1.0  0.77723  0.47631  0.22133  1.0000
  H   H2385     1.0  0.82200  0.46217  0.15447  1.0000
  H   H2386     1.0  0.80208  0.47441  0.03928  1.0000
  H   H2387     1.0  0.93805  0.46941  0.22093  1.0000
  C   C1993     1.0  0.77373  0.47629  0.99947  1.0000
  H   H2388     1.0  0.84350  0.44063  0.17426  1.0000
  C   C1994     1.0  0.68558  0.33605  0.15890  1.0000
  H   H2389     1.0  0.89129  0.47019  0.12907  1.0000
  S   S533      1.0  0.92759  0.43150  0.17691  1.0000
  H   H2390     1.0  0.85491  0.42944  0.15555  1.0000
  C   C1995     1.0  0.89598  0.48338  0.12323  1.0000
  H   H2391     1.0  0.78635  0.47133  0.11703  1.0000
  H   H2392     1.0  0.78902  0.43814  0.15997  1.0000
  C   C1996     1.0  0.96646  0.37702  0.19173  1.0000
  C   C1997     1.0  0.77857  0.41554  0.13611  1.0000
  C   C1998     1.0  0.77096  0.43374  0.12895  1.0000
  C   C1999     1.0  0.75494  0.44303  0.13892  1.0000
  C   C2000     1.0  0.74650  0.43428  0.15620  1.0000
  C   C2001     1.0  0.75429  0.41619  0.16356  1.0000
  C   C2002     1.0  0.77028  0.40683  0.15350  1.0000
  H   H2393     1.0  0.77718  0.44055  0.11552  1.0000
  H   H2394     1.0  0.74895  0.45695  0.13305  1.0000
  H   H2395     1.0  0.74792  0.40933  0.17689  1.0000
  H   H2396     1.0  0.77615  0.39276  0.15913  1.0000
  C   C2003     1.0  0.87854  0.43250  0.10818  1.0000
  C   C2004     1.0  0.89060  0.43955  0.11410  1.0000
  C   C2005     1.0  0.89746  0.43025  0.12995  1.0000
  C   C2006     1.0  0.89284  0.41344  0.13958  1.0000
  C   C2007     1.0  0.88108  0.40611  0.13344  1.0000
  C   C2008     1.0  0.87369  0.41579  0.11790  1.0000
  H   H2397     1.0  0.89470  0.45221  0.10625  1.0000
  H   H2398     1.0  0.90678  0.43579  0.13443  1.0000
  H   H2399     1.0  0.87755  0.39305  0.14080  1.0000
  H   H2400     1.0  0.86462  0.41014  0.11316  1.0000
  S   S534      1.0  0.93433  0.41661  0.22850  1.0000
  C   C2009     1.0  0.78748  0.43022  0.00851  1.0000
  C   C2010     1.0  0.79918  0.42894  0.02040  1.0000
  C   C2011     1.0  0.81643  0.43350  0.01325  1.0000
  C   C2012     1.0  0.82156  0.44009  0.99429  1.0000
  S   S535      1.0  0.91883  0.48512  0.16238  1.0000
  H   H2401     1.0  0.77435  0.42620  0.01406  1.0000
  H   H2402     1.0  0.79515  0.42376  0.03499  1.0000
  H   H2403     1.0  0.66729  0.17088  0.06435  1.0000
  H   H2404     1.0  0.86170  0.47306  0.12563  1.0000
  H   H2405     1.0  0.78183  0.47245  0.02470  1.0000
  H   H2406     1.0  0.65884  0.33007  0.14300  1.0000
  H   H2407     1.0  0.81158  0.45268  0.14158  1.0000
  H   H2408     1.0  0.84050  0.47413  0.10630  1.0000
  H   H2409     1.0  0.71317  0.35724  0.17125  1.0000
  C   C2013     1.0  0.94184  0.37596  0.17665  1.0000
  H   H2410     1.0  0.83578  0.45037  0.13652  1.0000
  H   H2411     1.0  0.86489  0.48483  0.14888  1.0000
  S   S536      1.0  0.84664  0.45150  0.21414  1.0000
  C   C2014     1.0  0.96546  0.42569  0.20407  1.0000
  C   C2015     1.0  0.79527  0.43058  0.20995  1.0000
  H   H2412     1.0  0.97143  0.38743  0.16183  1.0000
  H   H2413     1.0  0.74180  0.47543  0.17038  1.0000
  C   C2016     1.0  0.93449  0.38120  0.20728  1.0000
  S   S537      1.0  0.71669  0.44920  0.21816  1.0000
  H   H2414     1.0  0.85947  0.48166  0.21980  1.0000
  H   H2415     1.0  0.96182  0.34374  0.19181  1.0000
  H   H2416     1.0  0.82223  0.40220  0.99137  1.0000
  H   H2417     1.0  0.71856  0.48390  0.15026  1.0000
  H   H2418     1.0  0.71456  0.33618  0.15114  1.0000
  C   C2017     1.0  0.78390  0.47966  0.01054  1.0000
  H   H2419     1.0  0.92072  0.37825  0.20864  1.0000
  H   H2420     1.0  0.84959  0.41039  0.98418  1.0000
  C   C2018     1.0  0.65932  0.18386  0.06873  1.0000
  H   H2421     1.0  0.68714  0.32678  0.14992  1.0000
  C   C2019     1.0  0.95734  0.41963  0.22236  1.0000
  H   H2422     1.0  0.93786  0.34676  0.20257  1.0000
  C   C2020     1.0  0.79383  0.47839  0.20907  1.0000
  C   C2021     1.0  0.84724  0.37214  0.98620  1.0000
  Fe  Fe268     1.0  0.69046  0.40961  0.22576  1.0000
  H   H2423     1.0  0.79678  0.42808  0.22409  1.0000
  H   H2424     1.0  0.66455  0.19546  0.05850  1.0000
  H   H2425     1.0  0.82636  0.46792  0.01341  1.0000
  H   H2426     1.0  0.97595  0.47250  0.18362  1.0000
  C   C2022     1.0  0.97921  0.48546  0.18475  1.0000
  H   H2427     1.0  0.78928  0.48104  0.14441  1.0000
  C   C2023     1.0  0.82702  0.48273  0.00996  1.0000
  C   C2024     1.0  0.98419  0.42637  0.19926  1.0000
  H   H2428     1.0  0.71001  0.48516  0.17987  1.0000
  H   H2429     1.0  0.90309  0.48328  0.10870  1.0000
  C   C2025     1.0  0.98672  0.41605  0.23112  1.0000
  C   C2026     1.0  0.78899  0.48482  0.11570  1.0000
  H   H2430     1.0  0.90636  0.48333  0.13104  1.0000
  H   H2431     1.0  0.76600  0.43279  0.21726  1.0000
  C   C2027     1.0  0.74851  0.48602  0.16007  1.0000
  C   C2028     1.0  0.84709  0.48564  0.10409  1.0000
  H   H2432     1.0  0.83935  0.34601  0.36298  1.0000
  H   H2433     1.0  0.76241  0.39556  0.34046  1.0000
  H   H2434     1.0  0.96110  0.13171  0.40869  1.0000
  H   H2435     1.0  0.74386  0.07095  0.44265  1.0000
  Fe  Fe269     1.0  0.81184  0.04991  0.44462  1.0000
  H   H2436     1.0  0.73823  0.43498  0.35071  1.0000
  S   S538      1.0  0.81569  0.02701  0.42964  1.0000
  Fe  Fe270     1.0  0.82336  0.08502  0.44639  1.0000
  C   C2029     1.0  0.96807  0.15941  0.42106  1.0000
  S   S539      1.0  0.83387  0.11130  0.43331  1.0000
  H   H2437     1.0  0.77966  0.12289  0.46975  1.0000
  C   C2030     1.0  0.85701  0.48167  0.29747  1.0000
  H   H2438     1.0  0.75272  0.46534  0.25423  1.0000
  H   H2439     1.0  0.77396  0.00626  0.40668  1.0000
  S   S540      1.0  0.83565  0.05479  0.45347  1.0000
  S   S541      1.0  0.80171  0.08002  0.43439  1.0000
  H   H2440     1.0  0.76136  0.08396  0.43358  1.0000
  C   C2031     1.0  0.87512  0.48060  0.28795  1.0000
  H   H2441     1.0  0.78925  0.05841  0.41240  1.0000
  H   H2442     1.0  0.75011  0.09555  0.40400  1.0000
  H   H2443     1.0  0.92581  0.15204  0.44408  1.0000
  S   S542      1.0  0.83089  0.30010  0.45187  1.0000
  C   C2032     1.0  0.83047  0.39234  0.34974  1.0000
  C   C2033     1.0  0.73536  0.42518  0.36340  1.0000
  C   C2034     1.0  0.74298  0.47033  0.24467  1.0000
  C   C2035     1.0  0.94016  0.16573  0.40905  1.0000
  S   S543      1.0  0.78666  0.34010  0.45676  1.0000
  H   H2444     1.0  0.81115  0.24297  0.45718  1.0000
  C   C2036     1.0  0.85844  0.43860  0.24664  1.0000
  C   C2037     1.0  0.67048  0.21631  0.36403  1.0000
  H   H2445     1.0  0.88256  0.46824  0.28294  1.0000
  Fe  Fe271     1.0  0.76837  0.33494  0.44070  1.0000
  S   S544      1.0  0.76217  0.35214  0.41362  1.0000
  H   H2446     1.0  0.74718  0.07922  0.39234  1.0000
  S   S545      1.0  0.78378  0.30628  0.43838  1.0000
  H   H2447     1.0  0.84650  0.32705  0.41229  1.0000
  Fe  Fe272     1.0  0.78534  0.44376  0.35431  1.0000
  S   S546      1.0  0.78674  0.42936  0.33184  1.0000
  S   S547      1.0  0.78334  0.43045  0.38438  1.0000
  H   H2448     1.0  0.94874  0.16559  0.39503  1.0000
  S   S548      1.0  0.78834  0.46958  0.30361  1.0000
  C   C2038     1.0  0.95237  0.13450  0.42204  1.0000
  Fe  Fe273     1.0  0.76678  0.45457  0.32159  1.0000
  S   S549      1.0  0.74064  0.45598  0.31269  1.0000
  Fe  Fe274     1.0  0.80816  0.44576  0.31593  1.0000
  S   S550      1.0  0.83563  0.43364  0.30061  1.0000
  S   S551      1.0  0.76356  0.46773  0.34541  1.0000
  S   S552      1.0  0.80843  0.45834  0.33912  1.0000
  H   H2449     1.0  0.72590  0.38228  0.38260  1.0000
  H   H2450     1.0  0.80137  0.34652  0.39767  1.0000
  S   S553      1.0  0.69153  0.42214  0.24902  1.0000
  H   H2451     1.0  0.72915  0.46948  0.25344  1.0000
  H   H2452     1.0  0.73855  0.44332  0.37915  1.0000
  H   H2453     1.0  0.94857  0.16877  0.47023  1.0000
  H   H2454     1.0  0.69032  0.46438  0.26233  1.0000
  H   H2455     1.0  0.86338  0.08847  0.45142  1.0000
  C   C2039     1.0  0.82300  0.38353  0.38294  1.0000
  Fe  Fe275     1.0  0.71172  0.18895  0.42561  1.0000
  S   S554      1.0  0.69971  0.21492  0.40776  1.0000
  S   S555      1.0  0.73707  0.17002  0.41417  1.0000
  Fe  Fe276     1.0  0.68702  0.19851  0.46052  1.0000
  S   S556      1.0  0.67266  0.22535  0.44568  1.0000
  H   H2456     1.0  0.70441  0.41435  0.34570  1.0000
  Fe  Fe277     1.0  0.67243  0.20947  0.42472  1.0000
  H   H2457     1.0  0.81371  0.32726  0.41158  1.0000
  Fe  Fe278     1.0  0.70084  0.22860  0.42985  1.0000
  S   S557      1.0  0.71067  0.25543  0.42175  1.0000
  S   S558      1.0  0.68444  0.18218  0.44105  1.0000
  S   S559      1.0  0.71517  0.20303  0.44622  1.0000
  S   S560      1.0  0.75542  0.09461  0.46926  1.0000
  C   C2040     1.0  0.81527  0.33807  0.39881  1.0000
  C   C2041     1.0  0.73319  0.12721  0.45744  1.0000
  H   H2458     1.0  0.85171  0.33066  0.38789  1.0000
  N   N134      1.0  0.95037  0.15393  0.42331  1.0000
  S   S561      1.0  0.84351  0.21594  0.44994  1.0000
  H   H2459     1.0  0.93612  0.17078  0.44317  1.0000
  C   C2042     1.0  0.83594  0.37386  0.34861  1.0000
  C   C2043     1.0  0.76377  0.01739  0.41182  1.0000
  H   H2460     1.0  0.81068  0.12503  0.46571  1.0000
  C   C2044     1.0  0.82570  0.44961  0.24893  1.0000
  H   H2461     1.0  0.88859  0.09669  0.46053  1.0000
  C   C2045     1.0  0.72831  0.39590  0.38099  1.0000
  C   C2046     1.0  0.73173  0.41825  0.39648  1.0000
  Fe  Fe279     1.0  0.90846  0.19247  0.46286  1.0000
  H   H2462     1.0  0.65845  0.17913  0.40768  1.0000
  C   C2047     1.0  0.71823  0.41511  0.33691  1.0000
  S   S562      1.0  0.79271  0.04909  0.47192  1.0000
  C   C2048     1.0  0.73378  0.25158  0.46477  1.0000
  N   N135      1.0  0.73288  0.40250  0.34604  1.0000
  H   H2463     1.0  0.79682  0.13686  0.43924  1.0000
  C   C2049     1.0  0.73037  0.38342  0.34841  1.0000
  C   C2050     1.0  0.96804  0.20637  0.45574  1.0000
  C   C2051     1.0  0.82402  0.39713  0.36685  1.0000
  S   S563      1.0  0.67560  0.38557  0.23278  1.0000
  H   H2464     1.0  0.72016  0.02560  0.43604  1.0000
  H   H2465     1.0  0.94640  0.14773  0.45273  1.0000
  C   C2052     1.0  0.73792  0.04528  0.42669  1.0000
  H   H2466     1.0  0.77890  0.15688  0.43780  1.0000
  C   C2053     1.0  0.95449  0.19585  0.45973  1.0000
  H   H2467     1.0  0.87962  0.47467  0.24181  1.0000
  S   S564      1.0  0.89484  0.18604  0.44310  1.0000
  C   C2054     1.0  0.74212  0.44407  0.29548  1.0000
  C   C2055     1.0  0.72612  0.44429  0.28981  1.0000
  C   C2056     1.0  0.72691  0.43492  0.27606  1.0000
  C   C2057     1.0  0.74373  0.42519  0.26803  1.0000
  C   C2058     1.0  0.75970  0.42473  0.27391  1.0000
  C   C2059     1.0  0.75893  0.43423  0.28756  1.0000
  H   H2468     1.0  0.71307  0.45179  0.29600  1.0000
  H   H2469     1.0  0.71454  0.43524  0.27165  1.0000
  H   H2470     1.0  0.77274  0.41717  0.26775  1.0000
  H   H2471     1.0  0.77134  0.43395  0.29190  1.0000
  C   C2060     1.0  0.72212  0.26000  0.43663  1.0000
  C   C2061     1.0  0.72913  0.27614  0.43180  1.0000
  C   C2062     1.0  0.73870  0.27986  0.44331  1.0000
  C   C2063     1.0  0.74107  0.26752  0.45979  1.0000
  C   C2064     1.0  0.76743  0.20244  0.47717  1.0000
  C   C2065     1.0  0.72446  0.24775  0.45315  1.0000
  H   H2472     1.0  0.72727  0.28571  0.41904  1.0000
  H   H2473     1.0  0.74426  0.29223  0.43940  1.0000
  H   H2474     1.0  0.74317  0.00093  0.42299  1.0000
  H   H2475     1.0  0.71898  0.23541  0.45700  1.0000
  C   C2066     1.0  0.76901  0.37345  0.40565  1.0000
  C   C2067     1.0  0.77193  0.38098  0.38676  1.0000
  C   C2068     1.0  0.77656  0.39835  0.38006  1.0000
  C   C2069     1.0  0.77826  0.40831  0.39222  1.0000
  C   C2070     1.0  0.77576  0.40057  0.41108  1.0000
  C   C2071     1.0  0.77113  0.38317  0.41780  1.0000
  H   H2476     1.0  0.77034  0.37348  0.37732  1.0000
  H   H2477     1.0  0.77854  0.40412  0.36555  1.0000
  H   H2478     1.0  0.77707  0.40822  0.42054  1.0000
  H   H2479     1.0  0.76876  0.37751  0.43240  1.0000
  C   C2072     1.0  0.84052  0.23896  0.45148  1.0000
  C   C2073     1.0  0.85264  0.26594  0.44933  1.0000
  S   S565      1.0  0.93274  0.20655  0.45433  1.0000
  H   H2480     1.0  0.76734  0.05965  0.44216  1.0000
  C   C2074     1.0  0.81986  0.26802  0.45510  1.0000
  C   C2075     1.0  0.82274  0.24939  0.45473  1.0000
  H   H2481     1.0  0.82268  0.47995  0.27675  1.0000
  H   H2482     1.0  0.81738  0.14628  0.46222  1.0000
  H   H2483     1.0  0.80604  0.27579  0.45767  1.0000
  H   H2484     1.0  0.67672  0.20465  0.37338  1.0000
  C   C2076     1.0  0.74194  0.14915  0.42956  1.0000
  C   C2077     1.0  0.72911  0.14415  0.44545  1.0000
  H   H2485     1.0  0.71665  0.38151  0.35684  1.0000
  C   C2078     1.0  0.73530  0.43024  0.37964  1.0000
  C   C2079     1.0  0.76329  0.12082  0.43824  1.0000
  C   C2080     1.0  0.75900  0.13743  0.42594  1.0000
  C   C2081     1.0  0.72812  0.40119  0.39716  1.0000
  H   H2486     1.0  0.96466  0.22105  0.45058  1.0000
  H   H2487     1.0  0.77665  0.11220  0.43555  1.0000
  H   H2488     1.0  0.76899  0.14131  0.41369  1.0000
  C   C2082     1.0  0.85103  0.11656  0.44143  1.0000
  C   C2083     1.0  0.85210  0.13504  0.43894  1.0000
  C   C2084     1.0  0.86590  0.13974  0.44475  1.0000
  C   C2085     1.0  0.87920  0.12592  0.45241  1.0000
  C   C2086     1.0  0.75032  0.11553  0.45388  1.0000
  C   C2087     1.0  0.86398  0.10275  0.44963  1.0000
  H   H2489     1.0  0.84230  0.14577  0.43234  1.0000
  H   H2490     1.0  0.86663  0.15403  0.44271  1.0000
  H   H2491     1.0  0.71959  0.42970  0.33391  1.0000
  C   C2088     1.0  0.80638  0.99391  0.43287  1.0000
  H   H2492     1.0  0.73126  0.37988  0.33498  1.0000
  H   H2493     1.0  0.75235  0.39937  0.32063  1.0000
  H   H2494     1.0  0.80496  0.16840  0.47903  1.0000
  C   C2089     1.0  0.80112  0.01096  0.43825  1.0000
  C   C2090     1.0  0.78395  0.01529  0.44957  1.0000
  C   C2091     1.0  0.77178  0.00315  0.45463  1.0000
  H   H2495     1.0  0.75308  0.41830  0.32936  1.0000
  C   C2092     1.0  0.66205  0.26433  0.46944  1.0000
  H   H2496     1.0  0.77962  0.02836  0.45370  1.0000
  H   H2497     1.0  0.76197  0.21582  0.48078  1.0000
  H   H2498     1.0  0.66219  0.26288  0.35489  1.0000
  C   C2093     1.0  0.82864  0.36452  0.38230  1.0000
  H   H2499     1.0  0.76165  0.14243  0.46739  1.0000
  C   C2094     1.0  0.78163  0.16725  0.46797  1.0000
  H   H2500     1.0  0.82007  0.33086  0.38713  1.0000
  H   H2501     1.0  0.81956  0.41155  0.36766  1.0000
  N   N136      1.0  0.78850  0.14878  0.46338  1.0000
  C   C2095     1.0  0.77869  0.06861  0.40543  1.0000
  S   S566      1.0  0.80562  0.08579  0.47425  1.0000
  H   H2502     1.0  0.67697  0.23602  0.37551  1.0000
  H   H2503     1.0  0.80206  0.15906  0.43593  1.0000
  C   C2096     1.0  0.85588  0.43468  0.26583  1.0000
  C   C2097     1.0  0.83826  0.43823  0.27663  1.0000
  C   C2098     1.0  0.82314  0.44558  0.26817  1.0000
  C   C2099     1.0  0.74641  0.01433  0.42108  1.0000
  C   C2100     1.0  0.75551  0.04887  0.41738  1.0000
  H   H2504     1.0  0.86760  0.42888  0.27233  1.0000
  H   H2505     1.0  0.80947  0.44801  0.27642  1.0000
  C   C2101     1.0  0.68639  0.47922  0.25932  1.0000
  H   H2506     1.0  0.85656  0.34633  0.39895  1.0000
  H   H2507     1.0  0.81751  0.38838  0.39563  1.0000
  H   H2508     1.0  0.71857  0.41191  0.32346  1.0000
  C   C2102     1.0  0.73352  0.02823  0.42853  1.0000
  H   H2509     1.0  0.66135  0.19941  0.35195  1.0000
  C   C2103     1.0  0.87825  0.10743  0.45476  1.0000
  C   C2104     1.0  0.85552  0.24715  0.44906  1.0000
  Fe  Fe280     1.0  0.78459  0.07954  0.46272  1.0000
  S   S567      1.0  0.89749  0.13148  0.45845  1.0000
  C   C2105     1.0  0.96856  0.17805  0.41987  1.0000
  C   C2106     1.0  0.83504  0.36012  0.36460  1.0000
  C   C2107     1.0  0.73213  0.40773  0.36352  1.0000
  H   H2510     1.0  0.73228  0.42200  0.40897  1.0000
  Fe  Fe281     1.0  0.80054  0.31076  0.45612  1.0000
  H   H2511     1.0  0.83118  0.40299  0.33732  1.0000
  Fe  Fe282     1.0  0.76478  0.29727  0.46470  1.0000
  C   C2108     1.0  0.75799  0.07050  0.43430  1.0000
  H   H2512     1.0  0.96180  0.41040  0.25011  1.0000
  S   S568      1.0  0.74759  0.32542  0.46561  1.0000
  H   H2513     1.0  0.92734  0.16112  0.40975  1.0000
  H   H2514     1.0  0.70019  0.48281  0.27896  1.0000
  H   H2515     1.0  0.78095  0.06654  0.39115  1.0000
  C   C2109     1.0  0.79165  0.15053  0.44323  1.0000
  H   H2516     1.0  0.72750  0.05555  0.43286  1.0000
  Fe  Fe283     1.0  0.89187  0.16002  0.46416  1.0000
  C   C2110     1.0  0.93918  0.15624  0.44160  1.0000
  N   N137      1.0  0.78841  0.23859  0.42210  1.0000
  C   C2111     1.0  0.80814  0.23959  0.41769  1.0000
  C   C2112     1.0  0.77856  0.25573  0.41173  1.0000
  C   C2113     1.0  0.78166  0.23814  0.44199  1.0000
  C   C2114     1.0  0.78488  0.22229  0.41763  1.0000
  C   C2115     1.0  0.79920  0.20787  0.41178  1.0000
  C   C2116     1.0  0.76660  0.22037  0.41929  1.0000
  C   C2117     1.0  0.79534  0.19293  0.40719  1.0000
  C   C2118     1.0  0.76293  0.20540  0.41464  1.0000
  C   C2119     1.0  0.77725  0.19178  0.40850  1.0000
  H   H2517     1.0  0.81419  0.23980  0.40289  1.0000
  H   H2518     1.0  0.81025  0.25223  0.42079  1.0000
  H   H2519     1.0  0.81632  0.22788  0.42607  1.0000
  H   H2520     1.0  0.78237  0.25606  0.39669  1.0000
  H   H2521     1.0  0.78159  0.26826  0.41414  1.0000
  H   H2522     1.0  0.76342  0.25729  0.41583  1.0000
  H   H2523     1.0  0.78958  0.22612  0.45026  1.0000
  H   H2524     1.0  0.78281  0.25081  0.44581  1.0000
  H   H2525     1.0  0.76701  0.23716  0.44639  1.0000
  H   H2526     1.0  0.81351  0.20785  0.41048  1.0000
  H   H2527     1.0  0.75490  0.23049  0.42404  1.0000
  H   H2528     1.0  0.80645  0.18226  0.40239  1.0000
  H   H2529     1.0  0.74888  0.20446  0.41553  1.0000
  H   H2530     1.0  0.77424  0.18035  0.40470  1.0000
  C   C2120     1.0  0.80600  0.13888  0.46928  1.0000
  H   H2531     1.0  0.74117  0.37319  0.35499  1.0000
  C   C2121     1.0  0.74683  0.08174  0.40607  1.0000
  C   C2122     1.0  0.75095  0.40394  0.33365  1.0000
  S   S569      1.0  0.66728  0.47516  0.23523  1.0000
  C   C2123     1.0  0.68644  0.27898  0.46937  1.0000
  C   C2124     1.0  0.67062  0.23403  0.36527  1.0000
  C   C2125     1.0  0.67587  0.27405  0.45988  1.0000
  Fe  Fe284     1.0  0.72131  0.42118  0.23612  1.0000
  H   H2532     1.0  0.81238  0.00136  0.47429  1.0000
  H   H2533     1.0  0.85040  0.47010  0.29977  1.0000
  H   H2534     1.0  0.73244  0.08279  0.41388  1.0000
  H   H2535     1.0  0.86934  0.23914  0.44651  1.0000
  S   S570      1.0  0.74526  0.41379  0.25041  1.0000
  H   H2536     1.0  0.95830  0.12470  0.43348  1.0000
  H   H2537     1.0  0.72589  0.39169  0.41026  1.0000
  C   C2126     1.0  0.66151  0.21353  0.35156  1.0000
  H   H2538     1.0  0.93564  0.18028  0.41068  1.0000
  H   H2539     1.0  0.98601  0.13197  0.42242  1.0000
  N   N138      1.0  0.75982  0.06703  0.41574  1.0000
  Fe  Fe285     1.0  0.86845  0.19833  0.46021  1.0000
  C   C2127     1.0  0.82147  0.35660  0.41640  1.0000
  H   H2540     1.0  0.82151  0.34512  0.42867  1.0000
  H   H2541     1.0  0.83044  0.36539  0.41755  1.0000
  H   H2542     1.0  0.80712  0.36461  0.41754  1.0000
  H   H2543     1.0  0.84091  0.37023  0.33522  1.0000
  S   S571      1.0  0.88207  0.20723  0.47794  1.0000
  H   H2544     1.0  0.72302  0.12319  0.46945  1.0000
  C   C2128     1.0  0.83478  0.27645  0.45214  1.0000
  C   C2129     1.0  0.77471  0.13710  0.47242  1.0000
  N   N139      1.0  0.82793  0.34969  0.39901  1.0000
  Fe  Fe286     1.0  0.78678  0.48098  0.32814  1.0000
  H   H2545     1.0  0.86426  0.27232  0.44712  1.0000
  H   H2546     1.0  0.66653  0.22793  0.30422  1.0000
  H   H2547     1.0  0.98489  0.19767  0.41820  1.0000
  H   H2548     1.0  0.75816  0.00704  0.46260  1.0000
  C   C2130     1.0  0.84647  0.33796  0.39950  1.0000
  H   H2549     1.0  0.78151  0.08243  0.40431  1.0000
  H   H2550     1.0  0.93882  0.13105  0.42320  1.0000
  H   H2551     1.0  0.81400  0.45536  0.24242  1.0000
  C   C2131     1.0  0.76446  0.17795  0.46425  1.0000
  C   C2132     1.0  0.76839  0.03433  0.41002  1.0000
  H   H2552     1.0  0.71591  0.15314  0.44834  1.0000
  C   C2133     1.0  0.97726  0.16836  0.46761  1.0000
  H   H2553     1.0  0.87210  0.43577  0.23844  1.0000
  H   H2554     1.0  0.78233  0.03539  0.40329  1.0000
  C   C2134     1.0  0.78451  0.19254  0.48058  1.0000
  C   C2135     1.0  0.95899  0.17692  0.46651  1.0000
  H   H2555     1.0  0.69733  0.28626  0.46188  1.0000
  H   H2556     1.0  0.75629  0.17306  0.45765  1.0000
  H   H2557     1.0  0.85010  0.47585  0.25290  1.0000
  S   S572      1.0  0.75393  0.27110  0.47394  1.0000
  H   H2558     1.0  0.95617  0.18857  0.42072  1.0000
  C   C2136     1.0  0.84336  0.44611  0.23817  1.0000
  H   H2559     1.0  0.98088  0.15357  0.47176  1.0000
  Fe  Fe287     1.0  0.81579  0.05527  0.48032  1.0000
  C   C2137     1.0  0.75748  0.19521  0.46891  1.0000
  C   C2138     1.0  0.98618  0.19791  0.45755  1.0000
  H   H2560     1.0  0.74427  0.20306  0.46606  1.0000
  C   C2139     1.0  0.66214  0.24911  0.35375  1.0000
  C   C2140     1.0  0.96798  0.41507  0.23591  1.0000
  H   H2561     1.0  0.73554  0.24207  0.47756  1.0000
  C   C2141     1.0  0.79159  0.17521  0.47609  1.0000
  H   H2562     1.0  0.67862  0.27753  0.44497  1.0000
  H   H2563     1.0  0.69799  0.22050  0.47959  1.0000
  C   C2142     1.0  0.98495  0.18344  0.41858  1.0000
  S   S573      1.0  0.86449  0.17181  0.47977  1.0000
  Fe  Fe288     1.0  0.76727  0.32805  0.48155  1.0000
  H   H2564     1.0  0.81963  0.99045  0.42409  1.0000
  H   H2565     1.0  0.74581  0.46050  0.23537  1.0000
  C   C2143     1.0  0.98499  0.14648  0.42117  1.0000
  H   H2566     1.0  0.65734  0.19876  0.32356  1.0000
  C   C2144     1.0  0.77682  0.98636  0.44881  1.0000
  Fe  Fe289     1.0  0.81900  0.09005  0.57785  1.0000
  S   S574      1.0  0.84863  0.07616  0.57555  1.0000
  S   S575      1.0  0.80099  0.09598  0.55734  1.0000
  Fe  Fe290     1.0  0.81630  0.09841  0.61483  1.0000
  S   S576      1.0  0.84543  0.08430  0.61654  1.0000
  S   S577      1.0  0.79819  0.11764  0.63280  1.0000
  Fe  Fe291     1.0  0.85200  0.09876  0.58721  1.0000
  S   S578      1.0  0.87433  0.11507  0.57481  1.0000
  Fe  Fe292     1.0  0.83974  0.06253  0.60499  1.0000
  S   S579      1.0  0.82337  0.11405  0.58612  1.0000
  S   S580      1.0  0.80973  0.07513  0.60651  1.0000
  S   S581      1.0  0.87289  0.17488  0.52678  1.0000
  Fe  Fe293     1.0  0.91674  0.20902  0.58266  1.0000
  S   S582      1.0  0.93251  0.18007  0.58728  1.0000
  S   S583      1.0  0.91112  0.22289  0.55482  1.0000
  Fe  Fe294     1.0  0.91306  0.21285  0.62131  1.0000
  S   S584      1.0  0.92874  0.18422  0.62971  1.0000
  S   S585      1.0  0.89834  0.23162  0.64078  1.0000
  Fe  Fe295     1.0  0.94779  0.19041  0.60252  1.0000
  C   C2145     1.0  0.78795  0.40861  0.55279  1.0000
  Fe  Fe296     1.0  0.91221  0.17624  0.61390  1.0000
  S   S586      1.0  0.89974  0.15126  0.62679  1.0000
  S   S587      1.0  0.93370  0.21991  0.59547  1.0000
  S   S588      1.0  0.89489  0.20434  0.60782  1.0000
  S   S589      1.0  0.75685  0.33391  0.51000  1.0000
  Fe  Fe297     1.0  0.72724  0.19568  0.58832  1.0000
  S   S590      1.0  0.69769  0.20880  0.58768  1.0000
  S   S591      1.0  0.73579  0.16515  0.59026  1.0000
  Fe  Fe298     1.0  0.73948  0.23235  0.57950  1.0000
  S   S592      1.0  0.71095  0.24833  0.57823  1.0000
  S   S593      1.0  0.76404  0.24620  0.57018  1.0000
  Fe  Fe299     1.0  0.70207  0.22774  0.60347  1.0000
  S   S594      1.0  0.68339  0.23759  0.62840  1.0000
  Fe  Fe300     1.0  0.70919  0.22803  0.56256  1.0000
  S   S595      1.0  0.70044  0.23836  0.53518  1.0000
  S   S596      1.0  0.73096  0.21303  0.60602  1.0000
  S   S597      1.0  0.73835  0.21350  0.56197  1.0000
  Fe  Fe301     1.0  0.83533  0.31902  0.60072  1.0000
  S   S598      1.0  0.81453  0.31768  0.62725  1.0000
  S   S599      1.0  0.86556  0.30784  0.59450  1.0000
  Fe  Fe302     1.0  0.80824  0.34292  0.57778  1.0000
  S   S600      1.0  0.78485  0.34379  0.60206  1.0000
  S   S601      1.0  0.80845  0.35700  0.54829  1.0000
  Fe  Fe303     1.0  0.80481  0.34801  0.61695  1.0000
  S   S602      1.0  0.79671  0.37236  0.63129  1.0000
  Fe  Fe304     1.0  0.79637  0.31360  0.61024  1.0000
  S   S603      1.0  0.77792  0.29288  0.62087  1.0000
  S   S604      1.0  0.82723  0.34947  0.59178  1.0000
  S   S605      1.0  0.81810  0.31257  0.58471  1.0000
  Fe  Fe305     1.0  0.82954  0.40409  0.70832  1.0000
  S   S606      1.0  0.81390  0.43322  0.70169  1.0000
  S   S607      1.0  0.83412  0.38066  0.69323  1.0000
  Fe  Fe306     1.0  0.83560  0.44103  0.71149  1.0000
  S   S608      1.0  0.84990  0.46501  0.69915  1.0000
  S   S609      1.0  0.85260  0.41227  0.71568  1.0000
  H   H2567     1.0  0.84078  0.38852  0.61393  1.0000
  H   H2568     1.0  0.96926  0.17732  0.64768  1.0000
  H   H2569     1.0  0.83526  0.12145  0.52651  1.0000
  H   H2570     1.0  0.85750  0.16026  0.60513  1.0000
  H   H2571     1.0  0.82998  0.16051  0.63975  1.0000
  H   H2572     1.0  0.73336  0.36371  0.59576  1.0000
  H   H2573     1.0  0.77934  0.41779  0.54307  1.0000
  H   H2574     1.0  0.67324  0.14898  0.70763  1.0000
  H   H2575     1.0  0.83092  0.15625  0.58509  1.0000
  C   C2146     1.0  0.66951  0.26443  0.49818  1.0000
  H   H2576     1.0  0.71538  0.16884  0.62847  1.0000
  C   C2147     1.0  0.80671  0.37433  0.64896  1.0000
  C   C2148     1.0  0.81812  0.35935  0.65787  1.0000
  C   C2149     1.0  0.82611  0.36150  0.67158  1.0000
  C   C2150     1.0  0.82284  0.37864  0.67655  1.0000
  C   C2151     1.0  0.81115  0.39357  0.66787  1.0000
  C   C2152     1.0  0.80309  0.39138  0.65420  1.0000
  H   H2577     1.0  0.82079  0.34614  0.65414  1.0000
  H   H2578     1.0  0.83511  0.34988  0.67823  1.0000
  H   H2579     1.0  0.80864  0.40688  0.67140  1.0000
  H   H2580     1.0  0.79425  0.40305  0.64741  1.0000
  N   N140      1.0  0.87531  0.33115  0.63561  1.0000
  H   H2581     1.0  0.73308  0.29456  0.50159  1.0000
  N   N141      1.0  0.85006  0.24859  0.58773  1.0000
  C   C2153     1.0  0.76733  0.25953  0.58423  1.0000
  C   C2154     1.0  0.75732  0.25904  0.60220  1.0000
  C   C2155     1.0  0.76070  0.26937  0.61324  1.0000
  C   C2156     1.0  0.77386  0.28050  0.60633  1.0000
  C   C2157     1.0  0.78360  0.28128  0.58820  1.0000
  C   C2158     1.0  0.78043  0.27072  0.57725  1.0000
  H   H2582     1.0  0.74705  0.25063  0.60766  1.0000
  H   H2583     1.0  0.75304  0.26877  0.62722  1.0000
  H   H2584     1.0  0.79360  0.28994  0.58264  1.0000
  H   H2585     1.0  0.78805  0.27132  0.56330  1.0000
  C   C2159     1.0  0.68856  0.20120  0.50363  1.0000
  C   C2160     1.0  0.77917  0.40049  0.71498  1.0000
  C   C2161     1.0  0.93656  0.12177  0.58272  1.0000
  C   C2162     1.0  0.69733  0.22286  0.52344  1.0000
  C   C2163     1.0  0.70051  0.22730  0.50423  1.0000
  C   C2164     1.0  0.69612  0.21655  0.49436  1.0000
  C   C2165     1.0  0.85028  0.23076  0.54545  1.0000
  H   H2586     1.0  0.76766  0.15535  0.53574  1.0000
  H   H2587     1.0  0.70592  0.23943  0.49696  1.0000
  H   H2588     1.0  0.89854  0.33601  0.61386  1.0000
  C   C2166     1.0  0.77242  0.33889  0.52027  1.0000
  C   C2167     1.0  0.77075  0.33369  0.53939  1.0000
  C   C2168     1.0  0.78233  0.33853  0.54804  1.0000
  C   C2169     1.0  0.79513  0.34918  0.53763  1.0000
  C   C2170     1.0  0.79697  0.35415  0.51850  1.0000
  C   C2171     1.0  0.78582  0.34877  0.50979  1.0000
  H   H2589     1.0  0.76028  0.32618  0.54756  1.0000
  H   H2590     1.0  0.78078  0.33472  0.56282  1.0000
  H   H2591     1.0  0.80688  0.36240  0.51043  1.0000
  H   H2592     1.0  0.78578  0.04378  0.55338  1.0000
  C   C2172     1.0  0.88908  0.25294  0.62828  1.0000
  C   C2173     1.0  0.89965  0.26100  0.61203  1.0000
  C   C2174     1.0  0.89228  0.27796  0.60187  1.0000
  C   C2175     1.0  0.87417  0.28669  0.60768  1.0000
  C   C2176     1.0  0.86343  0.27857  0.62382  1.0000
  C   C2177     1.0  0.87100  0.26178  0.63426  1.0000
  H   H2593     1.0  0.91367  0.25434  0.60746  1.0000
  H   H2594     1.0  0.90062  0.28423  0.58940  1.0000
  H   H2595     1.0  0.84941  0.28528  0.62836  1.0000
  H   H2596     1.0  0.86280  0.25550  0.64683  1.0000
  C   C2178     1.0  0.84404  0.24258  0.57375  1.0000
  H   H2597     1.0  0.80965  0.28271  0.53497  1.0000
  H   H2598     1.0  0.65875  0.23152  0.51958  1.0000
  H   H2599     1.0  0.68998  0.14058  0.68021  1.0000
  C   C2179     1.0  0.88445  0.18727  0.53471  1.0000
  C   C2180     1.0  0.88183  0.18656  0.55354  1.0000
  C   C2181     1.0  0.89055  0.19701  0.55984  1.0000
  C   C2182     1.0  0.90136  0.20868  0.54724  1.0000
  H   H2600     1.0  0.87304  0.17795  0.56322  1.0000
  H   H2601     1.0  0.88849  0.19639  0.57439  1.0000
  C   C2183     1.0  0.78065  0.13111  0.62135  1.0000
  C   C2184     1.0  0.77570  0.12440  0.60843  1.0000
  C   C2185     1.0  0.76189  0.13501  0.59907  1.0000
  C   C2186     1.0  0.75326  0.15263  0.60218  1.0000
  C   C2187     1.0  0.75838  0.15958  0.61488  1.0000
  C   C2188     1.0  0.77192  0.14870  0.62465  1.0000
  H   H2602     1.0  0.78229  0.11085  0.60583  1.0000
  H   H2603     1.0  0.75795  0.12949  0.58938  1.0000
  H   H2604     1.0  0.75171  0.17315  0.61742  1.0000
  H   H2605     1.0  0.77571  0.15393  0.63465  1.0000
  C   C2189     1.0  0.89235  0.14172  0.61219  1.0000
  C   C2190     1.0  0.88345  0.12689  0.61976  1.0000
  C   C2191     1.0  0.87754  0.11884  0.60842  1.0000
  C   C2192     1.0  0.88068  0.12549  0.58944  1.0000
  C   C2193     1.0  0.88944  0.14044  0.58189  1.0000
  C   C2194     1.0  0.89525  0.14860  0.59324  1.0000
  H   H2606     1.0  0.88117  0.12154  0.63443  1.0000
  H   H2607     1.0  0.87094  0.10723  0.61436  1.0000
  H   H2608     1.0  0.89184  0.14566  0.56719  1.0000
  H   H2609     1.0  0.90211  0.16005  0.58728  1.0000
  H   H2610     1.0  0.81380  0.03429  0.62778  1.0000
  C   C2195     1.0  0.81667  0.05307  0.52204  1.0000
  C   C2196     1.0  0.82695  0.05168  0.53508  1.0000
  C   C2197     1.0  0.82193  0.06463  0.54631  1.0000
  C   C2198     1.0  0.80662  0.07887  0.54452  1.0000
  C   C2199     1.0  0.79592  0.07979  0.53198  1.0000
  C   C2200     1.0  0.80094  0.06687  0.52074  1.0000
  H   H2611     1.0  0.83916  0.04104  0.53603  1.0000
  H   H2612     1.0  0.83011  0.06373  0.55609  1.0000
  H   H2613     1.0  0.78399  0.09069  0.53074  1.0000
  H   H2614     1.0  0.79266  0.06760  0.51103  1.0000
  N   N142      1.0  0.82765  0.29513  0.51140  1.0000
  H   H2615     1.0  0.82772  0.31923  0.53248  1.0000
  H   H2616     1.0  0.74034  0.40653  0.71950  1.0000
  H   H2617     1.0  0.66033  0.14022  0.69615  1.0000
  C   C2201     1.0  0.84148  0.29407  0.52220  1.0000
  C   C2202     1.0  0.85734  0.27972  0.52291  1.0000
  C   C2203     1.0  0.83934  0.30781  0.53238  1.0000
  C   C2204     1.0  0.87021  0.27935  0.53309  1.0000
  C   C2205     1.0  0.85227  0.30728  0.54251  1.0000
  C   C2206     1.0  0.86768  0.29311  0.54285  1.0000
  H   H2618     1.0  0.69080  0.19658  0.63094  1.0000
  H   H2619     1.0  0.82262  0.32484  0.50323  1.0000
  H   H2620     1.0  0.66555  0.19672  0.65751  1.0000
  C   C2207     1.0  0.95201  0.13803  0.61497  1.0000
  H   H2621     1.0  0.66808  0.26093  0.51293  1.0000
  H   H2622     1.0  0.77153  0.39252  0.53878  1.0000
  H   H2623     1.0  0.85865  0.99613  0.60333  1.0000
  C   C2208     1.0  0.72498  0.14192  0.50335  1.0000
  C   C2209     1.0  0.68320  0.27428  0.48847  1.0000
  C   C2210     1.0  0.76319  0.38704  0.55160  1.0000
  C   C2211     1.0  0.83291  0.10337  0.51104  1.0000
  N   N143      1.0  0.77338  0.38251  0.72107  1.0000
  H   H2624     1.0  0.87771  0.29287  0.55067  1.0000
  H   H2625     1.0  0.97031  0.14546  0.57747  1.0000
  H   H2626     1.0  0.66092  0.22096  0.61442  1.0000
  H   H2627     1.0  0.73202  0.35927  0.56538  1.0000
  H   H2628     1.0  0.85037  0.31804  0.55006  1.0000
  C   C2212     1.0  0.97310  0.11133  0.60580  1.0000
  H   H2629     1.0  0.84897  0.00964  0.56661  1.0000
  C   C2213     1.0  0.74074  0.36794  0.56634  1.0000
  H   H2630     1.0  0.75959  0.02965  0.60153  1.0000
  H   H2631     1.0  0.96677  0.20190  0.55697  1.0000
  C   C2214     1.0  0.83167  0.27959  0.50179  1.0000
  C   C2215     1.0  0.67499  0.16878  0.67160  1.0000
  H   H2632     1.0  0.77858  0.01226  0.60811  1.0000
  H   H2633     1.0  0.76358  0.04760  0.56818  1.0000
  H   H2634     1.0  0.76447  0.36456  0.70930  1.0000
  H   H2635     1.0  0.79631  0.05327  0.57661  1.0000
  H   H2636     1.0  0.94738  0.19383  0.53976  1.0000
  C   C2216     1.0  0.83559  0.00673  0.56787  1.0000
  H   H2637     1.0  0.79278  0.39965  0.70541  1.0000
  N   N144      1.0  0.77653  0.40126  0.57058  1.0000
  H   H2638     1.0  0.94314  0.09697  0.61519  1.0000
  C   C2217     1.0  0.84174  0.09003  0.50065  1.0000
  H   H2639     1.0  0.67278  0.18292  0.70051  1.0000
  H   H2640     1.0  0.71556  0.14574  0.49396  1.0000
  H   H2641     1.0  0.96188  0.14699  0.60719  1.0000
  C   C2218     1.0  0.73425  0.29895  0.57441  1.0000
  H   H2642     1.0  0.75560  0.29237  0.55226  1.0000
  H   H2643     1.0  0.74362  0.30090  0.58185  1.0000
  H   H2644     1.0  0.71056  0.30436  0.59567  1.0000
  C   C2219     1.0  0.81167  0.17789  0.61070  1.0000
  C   C2220     1.0  0.79876  0.18230  0.62663  1.0000
  C   C2221     1.0  0.78335  0.19653  0.62523  1.0000
  C   C2222     1.0  0.79260  0.20263  0.59225  1.0000
  C   C2223     1.0  0.78030  0.20667  0.60810  1.0000
  H   H2645     1.0  0.87888  0.13451  0.49598  1.0000
  H   H2646     1.0  0.80010  0.17482  0.64032  1.0000
  H   H2647     1.0  0.77355  0.19959  0.63751  1.0000
  H   H2648     1.0  0.78986  0.21032  0.57896  1.0000
  H   H2649     1.0  0.76832  0.21763  0.60706  1.0000
  C   C2224     1.0  0.66144  0.23221  0.63717  1.0000
  H   H2650     1.0  0.86006  0.22592  0.53390  1.0000
  C   C2225     1.0  0.80747  0.00898  0.62624  1.0000
  C   C2226     1.0  0.81905  0.02138  0.62326  1.0000
  S   S610      1.0  0.82429  0.03866  0.50631  1.0000
  C   C2227     1.0  0.78924  0.39019  0.58281  1.0000
  H   H2651     1.0  0.85014  0.32405  0.65246  1.0000
  C   C2228     1.0  0.96480  0.20583  0.64854  1.0000
  H   H2652     1.0  0.87856  0.32207  0.66379  1.0000
  H   H2653     1.0  0.73452  0.11423  0.49888  1.0000
  H   H2654     1.0  0.87900  0.33440  0.60615  1.0000
  C   C2229     1.0  0.86824  0.35097  0.63567  1.0000
  C   C2230     1.0  0.84483  0.17107  0.60453  1.0000
  C   C2231     1.0  0.88664  0.32154  0.64962  1.0000
  H   H2655     1.0  0.81653  0.31361  0.48869  1.0000
  N   N145      1.0  0.87385  0.11557  0.52163  1.0000
  C   C2232     1.0  0.88655  0.12470  0.50613  1.0000
  C   C2233     1.0  0.86287  0.12965  0.53241  1.0000
  C   C2234     1.0  0.88482  0.10115  0.53369  1.0000
  C   C2235     1.0  0.86256  0.10708  0.51449  1.0000
  C   C2236     1.0  0.87110  0.09363  0.50360  1.0000
  C   C2237     1.0  0.84306  0.11168  0.51808  1.0000
  C   C2238     1.0  0.86078  0.08515  0.49697  1.0000
  H   H2656     1.0  0.71467  0.14116  0.65328  1.0000
  H   H2657     1.0  0.95225  0.19913  0.51506  1.0000
  H   H2658     1.0  0.89696  0.11481  0.49860  1.0000
  H   H2659     1.0  0.89421  0.13253  0.51085  1.0000
  C   C2239     1.0  0.95352  0.20326  0.52745  1.0000
  H   H2660     1.0  0.85484  0.14137  0.52395  1.0000
  H   H2661     1.0  0.87177  0.13570  0.53764  1.0000
  H   H2662     1.0  0.85347  0.12363  0.54480  1.0000
  H   H2663     1.0  0.89434  0.09060  0.52638  1.0000
  H   H2664     1.0  0.89337  0.10711  0.53944  1.0000
  H   H2665     1.0  0.87576  0.09394  0.54553  1.0000
  H   H2666     1.0  0.88586  0.08958  0.50012  1.0000
  C   C2240     1.0  0.97483  0.18785  0.65023  1.0000
  C   C2241     1.0  0.68941  0.15309  0.66986  1.0000
  H   H2667     1.0  0.93799  0.14663  0.61543  1.0000
  H   H2668     1.0  0.76675  0.00955  0.59208  1.0000
  H   H2669     1.0  0.86443  0.30669  0.64030  1.0000
  H   H2670     1.0  0.76067  0.27625  0.51062  1.0000
  C   C2242     1.0  0.72762  0.29830  0.51532  1.0000
  N   N146      1.0  0.73588  0.28437  0.52985  1.0000
  C   C2243     1.0  0.80819  0.18863  0.59346  1.0000
  C   C2244     1.0  0.88684  0.32885  0.61737  1.0000
  H   H2671     1.0  0.89249  0.31407  0.61683  1.0000
  H   H2672     1.0  0.89179  0.30670  0.64911  1.0000
  C   C2245     1.0  0.69019  0.20721  0.53280  1.0000
  H   H2673     1.0  0.91245  0.21828  0.51866  1.0000
  S   S611      1.0  0.85224  0.03214  0.61126  1.0000
  C   C2246     1.0  0.77193  0.01974  0.59630  1.0000
  C   C2247     1.0  0.67597  0.18436  0.65706  1.0000
  H   H2674     1.0  0.85268  0.22167  0.60517  1.0000
  C   C2248     1.0  0.97214  0.21957  0.65112  1.0000
  H   H2675     1.0  0.83453  0.99678  0.51224  1.0000
  C   C2249     1.0  0.76525  0.41711  0.57868  1.0000
  C   C2250     1.0  0.85970  0.32179  0.63932  1.0000
  C   C2251     1.0  0.83748  0.01685  0.61487  1.0000
  C   C2252     1.0  0.73812  0.15018  0.52543  1.0000
  C   C2253     1.0  0.75433  0.15831  0.54539  1.0000
  H   H2676     1.0  0.85166  0.32669  0.62825  1.0000
  S   S612      1.0  0.68191  0.18836  0.49140  1.0000
  H   H2677     1.0  0.83985  0.13773  0.60165  1.0000
  H   H2678     1.0  0.84742  0.40313  0.63607  1.0000
  H   H2679     1.0  0.75761  0.41267  0.59287  1.0000
  H   H2680     1.0  0.84485  0.27927  0.49152  1.0000
  H   H2681     1.0  0.81807  0.10692  0.51413  1.0000
  N   N147      1.0  0.78494  0.02905  0.58123  1.0000
  C   C2254     1.0  0.76942  0.37773  0.70516  1.0000
  C   C2255     1.0  0.80936  0.29517  0.52375  1.0000
  C   C2256     1.0  0.72606  0.15467  0.51295  1.0000
  C   C2257     1.0  0.84012  0.26758  0.58918  1.0000
  C   C2258     1.0  0.82528  0.24222  0.57567  1.0000
  C   C2259     1.0  0.81930  0.23640  0.56278  1.0000
  C   C2260     1.0  0.83180  0.23050  0.54780  1.0000
  H   H2682     1.0  0.82512  0.26853  0.59453  1.0000
  H   H2683     1.0  0.84508  0.27303  0.59872  1.0000
  H   H2684     1.0  0.84202  0.27710  0.57556  1.0000
  H   H2685     1.0  0.81506  0.24639  0.58721  1.0000
  H   H2686     1.0  0.80487  0.23635  0.56452  1.0000
  H   H2687     1.0  0.81543  0.14516  0.60381  1.0000
  H   H2688     1.0  0.96389  0.15555  0.54659  1.0000
  C   C2261     1.0  0.94166  0.11000  0.61975  1.0000
  H   H2689     1.0  0.87410  0.25822  0.57052  1.0000
  C   C2262     1.0  0.74100  0.29390  0.55733  1.0000
  C   C2263     1.0  0.74005  0.18192  0.52334  1.0000
  H   H2690     1.0  0.89894  0.32757  0.64739  1.0000
  H   H2691     1.0  0.96444  0.23362  0.64936  1.0000
  C   C2264     1.0  0.90400  0.20937  0.52845  1.0000
  C   C2265     1.0  0.89590  0.19835  0.52224  1.0000
  C   C2266     1.0  0.72147  0.16606  0.54985  1.0000
  C   C2267     1.0  0.71563  0.30093  0.58221  1.0000
  C   C2268     1.0  0.86452  0.37851  0.64804  1.0000
  H   H2692     1.0  0.89853  0.19853  0.50777  1.0000
  H   H2693     1.0  0.76107  0.29437  0.52119  1.0000
  H   H2694     1.0  0.87418  0.25266  0.59448  1.0000
  C   C2269     1.0  0.87002  0.24852  0.58353  1.0000
  N   N148      1.0  0.82819  0.16301  0.61156  1.0000
  H   H2695     1.0  0.85085  0.23993  0.61661  1.0000
  H   H2696     1.0  0.73056  0.31203  0.51429  1.0000
  C   C2270     1.0  0.94310  0.13982  0.55189  1.0000
  C   C2271     1.0  0.76438  0.38986  0.56881  1.0000
  C   C2272     1.0  0.75612  0.28138  0.52369  1.0000
  C   C2273     1.0  0.72916  0.29054  0.54757  1.0000
  H   H2697     1.0  0.71250  0.29984  0.51797  1.0000
  C   C2274     1.0  0.84591  0.23620  0.60586  1.0000
  H   H2698     1.0  0.79748  0.37783  0.57745  1.0000
  H   H2699     1.0  0.76312  0.27082  0.53398  1.0000
  H   H2700     1.0  0.82719  0.22558  0.53806  1.0000
  H   H2701     1.0  0.87841  0.23459  0.58247  1.0000
  C   C2275     1.0  0.70357  0.29828  0.57279  1.0000
  C   C2276     1.0  0.70424  0.16880  0.64040  1.0000
  H   H2702     1.0  0.81743  0.18615  0.58077  1.0000
  C   C2277     1.0  0.73058  0.26669  0.53143  1.0000
  C   C2278     1.0  0.71016  0.29332  0.55566  1.0000
  H   H2703     1.0  0.73534  0.26167  0.51828  1.0000
  H   H2704     1.0  0.75191  0.18049  0.51166  1.0000
  H   H2705     1.0  0.71551  0.26781  0.53501  1.0000
  H   H2706     1.0  0.73655  0.25582  0.54220  1.0000
  N   N149      1.0  0.97277  0.20315  0.52769  1.0000
  C   C2279     1.0  0.68570  0.19645  0.52288  1.0000
  C   C2280     1.0  0.82860  0.15008  0.60000  1.0000
  C   C2281     1.0  0.80114  0.99908  0.57154  1.0000
  H   H2707     1.0  0.83094  0.23673  0.61094  1.0000
  H   H2708     1.0  0.81695  0.14537  0.63636  1.0000
  H   H2709     1.0  0.78201  0.38543  0.59707  1.0000
  H   H2710     1.0  0.70030  0.29119  0.54900  1.0000
  H   H2711     1.0  0.68909  0.29968  0.57898  1.0000
  H   H2712     1.0  0.70908  0.16974  0.54375  1.0000
  C   C2282     1.0  0.85636  0.23687  0.55807  1.0000
  C   C2283     1.0  0.84979  0.38058  0.62320  1.0000
  H   H2713     1.0  0.79522  0.03933  0.59943  1.0000
  C   C2284     1.0  0.69038  0.18436  0.64176  1.0000
  H   H2714     1.0  0.72064  0.17707  0.55726  1.0000
  H   H2715     1.0  0.71695  0.16794  0.51078  1.0000
  H   H2716     1.0  0.86684  0.38488  0.65812  1.0000
  C   C2285     1.0  0.78808  0.04447  0.58767  1.0000
  H   H2717     1.0  0.79330  0.01244  0.63310  1.0000
  H   H2718     1.0  0.78818  0.99553  0.57253  1.0000
  H   H2719     1.0  0.77385  0.42636  0.57967  1.0000
  H   H2720     1.0  0.75501  0.16927  0.55217  1.0000
  H   H2721     1.0  0.97885  0.18194  0.50201  1.0000
  H   H2722     1.0  0.72050  0.15316  0.56040  1.0000
  H   H2723     1.0  0.87084  0.23678  0.55531  1.0000
  C   C2286     1.0  0.80200  0.01572  0.57589  1.0000
  H   H2724     1.0  0.97046  0.21619  0.60547  1.0000
  H   H2725     1.0  0.97279  0.23028  0.51059  1.0000
  H   H2726     1.0  0.82102  0.28084  0.49381  1.0000
  H   H2727     1.0  0.75304  0.14608  0.55677  1.0000
  H   H2728     1.0  0.76940  0.41139  0.70772  1.0000
  C   C2287     1.0  0.75304  0.38135  0.58467  1.0000
  H   H2729     1.0  0.80152  0.01277  0.49315  1.0000
  Fe  Fe307     1.0  0.88058  0.17953  0.49608  1.0000
  H   H2730     1.0  0.72750  0.18858  0.51768  1.0000
  H   H2731     1.0  0.85354  0.35614  0.61342  1.0000
  H   H2732     1.0  0.92297  0.12278  0.56107  1.0000
  C   C2288     1.0  0.83257  0.98759  0.61210  1.0000
  H   H2733     1.0  0.94472  0.21723  0.52744  1.0000
  H   H2734     1.0  0.81264  0.47961  0.71598  1.0000
  C   C2289     1.0  0.74865  0.13190  0.52806  1.0000
  N   N150      1.0  0.73863  0.16380  0.53582  1.0000
  H   H2735     1.0  0.74179  0.19200  0.53062  1.0000
  C   C2290     1.0  0.81408  0.99224  0.62035  1.0000
  H   H2736     1.0  0.84590  0.17841  0.58995  1.0000
  H   H2737     1.0  0.75322  0.38280  0.59825  1.0000
  H   H2738     1.0  0.94465  0.10606  0.63382  1.0000
  H   H2739     1.0  0.87984  0.35269  0.65845  1.0000
  N   N151      1.0  0.65960  0.16940  0.68772  1.0000
  H   H2740     1.0  0.79714  0.41685  0.55458  1.0000
  H   H2741     1.0  0.78187  0.37614  0.69402  1.0000
  H   H2742     1.0  0.80451  0.30737  0.53026  1.0000
  H   H2743     1.0  0.75781  0.12698  0.53765  1.0000
  H   H2744     1.0  0.94028  0.14456  0.53814  1.0000
  C   C2291     1.0  0.82672  0.31236  0.49720  1.0000
  H   H2745     1.0  0.77503  0.05387  0.59233  1.0000
  C   C2292     1.0  0.65872  0.25880  0.48889  1.0000
  C   C2293     1.0  0.70377  0.15321  0.65442  1.0000
  H   H2746     1.0  0.67962  0.18468  0.53013  1.0000
  H   H2747     1.0  0.68740  0.20387  0.54766  1.0000
  C   C2294     1.0  0.81978  0.01919  0.57383  1.0000
  C   C2295     1.0  0.74732  0.11920  0.51848  1.0000
  C   C2296     1.0  0.85350  0.38883  0.63565  1.0000
  H   H2748     1.0  0.84504  0.18096  0.61279  1.0000
  H   H2749     1.0  0.96373  0.22467  0.54340  1.0000
  C   C2297     1.0  0.85707  0.36196  0.62313  1.0000
  H   H2750     1.0  0.95429  0.13393  0.62931  1.0000
  C   C2298     1.0  0.74153  0.37045  0.58341  1.0000
  H   H2751     1.0  0.77228  0.02640  0.56023  1.0000
  C   C2299     1.0  0.98024  0.21579  0.51090  1.0000
  H   H2752     1.0  0.81108  0.99988  0.52361  1.0000
  H   H2753     1.0  0.82193  0.03134  0.57691  1.0000
  H   H2754     1.0  0.69170  0.27783  0.49580  1.0000
  C   C2300     1.0  0.95636  0.14605  0.55669  1.0000
  H   H2755     1.0  0.79706  0.39724  0.54619  1.0000
  H   H2756     1.0  0.88234  0.26840  0.53327  1.0000
  C   C2301     1.0  0.95987  0.14018  0.57447  1.0000
  C   C2302     1.0  0.98393  0.18432  0.52795  1.0000
  C   C2303     1.0  0.87182  0.35985  0.64815  1.0000
  H   H2757     1.0  0.95146  0.20921  0.64482  1.0000
  C   C2304     1.0  0.75141  0.37635  0.55048  1.0000
  C   C2305     1.0  0.93337  0.12756  0.56482  1.0000
  H   H2758     1.0  0.92809  0.11269  0.59209  1.0000
  H   H2759     1.0  0.84024  0.31287  0.48765  1.0000
  C   C2306     1.0  0.94991  0.12800  0.58815  1.0000
  H   H2760     1.0  0.84140  0.14064  0.63046  1.0000
  C   C2307     1.0  0.82907  0.15202  0.63040  1.0000
  H   H2761     1.0  0.75530  0.10528  0.52074  1.0000
  C   C2308     1.0  0.97246  0.21063  0.54382  1.0000
  N   N152      1.0  0.95397  0.12188  0.60687  1.0000
  H   H2762     1.0  0.75102  0.37405  0.53724  1.0000
  H   H2763     1.0  0.79863  0.29560  0.51620  1.0000
  H   H2764     1.0  0.75499  0.42539  0.57027  1.0000
  H   H2765     1.0  0.86026  0.26870  0.51559  1.0000
  C   C2309     1.0  0.77620  0.03704  0.56509  1.0000
  C   C2310     1.0  0.73558  0.12421  0.50613  1.0000
  S   S613      1.0  0.97820  0.17913  0.59827  1.0000
  H   H2766     1.0  0.65949  0.22471  0.48756  1.0000
  C   C2311     1.0  0.84432  0.99977  0.60963  1.0000
  H   H2767     1.0  0.75880  0.38846  0.69890  1.0000
  H   H2768     1.0  0.79903  0.39808  0.58403  1.0000
  H   H2769     1.0  0.83215  0.26612  0.51161  1.0000
  H   H2770     1.0  0.78703  0.35296  0.49505  1.0000
  H   H2771     1.0  0.92701  0.11729  0.62120  1.0000
  H   H2772     1.0  0.97654  0.10593  0.61966  1.0000
  H   H2773     1.0  0.98647  0.21178  0.54435  1.0000
  C   C2312     1.0  0.98494  0.21050  0.60458  1.0000
  H   H2774     1.0  0.80158  0.36791  0.71561  1.0000
  H   H2775     1.0  0.65776  0.24241  0.66177  1.0000
  H   H2776     1.0  0.97931  0.21222  0.49807  1.0000
  H   H2777     1.0  0.83383  0.08326  0.49563  1.0000
  H   H2778     1.0  0.97535  0.09944  0.59914  1.0000
  C   C2313     1.0  0.81409  0.00337  0.48753  1.0000
  C   C2314     1.0  0.83988  0.48523  0.70778  1.0000
  H   H2779     1.0  0.78020  0.40550  0.72694  1.0000
  H   H2780     1.0  0.98325  0.11994  0.59771  1.0000
  C   C2315     1.0  0.78917  0.36840  0.72688  1.0000
  H   H2781     1.0  0.86757  0.07479  0.48882  1.0000
  H   H2782     1.0  0.77144  0.13602  0.48754  1.0000
  S   S614      1.0  0.90783  0.16534  0.48238  1.0000
  C   C2316     1.0  0.65939  0.18448  0.69666  1.0000
  C   C2317     1.0  0.66070  0.15205  0.70181  1.0000
  H   H2783     1.0  0.79241  0.19838  0.48667  1.0000
  C   C2318     1.0  0.98551  0.17527  0.51348  1.0000
  H   H2784     1.0  0.80460  0.13671  0.48440  1.0000
  C   C2319     1.0  0.98954  0.21541  0.65546  1.0000
  H   H2785     1.0  0.82568  0.01073  0.48402  1.0000
  Fe  Fe308     1.0  0.80042  0.42833  0.73165  1.0000
  H   H2786     1.0  0.78611  0.35435  0.73088  1.0000
  C   C2320     1.0  0.82241  0.99008  0.51675  1.0000
  C   C2321     1.0  0.83423  0.99039  0.56407  1.0000
  S   S615      1.0  0.78303  0.29930  0.48221  1.0000
  C   C2322     1.0  0.81705  0.98656  0.56595  1.0000
  Fe  Fe309     1.0  0.91599  0.45265  0.82623  1.0000
  S   S616      1.0  0.93559  0.44766  0.80026  1.0000
  H   H2787     1.0  0.72216  0.48180  0.78790  1.0000
  Fe  Fe310     1.0  0.92089  0.41246  0.84302  1.0000
  S   S617      1.0  0.94128  0.40393  0.81835  1.0000
  S   S618      1.0  0.91382  0.39103  0.86822  1.0000
  Fe  Fe311     1.0  0.95360  0.42754  0.81822  1.0000
  Fe  Fe312     1.0  0.92165  0.42469  0.80241  1.0000
  S   S619      1.0  0.91651  0.42287  0.77537  1.0000
  S   S620      1.0  0.93504  0.43426  0.84423  1.0000
  S   S621      1.0  0.90029  0.43144  0.82701  1.0000
  S   S622      1.0  0.80927  0.44305  0.89195  1.0000
  S   S623      1.0  0.75890  0.45685  0.88886  1.0000
  Fe  Fe313     1.0  0.81427  0.41901  0.91486  1.0000
  S   S624      1.0  0.83157  0.39170  0.91043  1.0000
  Fe  Fe314     1.0  0.69537  0.41000  0.86672  1.0000
  S   S625      1.0  0.71293  0.42320  0.84155  1.0000
  S   S626      1.0  0.70655  0.40379  0.89252  1.0000
  Fe  Fe315     1.0  0.66751  0.40817  0.84528  1.0000
  S   S627      1.0  0.68314  0.42196  0.81844  1.0000
  C   C2323     1.0  0.79820  0.39210  0.88008  1.0000
  Fe  Fe316     1.0  0.70789  0.40307  0.82803  1.0000
  S   S628      1.0  0.73330  0.38785  0.81218  1.0000
  Fe  Fe317     1.0  0.68665  0.44095  0.83482  1.0000
  S   S629      1.0  0.68794  0.47104  0.82390  1.0000
  S   S630      1.0  0.69228  0.38809  0.85380  1.0000
  S   S631      1.0  0.66905  0.42889  0.86096  1.0000
  H   H2788     1.0  0.86921  0.43203  0.96686  1.0000
  C   C2324     1.0  0.73876  0.46297  0.95179  1.0000
  S   S632      1.0  0.84549  0.39794  0.77144  1.0000
  H   H2789     1.0  0.85647  0.38999  0.93450  1.0000
  H   H2790     1.0  0.83985  0.47589  0.95955  1.0000
  C   C2325     1.0  0.83697  0.48554  0.94714  1.0000
  C   C2326     1.0  0.81549  0.38965  0.86867  1.0000
  H   H2791     1.0  0.96682  0.46345  0.82030  1.0000
  C   C2327     1.0  0.85487  0.41041  0.96973  1.0000
  C   C2328     1.0  0.80211  0.38535  0.84516  1.0000
  H   H2792     1.0  0.66594  0.37115  0.83110  1.0000
  H   H2793     1.0  0.79322  0.37142  0.73854  1.0000
  H   H2794     1.0  0.87397  0.41272  0.74329  1.0000
  C   C2329     1.0  0.87014  0.41118  0.93258  1.0000
  C   C2330     1.0  0.81744  0.38633  0.85123  1.0000
  C   C2331     1.0  0.74339  0.40222  0.79271  1.0000
  C   C2332     1.0  0.73277  0.41786  0.78370  1.0000
  C   C2333     1.0  0.74100  0.42868  0.76758  1.0000
  C   C2334     1.0  0.75993  0.42427  0.76087  1.0000
  C   C2335     1.0  0.77060  0.40902  0.77033  1.0000
  C   C2336     1.0  0.76230  0.39782  0.78603  1.0000
  H   H2795     1.0  0.71813  0.42126  0.78877  1.0000
  H   H2796     1.0  0.73267  0.44043  0.76028  1.0000
  H   H2797     1.0  0.78524  0.40586  0.76568  1.0000
  H   H2798     1.0  0.77057  0.38579  0.79304  1.0000
  H   H2799     1.0  0.76537  0.44259  0.81024  1.0000
  C   C2337     1.0  0.83259  0.47949  0.93339  1.0000
  H   H2800     1.0  0.97747  0.41624  0.84893  1.0000
  C   C2338     1.0  0.78275  0.39114  0.87417  1.0000
  H   H2801     1.0  0.84180  0.45216  0.79001  1.0000
  C   C2339     1.0  0.85870  0.39885  0.94222  1.0000
  H   H2802     1.0  0.88023  0.45333  0.74934  1.0000
  C   C2340     1.0  0.74461  0.44183  0.88995  1.0000
  C   C2341     1.0  0.73169  0.44727  0.87863  1.0000
  C   C2342     1.0  0.71958  0.43592  0.87979  1.0000
  C   C2343     1.0  0.72052  0.41891  0.89204  1.0000
  C   C2344     1.0  0.73346  0.41346  0.90335  1.0000
  C   C2345     1.0  0.74556  0.42485  0.90223  1.0000
  H   H2803     1.0  0.73081  0.46042  0.86915  1.0000
  H   H2804     1.0  0.70930  0.44048  0.87139  1.0000
  H   H2805     1.0  0.73427  0.40030  0.91282  1.0000
  H   H2806     1.0  0.75549  0.42054  0.91098  1.0000
  Fe  Fe318     1.0  0.79040  0.43910  0.94445  1.0000
  H   H2807     1.0  0.75963  0.44035  0.78985  1.0000
  H   H2808     1.0  0.79684  0.39477  0.89362  1.0000
  H   H2809     1.0  0.83094  0.38453  0.84236  1.0000
  C   C2346     1.0  0.73840  0.44485  0.95215  1.0000
  H   H2810     1.0  0.83236  0.46518  0.93519  1.0000
  C   C2347     1.0  0.89766  0.41420  0.77469  1.0000
  C   C2348     1.0  0.89328  0.41600  0.75761  1.0000
  C   C2349     1.0  0.87740  0.41086  0.75652  1.0000
  C   C2350     1.0  0.86608  0.40333  0.77249  1.0000
  C   C2351     1.0  0.87078  0.40088  0.78958  1.0000
  C   C2352     1.0  0.88646  0.40648  0.79071  1.0000
  S   S633      1.0  0.82058  0.43871  0.74072  1.0000
  C   C2353     1.0  0.87888  0.46803  0.77902  1.0000
  H   H2811     1.0  0.86209  0.39502  0.80198  1.0000
  H   H2812     1.0  0.88981  0.40494  0.80393  1.0000
  C   C2354     1.0  0.89061  0.39197  0.87905  1.0000
  C   C2355     1.0  0.88538  0.37577  0.88985  1.0000
  C   C2356     1.0  0.86716  0.37585  0.89902  1.0000
  C   C2357     1.0  0.85408  0.39225  0.89793  1.0000
  C   C2358     1.0  0.85925  0.40863  0.88737  1.0000
  C   C2359     1.0  0.87750  0.40845  0.87772  1.0000
  H   H2813     1.0  0.89547  0.36304  0.89096  1.0000
  H   H2814     1.0  0.86328  0.36318  0.90716  1.0000
  H   H2815     1.0  0.84922  0.42138  0.88655  1.0000
  H   H2816     1.0  0.88151  0.42104  0.86953  1.0000
  C   C2360     1.0  0.78217  0.48430  0.76405  1.0000
  H   H2817     1.0  0.88517  0.45381  0.77862  1.0000
  C   C2361     1.0  0.73499  0.46834  0.81895  1.0000
  H   H2818     1.0  0.84639  0.36576  0.95393  1.0000
  C   C2362     1.0  0.86285  0.47682  0.77182  1.0000
  C   C2363     1.0  0.98705  0.46737  0.85727  1.0000
  H   H2819     1.0  0.80436  0.38299  0.83141  1.0000
  H   H2820     1.0  0.91851  0.46484  0.85944  1.0000
  C   C2364     1.0  0.73991  0.37419  0.76724  1.0000
  H   H2821     1.0  0.77757  0.40132  0.82192  1.0000
  H   H2822     1.0  0.75900  0.36821  0.83875  1.0000
  C   C2365     1.0  0.76576  0.40237  0.83372  1.0000
  H   H2823     1.0  0.84369  0.44142  0.77110  1.0000
  H   H2824     1.0  0.71288  0.40952  0.74377  1.0000
  H   H2825     1.0  0.90199  0.42181  0.74517  1.0000
  Fe  Fe319     1.0  0.81268  0.45935  0.91071  1.0000
  H   H2826     1.0  0.89965  0.47042  0.79200  1.0000
  S   S634      1.0  0.78296  0.46497  0.92399  1.0000
  H   H2827     1.0  0.98061  0.45519  0.86386  1.0000
  C   C2366     1.0  0.85048  0.39826  0.96110  1.0000
  H   H2828     1.0  0.75339  0.40280  0.82853  1.0000
  C   C2367     1.0  0.67795  0.47909  0.85863  1.0000
  H   H2829     1.0  0.71044  0.45194  0.92242  1.0000
  H   H2830     1.0  0.67422  0.46577  0.86351  1.0000
  N   N153      1.0  0.76825  0.38688  0.84954  1.0000
  C   C2368     1.0  0.95763  0.47718  0.81797  1.0000
  C   C2369     1.0  0.76948  0.47328  0.77366  1.0000
  C   C2370     1.0  0.78429  0.38756  0.85650  1.0000
  S   S635      1.0  0.78457  0.42105  0.92857  1.0000
  C   C2371     1.0  0.87384  0.42317  0.94139  1.0000
  C   C2372     1.0  0.77123  0.36934  0.84338  1.0000
  H   H2831     1.0  0.66387  0.33556  0.89445  1.0000
  H   H2832     1.0  0.73964  0.36565  0.78092  1.0000
  C   C2373     1.0  0.72448  0.38749  0.76366  1.0000
  C   C2374     1.0  0.72484  0.39897  0.74638  1.0000
  H   H2833     1.0  0.75165  0.37726  0.87589  1.0000
  C   C2375     1.0  0.83644  0.47693  0.75882  1.0000
  H   H2834     1.0  0.76979  0.39333  0.88369  1.0000
  H   H2835     1.0  0.86096  0.45382  0.74005  1.0000
  H   H2836     1.0  0.72795  0.42703  0.94171  1.0000
  H   H2837     1.0  0.74495  0.46704  0.82768  1.0000
  N   N154      1.0  0.74439  0.46465  0.80043  1.0000
  H   H2838     1.0  0.74428  0.43579  0.81100  1.0000
  H   H2839     1.0  0.95421  0.47942  0.78284  1.0000
  C   C2376     1.0  0.92025  0.47891  0.85530  1.0000
  H   H2840     1.0  0.81396  0.44666  0.96787  1.0000
  C   C2377     1.0  0.75764  0.47664  0.79045  1.0000
  H   H2841     1.0  0.86960  0.47437  0.73635  1.0000
  H   H2842     1.0  0.97948  0.46283  0.89419  1.0000
  H   H2843     1.0  0.74709  0.46564  0.95990  1.0000
  H   H2844     1.0  0.88275  0.43265  0.93384  1.0000
  Fe  Fe320     1.0  0.77996  0.44664  0.90688  1.0000
  H   H2845     1.0  0.73620  0.46451  0.77558  1.0000
  H   H2846     1.0  0.74635  0.43364  0.96050  1.0000
  H   H2847     1.0  0.71237  0.38917  0.77448  1.0000
  S   S636      1.0  0.77834  0.43677  0.97483  1.0000
  Fe  Fe321     1.0  0.83610  0.40958  0.74448  1.0000
  C   C2378     1.0  0.75583  0.37230  0.75361  1.0000
  C   C2379     1.0  0.75669  0.38381  0.73580  1.0000
  C   C2380     1.0  0.92984  0.48536  0.86473  1.0000
  H   H2848     1.0  0.79314  0.47555  0.86171  1.0000
  C   C2381     1.0  0.75389  0.44504  0.80302  1.0000
  H   H2849     1.0  0.78285  0.36795  0.83148  1.0000
  C   C2382     1.0  0.82062  0.39570  0.98068  1.0000
  C   C2383     1.0  0.85056  0.44929  0.77674  1.0000
  S   S637      1.0  0.77008  0.43833  0.74106  1.0000
  H   H2850     1.0  0.72578  0.45857  0.82645  1.0000
  H   H2851     1.0  0.74684  0.40188  0.86752  1.0000
  H   H2852     1.0  0.83022  0.46877  0.75288  1.0000
  S   S638      1.0  0.82055  0.43482  0.93247  1.0000
  H   H2853     1.0  0.95565  0.48319  0.83020  1.0000
  H   H2854     1.0  0.87317  0.46806  0.92386  1.0000
  H   H2855     1.0  0.66098  0.34555  0.81985  1.0000
  S   S639      1.0  0.90290  0.48221  0.82734  1.0000
  S   S640      1.0  0.98358  0.42956  0.80921  1.0000
  H   H2856     1.0  0.76405  0.41572  0.83775  1.0000
  H   H2857     1.0  0.68514  0.47498  0.92137  1.0000
  H   H2858     1.0  0.86332  0.43973  0.77983  1.0000
  H   H2859     1.0  0.76886  0.46226  0.76757  1.0000
  H   H2860     1.0  0.87617  0.41136  0.91815  1.0000
  C   C2384     1.0  0.75079  0.38835  0.86338  1.0000
  C   C2385     1.0  0.73017  0.46741  0.78956  1.0000
  H   H2861     1.0  0.73906  0.38724  0.85795  1.0000
  H   H2862     1.0  0.87261  0.46650  0.89231  1.0000
  C   C2386     1.0  0.71795  0.45558  0.93065  1.0000
  S   S641      1.0  0.81466  0.39880  0.73775  1.0000
  H   H2863     1.0  0.72016  0.45824  0.79633  1.0000
  H   H2864     1.0  0.77404  0.35732  0.85470  1.0000
  H   H2865     1.0  0.82741  0.39036  0.87337  1.0000
  C   C2387     1.0  0.87555  0.47859  0.89489  1.0000
  C   C2388     1.0  0.86677  0.46178  0.74667  1.0000
  C   C2389     1.0  0.86623  0.42278  0.95994  1.0000
  H   H2866     1.0  0.97594  0.46661  0.78705  1.0000
  C   C2390     1.0  0.87593  0.47948  0.91265  1.0000
  H   H2867     1.0  0.76734  0.36193  0.75753  1.0000
  C   C2391     1.0  0.72875  0.47753  0.94088  1.0000
  N   N155      1.0  0.85420  0.46650  0.76367  1.0000
  C   C2392     1.0  0.68509  0.48490  0.83997  1.0000
  C   C2393     1.0  0.72801  0.44116  0.94161  1.0000
  C   C2394     1.0  0.96751  0.48080  0.78508  1.0000
  H   H2868     1.0  0.93588  0.47610  0.87581  1.0000
  C   C2395     1.0  0.83390  0.37470  0.96039  1.0000
  H   H2869     1.0  0.82700  0.38401  0.94933  1.0000
  C   C2396     1.0  0.71791  0.47423  0.93002  1.0000
  C   C2397     1.0  0.88747  0.47749  0.78654  1.0000
  H   H2870     1.0  0.94419  0.47456  0.81755  1.0000
  H   H2871     1.0  0.72586  0.48220  0.81812  1.0000
  N   N156      1.0  0.83829  0.38538  0.97176  1.0000
  H   H2872     1.0  0.82440  0.36546  0.96864  1.0000
  C   C2398     1.0  0.98632  0.47445  0.88632  1.0000
  H   H2873     1.0  0.82635  0.48105  0.77098  1.0000
  H   H2874     1.0  0.81412  0.40677  0.97037  1.0000
  H   H2875     1.0  0.71127  0.47480  0.89637  1.0000
  H   H2876     1.0  0.97559  0.47924  0.85472  1.0000
  H   H2877     1.0  0.76916  0.48055  0.97211  1.0000
  H   H2878     1.0  0.79103  0.48130  0.75129  1.0000
  H   H2879     1.0  0.78471  0.48186  0.88323  1.0000
  H   H2880     1.0  0.86082  0.36447  0.98005  1.0000
  C   C2399     1.0  0.77641  0.48399  0.98076  1.0000
  S   S642      1.0  0.82582  0.48386  0.89912  1.0000
  C   C2400     1.0  0.74065  0.39717  0.73260  1.0000
  Fe  Fe322     1.0  0.80530  0.54061  0.14045  1.0000
  S   S643      1.0  0.83395  0.53813  0.12441  1.0000
  S   S644      1.0  0.79345  0.51523  0.14932  1.0000
  Fe  Fe323     1.0  0.80250  0.57980  0.14208  1.0000
  S   S645      1.0  0.83105  0.58095  0.12565  1.0000
  S   S646      1.0  0.78472  0.60220  0.15629  1.0000
  Fe  Fe324     1.0  0.82396  0.56567  0.10772  1.0000
  S   S647      1.0  0.83585  0.56914  0.07713  1.0000
  Fe  Fe325     1.0  0.83861  0.55332  0.14347  1.0000
  S   S648      1.0  0.86375  0.54206  0.15587  1.0000
  S   S649      1.0  0.79455  0.56723  0.12253  1.0000
  S   S650      1.0  0.81072  0.55319  0.16117  1.0000
  Fe  Fe326     1.0  0.90372  0.57142  0.22083  1.0000
  H   H2881     1.0  0.78956  0.61490  0.21054  1.0000
  S   S651      1.0  0.88348  0.58805  0.20310  1.0000
  H   H2882     1.0  0.89733  0.51549  0.12979  1.0000
  H   H2883     1.0  0.91551  0.61595  0.14847  1.0000
  C   C2401     1.0  0.79356  0.60403  0.20225  1.0000
  H   H2884     1.0  0.88774  0.51663  0.20966  1.0000
  C   C2402     1.0  0.80123  0.61083  0.04009  1.0000
  C   C2403     1.0  0.92587  0.57779  0.16163  1.0000
  H   H2885     1.0  0.83316  0.56143  0.01680  1.0000
  S   S652      1.0  0.93119  0.55588  0.20921  1.0000
  C   C2404     1.0  0.74626  0.53564  0.98401  1.0000
  H   H2886     1.0  0.81922  0.51773  0.99628  1.0000
  C   C2405     1.0  0.85874  0.58844  0.99763  1.0000
  S   S653      1.0  0.70963  0.57927  0.19887  1.0000
  H   H2887     1.0  0.95933  0.61149  0.16431  1.0000
  H   H2888     1.0  0.87100  0.52682  0.09398  1.0000
  H   H2889     1.0  0.97382  0.54972  0.16945  1.0000
  C   C2406     1.0  0.67924  0.63079  0.20044  1.0000
  C   C2407     1.0  0.80643  0.56380  0.03432  1.0000
  C   C2408     1.0  0.83429  0.56346  0.04394  1.0000
  C   C2409     1.0  0.96055  0.55768  0.16692  1.0000
  H   H2890     1.0  0.97118  0.53967  0.21330  1.0000
  C   C2410     1.0  0.66586  0.66206  0.18728  1.0000
  H   H2891     1.0  0.83392  0.50108  0.08174  1.0000
  H   H2892     1.0  0.78175  0.52264  0.18724  1.0000
  H   H2893     1.0  0.84847  0.63514  0.98930  1.0000
  C   C2411     1.0  0.98272  0.52975  0.20789  1.0000
  Fe  Fe327     1.0  0.94212  0.56679  0.22778  1.0000
  H   H2894     1.0  0.87768  0.52876  0.12101  1.0000
  H   H2895     1.0  0.84889  0.56293  0.04072  1.0000
  H   H2896     1.0  0.84831  0.58646  0.99103  1.0000
  H   H2897     1.0  0.75750  0.49033  0.16681  1.0000
  C   C2412     1.0  0.93094  0.49878  0.21144  1.0000
  N   N157      1.0  0.93207  0.60585  0.16917  1.0000
  H   H2898     1.0  0.75464  0.51969  0.14593  1.0000
  C   C2413     1.0  0.81984  0.60835  0.00998  1.0000
  C   C2414     1.0  0.92459  0.50876  0.18066  1.0000
  C   C2415     1.0  0.92669  0.51294  0.19665  1.0000
  C   C2416     1.0  0.92946  0.60575  0.18895  1.0000
  H   H2899     1.0  0.86643  0.62160  0.01481  1.0000
  H   H2900     1.0  0.92056  0.51964  0.16951  1.0000
  H   H2901     1.0  0.92435  0.52706  0.19774  1.0000
  H   H2902     1.0  0.81721  0.51688  0.01978  1.0000
  H   H2903     1.0  0.73398  0.49101  0.12978  1.0000
  H   H2904     1.0  0.84534  0.60915  0.04029  1.0000
  H   H2905     1.0  0.90277  0.60983  0.17165  1.0000
  H   H2906     1.0  0.85840  0.50937  0.14528  1.0000
  H   H2907     1.0  0.96436  0.58127  0.17397  1.0000
  C   C2417     1.0  0.79048  0.49033  0.13118  1.0000
  H   H2908     1.0  0.87201  0.58668  0.98757  1.0000
  H   H2909     1.0  0.80748  0.60485  0.19373  1.0000
  C   C2418     1.0  0.76383  0.59588  0.16817  1.0000
  C   C2419     1.0  0.75950  0.58009  0.16589  1.0000
  C   C2420     1.0  0.74278  0.57510  0.17530  1.0000
  C   C2421     1.0  0.73062  0.58552  0.18753  1.0000
  C   C2422     1.0  0.73514  0.60103  0.19025  1.0000
  C   C2423     1.0  0.75158  0.60640  0.18030  1.0000
  H   H2910     1.0  0.76889  0.57184  0.15666  1.0000
  H   H2911     1.0  0.73932  0.56311  0.17318  1.0000
  H   H2912     1.0  0.72570  0.60918  0.19959  1.0000
  H   H2913     1.0  0.75478  0.61873  0.18197  1.0000
  C   C2424     1.0  0.86887  0.55539  0.16867  1.0000
  C   C2425     1.0  0.85917  0.57333  0.16949  1.0000
  C   C2426     1.0  0.86384  0.58345  0.17991  1.0000
  C   C2427     1.0  0.87792  0.57550  0.18980  1.0000
  C   C2428     1.0  0.88745  0.55756  0.18904  1.0000
  C   C2429     1.0  0.88305  0.54764  0.17834  1.0000
  H   H2914     1.0  0.84824  0.57945  0.16196  1.0000
  H   H2915     1.0  0.85646  0.59739  0.18041  1.0000
  H   H2916     1.0  0.89827  0.55137  0.19665  1.0000
  H   H2917     1.0  0.89040  0.53377  0.17774  1.0000
  C   C2430     1.0  0.82435  0.56543  0.06158  1.0000
  C   C2431     1.0  0.80550  0.56571  0.06585  1.0000
  C   C2432     1.0  0.79657  0.56495  0.05222  1.0000
  H   H2918     1.0  0.79771  0.56712  0.07944  1.0000
  H   H2919     1.0  0.78191  0.56568  0.05548  1.0000
  C   C2433     1.0  0.75263  0.52699  0.00013  1.0000
  C   C2434     1.0  0.79466  0.52012  0.11256  1.0000
  C   C2435     1.0  0.79318  0.50801  0.12964  1.0000
  C   C2436     1.0  0.82540  0.56261  0.03039  1.0000
  H   H2920     1.0  0.79687  0.53376  0.11123  1.0000
  S   S654      1.0  0.79464  0.56492  0.01689  1.0000
  C   C2437     1.0  0.79895  0.49917  0.98410  1.0000
  C   C2438     1.0  0.73320  0.59486  0.99772  1.0000
  H   H2921     1.0  0.68974  0.61841  0.19942  1.0000
  C   C2439     1.0  0.85295  0.62121  0.98595  1.0000
  C   C2440     1.0  0.93765  0.58664  0.16641  1.0000
  H   H2922     1.0  0.71981  0.59035  0.00194  1.0000
  H   H2923     1.0  0.73601  0.52794  0.13359  1.0000
  C   C2441     1.0  0.77343  0.58533  0.22340  1.0000
  H   H2924     1.0  0.92216  0.55307  0.15593  1.0000
  C   C2442     1.0  0.72140  0.52728  0.17111  1.0000
  H   H2925     1.0  0.95290  0.53531  0.16051  1.0000
  H   H2926     1.0  0.79972  0.55751  0.21080  1.0000
  H   H2927     1.0  0.79418  0.52409  0.08389  1.0000
  H   H2928     1.0  0.73037  0.53623  0.16241  1.0000
  H   H2929     1.0  0.76452  0.58735  0.21338  1.0000
  C   C2443     1.0  0.86829  0.49997  0.11221  1.0000
  H   H2930     1.0  0.87909  0.49768  0.15330  1.0000
  H   H2931     1.0  0.91867  0.59802  0.19721  1.0000
  N   N158      1.0  0.80857  0.49437  0.01425  1.0000
  H   H2932     1.0  0.94220  0.59916  0.19435  1.0000
  C   C2444     1.0  0.79303  0.51468  0.09709  1.0000
  C   C2445     1.0  0.91468  0.61591  0.16314  1.0000
  C   C2446     1.0  0.72483  0.49577  0.14216  1.0000
  C   C2447     1.0  0.93148  0.55955  0.15939  1.0000
  N   N159      1.0  0.85394  0.60663  0.00282  1.0000
  H   H2933     1.0  0.76734  0.59657  0.23120  1.0000
  H   H2934     1.0  0.78881  0.57361  0.19331  1.0000
  C   C2448     1.0  0.80277  0.60956  0.02200  1.0000
  H   H2935     1.0  0.76188  0.53062  0.02287  1.0000
  C   C2449     1.0  0.66547  0.63137  0.21614  1.0000
  H   H2936     1.0  0.73929  0.59152  0.01012  1.0000
  C   C2450     1.0  0.72215  0.50954  0.16813  1.0000
  H   H2937     1.0  0.78709  0.49688  0.03832  1.0000
  H   H2938     1.0  0.70806  0.54789  0.18734  1.0000
  H   H2939     1.0  0.75439  0.50958  0.12764  1.0000
  C   C2451     1.0  0.70865  0.53418  0.18552  1.0000
  S   S655      1.0  0.96864  0.57674  0.21479  1.0000
  H   H2940     1.0  0.96588  0.49452  0.18904  1.0000
  S   S656      1.0  0.78903  0.48999  0.07917  1.0000
  C   C2452     1.0  0.70992  0.49898  0.18092  1.0000
  H   H2941     1.0  0.78813  0.61107  0.04959  1.0000
  H   H2942     1.0  0.75828  0.56381  0.01288  1.0000
  H   H2943     1.0  0.68657  0.52924  0.20850  1.0000
  C   C2453     1.0  0.75456  0.55644  0.00457  1.0000
  C   C2454     1.0  0.94653  0.61638  0.15876  1.0000
  C   C2455     1.0  0.79033  0.49699  0.09864  1.0000
  H   H2944     1.0  0.75281  0.51983  0.20884  1.0000
  C   C2456     1.0  0.83595  0.60842  0.01574  1.0000
  H   H2945     1.0  0.79684  0.52342  0.01051  1.0000
  N   N160      1.0  0.88058  0.49946  0.12447  1.0000
  H   H2946     1.0  0.89739  0.51787  0.10599  1.0000
  C   C2457     1.0  0.81044  0.51391  0.00996  1.0000
  C   C2458     1.0  0.72873  0.49541  0.22383  1.0000
  C   C2459     1.0  0.79869  0.57171  0.20237  1.0000
  C   C2460     1.0  0.87029  0.49769  0.14378  1.0000
  N   N161      1.0  0.73503  0.50197  0.15269  1.0000
  C   C2461     1.0  0.80533  0.58189  0.22714  1.0000
  C   C2462     1.0  0.69722  0.50606  0.19525  1.0000
  H   H2947     1.0  0.82040  0.60674  0.99628  1.0000
  C   C2463     1.0  0.75682  0.53736  0.01037  1.0000
  C   C2464     1.0  0.76386  0.50788  0.20914  1.0000
  H   H2948     1.0  0.80977  0.49299  0.04237  1.0000
  H   H2949     1.0  0.77005  0.58708  0.99085  1.0000
  C   C2465     1.0  0.82460  0.57964  0.22058  1.0000
  H   H2950     1.0  0.81562  0.61107  0.06054  1.0000
  H   H2951     1.0  0.69021  0.64549  0.17385  1.0000
  C   C2466     1.0  0.84355  0.50073  0.09003  1.0000
  C   C2467     1.0  0.83389  0.60969  0.03432  1.0000
  H   H2952     1.0  0.65999  0.94794  0.23163  1.0000
  H   H2953     1.0  0.75433  0.51223  0.00469  1.0000
  H   H2954     1.0  0.87155  0.59684  0.02260  1.0000
  H   H2955     1.0  0.85170  0.50488  0.20862  1.0000
  C   C2468     1.0  0.95507  0.57590  0.16925  1.0000
  H   H2956     1.0  0.91119  0.63049  0.16470  1.0000
  C   C2469     1.0  0.74539  0.51544  0.13947  1.0000
  H   H2957     1.0  0.96616  0.51064  0.21034  1.0000
  C   C2470     1.0  0.79536  0.49500  0.19676  1.0000
  H   H2958     1.0  0.92520  0.61989  0.19180  1.0000
  H   H2959     1.0  0.95011  0.61537  0.14403  1.0000
  H   H2960     1.0  0.79081  0.60873  0.01749  1.0000
  C   C2471     1.0  0.78045  0.50974  0.19688  1.0000
  H   H2961     1.0  0.87529  0.49378  0.20274  1.0000
  H   H2962     1.0  0.81207  0.57269  0.19278  1.0000
  C   C2472     1.0  0.86335  0.49534  0.21440  1.0000
  C   C2473     1.0  0.81674  0.61092  0.04622  1.0000
  H   H2963     1.0  0.91209  0.58449  0.15991  1.0000
  H   H2964     1.0  0.94213  0.63121  0.15943  1.0000
  H   H2965     1.0  0.66537  0.61948  0.22738  1.0000
  H   H2966     1.0  0.66687  0.67336  0.17562  1.0000
  C   C2474     1.0  0.86919  0.60818  0.01055  1.0000
  C   C2475     1.0  0.69650  0.52368  0.19747  1.0000
  C   C2476     1.0  0.92651  0.49046  0.17961  1.0000
  H   H2967     1.0  0.78414  0.60763  0.19245  1.0000
  C   C2477     1.0  0.94878  0.54953  0.16198  1.0000
  N   N162      1.0  0.74542  0.58605  0.98268  1.0000
  H   H2968     1.0  0.68780  0.49784  0.20464  1.0000
  C   C2478     1.0  0.79676  0.49143  0.00318  1.0000
  H   H2969     1.0  0.85994  0.57707  0.00981  1.0000
  H   H2970     1.0  0.83054  0.58027  0.20617  1.0000
  N   N163      1.0  0.79287  0.58560  0.21416  1.0000
  C   C2479     1.0  0.88859  0.51615  0.11998  1.0000
  H   H2971     1.0  0.98550  0.49226  0.17079  1.0000
  H   H2972     1.0  0.71366  0.50706  0.13750  1.0000
  H   H2973     1.0  0.73035  0.61014  0.99352  1.0000
  C   C2480     1.0  0.67944  0.64608  0.18604  1.0000
  C   C2481     1.0  0.74779  0.56578  0.98839  1.0000
  H   H2974     1.0  0.72644  0.51035  0.21773  1.0000
  C   C2482     1.0  0.86485  0.51491  0.09730  1.0000
  C   C2483     1.0  0.80145  0.48945  0.03433  1.0000
  C   C2484     1.0  0.98332  0.57455  0.22982  1.0000
  C   C2485     1.0  0.98001  0.51299  0.20622  1.0000
  H   H2975     1.0  0.80813  0.49648  0.18704  1.0000
  N   N164      1.0  0.86764  0.50227  0.22881  1.0000
  H   H2976     1.0  0.84948  0.52716  0.07577  1.0000
  C   C2486     1.0  0.85245  0.51531  0.08660  1.0000
  Fe  Fe328     1.0  0.81062  0.56503  0.98774  1.0000
  Fe  Fe329     1.0  0.70432  0.57835  0.22901  1.0000
  H   H2977     1.0  0.89560  0.48690  0.22588  1.0000
  H   H2978     1.0  0.88240  0.60721  0.00034  1.0000
  H   H2979     1.0  0.85120  0.57609  0.22691  1.0000
  H   H2980     1.0  0.86491  0.52971  0.21208  1.0000
  C   C2487     1.0  0.87471  0.51936  0.21985  1.0000
  H   H2981     1.0  0.87779  0.52554  0.23004  1.0000
  C   C2488     1.0  0.76160  0.49098  0.22151  1.0000
  H   H2982     1.0  0.73154  0.48777  0.21257  1.0000
  Fe  Fe330     1.0  0.92053  0.81659  0.46767  1.0000
  C   C2489     1.0  0.98949  0.80421  0.45378  1.0000
  Fe  Fe331     1.0  0.89917  0.79094  0.46156  1.0000
  H   H2983     1.0  0.73921  0.81557  0.44604  1.0000
  S   S657      1.0  0.89780  0.77591  0.44052  1.0000
  H   H2984     1.0  0.88185  0.52199  0.28923  1.0000
  H   H2985     1.0  0.80596  0.51105  0.28121  1.0000
  H   H2986     1.0  0.88605  0.49310  0.24772  1.0000
  S   S658      1.0  0.76006  0.97306  0.45276  1.0000
  S   S659      1.0  0.89363  0.82154  0.45894  1.0000
  H   H2987     1.0  0.83118  0.51320  0.33404  1.0000
  Fe  Fe332     1.0  0.78980  0.90438  0.45580  1.0000
  S   S660      1.0  0.76567  0.92177  0.44359  1.0000
  S   S661      1.0  0.81370  0.88529  0.44231  1.0000
  H   H2988     1.0  0.84780  0.55578  0.31165  1.0000
  C   C2490     1.0  0.79436  0.98152  0.43833  1.0000
  C   C2491     1.0  0.73674  0.53052  0.29582  1.0000
  H   H2989     1.0  0.97706  0.86157  0.47664  1.0000
  S   S662      1.0  0.93863  0.54277  0.25120  1.0000
  Fe  Fe333     1.0  0.76737  0.94201  0.45962  1.0000
  H   H2990     1.0  0.85418  0.86386  0.41702  1.0000
  C   C2492     1.0  0.73052  0.73994  0.47901  1.0000
  Fe  Fe334     1.0  0.67216  0.80689  0.47618  1.0000
  S   S663      1.0  0.69669  0.57063  0.28158  1.0000
  C   C2493     1.0  0.98892  0.56904  0.26062  1.0000
  H   H2991     1.0  0.88640  0.59397  0.26780  1.0000
  Fe  Fe335     1.0  0.81537  0.61808  0.33159  1.0000
  S   S664      1.0  0.78943  0.63890  0.33661  1.0000
  S   S665      1.0  0.83875  0.62710  0.30995  1.0000
  Fe  Fe336     1.0  0.79913  0.58726  0.35833  1.0000
  S   S666      1.0  0.77208  0.60596  0.36616  1.0000
  S   S667      1.0  0.80304  0.55664  0.36988  1.0000
  Fe  Fe337     1.0  0.77526  0.61703  0.33579  1.0000
  S   S668      1.0  0.75058  0.62386  0.32248  1.0000
  Fe  Fe338     1.0  0.78880  0.62612  0.36645  1.0000
  S   S669      1.0  0.77952  0.64708  0.38505  1.0000
  S   S670      1.0  0.80151  0.59744  0.32794  1.0000
  S   S671      1.0  0.81577  0.60632  0.36142  1.0000
  Fe  Fe339     1.0  0.81971  0.72853  0.44997  1.0000
  H   H2992     1.0  0.74859  0.65146  0.46049  1.0000
  S   S672      1.0  0.82301  0.75771  0.43795  1.0000
  Fe  Fe340     1.0  0.82025  0.68937  0.44730  1.0000
  H   H2993     1.0  0.66479  0.86132  0.39932  1.0000
  S   S673      1.0  0.82797  0.66697  0.43052  1.0000
  Fe  Fe341     1.0  0.78987  0.70884  0.47351  1.0000
  C   C2494     1.0  0.79884  0.58168  0.24624  1.0000
  C   C2495     1.0  0.74783  0.78674  0.43261  1.0000
  C   C2496     1.0  0.86549  0.85225  0.41568  1.0000
  S   S674      1.0  0.79966  0.71589  0.44298  1.0000
  S   S675      1.0  0.84148  0.70278  0.45146  1.0000
  Fe  Fe342     1.0  0.69178  0.82906  0.44157  1.0000
  S   S676      1.0  0.70133  0.80315  0.46080  1.0000
  S   S677      1.0  0.71001  0.84953  0.42772  1.0000
  H   H2994     1.0  0.67221  0.53256  0.24883  1.0000
  H   H2995     1.0  0.87279  0.80846  0.40933  1.0000
  H   H2996     1.0  0.84516  0.53525  0.23806  1.0000
  C   C2497     1.0  0.71936  0.75148  0.46701  1.0000
  C   C2498     1.0  0.87218  0.57695  0.31321  1.0000
  Fe  Fe343     1.0  0.69181  0.78919  0.44375  1.0000
  S   S678      1.0  0.71008  0.76469  0.43313  1.0000
  C   C2499     1.0  0.67520  0.48799  0.24655  1.0000
  S   S679      1.0  0.68457  0.81484  0.42307  1.0000
  H   H2997     1.0  0.73397  0.49650  0.31185  1.0000
  H   H2998     1.0  0.91598  0.86505  0.41204  1.0000
  H   H2999     1.0  0.83116  0.97009  0.48003  1.0000
  C   C2500     1.0  0.72342  0.75012  0.44856  1.0000
  C   C2501     1.0  0.73864  0.73727  0.44212  1.0000
  C   C2502     1.0  0.74995  0.72599  0.45402  1.0000
  C   C2503     1.0  0.84096  0.52275  0.24618  1.0000
  Fe  Fe344     1.0  0.92544  0.53336  0.23341  1.0000
  H   H3000     1.0  0.74176  0.73619  0.42785  1.0000
  H   H3001     1.0  0.76161  0.71612  0.44891  1.0000
  C   C2504     1.0  0.73123  0.56622  0.33242  1.0000
  H   H3002     1.0  0.74252  0.56671  0.35513  1.0000
  C   C2505     1.0  0.82777  0.49193  0.26819  1.0000
  H   H3003     1.0  0.72774  0.58108  0.32846  1.0000
  H   H3004     1.0  0.82050  0.54934  0.30786  1.0000
  C   C2506     1.0  0.79350  0.65266  0.39712  1.0000
  C   C2507     1.0  0.78737  0.66879  0.40426  1.0000
  C   C2508     1.0  0.79788  0.67354  0.41426  1.0000
  C   C2509     1.0  0.81449  0.66200  0.41751  1.0000
  C   C2510     1.0  0.82067  0.64594  0.41025  1.0000
  C   C2511     1.0  0.81027  0.64130  0.40006  1.0000
  H   H3005     1.0  0.77447  0.67774  0.40193  1.0000
  H   H3006     1.0  0.79318  0.68616  0.41937  1.0000
  H   H3007     1.0  0.83358  0.63700  0.41258  1.0000
  H   H3008     1.0  0.81508  0.62877  0.39479  1.0000
  C   C2512     1.0  0.74869  0.58760  0.28421  1.0000
  C   C2513     1.0  0.73408  0.60216  0.28789  1.0000
  C   C2514     1.0  0.73480  0.61324  0.29962  1.0000
  C   C2515     1.0  0.75002  0.60970  0.30785  1.0000
  C   C2516     1.0  0.76443  0.59491  0.30436  1.0000
  C   C2517     1.0  0.76380  0.58397  0.29253  1.0000
  H   H3009     1.0  0.72234  0.60504  0.28153  1.0000
  H   H3010     1.0  0.72355  0.62460  0.30227  1.0000
  H   H3011     1.0  0.77607  0.59186  0.31076  1.0000
  H   H3012     1.0  0.77497  0.57255  0.28995  1.0000
  H   H3013     1.0  0.85073  0.59140  0.33162  1.0000
  Fe  Fe345     1.0  0.72194  0.57621  0.26090  1.0000
  Fe  Fe346     1.0  0.69523  0.55143  0.26452  1.0000
  S   S680      1.0  0.89694  0.54788  0.24366  1.0000
  H   H3014     1.0  0.98394  0.56622  0.27534  1.0000
  H   H3015     1.0  0.86913  0.88867  0.40417  1.0000
  H   H3016     1.0  0.90732  0.87963  0.42831  1.0000
  C   C2518     1.0  0.78488  0.80095  0.44750  1.0000
  C   C2519     1.0  0.65898  0.88504  0.43308  1.0000
  C   C2520     1.0  0.78692  0.81553  0.45410  1.0000
  C   C2521     1.0  0.87883  0.59343  0.28174  1.0000
  H   H3017     1.0  0.76029  0.76732  0.46297  1.0000
  C   C2522     1.0  0.82976  0.57732  0.25095  1.0000
  C   C2523     1.0  0.72782  0.55526  0.32218  1.0000
  S   S681      1.0  0.91495  0.58441  0.23758  1.0000
  H   H3018     1.0  0.89787  0.49444  0.27774  1.0000
  C   C2524     1.0  0.78875  0.52346  0.33564  1.0000
  C   C2525     1.0  0.78523  0.54268  0.33102  1.0000
  C   C2526     1.0  0.78862  0.55287  0.34207  1.0000
  C   C2527     1.0  0.79621  0.54396  0.35750  1.0000
  C   C2528     1.0  0.79920  0.52468  0.36251  1.0000
  C   C2529     1.0  0.82857  0.53710  0.30208  1.0000
  H   H3019     1.0  0.77965  0.54975  0.31893  1.0000
  H   H3020     1.0  0.78530  0.56764  0.33862  1.0000
  C   C2530     1.0  0.97448  0.84182  0.44829  1.0000
  C   C2531     1.0  0.97037  0.81036  0.45624  1.0000
  C   C2532     1.0  0.72047  0.88320  0.46376  1.0000
  C   C2533     1.0  0.72974  0.88451  0.44546  1.0000
  C   C2534     1.0  0.72647  0.87407  0.43448  1.0000
  C   C2535     1.0  0.71417  0.86209  0.44186  1.0000
  C   C2536     1.0  0.70534  0.86035  0.46031  1.0000
  C   C2537     1.0  0.77149  0.67394  0.45833  1.0000
  H   H3021     1.0  0.73907  0.89390  0.43965  1.0000
  H   H3022     1.0  0.73345  0.87532  0.42025  1.0000
  N   N165      1.0  0.66096  0.88309  0.41394  1.0000
  H   H3023     1.0  0.96154  0.80051  0.46009  1.0000
  C   C2538     1.0  0.78418  0.64239  0.45677  1.0000
  H   H3024     1.0  0.70242  0.52257  0.33285  1.0000
  C   C2539     1.0  0.83657  0.57732  0.23236  1.0000
  C   C2540     1.0  0.87680  0.77060  0.44094  1.0000
  C   C2541     1.0  0.86007  0.78091  0.44845  1.0000
  C   C2542     1.0  0.84350  0.77684  0.44765  1.0000
  C   C2543     1.0  0.84368  0.76207  0.43994  1.0000
  C   C2544     1.0  0.86042  0.75146  0.43296  1.0000
  C   C2545     1.0  0.87693  0.75592  0.43317  1.0000
  H   H3025     1.0  0.85991  0.79234  0.45435  1.0000
  H   H3026     1.0  0.83057  0.78514  0.45297  1.0000
  H   H3027     1.0  0.86063  0.74019  0.42680  1.0000
  H   H3028     1.0  0.88985  0.74800  0.42725  1.0000
  H   H3029     1.0  0.86031  0.54896  0.29067  1.0000
  H   H3030     1.0  0.78420  0.76432  0.45248  1.0000
  C   C2546     1.0  0.67139  0.89252  0.43857  1.0000
  C   C2547     1.0  0.82508  0.87060  0.45931  1.0000
  C   C2548     1.0  0.83458  0.85294  0.45701  1.0000
  C   C2549     1.0  0.84434  0.84143  0.47021  1.0000
  H   H3031     1.0  0.71533  0.49310  0.23277  1.0000
  S   S682      1.0  0.66314  0.79078  0.46050  1.0000
  H   H3032     1.0  0.83420  0.84808  0.44513  1.0000
  H   H3033     1.0  0.85153  0.82774  0.46842  1.0000
  S   S683      1.0  0.80809  0.72368  0.48013  1.0000
  H   H3034     1.0  0.86853  0.53886  0.31176  1.0000
  S   S684      1.0  0.69445  0.52154  0.27685  1.0000
  H   H3035     1.0  0.73718  0.78596  0.44545  1.0000
  H   H3036     1.0  0.80488  0.51768  0.37456  1.0000
  C   C2550     1.0  0.86573  0.60881  0.28642  1.0000
  C   C2551     1.0  0.85546  0.60804  0.30435  1.0000
  H   H3037     1.0  0.86331  0.62117  0.27605  1.0000
  H   H3038     1.0  0.72142  0.56225  0.31060  1.0000
  N   N166      1.0  0.76626  0.78494  0.43642  1.0000
  C   C2552     1.0  0.77970  0.78404  0.41884  1.0000
  N   N167      1.0  0.88652  0.86943  0.42164  1.0000
  H   H3039     1.0  0.79686  0.79028  0.44495  1.0000
  C   C2553     1.0  0.76781  0.80025  0.44403  1.0000
  H   H3040     1.0  0.73489  0.52165  0.28728  1.0000
  C   C2554     1.0  0.75278  0.81481  0.44814  1.0000
  C   C2555     1.0  0.85097  0.50501  0.24337  1.0000
  C   C2556     1.0  0.88369  0.49536  0.28505  1.0000
  H   H3041     1.0  0.70523  0.51806  0.31039  1.0000
  C   C2557     1.0  0.81093  0.57946  0.25788  1.0000
  H   H3042     1.0  0.96873  0.85641  0.44582  1.0000
  H   H3043     1.0  0.72742  0.49996  0.25795  1.0000
  C   C2558     1.0  0.67722  0.88946  0.40120  1.0000
  H   H3044     1.0  0.73305  0.69702  0.39632  1.0000
  C   C2559     1.0  0.75495  0.82921  0.45494  1.0000
  C   C2560     1.0  0.81838  0.50943  0.27072  1.0000
  H   H3045     1.0  0.76677  0.67609  0.44526  1.0000
  S   S685      1.0  0.89796  0.55782  0.28957  1.0000
  C   C2561     1.0  0.70841  0.87099  0.47119  1.0000
  H   H3046     1.0  0.73007  0.54464  0.29004  1.0000
  C   C2562     1.0  0.97705  0.57073  0.24884  1.0000
  N   N168      1.0  0.77206  0.65479  0.46891  1.0000
  H   H3047     1.0  0.80559  0.57988  0.27229  1.0000
  H   H3048     1.0  0.74728  0.77540  0.42630  1.0000
  H   H3049     1.0  0.76926  0.75544  0.44429  1.0000
  C   C2563     1.0  0.67623  0.51772  0.25176  1.0000
  H   H3050     1.0  0.87646  0.88524  0.44310  1.0000
  C   C2564     1.0  0.77019  0.76729  0.44961  1.0000
  C   C2565     1.0  0.85576  0.51270  0.30166  1.0000
  H   H3051     1.0  0.91134  0.83629  0.41562  1.0000
  H   H3052     1.0  0.67847  0.88761  0.38701  1.0000
  C   C2566     1.0  0.86181  0.83642  0.41273  1.0000
  H   H3053     1.0  0.80046  0.97633  0.47833  1.0000
  C   C2567     1.0  0.88211  0.57749  0.29514  1.0000
  S   S686      1.0  0.79273  0.92556  0.46985  1.0000
  Fe  Fe347     1.0  0.82836  0.69704  0.48144  1.0000
  S   S687      1.0  0.92717  0.78640  0.46776  1.0000
  H   H3054     1.0  0.75167  0.53035  0.29363  1.0000
  H   H3055     1.0  0.87481  0.56472  0.32367  1.0000
  H   H3056     1.0  0.85268  0.51676  0.33593  1.0000
  C   C2568     1.0  0.89348  0.82139  0.41187  1.0000
  N   N169      1.0  0.72892  0.52447  0.31559  1.0000
  H   H3057     1.0  0.81918  0.52734  0.30543  1.0000
  S   S688      1.0  0.93171  0.50347  0.23232  1.0000
  C   C2569     1.0  0.85858  0.59205  0.31773  1.0000
  S   S689      1.0  0.93888  0.83736  0.45538  1.0000
  C   C2570     1.0  0.90538  0.86726  0.42459  1.0000
  C   C2571     1.0  0.87352  0.87378  0.43863  1.0000
  N   N170      1.0  0.84749  0.65172  0.34811  1.0000
  C   C2572     1.0  0.85895  0.65704  0.32970  1.0000
  C   C2573     1.0  0.85208  0.63143  0.35419  1.0000
  C   C2574     1.0  0.82801  0.65676  0.34616  1.0000
  C   C2575     1.0  0.85128  0.66072  0.36125  1.0000
  C   C2576     1.0  0.83775  0.67375  0.37026  1.0000
  C   C2577     1.0  0.86911  0.65669  0.36521  1.0000
  C   C2578     1.0  0.84190  0.68198  0.38256  1.0000
  C   C2579     1.0  0.87300  0.66481  0.37774  1.0000
  C   C2580     1.0  0.85938  0.67735  0.38648  1.0000
  H   H3058     1.0  0.87386  0.65218  0.32958  1.0000
  H   H3059     1.0  0.85608  0.65101  0.31924  1.0000
  H   H3060     1.0  0.85634  0.67224  0.32487  1.0000
  H   H3061     1.0  0.86689  0.62611  0.35426  1.0000
  H   H3062     1.0  0.84884  0.62427  0.34484  1.0000
  H   H3063     1.0  0.84425  0.62693  0.36829  1.0000
  H   H3064     1.0  0.81861  0.65272  0.35946  1.0000
  H   H3065     1.0  0.82377  0.67173  0.34073  1.0000
  H   H3066     1.0  0.82561  0.64967  0.33630  1.0000
  H   H3067     1.0  0.82373  0.67756  0.36842  1.0000
  H   H3068     1.0  0.88016  0.64711  0.35873  1.0000
  H   H3069     1.0  0.83129  0.69152  0.38968  1.0000
  H   H3070     1.0  0.88661  0.66125  0.38086  1.0000
  H   H3071     1.0  0.86225  0.68331  0.39655  1.0000
  C   C2581     1.0  0.66285  0.86350  0.41351  1.0000
  C   C2582     1.0  0.66905  0.89413  0.45678  1.0000
  H   H3072     1.0  0.88620  0.89793  0.40872  1.0000
  H   H3073     1.0  0.87418  0.86163  0.45021  1.0000
  C   C2583     1.0  0.84741  0.49746  0.30419  1.0000
  H   H3074     1.0  0.74542  0.51333  0.34665  1.0000
  C   C2584     1.0  0.70880  0.52666  0.31811  1.0000
  H   H3075     1.0  0.78462  0.62765  0.46344  1.0000
  C   C2585     1.0  0.77199  0.82969  0.45772  1.0000
  H   H3076     1.0  0.90422  0.80920  0.41075  1.0000
  H   H3077     1.0  0.75085  0.53286  0.36409  1.0000
  C   C2586     1.0  0.84033  0.52326  0.32982  1.0000
  H   H3078     1.0  0.69587  0.85111  0.46608  1.0000
  H   H3079     1.0  0.79829  0.96868  0.43362  1.0000
  C   C2587     1.0  0.73671  0.50454  0.32071  1.0000
  H   H3080     1.0  0.71383  0.72596  0.38301  1.0000
  C   C2588     1.0  0.88351  0.88528  0.40624  1.0000
  S   S690      1.0  0.66138  0.61627  0.27335  1.0000
  H   H3081     1.0  0.79797  0.49956  0.35539  1.0000
  S   S691      1.0  0.78579  0.51146  0.32030  1.0000
  H   H3082     1.0  0.96297  0.56933  0.25450  1.0000
  S   S692      1.0  0.80910  0.68148  0.47760  1.0000
  H   H3083     1.0  0.77768  0.79736  0.40885  1.0000
  H   H3084     1.0  0.83906  0.57610  0.25989  1.0000
  S   S693      1.0  0.77255  0.88986  0.48045  1.0000
  N   N171      1.0  0.73208  0.66774  0.34989  1.0000
  C   C2589     1.0  0.71580  0.66457  0.34501  1.0000
  C   C2590     1.0  0.74581  0.67192  0.33282  1.0000
  C   C2591     1.0  0.74012  0.65021  0.36125  1.0000
  C   C2592     1.0  0.72698  0.68344  0.35933  1.0000
  C   C2593     1.0  0.73309  0.68272  0.37555  1.0000
  C   C2594     1.0  0.71647  0.70049  0.35176  1.0000
  C   C2595     1.0  0.72828  0.69790  0.38395  1.0000
  C   C2596     1.0  0.71169  0.71556  0.36032  1.0000
  C   C2597     1.0  0.71751  0.71423  0.37643  1.0000
  H   H3085     1.0  0.71919  0.65196  0.33911  1.0000
  H   H3086     1.0  0.70456  0.66283  0.35730  1.0000
  H   H3087     1.0  0.71036  0.67586  0.33430  1.0000
  H   H3088     1.0  0.74031  0.68433  0.32313  1.0000
  H   H3089     1.0  0.75031  0.66036  0.32534  1.0000
  H   H3090     1.0  0.75827  0.67439  0.33588  1.0000
  H   H3091     1.0  0.73088  0.64687  0.37480  1.0000
  H   H3092     1.0  0.74265  0.63837  0.35446  1.0000
  H   H3093     1.0  0.75369  0.65057  0.36352  1.0000
  H   H3094     1.0  0.74175  0.67063  0.38196  1.0000
  H   H3095     1.0  0.71202  0.70241  0.33903  1.0000
  H   H3096     1.0  0.70353  0.72840  0.35436  1.0000
  H   H3097     1.0  0.89707  0.73571  0.46395  1.0000
  S   S694      1.0  0.74872  0.57386  0.26904  1.0000
  C   C2598     1.0  0.68702  0.50894  0.26488  1.0000
  C   C2599     1.0  0.73944  0.55815  0.34752  1.0000
  C   C2600     1.0  0.87573  0.82093  0.41108  1.0000
  S   S695      1.0  0.70719  0.59978  0.24254  1.0000
  C   C2601     1.0  0.74407  0.53908  0.35257  1.0000
  C   C2602     1.0  0.96281  0.82919  0.45318  1.0000
  H   H3098     1.0  0.77849  0.77307  0.41240  1.0000
  H   H3099     1.0  0.76203  0.68424  0.46602  1.0000
  H   H3100     1.0  0.85904  0.87821  0.43685  1.0000
  H   H3101     1.0  0.79413  0.78079  0.42064  1.0000
  Fe  Fe348     1.0  0.68156  0.59279  0.26220  1.0000
  C   C2603     1.0  0.79532  0.51442  0.35167  1.0000
  H   H3102     1.0  0.78534  0.67741  0.45474  1.0000
  S   S696      1.0  0.66317  0.83422  0.45832  1.0000
  C   C2604     1.0  0.88326  0.85290  0.41737  1.0000
  S   S697      1.0  0.72167  0.55542  0.24528  1.0000
  H   H3103     1.0  0.66119  0.51408  0.23320  1.0000
  H   H3104     1.0  0.83194  0.54150  0.28690  1.0000
  C   C2605     1.0  0.74089  0.52796  0.34231  1.0000
  H   H3105     1.0  0.77361  0.84115  0.46258  1.0000
  Fe  Fe349     1.0  0.91045  0.55937  0.25958  1.0000
  C   C2606     1.0  0.73278  0.53577  0.32663  1.0000
  Fe  Fe350     1.0  0.74862  0.90879  0.46981  1.0000
  H   H3106     1.0  0.81725  0.53843  0.26138  1.0000
  C   C2607     1.0  0.85602  0.54371  0.30568  1.0000
  C   C2608     1.0  0.82486  0.52482  0.25962  1.0000
  H   H3107     1.0  0.84801  0.83607  0.41201  1.0000
  N   N172      1.0  0.84548  0.52895  0.30957  1.0000
  H   H3108     1.0  0.89267  0.88234  0.39312  1.0000
  H   H3109     1.0  0.83288  0.53518  0.33639  1.0000
  H   H3110     1.0  0.80020  0.81590  0.45626  1.0000
  C   C2609     1.0  0.74040  0.50122  0.24769  1.0000
  H   H3111     1.0  0.67885  0.89963  0.46069  1.0000
  H   H3112     1.0  0.70749  0.76124  0.47210  1.0000
  C   C2610     1.0  0.74595  0.72734  0.47247  1.0000
  H   H3113     1.0  0.77208  0.57195  0.23299  1.0000
  H   H3114     1.0  0.89189  0.70336  0.47985  1.0000
  H   H3115     1.0  0.73057  0.49852  0.33504  1.0000
  H   H3116     1.0  0.78442  0.58362  0.25250  1.0000
  C   C2611     1.0  0.89734  0.83715  0.41476  1.0000
  H   H3117     1.0  0.86884  0.72949  0.46735  1.0000
  S   S698      1.0  0.67749  0.57304  0.24709  1.0000
  H   H3118     1.0  0.70207  0.54108  0.31321  1.0000
  H   H3119     1.0  0.74377  0.79982  0.42290  1.0000
  H   H3120     1.0  0.90849  0.85551  0.43609  1.0000
  C   C2612     1.0  0.86447  0.73204  0.48158  1.0000
  H   H3121     1.0  0.79844  0.64491  0.45278  1.0000
  C   C2613     1.0  0.87424  0.51121  0.29176  1.0000
  H   H3122     1.0  0.75187  0.50203  0.31911  1.0000
  H   H3123     1.0  0.77947  0.64460  0.44366  1.0000
  H   H3124     1.0  0.88962  0.75305  0.47737  1.0000
  C   C2614     1.0  0.69197  0.48967  0.26872  1.0000
  C   C2615     1.0  0.82507  0.87660  0.47503  1.0000
  C   C2616     1.0  0.67001  0.50723  0.24292  1.0000
  H   H3125     1.0  0.74337  0.84024  0.45786  1.0000
  H   H3126     1.0  0.68331  0.89684  0.42922  1.0000
  H   H3127     1.0  0.69020  0.88140  0.40559  1.0000
  H   H3128     1.0  0.83341  0.49754  0.31162  1.0000
  C   C2617     1.0  0.84368  0.48971  0.25462  1.0000
  S   S699      1.0  0.72279  0.89738  0.47738  1.0000
  H   H3129     1.0  0.81787  0.89024  0.47686  1.0000
  H   H3130     1.0  0.85724  0.74667  0.48067  1.0000
  H   H3131     1.0  0.73915  0.51602  0.24102  1.0000
  H   H3132     1.0  0.67488  0.85492  0.41921  1.0000
  C   C2618     1.0  0.75337  0.65084  0.47320  1.0000
  C   C2619     1.0  0.88274  0.48865  0.23648  1.0000
  H   H3133     1.0  0.75169  0.49745  0.25543  1.0000
  N   N173      1.0  0.74380  0.48935  0.23422  1.0000
  C   C2620     1.0  0.89428  0.73801  0.47822  1.0000
  H   H3134     1.0  0.67650  0.90431  0.40030  1.0000
  H   H3135     1.0  0.74304  0.66091  0.48060  1.0000
  H   H3136     1.0  0.80282  0.63089  0.48184  1.0000
  Fe  Fe351     1.0  0.94131  0.83713  0.58736  1.0000
  S   S700      1.0  0.94264  0.82050  0.61580  1.0000
  S   S701      1.0  0.92714  0.86648  0.57879  1.0000
  Fe  Fe352     1.0  0.96231  0.80510  0.56954  1.0000
  S   S702      1.0  0.96468  0.78547  0.59624  1.0000
  S   S703      1.0  0.97540  0.79834  0.54204  1.0000
  Fe  Fe353     1.0  0.93529  0.79877  0.60566  1.0000
  S   S704      1.0  0.91140  0.78596  0.62274  1.0000
  Fe  Fe354     1.0  0.97194  0.80890  0.60365  1.0000
  H   H3137     1.0  0.84652  0.98060  0.55982  1.0000
  S   S705      1.0  0.93235  0.81614  0.57800  1.0000
  S   S706      1.0  0.97121  0.82771  0.57620  1.0000
  H   H3138     1.0  0.93509  0.75487  0.55357  1.0000
  Fe  Fe355     1.0  0.81786  0.93443  0.57919  1.0000
  S   S707      1.0  0.79088  0.94875  0.59347  1.0000
  S   S708      1.0  0.82611  0.93951  0.54847  1.0000
  Fe  Fe356     1.0  0.82911  0.91223  0.61416  1.0000
  S   S709      1.0  0.80323  0.92464  0.63167  1.0000
  S   S710      1.0  0.84904  0.88927  0.62773  1.0000
  Fe  Fe357     1.0  0.78909  0.92083  0.61118  1.0000
  S   S711      1.0  0.76253  0.91072  0.62212  1.0000
  Fe  Fe358     1.0  0.80720  0.95148  0.61266  1.0000
  C   C2621     1.0  0.77632  0.96470  0.52931  1.0000
  S   S712      1.0  0.81473  0.90614  0.59523  1.0000
  S   S713      1.0  0.83454  0.93947  0.59681  1.0000
  H   H3139     1.0  0.98896  0.81658  0.50742  1.0000
  N   N174      1.0  0.71966  0.78154  0.54630  1.0000
  C   C2622     1.0  0.78117  0.80585  0.56721  1.0000
  C   C2623     1.0  0.86388  0.94094  0.64008  1.0000
  C   C2624     1.0  0.83222  0.96495  0.65521  1.0000
  C   C2625     1.0  0.98948  0.82917  0.49650  1.0000
  C   C2626     1.0  0.74803  0.75634  0.54036  1.0000
  Fe  Fe359     1.0  0.84761  0.58825  0.71965  1.0000
  S   S714      1.0  0.85695  0.60535  0.69155  1.0000
  C   C2627     1.0  0.84937  0.96957  0.65123  1.0000
  H   H3140     1.0  0.71814  0.87329  0.55418  1.0000
  H   H3141     1.0  0.79508  0.65004  0.53110  1.0000
  Fe  Fe360     1.0  0.82689  0.70715  0.63809  1.0000
  S   S715      1.0  0.83514  0.73442  0.63317  1.0000
  S   S716      1.0  0.82089  0.68939  0.66659  1.0000
  Fe  Fe361     1.0  0.82064  0.71386  0.59903  1.0000
  S   S717      1.0  0.82860  0.74133  0.59083  1.0000
  S   S718      1.0  0.80666  0.70395  0.58197  1.0000
  Fe  Fe362     1.0  0.85135  0.72765  0.60620  1.0000
  S   S719      1.0  0.87931  0.73399  0.59223  1.0000
  Fe  Fe363     1.0  0.81190  0.74610  0.61821  1.0000
  S   S720      1.0  0.79447  0.77443  0.61912  1.0000
  S   S721      1.0  0.84490  0.69932  0.61210  1.0000
  S   S722      1.0  0.80215  0.71964  0.62545  1.0000
  Fe  Fe364     1.0  0.71550  0.85070  0.59245  1.0000
  S   S723      1.0  0.74318  0.85855  0.58138  1.0000
  Fe  Fe365     1.0  0.70086  0.81565  0.60478  1.0000
  S   S724      1.0  0.67172  0.82954  0.60278  1.0000
  S   S725      1.0  0.71208  0.78539  0.61196  1.0000
  Fe  Fe366     1.0  0.68457  0.84664  0.57649  1.0000
  S   S726      1.0  0.67698  0.85700  0.54869  1.0000
  S   S727      1.0  0.71299  0.83055  0.57727  1.0000
  S   S728      1.0  0.70515  0.83471  0.62034  1.0000
  C   C2628     1.0  0.89208  0.63348  0.68994  1.0000
  C   C2629     1.0  0.90570  0.58279  0.72797  1.0000
  C   C2630     1.0  0.81787  0.70030  0.55983  1.0000
  C   C2631     1.0  0.80730  0.70075  0.54725  1.0000
  H   H3142     1.0  0.79249  0.70373  0.55113  1.0000
  C   C2632     1.0  0.77175  0.77698  0.61687  1.0000
  C   C2633     1.0  0.76400  0.76178  0.61884  1.0000
  C   C2634     1.0  0.74567  0.76432  0.61729  1.0000
  C   C2635     1.0  0.73518  0.78208  0.61340  1.0000
  C   C2636     1.0  0.74318  0.79722  0.61084  1.0000
  C   C2637     1.0  0.76123  0.79470  0.61300  1.0000
  H   H3143     1.0  0.77194  0.74806  0.62190  1.0000
  H   H3144     1.0  0.73964  0.75252  0.61914  1.0000
  H   H3145     1.0  0.73557  0.81096  0.60715  1.0000
  H   H3146     1.0  0.76712  0.80655  0.61126  1.0000
  C   C2638     1.0  0.84681  0.62869  0.68477  1.0000
  C   C2639     1.0  0.85341  0.63842  0.66717  1.0000
  C   C2640     1.0  0.84567  0.65707  0.66137  1.0000
  C   C2641     1.0  0.83128  0.66610  0.67319  1.0000
  C   C2642     1.0  0.82476  0.65638  0.69082  1.0000
  C   C2643     1.0  0.83246  0.63773  0.69660  1.0000
  H   H3147     1.0  0.86449  0.63146  0.65794  1.0000
  H   H3148     1.0  0.85086  0.66448  0.64782  1.0000
  H   H3149     1.0  0.81363  0.66331  0.70002  1.0000
  H   H3150     1.0  0.82727  0.63036  0.71017  1.0000
  C   C2644     1.0  0.71031  0.92108  0.58913  1.0000
  C   C2645     1.0  0.78448  0.91680  0.54803  1.0000
  H   H3151     1.0  0.77233  0.91322  0.55756  1.0000
  C   C2646     1.0  0.75721  0.89651  0.61045  1.0000
  C   C2647     1.0  0.76873  0.89204  0.59428  1.0000
  C   C2648     1.0  0.76430  0.88038  0.58539  1.0000
  C   C2649     1.0  0.74828  0.87327  0.59260  1.0000
  C   C2650     1.0  0.73673  0.87776  0.60873  1.0000
  C   C2651     1.0  0.74121  0.88936  0.61764  1.0000
  H   H3152     1.0  0.78104  0.89756  0.58865  1.0000
  H   H3153     1.0  0.77318  0.87707  0.57280  1.0000
  H   H3154     1.0  0.72431  0.87237  0.61430  1.0000
  H   H3155     1.0  0.73224  0.89285  0.63013  1.0000
  C   C2652     1.0  0.76161  0.76237  0.56829  1.0000
  H   H3156     1.0  0.90885  0.65041  0.70544  1.0000
  H   H3157     1.0  0.65983  0.81934  0.67923  1.0000
  H   H3158     1.0  0.88477  0.64637  0.68210  1.0000
  C   C2653     1.0  0.94711  0.78340  0.51275  1.0000
  C   C2654     1.0  0.88382  0.73828  0.53566  1.0000
  C   C2655     1.0  0.79407  0.82913  0.54233  1.0000
  H   H3159     1.0  0.80197  0.87199  0.52086  1.0000
  S   S729      1.0  0.86008  0.55790  0.72360  1.0000
  C   C2656     1.0  0.72654  0.91775  0.57634  1.0000
  C   C2657     1.0  0.79631  0.92438  0.55363  1.0000
  C   C2658     1.0  0.81179  0.92953  0.54124  1.0000
  C   C2659     1.0  0.81547  0.92694  0.52318  1.0000
  S   S730      1.0  0.68771  0.86811  0.58991  1.0000
  H   H3160     1.0  0.79316  0.92656  0.56748  1.0000
  H   H3161     1.0  0.82754  0.93066  0.51361  1.0000
  C   C2660     1.0  0.90324  0.77086  0.61441  1.0000
  C   C2661     1.0  0.91258  0.76447  0.59838  1.0000
  C   C2662     1.0  0.90534  0.75274  0.59199  1.0000
  C   C2663     1.0  0.88869  0.74753  0.60142  1.0000
  C   C2664     1.0  0.87945  0.75388  0.61748  1.0000
  C   C2665     1.0  0.88677  0.76539  0.62399  1.0000
  H   H3162     1.0  0.92540  0.76847  0.59098  1.0000
  H   H3163     1.0  0.91259  0.74774  0.57965  1.0000
  H   H3164     1.0  0.86671  0.74990  0.62494  1.0000
  H   H3165     1.0  0.87959  0.77015  0.63650  1.0000
  C   C2666     1.0  0.90512  0.87221  0.59209  1.0000
  C   C2667     1.0  0.89242  0.88726  0.58496  1.0000
  C   C2668     1.0  0.87482  0.89210  0.59552  1.0000
  C   C2669     1.0  0.87014  0.88230  0.61347  1.0000
  C   C2670     1.0  0.88278  0.86721  0.62054  1.0000
  C   C2671     1.0  0.90017  0.86204  0.60979  1.0000
  H   H3166     1.0  0.89617  0.89508  0.57120  1.0000
  H   H3167     1.0  0.86504  0.90366  0.58990  1.0000
  H   H3168     1.0  0.87919  0.85955  0.63440  1.0000
  H   H3169     1.0  0.90987  0.85042  0.61538  1.0000
  C   C2672     1.0  0.71299  0.77576  0.53253  1.0000
  H   H3170     1.0  0.68103  0.91048  0.56928  1.0000
  C   C2673     1.0  0.70541  0.78038  0.56347  1.0000
  H   H3171     1.0  0.67913  0.82138  0.68681  1.0000
  H   H3172     1.0  0.68322  0.91348  0.53763  1.0000
  H   H3173     1.0  0.84527  0.69572  0.56449  1.0000
  H   H3174     1.0  0.86520  0.49498  0.70071  1.0000
  H   H3175     1.0  0.67688  0.83029  0.66311  1.0000
  C   C2674     1.0  0.69410  0.91841  0.58625  1.0000
  C   C2675     1.0  0.95297  0.77388  0.54873  1.0000
  C   C2676     1.0  0.96159  0.78710  0.53573  1.0000
  C   C2677     1.0  0.95893  0.79159  0.51767  1.0000
  H   H3176     1.0  0.95510  0.77030  0.56269  1.0000
  H   H3177     1.0  0.96548  0.80180  0.50755  1.0000
  H   H3178     1.0  0.71125  0.76122  0.53707  1.0000
  H   H3179     1.0  0.75847  0.95392  0.51915  1.0000
  H   H3180     1.0  0.83512  0.87000  0.50013  1.0000
  H   H3181     1.0  0.89436  0.73966  0.54203  1.0000
  C   C2678     1.0  0.82121  0.48891  0.71570  1.0000
  C   C2679     1.0  0.74498  0.77309  0.56411  1.0000
  H   H3182     1.0  0.88708  0.59812  0.71075  1.0000
  H   H3183     1.0  0.74466  0.76696  0.65613  1.0000
  C   C2680     1.0  0.89769  0.93420  0.62906  1.0000
  H   H3184     1.0  0.71141  0.77052  0.66249  1.0000
  C   C2681     1.0  0.84614  0.93676  0.64418  1.0000
  H   H3185     1.0  0.82003  0.97437  0.66042  1.0000
  C   C2682     1.0  0.77432  0.66286  0.51506  1.0000
  C   C2683     1.0  0.79424  0.63991  0.49074  1.0000
  C   C2684     1.0  0.83481  0.86511  0.48823  1.0000
  H   H3186     1.0  0.68501  0.77216  0.68360  1.0000
  N   N175      1.0  0.79206  0.84663  0.52862  1.0000
  C   C2685     1.0  0.77890  0.82293  0.55519  1.0000
  H   H3187     1.0  0.86966  0.90342  0.64495  1.0000
  H   H3188     1.0  0.90027  0.93523  0.64233  1.0000
  H   H3189     1.0  0.89796  0.94767  0.61929  1.0000
  H   H3190     1.0  0.90956  0.92420  0.62313  1.0000
  C   C2686     1.0  0.94906  0.84504  0.49861  1.0000
  N   N176      1.0  0.68504  0.80071  0.67046  1.0000
  C   C2687     1.0  0.84447  0.84754  0.48581  1.0000
  H   H3191     1.0  0.68673  0.89006  0.55062  1.0000
  C   C2688     1.0  0.89397  0.65069  0.71107  1.0000
  C   C2689     1.0  0.76999  0.96075  0.51560  1.0000
  H   H3192     1.0  0.84585  0.73160  0.51473  1.0000
  H   H3193     1.0  0.77185  0.87018  0.51952  1.0000
  N   N177      1.0  0.79899  0.83458  0.61664  1.0000
  C   C2690     1.0  0.79205  0.85410  0.61834  1.0000
  C   C2691     1.0  0.79534  0.83267  0.59924  1.0000
  C   C2692     1.0  0.78817  0.82334  0.63224  1.0000
  C   C2693     1.0  0.81884  0.82810  0.61675  1.0000
  C   C2694     1.0  0.82726  0.80938  0.61664  1.0000
  C   C2695     1.0  0.83034  0.83991  0.61699  1.0000
  C   C2696     1.0  0.84576  0.80273  0.61755  1.0000
  C   C2697     1.0  0.84888  0.83313  0.61774  1.0000
  C   C2698     1.0  0.85655  0.81455  0.61820  1.0000
  H   H3194     1.0  0.79852  0.86364  0.60636  1.0000
  H   H3195     1.0  0.77698  0.85835  0.61896  1.0000
  H   H3196     1.0  0.79443  0.85657  0.63112  1.0000
  H   H3197     1.0  0.78061  0.83800  0.59837  1.0000
  H   H3198     1.0  0.79864  0.81807  0.59778  1.0000
  H   H3199     1.0  0.80361  0.84049  0.58714  1.0000
  H   H3200     1.0  0.79124  0.82364  0.64554  1.0000
  H   H3201     1.0  0.77313  0.82838  0.63298  1.0000
  H   H3202     1.0  0.79099  0.80869  0.63111  1.0000
  H   H3203     1.0  0.81952  0.79962  0.61614  1.0000
  H   H3204     1.0  0.82538  0.85444  0.61683  1.0000
  H   H3205     1.0  0.85170  0.78826  0.61803  1.0000
  H   H3206     1.0  0.85732  0.84233  0.61822  1.0000
  H   H3207     1.0  0.87086  0.80929  0.61916  1.0000
  N   N178      1.0  0.81639  0.65376  0.62154  1.0000
  C   C2699     1.0  0.83427  0.65750  0.61014  1.0000
  C   C2700     1.0  0.80505  0.65192  0.60938  1.0000
  C   C2701     1.0  0.80690  0.67013  0.62965  1.0000
  C   C2702     1.0  0.81940  0.63652  0.63544  1.0000
  C   C2703     1.0  0.82887  0.61976  0.62988  1.0000
  C   C2704     1.0  0.81315  0.63574  0.65466  1.0000
  C   C2705     1.0  0.83225  0.60337  0.64274  1.0000
  C   C2706     1.0  0.81639  0.61921  0.66735  1.0000
  C   C2707     1.0  0.82610  0.60313  0.66144  1.0000
  H   H3208     1.0  0.83250  0.67075  0.59994  1.0000
  H   H3209     1.0  0.84348  0.65829  0.61887  1.0000
  H   H3210     1.0  0.84161  0.64681  0.60202  1.0000
  H   H3211     1.0  0.80213  0.66488  0.59903  1.0000
  H   H3212     1.0  0.79165  0.64866  0.61747  1.0000
  H   H3213     1.0  0.81193  0.64093  0.60147  1.0000
  H   H3214     1.0  0.80483  0.68281  0.61885  1.0000
  H   H3215     1.0  0.79301  0.66870  0.63789  1.0000
  H   H3216     1.0  0.81500  0.67278  0.63848  1.0000
  H   H3217     1.0  0.83391  0.61923  0.61553  1.0000
  H   H3218     1.0  0.80611  0.64775  0.66033  1.0000
  H   H3219     1.0  0.81189  0.61894  0.68196  1.0000
  H   H3220     1.0  0.82908  0.59051  0.67144  1.0000
  S   S731      1.0  0.79873  0.97755  0.62382  1.0000
  C   C2708     1.0  0.79854  0.79473  0.56734  1.0000
  C   C2709     1.0  0.93836  0.77029  0.52573  1.0000
  H   H3221     1.0  0.82375  0.82115  0.53324  1.0000
  H   H3222     1.0  0.92503  0.84889  0.54862  1.0000
  H   H3223     1.0  0.69153  0.78753  0.56087  1.0000
  H   H3224     1.0  0.80017  0.78157  0.57689  1.0000
  H   H3225     1.0  0.68194  0.80934  0.64234  1.0000
  C   C2710     1.0  0.83061  0.94861  0.65165  1.0000
  H   H3226     1.0  0.81258  0.62948  0.50979  1.0000
  H   H3227     1.0  0.76685  0.67214  0.52422  1.0000
  H   H3228     1.0  0.85183  0.52248  0.71482  1.0000
  C   C2711     1.0  0.80346  0.85856  0.53083  1.0000
  C   C2712     1.0  0.71864  0.91418  0.52411  1.0000
  H   H3229     1.0  0.73311  0.91462  0.52348  1.0000
  C   C2713     1.0  0.89649  0.59920  0.71857  1.0000
  H   H3230     1.0  0.84599  0.97906  0.48841  1.0000
  N   N179      1.0  0.88074  0.80000  0.55798  1.0000
  C   C2714     1.0  0.90044  0.79116  0.55425  1.0000
  C   C2715     1.0  0.87136  0.78910  0.57498  1.0000
  C   C2716     1.0  0.87282  0.79903  0.54260  1.0000
  C   C2717     1.0  0.87885  0.81895  0.56042  1.0000
  C   C2718     1.0  0.88566  0.82197  0.57471  1.0000
  C   C2719     1.0  0.87041  0.83481  0.54893  1.0000
  C   C2720     1.0  0.88421  0.83970  0.57726  1.0000
  C   C2721     1.0  0.86892  0.85249  0.55171  1.0000
  C   C2722     1.0  0.87582  0.85493  0.56583  1.0000
  H   H3231     1.0  0.90744  0.79038  0.56548  1.0000
  H   H3232     1.0  0.90236  0.77674  0.55265  1.0000
  H   H3233     1.0  0.90804  0.79875  0.54142  1.0000
  H   H3234     1.0  0.87773  0.78751  0.58688  1.0000
  H   H3235     1.0  0.87208  0.77486  0.57346  1.0000
  H   H3236     1.0  0.85665  0.79566  0.57870  1.0000
  H   H3237     1.0  0.87957  0.80654  0.52927  1.0000
  H   H3238     1.0  0.87486  0.78458  0.54097  1.0000
  H   H3239     1.0  0.85785  0.80487  0.54470  1.0000
  H   H3240     1.0  0.89233  0.81061  0.58397  1.0000
  H   H3241     1.0  0.86497  0.83397  0.53760  1.0000
  H   H3242     1.0  0.88976  0.84163  0.58813  1.0000
  H   H3243     1.0  0.86250  0.86442  0.54276  1.0000
  H   H3244     1.0  0.87476  0.86865  0.56787  1.0000
  C   C2723     1.0  0.67403  0.84105  0.53738  1.0000
  C   C2724     1.0  0.73301  0.81150  0.66046  1.0000
  H   H3245     1.0  0.73979  0.90848  0.55163  1.0000
  H   H3246     1.0  0.95776  0.84719  0.53944  1.0000
  H   H3247     1.0  0.87777  0.96250  0.64072  1.0000
  H   H3248     1.0  0.81288  0.83572  0.50709  1.0000
  C   C2725     1.0  0.66747  0.81166  0.53775  1.0000
  N   N180      1.0  0.88005  0.92835  0.63172  1.0000
  C   C2726     1.0  0.79021  0.65046  0.51892  1.0000
  C   C2727     1.0  0.76469  0.74575  0.54462  1.0000
  H   H3249     1.0  0.73788  0.78350  0.57208  1.0000
  C   C2728     1.0  0.71693  0.78212  0.66252  1.0000
  C   C2729     1.0  0.78801  0.91438  0.53002  1.0000
  C   C2730     1.0  0.72321  0.88313  0.54164  1.0000
  C   C2731     1.0  0.77140  0.74865  0.55864  1.0000
  H   H3250     1.0  0.76765  0.86150  0.54369  1.0000
  H   H3251     1.0  0.76685  0.76453  0.57923  1.0000
  C   C2732     1.0  0.92159  0.84700  0.52236  1.0000
  H   H3252     1.0  0.92229  0.84553  0.49461  1.0000
  H   H3253     1.0  0.88982  0.91836  0.60640  1.0000
  H   H3254     1.0  0.80751  0.69770  0.52003  1.0000
  H   H3255     1.0  0.69937  0.78424  0.53018  1.0000
  H   H3256     1.0  0.80643  0.91729  0.50365  1.0000
  H   H3257     1.0  0.79614  0.97493  0.53623  1.0000
  C   C2733     1.0  0.85077  0.49770  0.70699  1.0000
  H   H3258     1.0  0.66847  0.82058  0.56192  1.0000
  C   C2734     1.0  0.86503  0.95782  0.64376  1.0000
  H   H3259     1.0  0.83983  0.59079  0.63823  1.0000
  H   H3260     1.0  0.67491  0.83658  0.49408  1.0000
  C   C2735     1.0  0.67490  0.81871  0.67509  1.0000
  H   H3261     1.0  0.87578  0.94124  0.60436  1.0000
  H   H3262     1.0  0.76971  0.96081  0.54356  1.0000
  H   H3263     1.0  0.76506  0.83096  0.55626  1.0000
  C   C2736     1.0  0.67986  0.78619  0.68657  1.0000
  H   H3264     1.0  0.73216  0.80244  0.52639  1.0000
  H   H3265     1.0  0.90697  0.63171  0.68364  1.0000
  C   C2737     1.0  0.89904  0.61658  0.71957  1.0000
  C   C2738     1.0  0.67870  0.79848  0.65463  1.0000
  C   C2739     1.0  0.81374  0.80051  0.55514  1.0000
  H   H3266     1.0  0.88636  0.66328  0.70311  1.0000
  C   C2740     1.0  0.88166  0.90962  0.64350  1.0000
  H   H3267     1.0  0.73918  0.91964  0.57873  1.0000
  H   H3268     1.0  0.74367  0.75324  0.52940  1.0000
  N   N181      1.0  0.71111  0.90160  0.54086  1.0000
  H   H3269     1.0  0.88282  0.90983  0.65757  1.0000
  C   C2741     1.0  0.74404  0.79459  0.65773  1.0000
  H   H3270     1.0  0.86255  0.74145  0.55949  1.0000
  C   C2742     1.0  0.81160  0.81741  0.54273  1.0000
  C   C2743     1.0  0.72671  0.91141  0.56080  1.0000
  H   H3271     1.0  0.86568  0.92150  0.61453  1.0000
  H   H3272     1.0  0.68152  0.92081  0.59636  1.0000
  H   H3273     1.0  0.70619  0.82730  0.66623  1.0000
  H   H3274     1.0  0.94475  0.78730  0.49888  1.0000
  N   N182      1.0  0.88879  0.63377  0.70976  1.0000
  H   H3275     1.0  0.71862  0.90980  0.51137  1.0000
  C   C2744     1.0  0.72141  0.80100  0.53915  1.0000
  C   C2745     1.0  0.66941  0.81605  0.51858  1.0000
  H   H3276     1.0  0.72391  0.87739  0.52949  1.0000
  C   C2746     1.0  0.84320  0.51333  0.71485  1.0000
  S   S732      1.0  0.66698  0.79986  0.50722  1.0000
  H   H3277     1.0  0.68537  0.78668  0.69847  1.0000
  C   C2747     1.0  0.82459  0.51675  0.72315  1.0000
  C   C2748     1.0  0.67351  0.83304  0.50884  1.0000
  H   H3278     1.0  0.83783  0.97459  0.60777  1.0000
  H   H3279     1.0  0.72236  0.77745  0.51882  1.0000
  H   H3280     1.0  0.77242  0.73510  0.53708  1.0000
  H   H3281     1.0  0.72728  0.74092  0.49331  1.0000
  S   S733      1.0  0.77267  0.90512  0.52360  1.0000
  H   H3282     1.0  0.70786  0.78693  0.57372  1.0000
  H   H3283     1.0  0.73749  0.88340  0.54196  1.0000
  H   H3284     1.0  0.68531  0.78507  0.65053  1.0000
  Fe  Fe367     1.0  0.77326  0.91235  0.49346  1.0000
  H   H3285     1.0  0.82721  0.79169  0.55512  1.0000
  C   C2749     1.0  0.83490  0.69286  0.52475  1.0000
  H   H3286     1.0  0.79932  0.86175  0.54482  1.0000
  C   C2750     1.0  0.81577  0.69731  0.52965  1.0000
  H   H3287     1.0  0.72508  0.80680  0.54925  1.0000
  H   H3288     1.0  0.83851  0.73742  0.54551  1.0000
  C   C2751     1.0  0.83700  0.69618  0.55484  1.0000
  H   H3289     1.0  0.79004  0.83371  0.50764  1.0000
  H   H3290     1.0  0.75608  0.67400  0.49660  1.0000
  H   H3291     1.0  0.98297  0.85938  0.52398  1.0000
  H   H3292     1.0  0.87808  0.69983  0.50255  1.0000
  C   C2752     1.0  0.69405  0.91237  0.57056  1.0000
  C   C2753     1.0  0.93182  0.84762  0.53467  1.0000
  C   C2754     1.0  0.73601  0.77995  0.65875  1.0000
  H   H3293     1.0  0.73928  0.82300  0.65930  1.0000
  H   H3294     1.0  0.71040  0.92549  0.60142  1.0000
  H   H3295     1.0  0.86029  0.68868  0.53376  1.0000
  C   C2755     1.0  0.71047  0.90852  0.55738  1.0000
  H   H3296     1.0  0.83625  0.95986  0.50242  1.0000
  C   C2756     1.0  0.71388  0.81376  0.66451  1.0000
  H   H3297     1.0  0.90271  0.73379  0.51117  1.0000
  C   C2757     1.0  0.80353  0.91938  0.51754  1.0000
  S   S734      1.0  0.84582  0.68787  0.50299  1.0000
  C   C2758     1.0  0.77825  0.65268  0.48622  1.0000
  H   H3298     1.0  0.75887  0.79287  0.65440  1.0000
  C   C2759     1.0  0.81356  0.50479  0.72305  1.0000
  H   H3299     1.0  0.76932  0.80122  0.57644  1.0000
  C   C2760     1.0  0.87501  0.73287  0.50916  1.0000
  C   C2761     1.0  0.88842  0.73498  0.51782  1.0000
  C   C2762     1.0  0.85682  0.73387  0.51973  1.0000
  H   H3300     1.0  0.71050  0.92847  0.52340  1.0000
  C   C2763     1.0  0.85238  0.73715  0.53759  1.0000
  H   H3301     1.0  0.69396  0.89462  0.52635  1.0000
  C   C2764     1.0  0.77880  0.96514  0.49734  1.0000
  C   C2765     1.0  0.94170  0.76514  0.54358  1.0000
  C   C2766     1.0  0.86586  0.73934  0.54552  1.0000
  H   H3302     1.0  0.90697  0.84755  0.52678  1.0000
  H   H3303     1.0  0.81605  0.97373  0.56317  1.0000
  H   H3304     1.0  0.70477  0.76581  0.57016  1.0000
  N   N183      1.0  0.81740  0.98587  0.50105  1.0000
  C   C2767     1.0  0.80100  0.97745  0.50633  1.0000
  C   C2768     1.0  0.73751  0.77025  0.55018  1.0000
  S   S735      1.0  0.92173  0.76204  0.52013  1.0000
  H   H3305     1.0  0.89379  0.89983  0.63765  1.0000
  H   H3306     1.0  0.79692  0.85555  0.49910  1.0000
  H   H3307     1.0  0.67847  0.85884  0.51072  1.0000
  H   H3308     1.0  0.86373  0.62358  0.71623  1.0000
  H   H3309     1.0  0.95499  0.84421  0.48449  1.0000
  H   H3310     1.0  0.88704  0.62219  0.68744  1.0000
  C   C2769     1.0  0.87778  0.92736  0.61345  1.0000
  C   C2770     1.0  0.80006  0.63892  0.50687  1.0000
  C   C2771     1.0  0.69292  0.89996  0.53886  1.0000
  C   C2772     1.0  0.95075  0.84681  0.52909  1.0000
  C   C2773     1.0  0.95996  0.84559  0.51074  1.0000
  C   C2774     1.0  0.79162  0.97288  0.52485  1.0000
  S   S736      1.0  0.85615  0.83309  0.50265  1.0000
  C   C2775     1.0  0.67558  0.84560  0.51827  1.0000
  H   H3311     1.0  0.78416  0.74016  0.56210  1.0000
  C   C2776     1.0  0.70523  0.79899  0.66588  1.0000
  C   C2777     1.0  0.84549  0.69220  0.53742  1.0000
  H   H3312     1.0  0.66467  0.78778  0.69105  1.0000
  Fe  Fe368     1.0  0.67685  0.84989  0.61644  1.0000
  H   H3313     1.0  0.81833  0.85228  0.52843  1.0000
  H   H3314     1.0  0.76349  0.84944  0.52813  1.0000
  C   C2778     1.0  0.93020  0.84578  0.50434  1.0000
  H   H3315     1.0  0.81712  0.94542  0.65420  1.0000
  H   H3316     1.0  0.86058  0.64800  0.71060  1.0000
  N   N184      1.0  0.88028  0.72793  0.49083  1.0000
  C   C2779     1.0  0.98188  0.86225  0.48887  1.0000
  C   C2780     1.0  0.79823  0.84270  0.50985  1.0000
  C   C2781     1.0  0.77289  0.85728  0.53016  1.0000
  N   N185      1.0  0.97974  0.84590  0.50388  1.0000
  H   H3317     1.0  0.98856  0.83448  0.52965  1.0000
  H   H3318     1.0  0.82613  0.97737  0.52704  1.0000
  C   C2782     1.0  0.98910  0.84677  0.51823  1.0000
  H   H3319     1.0  0.84405  0.92444  0.64133  1.0000
  H   H3320     1.0  0.77386  0.96198  0.48672  1.0000
  H   H3321     1.0  0.66360  0.79936  0.65768  1.0000
  Fe  Fe369     1.0  0.91199  0.78328  0.49695  1.0000
  S   S737      1.0  0.90767  0.81304  0.49761  1.0000
  C   C2783     1.0  0.79406  0.97336  0.49271  1.0000
  C   C2784     1.0  0.67000  0.82403  0.54714  1.0000
  H   H3322     1.0  0.70831  0.80994  0.53579  1.0000
  H   H3323     1.0  0.85040  0.98266  0.65342  1.0000
  Fe  Fe370     1.0  0.88137  0.81555  0.48900  1.0000
  C   C2785     1.0  0.76830  0.66388  0.49908  1.0000
  S   S738      1.0  0.88446  0.78537  0.49101  1.0000
  H   H3324     1.0  0.97395  0.87511  0.49353  1.0000
  C   C2786     1.0  0.86890  0.63529  0.71763  1.0000
  H   H3325     1.0  0.66397  0.79865  0.54534  1.0000
  S   S739      1.0  0.74818  0.93048  0.48461  1.0000
  H   H3326     1.0  0.90323  0.56969  0.72729  1.0000
  H   H3327     1.0  0.98353  0.82740  0.48549  1.0000
  S   S740      1.0  0.81868  0.58440  0.73173  1.0000
  H   H3328     1.0  0.90058  0.70422  0.49922  1.0000
  C   C2787     1.0  0.88811  0.70797  0.49317  1.0000
  H   H3329     1.0  0.79906  0.50773  0.72890  1.0000
  H   H3330     1.0  0.89062  0.65263  0.72550  1.0000
  H   H3331     1.0  0.90784  0.73371  0.48226  1.0000
  C   C2788     1.0  0.83338  0.97317  0.49258  1.0000
  S   S741      1.0  0.76014  0.71339  0.48743  1.0000
  H   H3332     1.0  0.70125  0.86994  0.48534  1.0000
  C   C2789     1.0  0.91122  0.61646  0.73081  1.0000
  H   H3333     1.0  0.75301  0.63688  0.48197  1.0000
  H   H3334     1.0  0.85445  0.72302  0.48856  1.0000
  Fe  Fe371     1.0  0.93988  0.57791  0.86623  1.0000
  S   S742      1.0  0.95100  0.59037  0.83703  1.0000
  S   S743      1.0  0.93272  0.59500  0.88781  1.0000
  Fe  Fe372     1.0  0.94707  0.54038  0.85768  1.0000
  S   S744      1.0  0.95899  0.54940  0.82782  1.0000
  S   S745      1.0  0.94521  0.51112  0.87039  1.0000
  Fe  Fe373     1.0  0.97375  0.56540  0.83812  1.0000
  H   H3335     1.0  0.72949  0.63233  0.81415  1.0000
  Fe  Fe374     1.0  0.93523  0.57342  0.82947  1.0000
  S   S746      1.0  0.91746  0.58736  0.80849  1.0000
  S   S747      1.0  0.96375  0.55415  0.86787  1.0000
  S   S748      1.0  0.92215  0.56312  0.85873  1.0000
  C   C2790     1.0  0.98562  0.51036  0.80191  1.0000
  Fe  Fe375     1.0  0.84093  0.57817  0.95651  1.0000
  S   S749      1.0  0.81128  0.59064  0.96575  1.0000
  S   S750      1.0  0.86166  0.59587  0.95134  1.0000
  Fe  Fe376     1.0  0.83275  0.54090  0.96107  1.0000
  S   S751      1.0  0.80246  0.55005  0.97045  1.0000
  H   H3336     1.0  0.96684  0.59933  0.86357  1.0000
  Fe  Fe377     1.0  0.80580  0.57458  0.94767  1.0000
  S   S752      1.0  0.78594  0.58871  0.92869  1.0000
  H   H3337     1.0  0.87488  0.55690  0.89981  1.0000
  S   S753      1.0  0.68695  0.56602  0.88971  1.0000
  S   S754      1.0  0.83568  0.56417  0.93668  1.0000
  C   C2791     1.0  0.98568  0.58980  0.88936  1.0000
  Fe  Fe378     1.0  0.71746  0.55875  0.88866  1.0000
  S   S755      1.0  0.72974  0.54880  0.91418  1.0000
  Fe  Fe379     1.0  0.72659  0.55681  0.84824  1.0000
  S   S756      1.0  0.69710  0.56359  0.84601  1.0000
  S   S757      1.0  0.74782  0.54811  0.82429  1.0000
  Fe  Fe380     1.0  0.69244  0.54432  0.87308  1.0000
  S   S758      1.0  0.72423  0.57956  0.86260  1.0000
  S   S759      1.0  0.72215  0.53567  0.87404  1.0000
  C   C2792     1.0  0.76421  0.56168  0.81312  1.0000
  C   C2793     1.0  0.76634  0.57568  0.82054  1.0000
  C   C2794     1.0  0.78838  0.56902  0.78690  1.0000
  C   C2795     1.0  0.77534  0.55830  0.79639  1.0000
  H   H3338     1.0  0.75788  0.57826  0.83352  1.0000
  H   H3339     1.0  0.98984  0.59003  0.85325  1.0000
  H   H3340     1.0  0.77365  0.54763  0.79048  1.0000
  C   C2796     1.0  0.77113  0.57699  0.92417  1.0000
  C   C2797     1.0  0.75987  0.58625  0.91147  1.0000
  C   C2798     1.0  0.74737  0.57762  0.90801  1.0000
  C   C2799     1.0  0.74585  0.55976  0.91749  1.0000
  C   C2800     1.0  0.75708  0.55051  0.93022  1.0000
  C   C2801     1.0  0.76982  0.55902  0.93344  1.0000
  H   H3341     1.0  0.76076  0.60020  0.90433  1.0000
  H   H3342     1.0  0.73870  0.58490  0.89826  1.0000
  H   H3343     1.0  0.75599  0.53666  0.93755  1.0000
  H   H3344     1.0  0.77840  0.55176  0.94327  1.0000
  C   C2802     1.0  0.76179  0.61209  0.76352  1.0000
  C   C2803     1.0  0.74348  0.64185  0.75371  1.0000
  C   C2804     1.0  0.79050  0.58309  0.79418  1.0000
  Fe  Fe381     1.0  0.83141  0.55424  0.73729  1.0000
  C   C2805     1.0  0.77950  0.58640  0.81105  1.0000
  C   C2806     1.0  0.90890  0.57516  0.79712  1.0000
  H   H3345     1.0  0.88531  0.51985  0.87201  1.0000
  S   S760      1.0  0.67827  0.61242  0.84940  1.0000
  C   C2807     1.0  0.91270  0.59434  0.90511  1.0000
  C   C2808     1.0  0.90955  0.60508  0.91821  1.0000
  C   C2809     1.0  0.89388  0.60527  0.93223  1.0000
  C   C2810     1.0  0.88113  0.59470  0.93338  1.0000
  C   C2811     1.0  0.88417  0.58381  0.92035  1.0000
  C   C2812     1.0  0.89999  0.58364  0.90614  1.0000
  H   H3346     1.0  0.91924  0.61341  0.91747  1.0000
  H   H3347     1.0  0.89160  0.61376  0.94218  1.0000
  H   H3348     1.0  0.87421  0.57583  0.92112  1.0000
  H   H3349     1.0  0.90226  0.57550  0.89592  1.0000
  C   C2813     1.0  0.85661  0.51172  0.83389  1.0000
  C   C2814     1.0  0.91455  0.55612  0.79857  1.0000
  C   C2815     1.0  0.75940  0.62854  0.75074  1.0000
  C   C2816     1.0  0.92035  0.59994  0.74017  1.0000
  C   C2817     1.0  0.72572  0.61886  0.81572  1.0000
  S   S761      1.0  0.83559  0.55401  0.76511  1.0000
  H   H3350     1.0  0.84456  0.50395  0.76649  1.0000
  H   H3351     1.0  0.69439  0.63323  0.78836  1.0000
  H   H3352     1.0  0.98225  0.50592  0.85541  1.0000
  H   H3353     1.0  0.92443  0.54844  0.80695  1.0000
  H   H3354     1.0  0.76257  0.60632  0.97373  1.0000
  H   H3355     1.0  0.79644  0.56666  0.77368  1.0000
  H   H3356     1.0  0.78936  0.50279  0.89534  1.0000
  H   H3357     1.0  0.91207  0.53240  0.78980  1.0000
  C   C2818     1.0  0.90756  0.54709  0.78885  1.0000
  H   H3358     1.0  0.72508  0.58863  0.80585  1.0000
  H   H3359     1.0  0.74175  0.65470  0.74376  1.0000
  H   H3360     1.0  0.70935  0.59868  0.79051  1.0000
  C   C2819     1.0  0.71347  0.60021  0.80282  1.0000
  C   C2820     1.0  0.86512  0.50518  0.77961  1.0000
  H   H3361     1.0  0.75098  0.59603  0.78892  1.0000
  C   C2821     1.0  0.73183  0.62205  0.78280  1.0000
  H   H3362     1.0  0.71571  0.61649  0.82899  1.0000
  H   H3363     1.0  0.84330  0.61978  0.97805  1.0000
  H   H3364     1.0  0.78105  0.59735  0.81667  1.0000
  Fe  Fe382     1.0  0.69394  0.58495  0.86243  1.0000
  C   C2822     1.0  0.74828  0.60887  0.77932  1.0000
  C   C2823     1.0  0.72987  0.63878  0.76950  1.0000
  S   S762      1.0  0.67494  0.52303  0.88030  1.0000
  C   C2824     1.0  0.97611  0.62233  0.87948  1.0000
  H   H3365     1.0  0.88760  0.50340  0.79229  1.0000
  N   N186      1.0  0.71804  0.61855  0.80000  1.0000
  S   S763      1.0  0.88651  0.54546  0.76556  1.0000
  C   C2825     1.0  0.98268  0.49270  0.80229  1.0000
  S   S764      1.0  0.84458  0.51114  0.96138  1.0000
  C   C2826     1.0  0.79261  0.50820  0.84057  1.0000
  C   C2827     1.0  0.92354  0.51574  0.84568  1.0000
  C   C2828     1.0  0.77143  0.50330  0.78674  1.0000
  H   H3366     1.0  0.82231  0.55067  0.85549  1.0000
  N   N187      1.0  0.84439  0.56404  0.82164  1.0000
  H   H3367     1.0  0.78482  0.51999  0.83196  1.0000
  C   C2829     1.0  0.82964  0.49173  0.91700  1.0000
  C   C2830     1.0  0.86186  0.56856  0.82209  1.0000
  H   H3368     1.0  0.72239  0.51040  0.91452  1.0000
  H   H3369     1.0  0.92489  0.52996  0.84182  1.0000
  C   C2831     1.0  0.85647  0.52993  0.82454  1.0000
  C   C2832     1.0  0.78315  0.49931  0.77055  1.0000
  H   H3370     1.0  0.84265  0.58067  0.79453  1.0000
  H   H3371     1.0  0.87871  0.49246  0.86665  1.0000
  C   C2833     1.0  0.74377  0.55476  0.97818  1.0000
  H   H3372     1.0  0.90863  0.54122  0.89865  1.0000
  C   C2834     1.0  0.67497  0.49082  0.87094  1.0000
  H   H3373     1.0  0.70251  0.64629  0.80022  1.0000
  H   H3374     1.0  0.86890  0.52697  0.93200  1.0000
  H   H3375     1.0  0.72988  0.49120  0.94107  1.0000
  H   H3376     1.0  0.77193  0.51525  0.79153  1.0000
  S   S765      1.0  0.84070  0.55385  0.98004  1.0000
  H   H3377     1.0  0.77002  0.63101  0.73860  1.0000
  C   C2835     1.0  0.88229  0.50908  0.88377  1.0000
  H   H3378     1.0  0.90764  0.53017  0.88117  1.0000
  C   C2836     1.0  0.83023  0.51025  0.91471  1.0000
  C   C2837     1.0  0.83778  0.50399  0.94475  1.0000
  Fe  Fe383     1.0  0.86304  0.56068  0.75112  1.0000
  H   H3379     1.0  0.70698  0.49908  0.88937  1.0000
  H   H3380     1.0  0.82987  0.57842  0.84359  1.0000
  H   H3381     1.0  0.86289  0.58286  0.81463  1.0000
  H   H3382     1.0  0.89171  0.59974  0.78501  1.0000
  S   S766      1.0  0.80655  0.59679  0.78200  1.0000
  H   H3383     1.0  0.76302  0.49242  0.85544  1.0000
  C   C2838     1.0  0.85627  0.49584  0.77217  1.0000
  H   H3384     1.0  0.85522  0.55796  0.79439  1.0000
  H   H3385     1.0  0.87867  0.49514  0.93036  1.0000
  H   H3386     1.0  0.87398  0.55930  0.81554  1.0000
  H   H3387     1.0  0.90766  0.51852  0.82534  1.0000
  H   H3388     1.0  0.75622  0.50193  0.87572  1.0000
  C   C2839     1.0  0.76353  0.59122  0.97865  1.0000
  C   C2840     1.0  0.67962  0.50821  0.86476  1.0000
  H   H3389     1.0  0.95483  0.51641  0.78545  1.0000
  H   H3390     1.0  0.91473  0.51659  0.90174  1.0000
  H   H3391     1.0  0.94756  0.51372  0.81015  1.0000
  C   C2841     1.0  0.95064  0.50666  0.79844  1.0000
  H   H3392     1.0  0.86643  0.62061  0.97615  1.0000
  C   C2842     1.0  0.89607  0.58500  0.78623  1.0000
  C   C2843     1.0  0.88314  0.52802  0.92467  1.0000
  H   H3393     1.0  0.86645  0.53219  0.81185  1.0000
  C   C2844     1.0  0.84479  0.50781  0.85073  1.0000
  H   H3394     1.0  0.69014  0.62901  0.81287  1.0000
  C   C2845     1.0  0.83207  0.54035  0.84883  1.0000
  C   C2846     1.0  0.84320  0.56618  0.80222  1.0000
  H   H3395     1.0  0.71801  0.64978  0.77099  1.0000
  C   C2847     1.0  0.87910  0.49527  0.91618  1.0000
  S   S767      1.0  0.85289  0.59124  0.74613  1.0000
  H   H3396     1.0  0.74319  0.52750  0.97596  1.0000
  H   H3397     1.0  0.81550  0.57490  0.82981  1.0000
  C   C2848     1.0  0.87876  0.49335  0.88049  1.0000
  H   H3398     1.0  0.92931  0.60009  0.74897  1.0000
  H   H3399     1.0  0.97581  0.63451  0.86796  1.0000
  C   C2849     1.0  0.82905  0.57783  0.82952  1.0000
  C   C2850     1.0  0.71385  0.48745  0.89886  1.0000
  H   H3400     1.0  0.82923  0.59199  0.82112  1.0000
  C   C2851     1.0  0.91377  0.50930  0.83638  1.0000
  C   C2852     1.0  0.83263  0.52209  0.85819  1.0000
  C   C2853     1.0  0.68739  0.51376  0.84623  1.0000
  H   H3401     1.0  0.67879  0.49932  0.91564  1.0000
  C   C2854     1.0  0.70812  0.50795  0.91943  1.0000
  N   N188      1.0  0.78313  0.50484  0.86020  1.0000
  H   H3402     1.0  0.77434  0.60186  0.76127  1.0000
  H   H3403     1.0  0.69955  0.51885  0.91071  1.0000
  H   H3404     1.0  0.97434  0.48895  0.77217  1.0000
  C   C2855     1.0  0.78325  0.51981  0.86906  1.0000
  C   C2856     1.0  0.78687  0.51643  0.88700  1.0000
  C   C2857     1.0  0.77887  0.53851  0.86013  1.0000
  C   C2858     1.0  0.78756  0.53079  0.89473  1.0000
  C   C2859     1.0  0.77946  0.55280  0.86802  1.0000
  C   C2860     1.0  0.78416  0.54891  0.88514  1.0000
  H   H3405     1.0  0.98106  0.62564  0.89043  1.0000
  H   H3406     1.0  0.93738  0.50369  0.79780  1.0000
  C   C2861     1.0  0.91267  0.49073  0.84079  1.0000
  C   C2862     1.0  0.76389  0.50401  0.86121  1.0000
  H   H3407     1.0  0.98959  0.59186  0.90154  1.0000
  H   H3408     1.0  0.75654  0.51688  0.85349  1.0000
  C   C2863     1.0  0.91770  0.58316  0.73864  1.0000
  H   H3409     1.0  0.91382  0.62891  0.73277  1.0000
  H   H3410     1.0  0.87615  0.54639  0.88142  1.0000
  H   H3411     1.0  0.73875  0.56052  0.96559  1.0000
  H   H3412     1.0  0.77468  0.54223  0.84711  1.0000
  H   H3413     1.0  0.79060  0.52784  0.90834  1.0000
  H   H3414     1.0  0.77597  0.56698  0.86098  1.0000
  H   H3415     1.0  0.78465  0.55997  0.89125  1.0000
  N   N189      1.0  0.88577  0.52761  0.90495  1.0000
  H   H3416     1.0  0.96159  0.62070  0.88498  1.0000
  H   H3417     1.0  0.82374  0.51890  0.87147  1.0000
  C   C2864     1.0  0.90498  0.52901  0.89626  1.0000
  C   C2865     1.0  0.88217  0.51070  0.90181  1.0000
  C   C2866     1.0  0.78898  0.49544  0.97308  1.0000
  H   H3418     1.0  0.74995  0.49630  0.80885  1.0000
  C   C2867     1.0  0.84401  0.54484  0.83160  1.0000
  Fe  Fe384     1.0  0.82514  0.58434  0.75863  1.0000
  S   S768      1.0  0.81495  0.53441  0.73563  1.0000
  H   H3419     1.0  0.97115  0.58801  0.89382  1.0000
  H   H3420     1.0  0.92452  0.57039  0.74619  1.0000
  C   C2868     1.0  0.89476  0.55701  0.77789  1.0000
  C   C2869     1.0  0.75881  0.49221  0.79661  1.0000
  H   H3421     1.0  0.85874  0.54282  0.90185  1.0000
  H   H3422     1.0  0.69529  0.50689  0.81942  1.0000
  H   H3423     1.0  0.83432  0.53074  0.92696  1.0000
  H   H3424     1.0  0.70199  0.59797  0.81481  1.0000
  C   C2870     1.0  0.70058  0.63241  0.80022  1.0000
  H   H3425     1.0  0.69100  0.52713  0.84131  1.0000
  H   H3426     1.0  0.73830  0.60806  0.81706  1.0000
  C   C2871     1.0  0.93185  0.50366  0.85962  1.0000
  N   N190      1.0  0.98790  0.60549  0.87355  1.0000
  H   H3427     1.0  0.83831  0.48940  0.74811  1.0000
  H   H3428     1.0  0.87915  0.58375  0.76838  1.0000
  H   H3429     1.0  0.97508  0.52265  0.80034  1.0000
  H   H3430     1.0  0.65762  0.60800  0.88734  1.0000
  H   H3431     1.0  0.79274  0.50810  0.76283  1.0000
  C   C2872     1.0  0.88886  0.57594  0.77684  1.0000
  C   C2873     1.0  0.83390  0.51646  0.92877  1.0000
  H   H3432     1.0  0.86333  0.56719  0.83643  1.0000
  H   H3433     1.0  0.73562  0.60906  0.96214  1.0000
  H   H3434     1.0  0.83060  0.56208  0.80138  1.0000
  H   H3435     1.0  0.82794  0.51977  0.90208  1.0000
  C   C2874     1.0  0.87335  0.54409  0.89663  1.0000
  C   C2875     1.0  0.68984  0.50226  0.83384  1.0000
  H   H3436     1.0  0.80650  0.51092  0.83913  1.0000
  H   H3437     1.0  0.88554  0.54105  0.92659  1.0000
  H   H3438     1.0  0.79430  0.49623  0.83419  1.0000
  C   C2876     1.0  0.68746  0.48783  0.92374  1.0000
  H   H3439     1.0  0.70301  0.51037  0.93368  1.0000
  H   H3440     1.0  0.72358  0.59054  0.96807  1.0000
  N   N191      1.0  0.70708  0.48922  0.91829  1.0000
  H   H3441     1.0  0.74640  0.58860  0.95385  1.0000
  H   H3442     1.0  0.89286  0.51674  0.93168  1.0000
  H   H3443     1.0  0.98020  0.61393  0.84686  1.0000
  H   H3444     1.0  0.80884  0.50768  0.97738  1.0000
  C   C2877     1.0  0.98095  0.60209  0.85866  1.0000
  C   C2878     1.0  0.73735  0.59381  0.96601  1.0000
  H   H3445     1.0  0.86018  0.51972  0.77945  1.0000
  H   H3446     1.0  0.84526  0.49368  0.85818  1.0000
  H   H3447     1.0  0.77314  0.58449  0.96769  1.0000
  H   H3448     1.0  0.79147  0.50104  0.95842  1.0000
  N   N192      1.0  0.96490  0.48957  0.80092  1.0000
  H   H3449     1.0  0.97521  0.48673  0.88403  1.0000
  H   H3450     1.0  0.65838  0.57387  0.83984  1.0000
  H   H3451     1.0  0.86617  0.50056  0.82818  1.0000
  C   C2879     1.0  0.88065  0.49603  0.78679  1.0000
  H   H3452     1.0  0.68206  0.48818  0.93854  1.0000
  H   H3453     1.0  0.86583  0.63541  0.73255  1.0000
  H   H3454     1.0  0.72885  0.48701  0.89463  1.0000
  H   H3455     1.0  0.66894  0.48642  0.88524  1.0000
  H   H3456     1.0  0.80664  0.48655  0.86986  1.0000
  C   C2880     1.0  0.79238  0.48651  0.86913  1.0000
