data_image0
_chemical_formula_structural       HSFeS2FeS2FeSFeS3HC2HCHCH3C6H4C7H3C6H3SH4NHCH3C2NCH4C2H3C5NH5CHCH3SC3HC2HCNC2HC3H3CHCH2CH2NC6HC2H14C2H6SCH2FeC3HCHCHCH3CH2C2HC2H2CFeS2FeS2HFeS3FeS2FeSFeSFeS3FeS2FeSHFeSFeCS2Fe2S2FeHFeS3FeS2FeS2FeSFeS3H4C7H4CHC6H6C6H4C6H7C6H4C3H2CHC3H2C2HC2HC2HCSC2HCNC4H10CH3C3HSFeH4CH4NHC2HNC7HCH2NH8CHCNC9H15C2HC2HSCHSCH2C3HCHCHC3HCHSNH2CH2C2H2C2H2CHCHC2HCH2C3H4C2HCH2CH3C2HC2HCH3SHC3HCHCH2CH3CHC3HNH3C2HC2H2CHC3H2Fe2S4FeS2FeS2FeSFeS4C9H4C2H2C2H4C2H5SFeHC2HC2NC6H4SC2H4SHCHCH4NH2C2HCH6CH3CHCHC2H2C3SH3C3H2C4HSC3HSHCH3C3FeCHCH2FeCH2CHCH2FeH2CNC2H4CHCHSH4SC4HNCH5C2H4CH3C2FeCH2CHCHC3HSNH4CNH3CHC4HCHCHCH3CHCH2CSH2SFeS2FeS2FeSFeHS2C2HCHCHC6H4C6H6C2H2CHC2H6CH2CH5CHCH3C4H6CNC6NCH3C2NH2CH3CH4C3H4CHC5H4C2FeS2FeS2FeSFeS3FeS2FeS2FeSFeS3CH3CSNCFeCSFeSFeCS2HFeS2FeS2FeSFeS3FeS2FeS2FeHFeS3H4C6H4C5H3CH2C6SCH2C2H6C2HC6H4C6H4C3HC2H2CHC6H4CH2C3H4C6HSH2C6H5NC9H11CH3CHCNCH7CNH2CSHCFeH2CHSNC9H14CH2N2H2C2HCH4CHC5HCNH4SC2H2C4H6CSC5H6NH4C3HCH4C2H4C3H3C4HCHCH4CH4CH2CH4CNHCHC2HC2H2CH6C2HC2HCHCH2CNCHCH2CH8NHCH2C2HC2HCHC3HCFeS2FeS2FeS2FeSFeCS3HCFeC6H4S2C3H5C6H4C2H2C7HC2SH5NH2CSHSNC6H2CH13CHCHCH2CH2CHC2HCNHCHFeH2SH2CH2Fe2SHCHC2FeSH2CHCFeSFeS2FeSFeS3FeSHFeS2FeSFeS3FeS2HFeCFeS2CFeS2HC2FeSHSHC2H3C2HC5FeNH2C2H3C7H4C2H2C2H4C6H4C2H3CH3C7H6CHCHNC7HCH13CNHC4H3CHC2H4CHNCH3S2H2CH3C3SC3HCH2FeHCH2CHCHCNC2HC2HCHC3HCSC3H2CNHCH2CH3CHSCH2CSCH6C2HCNHCSH2CH4CHCH3NH3CH5C2HCH2CHC2FeSHFeS2FeSHS2FeS2FeS2Fe2S3CHC2H5C5H3C6H4C4H2C2NH3CH3FeHCH2CH2C2H2CH2CSH2NCHC2NC2H5C2H2NCHCHC4HCHCHCSH7CH6C2H6FeS2FeSHFeSFeS3FeSHFeS2FeSFeS3FeS2FeS2FeSFeS3FeCSH5CHNC4HCH4C6H4C6H4C6H4C3HC2HC2H3CHCH4C2H2C2HC2H3C2HNC5HCH3CH2NH3CHC2H2C2H4SH3C3H2CH3CSHC2HCHCH3C2HSCHCHCH4CHCN2C9H12CHC4H4C3H2CHC2H2C2H8C2HCH2C3FeS2FeS2FeSFeS3FeS2FeSHFeSFeS3HFeSHFeSFeSFeS3HCFeS2Fe2CS2C2SH2CHC6HCH2C6H7SC4H4CH2CHC6H4C3HCH2C8H4CNHCH4CHCSHCH3CHCHCH2C2H4CHC2H3CHCHCHNC8H11CHNH2CH4CH2CH2CHCH4CHCHNHCH5CH2CHCSC2HC2SFeCH2SH2C2HCH3C2HCH2CH2C3HC2H4FeS2FeS2FeSFeS3FeSCFeS2FeS2C3HNH4C6H4C2HCHC4H5C5H4CHC3H4CHFeHCSH5CH2CHSHC2NCH2NHC5HC2HC2H2C2HCH5NC3HCSCHCH5C3H2C2H3SC2HC2HC4HCH2CH4CH3CH2C4H3C2NCHCHCH8C2H3C2H2CFeS2FeS2FeSFeS3FeS2FeSCFeSFeS3FeSHFeS2FeSCSHFeHSFeCH2CHS2HCH3SC4H3CH2C6H4C6H5CHC6H4C2HN2CH4C3H2C2HC2H4CH2C6H2CH7CFeC2HCHC4HCH2SCH2CH2CSC2H3C2H3CH2C2HC3H6SCNHCHCHC2H7NC9H14C2NHC2HCHCHCHC3H2NHCH2N2CH2CHSC2H2CH2CH4CHFeS2FeS2FeSFeS3FeS2FeS2FeSFeS3CFeS2FeSFeCSHC4SHC4H2C2HC3SH3C2H2C2H4C6H4C3H2C6H4C3H5C8H5CHC2HCH4NCH2C3HC3H2CSH2CHCH3CHC6H2CHC2HCHCH4C4H3CNHCH2C4HCH3CHCHCHCHNC9H17CHCH2CH3CH4C3H2C2H2NH2CH2FeH2CH4NHC2H2SC2HCH2CHCH3NH3FeCH2CHNCH5CH3C2H2CHC3S2C2HNCHCFeS2FeS2FeSC2S2FeS2FeH2FeSFeCS2HC10H2NHCH2CH2C3NH2CH2C2H2CHCH2C2HSH2CFeH3CHCH4C3FeSCFeS2FeSFeS4HFeS2FeSCFeSFeS3FeS2FeS2FeHFeS3CHC2H4CHC6H4CH3C2H5CHC8H6C6H4C3H3CHSC3HCH2FeHCH2CHC3H2CH5NCHNH2C4HCSH4C3HCSH3SNC5FeC2H6C2H2SNC9H14CHCHCH3C2SCNHCNCH2C2H4CH12CFeCHC2H3SCH4CH2C2H3FeS2FeS2FeSFeS3CFeS2FeS2FeSFeS3H4FeS2FeSFeSFeS3C2HC4H3C7H5C8H4C6H4CHC7H4C7H2C4HC6H5NC2HCHCH2CHCH4C2H2CH4C2HC2HNCHCH3SNCH3SCH2CNCHC2HC2HNCH3NC9H14NC6H2NH14NC2HCHCH2SH5C4H6C4H2CHC3H4CH3CHC2H2C3H2C3HCHCHC3HC2H2CHC3HC2H3C2H2C2H7C4HCH4CH7C2SHCSH2CH2C2HC2NC3FeS2FeSFeSFeS3FeS2FeS2FeCFeS3HCHC6H4C3HC2H2CHC6H4C4HC2H6SH2CH2SHC2NH2SH3C3H2C2HC2HC3NH2SH2C2HCHCH2C4NHCHCH3C2H2C3H2CNH5CHC3H3CH8NH4CH5NHCH2CH3C2HFeS2FeS2FeSFeS3HSCFeS2FeS2FeSFeHS2FeS2FeSFeSFeS3NH3C4H5C8H4C6H4C6H4C2H3CH2CHC2HCHC3H3CHCNC9H14FeCH6C2H2C5H2CH4CH2CH3C3H2CNC2H3CH2SCHC3SCHCHC2NC2H3C3H7CHC2HCHC3HCH6C2H3NHCH2CHNHCHCHC2HCH6CH8CHSHSHFeSFeSH2SFeS2FeS2FeSFeS3C6H4C6H5C6H4C3HNHC6H2CNC9H13C2H5C3FeHCH3CH4C2H2CH2CSHC2H2C2H2CHC4HCH2NC9H8C2H7CSHCH2NC2H2C2H3CSH3NC2SFeC2SC2HCHFeHSFeHSCH2S2FeSCFeS2FeSFeS3FeS2FeS2FeHFeS3FeSCFeS2FeCFeS2FeS2FeS2FeSFeS3HC3HNSH2CHC6H4C6H4C6H4C6H5CHCHC2H2C2H2C6H4CSHC3H3C2H2C2H4CHSHNC9H11C3NCSC5HSHCH3CHCHNCSH2C2H3CFeH4CHNCH4C2H3C3H2NC9H25SC2H10CSC2H2C2SH2C2H3CH6CH2SH2CH4C3HC2HC2HC2H2CHCNC3H2NCHCH2S2HCH3FeSNFeHSFeCHNCS2FeS2FeS2FeSFeS3H2C5SH2CHC3HC6H5FeH4C6H5C2H4NC5HCH7CH6C3NH2C6HCH3CH6CH3NH2CHNHCHCH2CH2C2H2C4HC2H2SCHCSHC2H5CH2CHSCNHCH2CHC2HCH2CHCH4SC4H6C3HNH3CFeH2C4H2Fe2S2FeS2FeS2FeS2H2FeS3C2SH2FeHC6H6C7H5C3HNHCHSCH4CHFeH4CHSNC8H7CH3CHCH2CHNH2FeS2FeSHFeSFeS3FeSHFeS2FeSFeS3H2CHSHFeSFeSFeS2FeS2FeSFeS3FeS2FeS2FeSFeS3C6H2CHC6H4C4HC3H5C5H4C2H2CH3SC2HC6H4C6H4C6H4CHC4HCH2C6H8NC9H15C2NCH4CH2NH3CH2CH2C2H2C2HSH3CH5CHC2HNHC2H2CFeH3CH6NHNC2HC4HC2HCSHC3HNH8CHCHC3HCH2C3HCHCH2C2HC2HCH3CH3SC2H2CHCH2C3HC2H3CHC2NCHC2H2C2H2CH4CH2CSC2H3SCHCH3NH2C2HCFeNHC2H2SHSFeSFeH2SHSHFeSFeSFeS2FeSNFeSHCS2C6H4C6H9FeCH4CNH3CHC2H2C3FeCFeCH5C4H2SH7SCHCSH2SHC2HCHC2H2CSHFeHCH
_chemical_formula_sum              "H2592 S576 Fe288 C2160 N144"
_cell_length_a       72.7696
_cell_length_b       71.9801
_cell_length_c       72.0083
_cell_angle_alpha    81.4168
_cell_angle_beta     81.3647
_cell_angle_gamma    81.2053

_space_group_name_H-M_alt    "P 1"
_space_group_IT_number       1

loop_
  _space_group_symop_operation_xyz
  'x, y, z'

loop_
  _atom_site_type_symbol
  _atom_site_label
  _atom_site_symmetry_multiplicity
  _atom_site_fract_x
  _atom_site_fract_y
  _atom_site_fract_z
  _atom_site_occupancy
  H   H1        1.0  0.01189  0.37057  0.30672  1.0000
  S   S1        1.0  0.21651  0.39083  0.14046  1.0000
  Fe  Fe1       1.0  0.10598  0.39347  0.16788  1.0000
  S   S2        1.0  0.10620  0.40954  0.19214  1.0000
  S   S3        1.0  0.12781  0.39778  0.14179  1.0000
  Fe  Fe2       1.0  0.06875  0.37859  0.18569  1.0000
  S   S4        1.0  0.06663  0.39349  0.21129  1.0000
  S   S5        1.0  0.04525  0.36076  0.18702  1.0000
  Fe  Fe3       1.0  0.07548  0.41775  0.19059  1.0000
  S   S6        1.0  0.06088  0.44718  0.19281  1.0000
  Fe  Fe4       1.0  0.09744  0.38376  0.21081  1.0000
  S   S7        1.0  0.11180  0.37295  0.23684  1.0000
  S   S8        1.0  0.07546  0.40386  0.16481  1.0000
  S   S9        1.0  0.09930  0.36666  0.18667  1.0000
  H   H2        1.0  0.18696  0.38166  0.16996  1.0000
  C   C1        1.0  0.02360  0.37021  0.17876  1.0000
  C   C2        1.0  0.00754  0.36146  0.18598  1.0000
  H   H3        1.0  0.14746  0.44781  0.19792  1.0000
  C   C3        1.0  0.13874  0.44235  0.18902  1.0000
  H   H4        1.0  0.05302  0.33358  0.30638  1.0000
  C   C4        1.0  0.02213  0.38605  0.16497  1.0000
  H   H5        1.0  0.00860  0.34906  0.19649  1.0000
  H   H6        1.0  0.01321  0.40924  0.21775  1.0000
  H   H7        1.0  0.03448  0.39264  0.15901  1.0000
  C   C5        1.0  0.09962  0.37872  0.25870  1.0000
  C   C6        1.0  0.08241  0.39041  0.25954  1.0000
  C   C7        1.0  0.07237  0.39404  0.27710  1.0000
  C   C8        1.0  0.07963  0.38629  0.29394  1.0000
  C   C9        1.0  0.09707  0.37499  0.29321  1.0000
  C   C10       1.0  0.10702  0.37116  0.27558  1.0000
  H   H8        1.0  0.07673  0.39656  0.24668  1.0000
  H   H9        1.0  0.05890  0.40286  0.27759  1.0000
  H   H10       1.0  0.10273  0.36892  0.30618  1.0000
  H   H11       1.0  0.12037  0.36211  0.27499  1.0000
  C   C11       1.0  0.09463  0.47698  0.22451  1.0000
  C   C12       1.0  0.08190  0.48752  0.21294  1.0000
  C   C13       1.0  0.07090  0.47829  0.20390  1.0000
  C   C14       1.0  0.07277  0.45850  0.20624  1.0000
  C   C15       1.0  0.08490  0.44795  0.21847  1.0000
  C   C16       1.0  0.09581  0.45721  0.22768  1.0000
  C   C17       1.0  0.06982  0.34688  0.24938  1.0000
  H   H12       1.0  0.06156  0.48651  0.19449  1.0000
  H   H13       1.0  0.08603  0.43265  0.22068  1.0000
  H   H14       1.0  0.10562  0.44903  0.23666  1.0000
  C   C18       1.0  0.19181  0.39359  0.14063  1.0000
  C   C19       1.0  0.18324  0.40149  0.12460  1.0000
  C   C20       1.0  0.16360  0.40291  0.12529  1.0000
  C   C21       1.0  0.15233  0.39654  0.14197  1.0000
  C   C22       1.0  0.16086  0.38914  0.15814  1.0000
  C   C23       1.0  0.18050  0.38767  0.15744  1.0000
  H   H15       1.0  0.19170  0.40649  0.11169  1.0000
  H   H16       1.0  0.15707  0.40892  0.11279  1.0000
  H   H17       1.0  0.15237  0.38420  0.17108  1.0000
  S   S10       1.0  0.23721  0.40906  0.08523  1.0000
  H   H18       1.0  0.12107  0.48365  0.16485  1.0000
  H   H19       1.0  0.00775  0.41044  0.19418  1.0000
  H   H20       1.0  0.12515  0.44020  0.19792  1.0000
  H   H21       1.0  0.08214  0.44873  0.28007  1.0000
  N   N1        1.0  0.01261  0.48908  0.17823  1.0000
  H   H22       1.0  0.09423  0.41395  0.32053  1.0000
  C   C24       1.0  0.16760  0.44477  0.15436  1.0000
  H   H23       1.0  0.02606  0.32141  0.29436  1.0000
  H   H24       1.0  0.00395  0.40469  0.14717  1.0000
  H   H25       1.0  0.00080  0.47682  0.20564  1.0000
  C   C25       1.0  0.19046  0.46619  0.14215  1.0000
  C   C26       1.0  0.12593  0.44707  0.15929  1.0000
  N   N2        1.0  0.13601  0.45572  0.17157  1.0000
  C   C27       1.0  0.05929  0.34723  0.23468  1.0000
  H   H26       1.0  0.18212  0.49527  0.14699  1.0000
  H   H27       1.0  0.20416  0.46868  0.13474  1.0000
  H   H28       1.0  0.11723  0.48770  0.33073  1.0000
  H   H29       1.0  0.22600  0.39391  0.05049  1.0000
  C   C28       1.0  0.22335  0.38601  0.00546  1.0000
  C   C29       1.0  0.21852  0.39356  0.02268  1.0000
  H   H30       1.0  0.03604  0.34781  0.32089  1.0000
  H   H31       1.0  0.12831  0.42642  0.29340  1.0000
  H   H32       1.0  0.19219  0.35550  0.01565  1.0000
  C   C30       1.0  0.10920  0.46502  0.31850  1.0000
  C   C31       1.0  0.01448  0.48069  0.19808  1.0000
  C   C32       1.0  0.04111  0.34942  0.27220  1.0000
  C   C33       1.0  0.11501  0.48816  0.28396  1.0000
  C   C34       1.0  0.12369  0.47290  0.17731  1.0000
  N   N3        1.0  0.03118  0.35044  0.29162  1.0000
  H   H33       1.0  0.15158  0.49026  0.16358  1.0000
  H   H34       1.0  0.07642  0.42807  0.29553  1.0000
  H   H35       1.0  0.13288  0.43275  0.15636  1.0000
  H   H36       1.0  0.19497  0.43638  0.13959  1.0000
  H   H37       1.0  0.11478  0.43445  0.27410  1.0000
  C   C35       1.0  0.16036  0.47801  0.15857  1.0000
  H   H38       1.0  0.03040  0.45359  0.17191  1.0000
  C   C36       1.0  0.06097  0.34807  0.26789  1.0000
  H   H39       1.0  0.03049  0.49946  0.15348  1.0000
  H   H40       1.0  0.20579  0.40337  0.02486  1.0000
  H   H41       1.0  0.02918  0.38077  0.28925  1.0000
  S   S11       1.0  0.06607  0.39078  0.31549  1.0000
  C   C37       1.0  0.01841  0.33568  0.29663  1.0000
  C   C38       1.0  0.15454  0.45967  0.16142  1.0000
  C   C39       1.0  0.19283  0.35528  0.03065  1.0000
  H   H42       1.0  0.06623  0.34641  0.22034  1.0000
  C   C40       1.0  0.00276  0.40595  0.20936  1.0000
  C   C41       1.0  0.17805  0.48112  0.14902  1.0000
  H   H43       1.0  0.11213  0.42525  0.32692  1.0000
  C   C42       1.0  0.18526  0.44803  0.14485  1.0000
  N   N4        1.0  0.10024  0.43938  0.30190  1.0000
  C   C43       1.0  0.08168  0.44192  0.29503  1.0000
  C   C44       1.0  0.23979  0.37332  0.00267  1.0000
  H   H44       1.0  0.01565  0.35158  0.25884  1.0000
  C   C45       1.0  0.10623  0.45819  0.30178  1.0000
  C   C46       1.0  0.10913  0.47043  0.28451  1.0000
  C   C47       1.0  0.01709  0.45726  0.16646  1.0000
  H   H45       1.0  0.00328  0.39024  0.21118  1.0000
  H   H46       1.0  0.12496  0.45604  0.14539  1.0000
  H   H47       1.0  0.10968  0.46953  0.18438  1.0000
  C   C48       1.0  0.22995  0.38823  0.03718  1.0000
  H   H48       1.0  0.00953  0.37237  0.28222  1.0000
  C   C49       1.0  0.00623  0.47522  0.16815  1.0000
  H   H49       1.0  0.22147  0.34222  0.02895  1.0000
  H   H50       1.0  0.01970  0.43005  0.15657  1.0000
  C   C50       1.0  0.03080  0.35011  0.25679  1.0000
  H   H51       1.0  0.10704  0.46631  0.27121  1.0000
  H   H52       1.0  0.12972  0.47942  0.18773  1.0000
  N   N5        1.0  0.19716  0.35735  0.08950  1.0000
  C   C51       1.0  0.21008  0.37128  0.08990  1.0000
  C   C52       1.0  0.17912  0.36334  0.10110  1.0000
  C   C53       1.0  0.20509  0.33862  0.09879  1.0000
  C   C54       1.0  0.19520  0.35622  0.06952  1.0000
  C   C55       1.0  0.21065  0.34847  0.05722  1.0000
  C   C56       1.0  0.17847  0.36362  0.06142  1.0000
  H   H53       1.0  0.11022  0.41351  0.28952  1.0000
  C   C57       1.0  0.17744  0.36314  0.04224  1.0000
  C   C58       1.0  0.20933  0.34780  0.03817  1.0000
  H   H54       1.0  0.21198  0.37273  0.10468  1.0000
  H   H55       1.0  0.22425  0.36720  0.08224  1.0000
  H   H56       1.0  0.20466  0.38556  0.08300  1.0000
  H   H57       1.0  0.17315  0.37811  0.09614  1.0000
  H   H58       1.0  0.18088  0.36332  0.11622  1.0000
  H   H59       1.0  0.16856  0.35371  0.10093  1.0000
  H   H60       1.0  0.21984  0.33422  0.09280  1.0000
  H   H61       1.0  0.20546  0.33879  0.11419  1.0000
  H   H62       1.0  0.19662  0.32739  0.09736  1.0000
  H   H63       1.0  0.22417  0.34353  0.06197  1.0000
  H   H64       1.0  0.16608  0.37014  0.06947  1.0000
  H   H65       1.0  0.07104  0.45081  0.30390  1.0000
  H   H66       1.0  0.16474  0.36923  0.03619  1.0000
  H   H67       1.0  0.08498  0.34586  0.24634  1.0000
  C   C59       1.0  0.11399  0.42803  0.28918  1.0000
  C   C60       1.0  0.01106  0.44363  0.15769  1.0000
  H   H68       1.0  0.14574  0.42810  0.18585  1.0000
  H   H69       1.0  0.11136  0.44517  0.16590  1.0000
  H   H70       1.0  0.07004  0.34808  0.27846  1.0000
  H   H71       1.0  0.01932  0.49072  0.20609  1.0000
  H   H72       1.0  0.16426  0.43043  0.15619  1.0000
  H   H73       1.0  0.05305  0.35891  0.30448  1.0000
  S   S12       1.0  0.11008  0.48852  0.23357  1.0000
  C   C61       1.0  0.00481  0.39291  0.15833  1.0000
  H   H74       1.0  0.01202  0.33487  0.31174  1.0000
  H   H75       1.0  0.00638  0.33850  0.28831  1.0000
  Fe  Fe5       1.0  0.23908  0.39521  0.11516  1.0000
  C   C62       1.0  0.04395  0.34750  0.30640  1.0000
  C   C63       1.0  0.01996  0.36937  0.29244  1.0000
  C   C64       1.0  0.03111  0.49400  0.16871  1.0000
  H   H76       1.0  0.02491  0.46773  0.19896  1.0000
  C   C65       1.0  0.11492  0.48285  0.31781  1.0000
  H   H77       1.0  0.04231  0.48162  0.16941  1.0000
  C   C66       1.0  0.03982  0.34894  0.23835  1.0000
  H   H78       1.0  0.03173  0.34939  0.22675  1.0000
  C   C67       1.0  0.09854  0.42806  0.32097  1.0000
  H   H79       1.0  0.23291  0.49382  0.02676  1.0000
  H   H80       1.0  0.99828  0.42055  0.24657  1.0000
  H   H81       1.0  0.08775  0.43520  0.33120  1.0000
  C   C68       1.0  0.11795  0.49434  0.30057  1.0000
  H   H82       1.0  0.11752  0.49700  0.27048  1.0000
  H   H83       1.0  0.10739  0.45679  0.33231  1.0000
  C   C69       1.0  0.24438  0.43366  0.99938  1.0000
  C   C70       1.0  0.02410  0.21148  0.62103  1.0000
  H   H84       1.0  0.06056  0.21476  0.53737  1.0000
  C   C71       1.0  0.14275  0.22070  0.41799  1.0000
  C   C72       1.0  0.99928  0.19544  0.47936  1.0000
  H   H85       1.0  0.10563  0.22721  0.41751  1.0000
  H   H86       1.0  0.00208  0.43124  0.41495  1.0000
  C   C73       1.0  0.01346  0.20241  0.61128  1.0000
  Fe  Fe6       1.0  0.09370  0.40278  0.37101  1.0000
  S   S13       1.0  0.06543  0.40629  0.36150  1.0000
  S   S14       1.0  0.10908  0.42835  0.36940  1.0000
  Fe  Fe7       1.0  0.09709  0.35908  0.37574  1.0000
  S   S15       1.0  0.06946  0.35948  0.36552  1.0000
  S   S16       1.0  0.11432  0.33160  0.38710  1.0000
  H   H87       1.0  0.01365  0.21045  0.42586  1.0000
  Fe  Fe8       1.0  0.05944  0.38228  0.38406  1.0000
  S   S17       1.0  0.03097  0.37970  0.40026  1.0000
  S   S18       1.0  0.10655  0.38104  0.35159  1.0000
  S   S19       1.0  0.08657  0.38072  0.39581  1.0000
  Fe  Fe9       1.0  0.16171  0.11112  0.60349  1.0000
  S   S20       1.0  0.18947  0.12060  0.59164  1.0000
  S   S21       1.0  0.13467  0.13172  0.60205  1.0000
  Fe  Fe10      1.0  0.17870  0.06883  0.60890  1.0000
  S   S22       1.0  0.20781  0.07529  0.59741  1.0000
  Fe  Fe11      1.0  0.20115  0.09947  0.61457  1.0000
  S   S23       1.0  0.22476  0.10773  0.62704  1.0000
  Fe  Fe12      1.0  0.19384  0.09579  0.57560  1.0000
  S   S24       1.0  0.20577  0.10017  0.54508  1.0000
  S   S25       1.0  0.17288  0.09181  0.62819  1.0000
  S   S26       1.0  0.16524  0.08745  0.58545  1.0000
  Fe  Fe13      1.0  0.18659  0.03526  0.48636  1.0000
  S   S27       1.0  0.15621  0.03440  0.48602  1.0000
  S   S28       1.0  0.19936  0.02584  0.51308  1.0000
  Fe  Fe14      1.0  0.19444  0.04353  0.44450  1.0000
  S   S29       1.0  0.16453  0.04271  0.43983  1.0000
  H   H88       1.0  0.17079  0.14471  0.54623  1.0000
  Fe  Fe15      1.0  0.15696  0.06011  0.46415  1.0000
  S   S30       1.0  0.13078  0.08173  0.46780  1.0000
  Fe  Fe16      1.0  0.16545  0.01709  0.46210  1.0000
  C   C74       1.0  0.12673  0.32410  0.65936  1.0000
  S   S31       1.0  0.18666  0.06281  0.46708  1.0000
  S   S32       1.0  0.19588  0.01627  0.46410  1.0000
  Fe  Fe17      1.0  0.07548  0.27254  0.64123  1.0000
  Fe  Fe18      1.0  0.07189  0.26297  0.60222  1.0000
  S   S33       1.0  0.07351  0.23152  0.61103  1.0000
  S   S34       1.0  0.06576  0.27547  0.57299  1.0000
  Fe  Fe19      1.0  0.05473  0.23973  0.63690  1.0000
  H   H89       1.0  0.11073  0.17273  0.65972  1.0000
  Fe  Fe20      1.0  0.09701  0.23564  0.62623  1.0000
  S   S35       1.0  0.12353  0.21432  0.62749  1.0000
  S   S36       1.0  0.05071  0.27079  0.62670  1.0000
  S   S37       1.0  0.09677  0.26693  0.61572  1.0000
  Fe  Fe21      1.0  0.08421  0.23412  0.45012  1.0000
  S   S38       1.0  0.07669  0.20575  0.44626  1.0000
  S   S39       1.0  0.07705  0.25848  0.42695  1.0000
  Fe  Fe22      1.0  0.09554  0.21874  0.48936  1.0000
  S   S40       1.0  0.08859  0.18965  0.48852  1.0000
  S   S41       1.0  0.10923  0.22145  0.51466  1.0000
  Fe  Fe23      1.0  0.10306  0.19281  0.45873  1.0000
  S   S42       1.0  0.12675  0.17151  0.44686  1.0000
  Fe  Fe24      1.0  0.06283  0.20504  0.47643  1.0000
  S   S43       1.0  0.03408  0.19733  0.48890  1.0000
  S   S44       1.0  0.11169  0.22126  0.46022  1.0000
  S   S45       1.0  0.06869  0.23400  0.47967  1.0000
  H   H90       1.0  0.13460  0.28989  0.35988  1.0000
  H   H91       1.0  0.03567  0.46914  0.35862  1.0000
  H   H92       1.0  0.11629  0.29784  0.65849  1.0000
  H   H93       1.0  0.03649  0.20874  0.44843  1.0000
  C   C75       1.0  0.10084  0.48506  0.37243  1.0000
  C   C76       1.0  0.07835  0.26130  0.55628  1.0000
  C   C77       1.0  0.09354  0.24801  0.56118  1.0000
  C   C78       1.0  0.10303  0.23603  0.54818  1.0000
  C   C79       1.0  0.09723  0.23708  0.53032  1.0000
  C   C80       1.0  0.08208  0.25042  0.52535  1.0000
  C   C81       1.0  0.07272  0.26263  0.53829  1.0000
  H   H94       1.0  0.09804  0.24703  0.57498  1.0000
  H   H95       1.0  0.11482  0.22588  0.55204  1.0000
  H   H96       1.0  0.07763  0.25141  0.51155  1.0000
  H   H97       1.0  0.06092  0.27285  0.53453  1.0000
  C   C82       1.0  0.01664  0.21690  0.63879  1.0000
  H   H98       1.0  0.10423  0.27804  0.37073  1.0000
  C   C83       1.0  0.13011  0.10667  0.46202  1.0000
  C   C84       1.0  0.14602  0.11500  0.45370  1.0000
  C   C85       1.0  0.14481  0.13488  0.44928  1.0000
  C   C86       1.0  0.12781  0.14663  0.45343  1.0000
  C   C87       1.0  0.11202  0.13831  0.46215  1.0000
  C   C88       1.0  0.11313  0.11843  0.46623  1.0000
  H   H99       1.0  0.15920  0.10616  0.45040  1.0000
  H   H100      1.0  0.15711  0.14118  0.44252  1.0000
  H   H101      1.0  0.09883  0.14717  0.46535  1.0000
  H   H102      1.0  0.10074  0.11215  0.47273  1.0000
  H   H103      1.0  0.12570  0.10701  0.50119  1.0000
  H   H104      1.0  0.06243  0.29756  0.44363  1.0000
  C   C89       1.0  0.13213  0.15487  0.60857  1.0000
  C   C90       1.0  0.11557  0.16727  0.60581  1.0000
  C   C91       1.0  0.11298  0.18570  0.61101  1.0000
  C   C92       1.0  0.12677  0.19180  0.61937  1.0000
  C   C93       1.0  0.14348  0.17952  0.62177  1.0000
  C   C94       1.0  0.14622  0.16120  0.61628  1.0000
  H   H105      1.0  0.10466  0.16254  0.59972  1.0000
  H   H106      1.0  0.10029  0.19517  0.60867  1.0000
  H   H107      1.0  0.15429  0.18414  0.62812  1.0000
  H   H108      1.0  0.15907  0.15184  0.61839  1.0000
  C   C95       1.0  0.20742  0.07870  0.53611  1.0000
  C   C96       1.0  0.21031  0.07828  0.51655  1.0000
  C   C97       1.0  0.20901  0.06158  0.50932  1.0000
  C   C98       1.0  0.20495  0.04538  0.52169  1.0000
  C   C99       1.0  0.20352  0.04544  0.54121  1.0000
  C   C100      1.0  0.20446  0.06219  0.54845  1.0000
  H   H109      1.0  0.21287  0.09099  0.50699  1.0000
  H   H110      1.0  0.21096  0.06132  0.49422  1.0000
  H   H111      1.0  0.20071  0.03281  0.55075  1.0000
  H   H112      1.0  0.20222  0.06239  0.56357  1.0000
  H   H113      1.0  0.11164  0.00397  0.44484  1.0000
  H   H114      1.0  0.10939  0.49647  0.36971  1.0000
  H   H115      1.0  0.17694  0.01030  0.56090  1.0000
  C   C101      1.0  0.10411  0.31110  0.39790  1.0000
  C   C102      1.0  0.08644  0.30817  0.39442  1.0000
  C   C103      1.0  0.07861  0.29186  0.40329  1.0000
  C   C104      1.0  0.08808  0.27846  0.41610  1.0000
  C   C105      1.0  0.10574  0.28136  0.41968  1.0000
  C   C106      1.0  0.11380  0.29750  0.41042  1.0000
  H   H116      1.0  0.07890  0.31837  0.38470  1.0000
  H   H117      1.0  0.06503  0.28964  0.40028  1.0000
  H   H118      1.0  0.11324  0.27114  0.42942  1.0000
  H   H119      1.0  0.12751  0.29959  0.41316  1.0000
  C   C107      1.0  0.07896  0.45518  0.37969  1.0000
  C   C108      1.0  0.09810  0.45145  0.37321  1.0000
  C   C109      1.0  0.10897  0.46647  0.36962  1.0000
  H   H120      1.0  0.03155  0.21090  0.52666  1.0000
  H   H121      1.0  0.07046  0.44374  0.38258  1.0000
  C   C110      1.0  0.01757  0.19962  0.47284  1.0000
  H   H122      1.0  0.08524  0.02717  0.44417  1.0000
  C   C111      1.0  0.15079  0.26448  0.37177  1.0000
  C   C112      1.0  0.07848  0.32763  0.64483  1.0000
  C   C113      1.0  0.07963  0.34712  0.64412  1.0000
  H   H123      1.0  0.08315  0.32059  0.63236  1.0000
  H   H124      1.0  0.08507  0.35500  0.63098  1.0000
  C   C114      1.0  0.04730  0.21923  0.54563  1.0000
  C   C115      1.0  0.00282  0.36364  0.38964  1.0000
  H   H125      1.0  0.05694  0.33124  0.60572  1.0000
  C   C116      1.0  0.12112  0.02921  0.42752  1.0000
  C   C117      1.0  0.00952  0.20644  0.44082  1.0000
  H   H126      1.0  0.22572  0.05464  0.45959  1.0000
  C   C118      1.0  0.09949  0.12490  0.64889  1.0000
  C   C119      1.0  0.17541  0.02299  0.58657  1.0000
  H   H127      1.0  0.17681  0.03706  0.57926  1.0000
  C   C120      1.0  0.24326  0.02108  0.61141  1.0000
  S   S46       1.0  0.07821  0.24161  0.65302  1.0000
  C   C121      1.0  0.03040  0.21715  0.53961  1.0000
  C   C122      1.0  0.01281  0.22309  0.55009  1.0000
  H   H128      1.0  0.03560  0.38594  0.35958  1.0000
  C   C123      1.0  0.12065  0.00943  0.43256  1.0000
  N   N6        1.0  0.14656  0.08302  0.52574  1.0000
  C   C124      1.0  0.16084  0.08550  0.50886  1.0000
  C   C125      1.0  0.15666  0.07392  0.54190  1.0000
  C   C126      1.0  0.13404  0.06973  0.52243  1.0000
  C   C127      1.0  0.13533  0.10152  0.52894  1.0000
  H   H129      1.0  0.17028  0.09574  0.51059  1.0000
  H   H130      1.0  0.16982  0.07188  0.50644  1.0000
  H   H131      1.0  0.15452  0.09066  0.49559  1.0000
  H   H132      1.0  0.16670  0.08302  0.54481  1.0000
  H   H133      1.0  0.16510  0.06013  0.53898  1.0000
  H   H134      1.0  0.14683  0.07071  0.55502  1.0000
  H   H135      1.0  0.12736  0.07460  0.50933  1.0000
  H   H136      1.0  0.14186  0.05539  0.52076  1.0000
  H   H137      1.0  0.12262  0.06812  0.53448  1.0000
  H   H138      1.0  0.14057  0.10229  0.55807  1.0000
  C   C128      1.0  0.04722  0.22724  0.56210  1.0000
  H   H139      1.0  0.10249  0.24742  0.38944  1.0000
  H   H140      1.0  0.22596  0.06711  0.63729  1.0000
  H   H141      1.0  0.05437  0.27561  0.47161  1.0000
  C   C129      1.0  0.99595  0.45093  0.38124  1.0000
  C   C130      1.0  0.23761  0.05801  0.44949  1.0000
  C   C131      1.0  0.04309  0.33422  0.61353  1.0000
  H   H142      1.0  0.00251  0.31511  0.62588  1.0000
  S   S47       1.0  0.03062  0.22540  0.65272  1.0000
  Fe  Fe25      1.0  0.07755  0.38339  0.34349  1.0000
  H   H143      1.0  0.04909  0.35973  0.62097  1.0000
  H   H144      1.0  0.01952  0.19750  0.59792  1.0000
  H   H145      1.0  0.99716  0.40870  0.41022  1.0000
  H   H146      1.0  0.00052  0.23632  0.57533  1.0000
  C   C132      1.0  0.01478  0.45167  0.37266  1.0000
  H   H147      1.0  0.13497  0.04955  0.40612  1.0000
  H   H148      1.0  0.05661  0.16526  0.63553  1.0000
  H   H149      1.0  0.03990  0.28733  0.50179  1.0000
  H   H150      1.0  0.00395  0.22020  0.51427  1.0000
  N   N7        1.0  0.10893  0.04293  0.43898  1.0000
  H   H151      1.0  0.03032  0.23998  0.58514  1.0000
  C   C133      1.0  0.11634  0.25133  0.38463  1.0000
  C   C134      1.0  0.11249  0.03862  0.45905  1.0000
  H   H152      1.0  0.12379  0.46368  0.36465  1.0000
  N   N8        1.0  0.05798  0.33660  0.43965  1.0000
  C   C135      1.0  0.05288  0.35696  0.44211  1.0000
  C   C136      1.0  0.07864  0.33312  0.43477  1.0000
  C   C137      1.0  0.04898  0.33338  0.42343  1.0000
  C   C138      1.0  0.05224  0.32344  0.45668  1.0000
  C   C139      1.0  0.05583  0.30352  0.45630  1.0000
  C   C140      1.0  0.04366  0.32973  0.47416  1.0000
  C   C141      1.0  0.05131  0.29074  0.47235  1.0000
  H   H153      1.0  0.10299  0.07291  0.44174  1.0000
  C   C142      1.0  0.04314  0.29733  0.48930  1.0000
  H   H154      1.0  0.05989  0.36080  0.45344  1.0000
  H   H155      1.0  0.05730  0.36633  0.42892  1.0000
  N   N9        1.0  0.01484  0.37184  0.64277  1.0000
  H   H156      1.0  0.08365  0.34224  0.42163  1.0000
  H   H157      1.0  0.08363  0.31826  0.43224  1.0000
  H   H158      1.0  0.08597  0.33585  0.44640  1.0000
  H   H159      1.0  0.05337  0.34280  0.41028  1.0000
  H   H160      1.0  0.05263  0.31869  0.41991  1.0000
  H   H161      1.0  0.03341  0.33624  0.42640  1.0000
  H   H162      1.0  0.02471  0.43891  0.37184  1.0000
  H   H163      1.0  0.00010  0.38807  0.62061  1.0000
  C   C143      1.0  0.03027  0.23348  0.57249  1.0000
  H   H164      1.0  0.00061  0.25016  0.39951  1.0000
  C   C144      1.0  0.14512  0.02146  0.40090  1.0000
  N   N10       1.0  0.14638  0.17922  0.54840  1.0000
  C   C145      1.0  0.12599  0.18134  0.55527  1.0000
  C   C146      1.0  0.15643  0.17175  0.56504  1.0000
  C   C147      1.0  0.15181  0.19826  0.54102  1.0000
  C   C148      1.0  0.15062  0.16695  0.53307  1.0000
  C   C149      1.0  0.16350  0.14992  0.53408  1.0000
  C   C150      1.0  0.14202  0.17212  0.51625  1.0000
  C   C151      1.0  0.16752  0.13898  0.51909  1.0000
  C   C152      1.0  0.14609  0.16104  0.50138  1.0000
  C   C153      1.0  0.15883  0.14452  0.50279  1.0000
  H   H165      1.0  0.12128  0.16733  0.56076  1.0000
  H   H166      1.0  0.12241  0.19029  0.56701  1.0000
  H   H167      1.0  0.11736  0.18833  0.54403  1.0000
  H   H168      1.0  0.15280  0.15751  0.57149  1.0000
  H   H169      1.0  0.15265  0.18107  0.57648  1.0000
  H   H170      1.0  0.17192  0.17071  0.56120  1.0000
  H   H171      1.0  0.14356  0.20569  0.52964  1.0000
  H   H172      1.0  0.14940  0.20774  0.55230  1.0000
  H   H173      1.0  0.16689  0.19727  0.53502  1.0000
  H   H174      1.0  0.13216  0.18490  0.51437  1.0000
  H   H175      1.0  0.13935  0.16535  0.48863  1.0000
  H   H176      1.0  0.16197  0.13604  0.49117  1.0000
  H   H177      1.0  0.13687  0.23296  0.42583  1.0000
  H   H178      1.0  0.16347  0.23833  0.38519  1.0000
  H   H179      1.0  0.10866  0.02461  0.46588  1.0000
  C   C154      1.0  0.02254  0.20537  0.45357  1.0000
  C   C155      1.0  0.08899  0.04143  0.43809  1.0000
  H   H180      1.0  0.17760  0.12621  0.52016  1.0000
  C   C156      1.0  0.13361  0.10930  0.54624  1.0000
  C   C157      1.0  0.07090  0.47370  0.38290  1.0000
  H   H181      1.0  0.14161  0.20746  0.42812  1.0000
  S   S48       1.0  0.17356  0.03846  0.62011  1.0000
  C   C158      1.0  0.06379  0.17721  0.63759  1.0000
  H   H182      1.0  0.10544  0.21530  0.39715  1.0000
  S   S49       1.0  0.21968  0.04687  0.42258  1.0000
  C   C159      1.0  0.00761  0.34136  0.63403  1.0000
  H   H183      1.0  0.15799  0.22134  0.41397  1.0000
  H   H184      1.0  0.01657  0.41882  0.39708  1.0000
  C   C160      1.0  0.00892  0.48576  0.36490  1.0000
  C   C161      1.0  0.12524  0.11215  0.51458  1.0000
  C   C162      1.0  0.12253  0.12661  0.54888  1.0000
  H   H185      1.0  0.12139  0.13209  0.56232  1.0000
  C   C163      1.0  0.15025  0.24656  0.38235  1.0000
  H   H186      1.0  0.11387  0.20245  0.41800  1.0000
  C   C164      1.0  0.11358  0.21636  0.40877  1.0000
  H   H187      1.0  0.07117  0.13749  0.64824  1.0000
  C   C165      1.0  0.08815  0.15788  0.65425  1.0000
  C   C166      1.0  0.17335  0.01996  0.60637  1.0000
  C   C167      1.0  0.12110  0.14437  0.65582  1.0000
  H   H188      1.0  0.03828  0.21358  0.61511  1.0000
  C   C168      1.0  0.02032  0.35479  0.63288  1.0000
  H   H189      1.0  0.06032  0.22878  0.56674  1.0000
  S   S50       1.0  0.07546  0.38105  0.65861  1.0000
  N   N11       1.0  0.13277  0.22095  0.40140  1.0000
  H   H190      1.0  0.12663  0.06518  0.43299  1.0000
  H   H191      1.0  0.05618  0.47641  0.38831  1.0000
  C   C169      1.0  0.11292  0.13672  0.53440  1.0000
  H   H192      1.0  0.12756  0.03846  0.46015  1.0000
  H   H193      1.0  0.13546  0.20556  0.37753  1.0000
  C   C170      1.0  0.13297  0.23957  0.38944  1.0000
  C   C171      1.0  0.11429  0.12951  0.51727  1.0000
  H   H194      1.0  0.99541  0.19080  0.49422  1.0000
  H   H195      1.0  0.06653  0.20341  0.65866  1.0000
  C   C172      1.0  0.01110  0.36581  0.66343  1.0000
  C   C173      1.0  0.02117  0.46888  0.36483  1.0000
  H   H196      1.0  0.02497  0.39735  0.64735  1.0000
  H   H197      1.0  0.10684  0.13741  0.50597  1.0000
  C   C174      1.0  0.11754  0.12713  0.65154  1.0000
  H   H198      1.0  0.08588  0.04406  0.42317  1.0000
  C   C175      1.0  0.08179  0.48871  0.37926  1.0000
  H   H199      1.0  0.14218  0.19142  0.39888  1.0000
  C   C176      1.0  0.14447  0.00216  0.40645  1.0000
  C   C177      1.0  0.07398  0.35642  0.66030  1.0000
  H   H200      1.0  0.04035  0.34455  0.47588  1.0000
  C   C178      1.0  0.14239  0.20567  0.39029  1.0000
  H   H201      1.0  0.10835  0.06774  0.41787  1.0000
  H   H202      1.0  0.10449  0.04939  0.46787  1.0000
  C   C179      1.0  0.13423  0.27580  0.36767  1.0000
  C   C180      1.0  0.02406  0.37792  0.36437  1.0000
  C   C181      1.0  0.01823  0.37354  0.38374  1.0000
  H   H203      1.0  0.01378  0.49909  0.35866  1.0000
  H   H204      1.0  0.15735  0.20726  0.38539  1.0000
  H   H205      1.0  0.10437  0.15017  0.53643  1.0000
  H   H206      1.0  0.03291  0.32181  0.50345  1.0000
  C   C182      1.0  0.13357  0.03487  0.41113  1.0000
  C   C183      1.0  0.99648  0.21200  0.52673  1.0000
  H   H207      1.0  0.07436  0.17979  0.62499  1.0000
  C   C184      1.0  0.01499  0.37199  0.35094  1.0000
  H   H208      1.0  0.23977  0.08775  0.56927  1.0000
  H   H209      1.0  0.00514  0.41692  0.36730  1.0000
  C   C185      1.0  0.17133  0.00161  0.61567  1.0000
  H   H210      1.0  0.13495  0.35005  0.66364  1.0000
  H   H211      1.0  0.03299  0.38997  0.62450  1.0000
  H   H212      1.0  0.21547  0.02834  0.60342  1.0000
  C   C186      1.0  0.11710  0.26911  0.37384  1.0000
  C   C187      1.0  0.17548  0.00779  0.57621  1.0000
  H   H213      1.0  0.16411  0.26975  0.36691  1.0000
  C   C188      1.0  0.22634  0.01692  0.60737  1.0000
  C   C189      1.0  0.24016  0.07056  0.63509  1.0000
  H   H214      1.0  0.99822  0.36018  0.40459  1.0000
  C   C190      1.0  0.03925  0.31677  0.49018  1.0000
  H   H215      1.0  0.03393  0.30895  0.60760  1.0000
  H   H216      1.0  0.04250  0.37746  0.64533  1.0000
  H   H217      1.0  0.99806  0.42635  0.66074  1.0000
  S   S51       1.0  0.07147  0.29232  0.66406  1.0000
  H   H218      1.0  0.07935  0.05189  0.44615  1.0000
  C   C191      1.0  0.11189  0.06299  0.43249  1.0000
  C   C192      1.0  0.07854  0.19182  0.65810  1.0000
  C   C193      1.0  0.02948  0.38468  0.63976  1.0000
  H   H219      1.0  0.12891  0.11561  0.64985  1.0000
  C   C194      1.0  0.08493  0.13995  0.65038  1.0000
  H   H220      1.0  0.00423  0.19740  0.52870  1.0000
  C   C195      1.0  0.03833  0.35064  0.62241  1.0000
  H   H221      1.0  0.09687  0.11151  0.64533  1.0000
  H   H222      1.0  0.13527  0.14614  0.65749  1.0000
  C   C196      1.0  0.99981  0.36180  0.35675  1.0000
  H   H223      1.0  0.03742  0.36075  0.44530  1.0000
  H   H224      1.0  0.02924  0.30520  0.66191  1.0000
  H   H225      1.0  0.12644  0.49595  0.40573  1.0000
  C   C197      1.0  0.01249  0.32507  0.62497  1.0000
  H   H226      1.0  0.05284  0.18980  0.63760  1.0000
  C   C198      1.0  0.07180  0.31720  0.66182  1.0000
  C   C199      1.0  0.00186  0.42247  0.40353  1.0000
  C   C200      1.0  0.24341  0.08941  0.62989  1.0000
  H   H227      1.0  0.15480  0.02605  0.38869  1.0000
  N   N12       1.0  0.07257  0.17370  0.65533  1.0000
  H   H228      1.0  0.23412  0.00883  0.44488  1.0000
  H   H229      1.0  0.01077  0.26128  0.65386  1.0000
  H   H230      1.0  0.24142  0.01752  0.46384  1.0000
  C   C201      1.0  0.99769  0.38313  0.63607  1.0000
  C   C202      1.0  0.10673  0.15962  0.65706  1.0000
  H   H231      1.0  0.08918  0.19662  0.64626  1.0000
  C   C203      1.0  0.23819  0.05560  0.43046  1.0000
  C   C204      1.0  0.03018  0.32155  0.61469  1.0000
  H   H232      1.0  0.01969  0.37559  0.33607  1.0000
  H   H233      1.0  0.13272  0.32533  0.64458  1.0000
  C   C205      1.0  0.24314  0.00474  0.45638  1.0000
  H   H234      1.0  0.10712  0.48999  0.43440  1.0000
  C   C206      1.0  0.99985  0.27316  0.65453  1.0000
  C   C207      1.0  0.99811  0.21439  0.64615  1.0000
  C   C208      1.0  0.01330  0.23140  0.56667  1.0000
  H   H235      1.0  0.03628  0.26996  0.66507  1.0000
  H   H236      1.0  0.09486  0.49956  0.41425  1.0000
  Fe  Fe26      1.0  0.04117  0.40618  0.71874  1.0000
  Fe  Fe27      1.0  0.08238  0.40728  0.71812  1.0000
  S   S52       1.0  0.08639  0.41973  0.68749  1.0000
  S   S53       1.0  0.10612  0.40106  0.73560  1.0000
  S   S54       1.0  0.05703  0.42779  0.72603  1.0000
  S   S55       1.0  0.06636  0.38452  0.71370  1.0000
  Fe  Fe28      1.0  0.09114  0.42327  0.83555  1.0000
  S   S56       1.0  0.07556  0.42681  0.86441  1.0000
  S   S57       1.0  0.10661  0.44588  0.81823  1.0000
  Fe  Fe29      1.0  0.08155  0.38393  0.83718  1.0000
  S   S58       1.0  0.06554  0.38380  0.86643  1.0000
  S   S59       1.0  0.08356  0.36125  0.81863  1.0000
  Fe  Fe30      1.0  0.05310  0.41325  0.85535  1.0000
  S   S60       1.0  0.02326  0.42835  0.85626  1.0000
  Fe  Fe31      1.0  0.08981  0.39736  0.87259  1.0000
  S   S61       1.0  0.10382  0.39103  0.89957  1.0000
  S   S62       1.0  0.06772  0.41233  0.82577  1.0000
  S   S63       1.0  0.10661  0.39479  0.84409  1.0000
  S   S64       1.0  0.19283  0.37757  0.89853  1.0000
  C   C209      1.0  0.06357  0.46994  0.83991  1.0000
  C   C210      1.0  0.00308  0.28404  0.70012  1.0000
  C   C211      1.0  0.05032  0.48270  0.90104  1.0000
  C   C212      1.0  0.12860  0.38853  0.89909  1.0000
  C   C213      1.0  0.14074  0.38762  0.88214  1.0000
  C   C214      1.0  0.16029  0.38456  0.88230  1.0000
  C   C215      1.0  0.16806  0.38263  0.89934  1.0000
  C   C216      1.0  0.15599  0.38405  0.91627  1.0000
  C   C217      1.0  0.13635  0.38683  0.91614  1.0000
  H   H237      1.0  0.13513  0.38893  0.86891  1.0000
  H   H238      1.0  0.16947  0.38348  0.86911  1.0000
  H   H239      1.0  0.16174  0.38251  0.92951  1.0000
  H   H240      1.0  0.12712  0.38750  0.92935  1.0000
  C   C218      1.0  0.11742  0.45509  0.83421  1.0000
  C   C219      1.0  0.12402  0.47260  0.82911  1.0000
  H   H241      1.0  0.00139  0.45685  0.73179  1.0000
  H   H242      1.0  0.03808  0.26898  0.68945  1.0000
  C   C220      1.0  0.12118  0.45586  0.86696  1.0000
  C   C221      1.0  0.11720  0.44619  0.85288  1.0000
  H   H243      1.0  0.09815  0.37041  0.68814  1.0000
  H   H244      1.0  0.18254  0.34454  0.84653  1.0000
  H   H245      1.0  0.11955  0.44954  0.88163  1.0000
  H   H246      1.0  0.11319  0.43216  0.85669  1.0000
  C   C222      1.0  0.00392  0.41545  0.85955  1.0000
  C   C223      1.0  0.00422  0.39782  0.87077  1.0000
  H   H247      1.0  0.02208  0.25555  0.68241  1.0000
  H   H248      1.0  0.16969  0.42032  0.87970  1.0000
  H   H249      1.0  0.01297  0.28317  0.71071  1.0000
  H   H250      1.0  0.00180  0.37359  0.77601  1.0000
  H   H251      1.0  0.01674  0.39146  0.87693  1.0000
  S   S65       1.0  0.20852  0.40607  0.93510  1.0000
  Fe  Fe32      1.0  0.23823  0.40897  0.92314  1.0000
  H   H252      1.0  0.16964  0.44902  0.90734  1.0000
  C   C224      1.0  0.08870  0.44877  0.75441  1.0000
  C   C225      1.0  0.02090  0.38439  0.82005  1.0000
  H   H253      1.0  0.06246  0.35302  0.68974  1.0000
  C   C226      1.0  0.20434  0.42921  0.87644  1.0000
  C   C227      1.0  0.18192  0.49187  0.85459  1.0000
  N   N13       1.0  0.18677  0.44177  0.88176  1.0000
  C   C228      1.0  0.09957  0.38995  0.75859  1.0000
  C   C229      1.0  0.10839  0.39320  0.77355  1.0000
  C   C230      1.0  0.10336  0.38447  0.79199  1.0000
  C   C231      1.0  0.09000  0.37187  0.79543  1.0000
  C   C232      1.0  0.08138  0.36834  0.78041  1.0000
  C   C233      1.0  0.08592  0.37764  0.76206  1.0000
  H   H254      1.0  0.11892  0.40271  0.77095  1.0000
  H   H255      1.0  0.11002  0.38734  0.80351  1.0000
  H   H256      1.0  0.07089  0.35878  0.78306  1.0000
  H   H257      1.0  0.07901  0.37506  0.75063  1.0000
  S   S66       1.0  0.24119  0.38458  0.90664  1.0000
  C   C234      1.0  0.01861  0.36886  0.71742  1.0000
  C   C235      1.0  0.11758  0.30856  0.66718  1.0000
  H   H258      1.0  0.03263  0.37190  0.71228  1.0000
  H   H259      1.0  0.21681  0.49510  0.87991  1.0000
  H   H260      1.0  0.16775  0.46820  0.85555  1.0000
  H   H261      1.0  0.13654  0.48706  0.76571  1.0000
  S   S67       1.0  0.05164  0.47057  0.68679  1.0000
  H   H262      1.0  0.08739  0.49271  0.73019  1.0000
  C   C236      1.0  0.17139  0.43528  0.87400  1.0000
  H   H263      1.0  0.06472  0.46115  0.82818  1.0000
  C   C237      1.0  0.20714  0.47276  0.93546  1.0000
  H   H264      1.0  0.14888  0.35702  0.68866  1.0000
  H   H265      1.0  0.00775  0.37810  0.67164  1.0000
  H   H266      1.0  0.14717  0.33991  0.70950  1.0000
  H   H267      1.0  0.20279  0.41397  0.88094  1.0000
  N   N14       1.0  0.12059  0.35268  0.70085  1.0000
  H   H268      1.0  0.11106  0.36211  0.72826  1.0000
  H   H269      1.0  0.11619  0.33707  0.72888  1.0000
  C   C238      1.0  0.00666  0.37636  0.78867  1.0000
  C   C239      1.0  0.10952  0.30707  0.68604  1.0000
  H   H270      1.0  0.21626  0.43196  0.88321  1.0000
  C   C240      1.0  0.99909  0.28690  0.66700  1.0000
  H   H271      1.0  0.00609  0.46685  0.85938  1.0000
  H   H272      1.0  0.10348  0.31924  0.71154  1.0000
  H   H273      1.0  0.02647  0.38763  0.83219  1.0000
  H   H274      1.0  0.00192  0.47651  0.81909  1.0000
  H   H275      1.0  0.07292  0.49638  0.85594  1.0000
  H   H276      1.0  0.11490  0.46793  0.77958  1.0000
  C   C241      1.0  0.09128  0.48137  0.74106  1.0000
  H   H277      1.0  0.12474  0.47930  0.81458  1.0000
  H   H278      1.0  0.00271  0.45644  0.66920  1.0000
  H   H279      1.0  0.11177  0.38286  0.69987  1.0000
  C   C242      1.0  0.02866  0.48173  0.82537  1.0000
  H   H280      1.0  0.07738  0.46674  0.84543  1.0000
  C   C243      1.0  0.06598  0.32657  0.67796  1.0000
  H   H281      1.0  0.04564  0.38991  0.80077  1.0000
  C   C244      1.0  0.18230  0.43922  0.90270  1.0000
  C   C245      1.0  0.01968  0.49935  0.89573  1.0000
  H   H282      1.0  0.15764  0.44387  0.87789  1.0000
  H   H283      1.0  0.06380  0.48229  0.90593  1.0000
  C   C246      1.0  0.10284  0.48339  0.75472  1.0000
  C   C247      1.0  0.10649  0.46747  0.76853  1.0000
  C   C248      1.0  0.03169  0.38579  0.80234  1.0000
  S   S68       1.0  0.20824  0.39193  0.98799  1.0000
  H   H284      1.0  0.09508  0.34973  0.72000  1.0000
  H   H285      1.0  0.05291  0.46494  0.85157  1.0000
  H   H286      1.0  0.04773  0.49879  0.86063  1.0000
  C   C249      1.0  0.06699  0.34607  0.67721  1.0000
  C   C250      1.0  0.02884  0.46747  0.88760  1.0000
  C   C251      1.0  0.20778  0.49089  0.92565  1.0000
  H   H287      1.0  0.02360  0.35677  0.66865  1.0000
  H   H288      1.0  0.05638  0.45435  0.89367  1.0000
  C   C252      1.0  0.19010  0.46553  0.93998  1.0000
  C   C253      1.0  0.09953  0.45045  0.76829  1.0000
  C   C254      1.0  0.01090  0.48715  0.81952  1.0000
  C   C255      1.0  0.01197  0.35399  0.71108  1.0000
  H   H289      1.0  0.02651  0.45477  0.88247  1.0000
  S   S69       1.0  0.22275  0.36020  0.94461  1.0000
  C   C256      1.0  0.14045  0.35364  0.70263  1.0000
  C   C257      1.0  0.01515  0.48384  0.88801  1.0000
  C   C258      1.0  0.00699  0.37985  0.73011  1.0000
  H   H290      1.0  0.06416  0.16574  0.68502  1.0000
  S   S70       1.0  0.01474  0.39924  0.73718  1.0000
  H   H291      1.0  0.13587  0.33333  0.90320  1.0000
  C   C259      1.0  0.11955  0.33730  0.68962  1.0000
  H   H292      1.0  0.22104  0.49661  0.92230  1.0000
  H   H293      1.0  0.11068  0.36380  0.87421  1.0000
  H   H294      1.0  0.02104  0.34547  0.70134  1.0000
  C   C260      1.0  0.16407  0.33714  0.89267  1.0000
  C   C261      1.0  0.02788  0.26931  0.67927  1.0000
  C   C262      1.0  0.17870  0.47323  0.86126  1.0000
  Fe  Fe33      1.0  0.05963  0.43882  0.69506  1.0000
  C   C263      1.0  0.14567  0.33543  0.89046  1.0000
  H   H295      1.0  0.10155  0.33593  0.84941  1.0000
  C   C264      1.0  0.17378  0.49490  0.92447  1.0000
  H   H296      1.0  0.21190  0.46238  0.89158  1.0000
  H   H297      1.0  0.07598  0.46292  0.73011  1.0000
  Fe  Fe34      1.0  0.06815  0.39823  0.68354  1.0000
  C   C265      1.0  0.10728  0.34938  0.88000  1.0000
  H   H298      1.0  0.09242  0.34892  0.87826  1.0000
  H   H299      1.0  0.10788  0.34781  0.89550  1.0000
  C   C266      1.0  0.18935  0.46176  0.87482  1.0000
  H   H300      1.0  0.14035  0.48444  0.91750  1.0000
  C   C267      1.0  0.11646  0.33722  0.85035  1.0000
  H   H301      1.0  0.12518  0.32627  0.84226  1.0000
  H   H302      1.0  0.20858  0.43110  0.86085  1.0000
  Fe  Fe35      1.0  0.21195  0.38038  0.92020  1.0000
  H   H303      1.0  0.17416  0.43580  0.85832  1.0000
  H   H304      1.0  0.01213  0.31616  0.67912  1.0000
  C   C268      1.0  0.08438  0.48446  0.69037  1.0000
  N   N15       1.0  0.12036  0.33487  0.87032  1.0000
  C   C269      1.0  0.13995  0.33684  0.87222  1.0000
  C   C270      1.0  0.17732  0.34026  0.87687  1.0000
  H   H305      1.0  0.11881  0.35153  0.84287  1.0000
  H   H306      1.0  0.19406  0.44176  0.90980  1.0000
  H   H307      1.0  0.08442  0.19066  0.67169  1.0000
  H   H308      1.0  0.09122  0.46999  0.69065  1.0000
  C   C271      1.0  0.00300  0.37884  0.82224  1.0000
  H   H309      1.0  0.19143  0.34212  0.87871  1.0000
  C   C272      1.0  0.17359  0.47635  0.93460  1.0000
  H   H310      1.0  0.18972  0.45143  0.94778  1.0000
  S   S71       1.0  0.12613  0.48826  0.87978  1.0000
  H   H311      1.0  0.00887  0.47953  0.72299  1.0000
  H   H312      1.0  0.10270  0.43840  0.77887  1.0000
  H   H313      1.0  0.13615  0.49444  0.93972  1.0000
  H   H314      1.0  0.11697  0.31361  0.89476  1.0000
  S   S72       1.0  0.04155  0.41849  0.68823  1.0000
  C   C273      1.0  0.11611  0.31581  0.87928  1.0000
  C   C274      1.0  0.15382  0.34010  0.85636  1.0000
  C   C275      1.0  0.12591  0.47419  0.86214  1.0000
  C   C276      1.0  0.17222  0.34175  0.85876  1.0000
  H   H315      1.0  0.12612  0.30448  0.87285  1.0000
  N   N16       1.0  0.01288  0.28576  0.68046  1.0000
  C   C277      1.0  0.08446  0.46424  0.74091  1.0000
  H   H316      1.0  0.01986  0.45883  0.71245  1.0000
  H   H317      1.0  0.10165  0.31359  0.87760  1.0000
  H   H318      1.0  0.15081  0.34164  0.84194  1.0000
  H   H319      1.0  0.03270  0.46668  0.82907  1.0000
  H   H320      1.0  0.14165  0.36490  0.71134  1.0000
  C   C278      1.0  0.02454  0.38190  0.78666  1.0000
  C   C279      1.0  0.12844  0.48208  0.84311  1.0000
  H   H321      1.0  0.01338  0.47844  0.68215  1.0000
  H   H322      1.0  0.12084  0.37551  0.67740  1.0000
  H   H323      1.0  0.16089  0.46990  0.93864  1.0000
  H   H324      1.0  0.03302  0.30258  0.68624  1.0000
  C   C280      1.0  0.06521  0.48851  0.68884  1.0000
  H   H325      1.0  0.10198  0.29515  0.69182  1.0000
  H   H326      1.0  0.06095  0.31863  0.69123  1.0000
  H   H327      1.0  0.21989  0.46433  0.93966  1.0000
  C   C281      1.0  0.02212  0.30320  0.67676  1.0000
  C   C282      1.0  0.11026  0.35016  0.72031  1.0000
  Fe  Fe36      1.0  0.22133  0.38660  0.95854  1.0000
  C   C283      1.0  0.00617  0.46604  0.71868  1.0000
  H   H328      1.0  0.08366  0.43541  0.75409  1.0000
  H   H329      1.0  0.17952  0.42444  0.90825  1.0000
  C   C284      1.0  0.11039  0.32117  0.69718  1.0000
  H   H330      1.0  0.16800  0.33666  0.90671  1.0000
  C   C285      1.0  0.20616  0.48895  0.87470  1.0000
  H   H331      1.0  0.03290  0.38322  0.77281  1.0000
  C   C286      1.0  0.04615  0.46702  0.89403  1.0000
  C   C287      1.0  0.20315  0.47024  0.88137  1.0000
  C   C288      1.0  0.11254  0.37112  0.69116  1.0000
  H   H332      1.0  0.24161  0.44999  0.97224  1.0000
  S   S73       1.0  0.24433  0.43700  0.90689  1.0000
  N   N17       1.0  0.05905  0.49046  0.83330  1.0000
  H   H333      1.0  0.07378  0.48818  0.80538  1.0000
  H   H334      1.0  0.24016  0.42112  0.99544  1.0000
  H   H335      1.0  0.04626  0.18053  0.67276  1.0000
  H   H336      1.0  0.24354  0.36738  0.98945  1.0000
  C   C289      1.0  0.99912  0.48353  0.68895  1.0000
  N   N18       1.0  0.99677  0.48504  0.88110  1.0000
  H   H337      1.0  0.10976  0.49595  0.69186  1.0000
  H   H338      1.0  0.00041  0.49718  0.69383  1.0000
  H   H339      1.0  0.08813  0.49173  0.82242  1.0000
  C   C290      1.0  0.04048  0.49548  0.82648  1.0000
  H   H340      1.0  0.13752  0.48989  0.74037  1.0000
  C   C291      1.0  0.07394  0.49568  0.81780  1.0000
  C   C292      1.0  0.05811  0.16875  0.67140  1.0000
  C   C293      1.0  0.12782  0.33822  0.67039  1.0000
  C   C294      1.0  0.13175  0.49671  0.75331  1.0000
  H   H341      1.0  0.13310  0.49586  0.83924  1.0000
  C   C295      1.0  0.13932  0.49769  0.92407  1.0000
  H   H342      1.0  0.16091  0.49846  0.89064  1.0000
  C   C296      1.0  0.09487  0.49922  0.69101  1.0000
  H   H343      1.0  0.99555  0.45510  0.88145  1.0000
  C   C297      1.0  0.03708  0.49882  0.90194  1.0000
  H   H344      1.0  0.99907  0.35754  0.66727  1.0000
  H   H345      1.0  0.10828  0.49911  0.78540  1.0000
  H   H346      1.0  0.05185  0.15605  0.66970  1.0000
  C   C298      1.0  0.99619  0.44677  0.68022  1.0000
  H   H347      1.0  0.99581  0.27117  0.70330  1.0000
  C   C299      1.0  0.99536  0.37448  0.80657  1.0000
  H   H348      1.0  0.99547  0.37808  0.83638  1.0000
  H   H349      1.0  0.03295  0.53880  0.31224  1.0000
  C   C300      1.0  0.18467  0.52464  0.22142  1.0000
  S   S74       1.0  0.22616  0.58336  0.12921  1.0000
  H   H350      1.0  0.18272  0.59707  0.18878  1.0000
  H   H351      1.0  0.18901  0.51256  0.21364  1.0000
  S   S75       1.0  0.13215  0.55010  0.31771  1.0000
  Fe  Fe37      1.0  0.13305  0.53992  0.18367  1.0000
  S   S76       1.0  0.13336  0.53432  0.21519  1.0000
  S   S77       1.0  0.16107  0.53335  0.16517  1.0000
  Fe  Fe38      1.0  0.08943  0.54501  0.18831  1.0000
  S   S78       1.0  0.08687  0.54024  0.22000  1.0000
  S   S79       1.0  0.06450  0.54756  0.17192  1.0000
  Fe  Fe39      1.0  0.10989  0.55838  0.21659  1.0000
  S   S80       1.0  0.10747  0.58008  0.23670  1.0000
  Fe  Fe40      1.0  0.11046  0.51682  0.21589  1.0000
  H   H352      1.0  0.17674  0.53564  0.26639  1.0000
  S   S81       1.0  0.11084  0.56548  0.18485  1.0000
  S   S82       1.0  0.11174  0.52012  0.18439  1.0000
  C   C301      1.0  0.04068  0.54950  0.18227  1.0000
  C   C302      1.0  0.03553  0.54907  0.20183  1.0000
  H   H353      1.0  0.12271  0.50801  0.30013  1.0000
  C   C303      1.0  0.02652  0.55175  0.17048  1.0000
  H   H354      1.0  0.04626  0.54723  0.21107  1.0000
  C   C304      1.0  0.00125  0.58033  0.24807  1.0000
  H   H355      1.0  0.03037  0.55217  0.15533  1.0000
  C   C305      1.0  0.12544  0.55868  0.29522  1.0000
  C   C306      1.0  0.13292  0.54885  0.27982  1.0000
  C   C307      1.0  0.12739  0.55525  0.26184  1.0000
  C   C308      1.0  0.11462  0.57172  0.25909  1.0000
  C   C309      1.0  0.10734  0.58170  0.27445  1.0000
  C   C310      1.0  0.11258  0.57509  0.29253  1.0000
  H   H356      1.0  0.14282  0.53613  0.28187  1.0000
  H   H357      1.0  0.13317  0.54750  0.25013  1.0000
  H   H358      1.0  0.09753  0.59451  0.27241  1.0000
  H   H359      1.0  0.10685  0.58283  0.30433  1.0000
  C   C311      1.0  0.20819  0.56928  0.13910  1.0000
  C   C312      1.0  0.21149  0.54948  0.14127  1.0000
  C   C313      1.0  0.19688  0.53879  0.14922  1.0000
  C   C314      1.0  0.17880  0.54771  0.15512  1.0000
  C   C315      1.0  0.17539  0.56754  0.15264  1.0000
  C   C316      1.0  0.19005  0.57825  0.14477  1.0000
  H   H360      1.0  0.22537  0.54237  0.13696  1.0000
  H   H361      1.0  0.19969  0.52347  0.15096  1.0000
  H   H362      1.0  0.16143  0.57463  0.15650  1.0000
  H   H363      1.0  0.18730  0.59357  0.14295  1.0000
  H   H364      1.0  0.16832  0.56696  0.25010  1.0000
  H   H365      1.0  0.14974  0.59091  0.19104  1.0000
  C   C317      1.0  0.01643  0.55148  0.20939  1.0000
  C   C318      1.0  0.18294  0.57006  0.03806  1.0000
  H   H366      1.0  0.02905  0.52796  0.24668  1.0000
  H   H367      1.0  0.23103  0.59000  0.08901  1.0000
  C   C319      1.0  0.19348  0.57695  0.02138  1.0000
  H   H368      1.0  0.22696  0.59384  0.03914  1.0000
  C   C320      1.0  0.06579  0.55750  0.29635  1.0000
  C   C321      1.0  0.24054  0.54517  0.03021  1.0000
  H   H369      1.0  0.02651  0.58685  0.28993  1.0000
  H   H370      1.0  0.99811  0.51480  0.16464  1.0000
  H   H371      1.0  0.15985  0.60704  0.21415  1.0000
  H   H372      1.0  0.19860  0.59409  0.10101  1.0000
  H   H373      1.0  0.19806  0.58260  0.20427  1.0000
  H   H374      1.0  0.17950  0.56611  0.06818  1.0000
  C   C322      1.0  0.00741  0.55425  0.17806  1.0000
  H   H375      1.0  0.14057  0.57421  0.20980  1.0000
  H   H376      1.0  0.19943  0.55513  0.08991  1.0000
  C   C323      1.0  0.02947  0.58444  0.26017  1.0000
  H   H377      1.0  0.22589  0.60448  0.06769  1.0000
  H   H378      1.0  0.08158  0.54830  0.26279  1.0000
  H   H379      1.0  0.04420  0.58627  0.25769  1.0000
  H   H380      1.0  0.09669  0.53815  0.27995  1.0000
  H   H381      1.0  0.06163  0.52538  0.31932  1.0000
  C   C324      1.0  0.03007  0.53038  0.26098  1.0000
  H   H382      1.0  0.03593  0.50518  0.17529  1.0000
  C   C325      1.0  0.15337  0.57717  0.19993  1.0000
  H   H383      1.0  0.18116  0.54375  0.19637  1.0000
  H   H384      1.0  0.18985  0.57277  0.18613  1.0000
  H   H385      1.0  0.00454  0.51680  0.18716  1.0000
  C   C326      1.0  0.20899  0.58583  0.02221  1.0000
  C   C327      1.0  0.03269  0.53642  0.29782  1.0000
  C   C328      1.0  0.18013  0.54264  0.21164  1.0000
  C   C329      1.0  0.17772  0.53764  0.25105  1.0000
  H   H386      1.0  0.01260  0.55131  0.22447  1.0000
  H   H387      1.0  0.22289  0.55215  0.07774  1.0000
  H   H388      1.0  0.17092  0.56309  0.03733  1.0000
  H   H389      1.0  0.05495  0.55953  0.30879  1.0000
  H   H390      1.0  0.23935  0.58121  0.06697  1.0000
  H   H391      1.0  0.17483  0.59466  0.23083  1.0000
  C   C330      1.0  0.18348  0.52213  0.24110  1.0000
  N   N19       1.0  0.20965  0.58111  0.07579  1.0000
  C   C331      1.0  0.21257  0.56170  0.08622  1.0000
  C   C332      1.0  0.22723  0.58957  0.07469  1.0000
  C   C333      1.0  0.19459  0.59270  0.08696  1.0000
  C   C334      1.0  0.20412  0.58023  0.05700  1.0000
  C   C335      1.0  0.18806  0.57176  0.05564  1.0000
  C   C336      1.0  0.21437  0.58744  0.03968  1.0000
  N   N20       1.0  0.06725  0.53848  0.29024  1.0000
  C   C337      1.0  0.02033  0.58233  0.24511  1.0000
  H   H392      1.0  0.18696  0.50813  0.24865  1.0000
  H   H393      1.0  0.18129  0.58637  0.08996  1.0000
  H   H394      1.0  0.21794  0.56170  0.09990  1.0000
  C   C338      1.0  0.17406  0.55876  0.22131  1.0000
  C   C339      1.0  0.16343  0.59307  0.22269  1.0000
  N   N21       1.0  0.16920  0.57766  0.21055  1.0000
  H   H395      1.0  0.02801  0.58250  0.23094  1.0000
  H   H396      1.0  0.08581  0.52462  0.31039  1.0000
  C   C340      1.0  0.18564  0.58274  0.19688  1.0000
  H   H397      1.0  0.19158  0.60725  0.07936  1.0000
  H   H398      1.0  0.07922  0.55994  0.30059  1.0000
  H   H399      1.0  0.15058  0.59050  0.23281  1.0000
  C   C341      1.0  0.17300  0.55571  0.24141  1.0000
  H   H400      1.0  0.23105  0.53529  0.03707  1.0000
  H   H401      1.0  0.00326  0.53365  0.30356  1.0000
  H   H402      1.0  0.15639  0.56607  0.19032  1.0000
  H   H403      1.0  0.06233  0.56893  0.28472  1.0000
  C   C342      1.0  0.04917  0.53604  0.28446  1.0000
  C   C343      1.0  0.00228  0.55433  0.19756  1.0000
  C   C344      1.0  0.08330  0.53682  0.27489  1.0000
  H   H404      1.0  0.05894  0.53279  0.25454  1.0000
  H   H405      1.0  0.00863  0.59661  0.32625  1.0000
  H   H406      1.0  0.07203  0.50930  0.30259  1.0000
  H   H407      1.0  0.99669  0.55676  0.16873  1.0000
  C   C345      1.0  0.07181  0.52381  0.30630  1.0000
  H   H408      1.0  0.18990  0.57509  0.00775  1.0000
  C   C346      1.0  0.01424  0.53055  0.27453  1.0000
  C   C347      1.0  0.01952  0.58472  0.27827  1.0000
  C   C348      1.0  0.01554  0.53360  0.29292  1.0000
  C   C349      1.0  0.99954  0.50702  0.17903  1.0000
  C   C350      1.0  0.04730  0.53312  0.26576  1.0000
  H   H409      1.0  0.08531  0.52281  0.26954  1.0000
  H   H410      1.0  0.00096  0.52826  0.27076  1.0000
  H   H411      1.0  0.08077  0.50280  0.21057  1.0000
  H   H412      1.0  0.21737  0.59081  0.00916  1.0000
  C   C351      1.0  0.24130  0.55103  0.01066  1.0000
  C   C352      1.0  0.00045  0.58265  0.28136  1.0000
  Fe  Fe41      1.0  0.12026  0.77344  0.59722  1.0000
  S   S83       1.0  0.13461  0.74322  0.59872  1.0000
  S   S84       1.0  0.13998  0.79390  0.60193  1.0000
  Fe  Fe42      1.0  0.08514  0.76141  0.58606  1.0000
  S   S85       1.0  0.09712  0.73081  0.58637  1.0000
  S   S86       1.0  0.05666  0.76932  0.57614  1.0000
  Fe  Fe43      1.0  0.10719  0.73428  0.61337  1.0000
  S   S87       1.0  0.10620  0.71208  0.63948  1.0000
  Fe  Fe44      1.0  0.12320  0.74228  0.57180  1.0000
  S   S88       1.0  0.14157  0.73203  0.54635  1.0000
  S   S89       1.0  0.09349  0.76453  0.61425  1.0000
  S   S90       1.0  0.11058  0.77276  0.56918  1.0000
  Fe  Fe45      1.0  0.10673  0.69276  0.47334  1.0000
  S   S91       1.0  0.13153  0.69269  0.45071  1.0000
  S   S92       1.0  0.10595  0.67891  0.50346  1.0000
  Fe  Fe46      1.0  0.08148  0.71985  0.44906  1.0000
  S   S93       1.0  0.10434  0.72258  0.42441  1.0000
  S   S94       1.0  0.05248  0.73642  0.44892  1.0000
  Fe  Fe47      1.0  0.11074  0.69067  0.43100  1.0000
  S   S95       1.0  0.11510  0.67357  0.40600  1.0000
  Fe  Fe48      1.0  0.12309  0.72442  0.44612  1.0000
  S   S96       1.0  0.14609  0.74263  0.44672  1.0000
  S   S97       1.0  0.08666  0.68810  0.45423  1.0000
  S   S98       1.0  0.09957  0.72430  0.47011  1.0000
  C   C353      1.0  0.12676  0.75826  0.49436  1.0000
  H   H413      1.0  0.17672  0.67475  0.60780  1.0000
  H   H414      1.0  0.12618  0.79461  0.46981  1.0000
  H   H415      1.0  0.06677  0.69820  0.50681  1.0000
  C   C354      1.0  0.00947  0.74443  0.59363  1.0000
  S   S99       1.0  0.08356  0.62890  0.64650  1.0000
  N   N22       1.0  0.23323  0.96269  0.61721  1.0000
  C   C355      1.0  0.22892  0.79878  0.39411  1.0000
  Fe  Fe49      1.0  0.08379  0.53843  0.37178  1.0000
  C   C356      1.0  0.21014  0.97330  0.52415  1.0000
  S   S100      1.0  0.07136  0.51153  0.38453  1.0000
  Fe  Fe50      1.0  0.09776  0.57491  0.37904  1.0000
  S   S101      1.0  0.10226  0.58778  0.40486  1.0000
  Fe  Fe51      1.0  0.07066  0.57690  0.35045  1.0000
  C   C357      1.0  0.20459  0.76735  0.40911  1.0000
  S   S102      1.0  0.06916  0.56594  0.38122  1.0000
  S   S103      1.0  0.11243  0.54624  0.37204  1.0000
  H   H416      1.0  0.01715  0.64640  0.36945  1.0000
  Fe  Fe52      1.0  0.20582  0.90591  0.56389  1.0000
  S   S104      1.0  0.17595  0.91846  0.56355  1.0000
  S   S105      1.0  0.22234  0.89830  0.53669  1.0000
  Fe  Fe53      1.0  0.20410  0.90794  0.60521  1.0000
  S   S106      1.0  0.17342  0.92027  0.60856  1.0000
  S   S107      1.0  0.22409  0.90564  0.62673  1.0000
  Fe  Fe54      1.0  0.17022  0.89824  0.59001  1.0000
  S   S108      1.0  0.14503  0.88324  0.58812  1.0000
  Fe  Fe55      1.0  0.18162  0.93921  0.58170  1.0000
  S   S109      1.0  0.17388  0.97073  0.57189  1.0000
  S   S110      1.0  0.20020  0.88452  0.58928  1.0000
  S   S111      1.0  0.21222  0.92811  0.57949  1.0000
  Fe  Fe56      1.0  0.16652  0.84880  0.43672  1.0000
  S   S112      1.0  0.18720  0.83563  0.45654  1.0000
  S   S113      1.0  0.14737  0.83169  0.42601  1.0000
  Fe  Fe57      1.0  0.17637  0.88908  0.43652  1.0000
  S   S114      1.0  0.19744  0.87887  0.45663  1.0000
  S   S115      1.0  0.17531  0.91976  0.42315  1.0000
  Fe  Fe58      1.0  0.20671  0.85498  0.43929  1.0000
  H   H417      1.0  0.21213  0.96012  0.44818  1.0000
  Fe  Fe59      1.0  0.17624  0.86050  0.47210  1.0000
  S   S116      1.0  0.16927  0.85513  0.50371  1.0000
  S   S117      1.0  0.18699  0.86618  0.41783  1.0000
  S   S118      1.0  0.15404  0.87276  0.45357  1.0000
  H   H418      1.0  0.13188  0.65038  0.61908  1.0000
  H   H419      1.0  0.04039  0.68443  0.52529  1.0000
  H   H420      1.0  0.09064  0.51982  0.45837  1.0000
  H   H421      1.0  0.02339  0.53088  0.35761  1.0000
  C   C358      1.0  0.20981  0.88272  0.52890  1.0000
  C   C359      1.0  0.19385  0.87679  0.54023  1.0000
  C   C360      1.0  0.18221  0.86664  0.53303  1.0000
  C   C361      1.0  0.18638  0.86272  0.51436  1.0000
  C   C362      1.0  0.20338  0.86675  0.50379  1.0000
  C   C363      1.0  0.21499  0.87705  0.51091  1.0000
  H   H422      1.0  0.18998  0.88055  0.55434  1.0000
  H   H423      1.0  0.16954  0.86272  0.54164  1.0000
  H   H424      1.0  0.20748  0.86218  0.49004  1.0000
  H   H425      1.0  0.22756  0.88115  0.50225  1.0000
  C   C364      1.0  0.17240  0.97156  0.44013  1.0000
  C   C365      1.0  0.17768  0.95561  0.43040  1.0000
  C   C366      1.0  0.16976  0.93879  0.43679  1.0000
  C   C367      1.0  0.15642  0.93806  0.45293  1.0000
  C   C368      1.0  0.15064  0.95423  0.46221  1.0000
  H   H426      1.0  0.18780  0.95632  0.41775  1.0000
  H   H427      1.0  0.14992  0.92532  0.45763  1.0000
  H   H428      1.0  0.99795  0.64558  0.42530  1.0000
  C   C369      1.0  0.11611  0.63960  0.58071  1.0000
  H   H429      1.0  0.16285  0.65623  0.61704  1.0000
  H   H430      1.0  0.16328  0.89736  0.50462  1.0000
  C   C370      1.0  0.17381  0.98938  0.58552  1.0000
  C   C371      1.0  0.17165  0.98638  0.60532  1.0000
  C   C372      1.0  0.00760  0.59452  0.38276  1.0000
  C   C373      1.0  0.01510  0.73015  0.60787  1.0000
  C   C374      1.0  0.13581  0.66454  0.57128  1.0000
  C   C375      1.0  0.02515  0.74660  0.51341  1.0000
  S   S119      1.0  0.23704  0.84291  0.43195  1.0000
  C   C376      1.0  0.03275  0.55821  0.34959  1.0000
  H   H431      1.0  0.11240  0.62924  0.61046  1.0000
  H   H432      1.0  0.04541  0.55391  0.35604  1.0000
  C   C377      1.0  0.99874  0.75373  0.53695  1.0000
  C   C378      1.0  0.19273  0.75434  0.40730  1.0000
  H   H433      1.0  0.01052  0.55747  0.63621  1.0000
  H   H434      1.0  0.04030  0.58710  0.65308  1.0000
  H   H435      1.0  0.13407  0.84043  0.49782  1.0000
  H   H436      1.0  0.01083  0.68125  0.53975  1.0000
  H   H437      1.0  0.23730  0.99315  0.46646  1.0000
  H   H438      1.0  0.17172  0.76321  0.48734  1.0000
  C   C379      1.0  0.03917  0.67439  0.64214  1.0000
  C   C380      1.0  0.04602  0.71559  0.55498  1.0000
  H   H439      1.0  0.00108  0.71304  0.54793  1.0000
  C   C381      1.0  0.14549  0.76755  0.44149  1.0000
  C   C382      1.0  0.13121  0.77907  0.43260  1.0000
  C   C383      1.0  0.13186  0.79875  0.42808  1.0000
  C   C384      1.0  0.14650  0.80711  0.43281  1.0000
  C   C385      1.0  0.16038  0.79565  0.44231  1.0000
  C   C386      1.0  0.16003  0.77596  0.44635  1.0000
  H   H440      1.0  0.11998  0.77278  0.42872  1.0000
  H   H441      1.0  0.12105  0.80751  0.42072  1.0000
  H   H442      1.0  0.17164  0.80193  0.44603  1.0000
  H   H443      1.0  0.17125  0.76711  0.45300  1.0000
  C   C387      1.0  0.11204  0.64949  0.40615  1.0000
  C   C388      1.0  0.11417  0.64211  0.38880  1.0000
  C   C389      1.0  0.11111  0.62334  0.38813  1.0000
  C   C390      1.0  0.10610  0.61162  0.40488  1.0000
  C   C391      1.0  0.10413  0.61893  0.42225  1.0000
  C   C392      1.0  0.10698  0.63778  0.42290  1.0000
  H   H444      1.0  0.11811  0.65102  0.37576  1.0000
  H   H445      1.0  0.11280  0.61791  0.37466  1.0000
  H   H446      1.0  0.10035  0.60998  0.43530  1.0000
  H   H447      1.0  0.10535  0.64322  0.43636  1.0000
  C   C393      1.0  0.03467  0.72261  0.44853  1.0000
  C   C394      1.0  0.03648  0.70354  0.45626  1.0000
  C   C395      1.0  0.02274  0.69232  0.45492  1.0000
  H   H448      1.0  0.13570  0.67967  0.62390  1.0000
  C   C396      1.0  0.01339  0.74071  0.50241  1.0000
  C   C397      1.0  0.01848  0.73070  0.44038  1.0000
  H   H449      1.0  0.04843  0.69741  0.46336  1.0000
  H   H450      1.0  0.02445  0.67744  0.46055  1.0000
  C   C398      1.0  0.00682  0.70026  0.44635  1.0000
  H   H451      1.0  0.01697  0.74551  0.43445  1.0000
  C   C399      1.0  0.14093  0.81883  0.59769  1.0000
  C   C400      1.0  0.15699  0.82566  0.60138  1.0000
  C   C401      1.0  0.15863  0.84520  0.59817  1.0000
  C   C402      1.0  0.14409  0.85830  0.59144  1.0000
  C   C403      1.0  0.12811  0.85148  0.58750  1.0000
  C   C404      1.0  0.12656  0.83188  0.59049  1.0000
  H   H452      1.0  0.16817  0.81576  0.60702  1.0000
  H   H453      1.0  0.17097  0.85017  0.60136  1.0000
  H   H454      1.0  0.11672  0.86146  0.58237  1.0000
  H   H455      1.0  0.11411  0.82691  0.58761  1.0000
  C   C405      1.0  0.09916  0.68928  0.64121  1.0000
  H   H456      1.0  0.18797  0.99278  0.49971  1.0000
  H   H457      1.0  0.23704  0.87773  0.60091  1.0000
  C   C406      1.0  0.08978  0.65203  0.64470  1.0000
  C   C407      1.0  0.08748  0.66474  0.62812  1.0000
  C   C408      1.0  0.09215  0.68329  0.62635  1.0000
  H   H458      1.0  0.10733  0.63017  0.57707  1.0000
  H   H459      1.0  0.14970  0.89316  0.54616  1.0000
  H   H460      1.0  0.08214  0.66021  0.61654  1.0000
  H   H461      1.0  0.09041  0.69289  0.61349  1.0000
  C   C409      1.0  0.04048  0.75464  0.58874  1.0000
  C   C410      1.0  0.02219  0.75664  0.58403  1.0000
  C   C411      1.0  0.00322  0.55070  0.34320  1.0000
  C   C412      1.0  0.09671  0.65806  0.65955  1.0000
  C   C413      1.0  0.03328  0.72835  0.61269  1.0000
  C   C414      1.0  0.04591  0.74056  0.60321  1.0000
  H   H462      1.0  0.23356  0.88330  0.43433  1.0000
  S   S120      1.0  0.15045  0.99106  0.46769  1.0000
  H   H463      1.0  0.03768  0.71751  0.62383  1.0000
  H   H464      1.0  0.05982  0.73917  0.60725  1.0000
  C   C415      1.0  0.13223  0.71629  0.53505  1.0000
  C   C416      1.0  0.13935  0.71386  0.51629  1.0000
  C   C417      1.0  0.13127  0.70238  0.50655  1.0000
  C   C418      1.0  0.11669  0.69252  0.51585  1.0000
  C   C419      1.0  0.11020  0.69417  0.53492  1.0000
  C   C420      1.0  0.11774  0.70631  0.54441  1.0000
  H   H465      1.0  0.15084  0.72118  0.50906  1.0000
  H   H466      1.0  0.13647  0.70102  0.49185  1.0000
  H   H467      1.0  0.09896  0.68649  0.54218  1.0000
  H   H468      1.0  0.11253  0.70758  0.55902  1.0000
  H   H469      1.0  0.08947  0.77356  0.52503  1.0000
  N   N23       1.0  0.05245  0.67748  0.40189  1.0000
  C   C421      1.0  0.03622  0.69270  0.40336  1.0000
  C   C422      1.0  0.05733  0.67100  0.42132  1.0000
  C   C423      1.0  0.06846  0.68595  0.39030  1.0000
  C   C424      1.0  0.04877  0.66122  0.39320  1.0000
  C   C425      1.0  0.03218  0.66123  0.38494  1.0000
  C   C426      1.0  0.06241  0.64494  0.39214  1.0000
  C   C427      1.0  0.02978  0.64600  0.37589  1.0000
  C   C428      1.0  0.05989  0.62981  0.38312  1.0000
  C   C429      1.0  0.13894  0.66447  0.59034  1.0000
  H   H470      1.0  0.02362  0.68717  0.41179  1.0000
  H   H471      1.0  0.03920  0.70439  0.41058  1.0000
  H   H472      1.0  0.03263  0.69941  0.38919  1.0000
  H   H473      1.0  0.04621  0.66340  0.43021  1.0000
  H   H474      1.0  0.05915  0.68312  0.42853  1.0000
  H   H475      1.0  0.07088  0.66150  0.42144  1.0000
  H   H476      1.0  0.06538  0.69128  0.37563  1.0000
  H   H477      1.0  0.07209  0.69795  0.39659  1.0000
  H   H478      1.0  0.08143  0.67555  0.38910  1.0000
  H   H479      1.0  0.02091  0.67289  0.38512  1.0000
  H   H480      1.0  0.07535  0.64395  0.39803  1.0000
  C   C430      1.0  0.08780  0.53519  0.42187  1.0000
  H   H481      1.0  0.16594  0.75056  0.40027  1.0000
  H   H482      1.0  0.00279  0.61370  0.41590  1.0000
  H   H483      1.0  0.14186  0.67394  0.55963  1.0000
  C   C431      1.0  0.16718  0.66566  0.60391  1.0000
  H   H484      1.0  0.03495  0.55593  0.65762  1.0000
  C   C432      1.0  0.12449  0.65231  0.56665  1.0000
  N   N24       1.0  0.02189  0.69304  0.56101  1.0000
  C   C433      1.0  0.00447  0.71956  0.43939  1.0000
  H   H485      1.0  0.17999  0.95472  0.53789  1.0000
  H   H486      1.0  0.00419  0.67101  0.56324  1.0000
  H   H487      1.0  0.11291  0.91664  0.51613  1.0000
  H   H488      1.0  0.20319  0.96785  0.62444  1.0000
  H   H489      1.0  0.10602  0.53724  0.45065  1.0000
  H   H490      1.0  0.16653  0.70051  0.58441  1.0000
  H   H491      1.0  0.12920  0.92605  0.49706  1.0000
  C   C434      1.0  0.13217  0.99617  0.42216  1.0000
  N   N25       1.0  0.14136  0.91284  0.52225  1.0000
  H   H492      1.0  0.09049  0.54989  0.42248  1.0000
  H   H493      1.0  0.02826  0.68046  0.63282  1.0000
  C   C435      1.0  0.21705  0.79663  0.42737  1.0000
  S   S121      1.0  0.08301  0.54889  0.34111  1.0000
  H   H494      1.0  0.05067  0.68342  0.63830  1.0000
  C   C436      1.0  0.20952  0.95772  0.49655  1.0000
  Fe  Fe60      1.0  0.11048  0.55877  0.34171  1.0000
  H   H495      1.0  0.21718  0.98481  0.51511  1.0000
  H   H496      1.0  0.13191  0.98111  0.42659  1.0000
  C   C437      1.0  0.00550  0.70796  0.56215  1.0000
  H   H497      1.0  0.18975  0.82319  0.41518  1.0000
  S   S122      1.0  0.04496  0.59266  0.33879  1.0000
  N   N26       1.0  0.17411  0.80232  0.54530  1.0000
  C   C438      1.0  0.15708  0.81643  0.54764  1.0000
  C   C439      1.0  0.17556  0.79036  0.56385  1.0000
  C   C440      1.0  0.19079  0.81255  0.54082  1.0000
  C   C441      1.0  0.17308  0.79135  0.52971  1.0000
  C   C442      1.0  0.17264  0.80058  0.51089  1.0000
  C   C443      1.0  0.17253  0.77143  0.53253  1.0000
  C   C444      1.0  0.17214  0.79054  0.49583  1.0000
  C   C445      1.0  0.17222  0.76150  0.51731  1.0000
  C   C446      1.0  0.17207  0.77101  0.49901  1.0000
  H   H498      1.0  0.14424  0.80931  0.55165  1.0000
  H   H499      1.0  0.15762  0.82521  0.55900  1.0000
  H   H500      1.0  0.15535  0.82653  0.53457  1.0000
  H   H501      1.0  0.16299  0.78294  0.56865  1.0000
  H   H502      1.0  0.17631  0.79898  0.57528  1.0000
  H   H503      1.0  0.18832  0.77966  0.56332  1.0000
  H   H504      1.0  0.19001  0.82326  0.52805  1.0000
  H   H505      1.0  0.19227  0.82053  0.55254  1.0000
  H   H506      1.0  0.20389  0.80255  0.53825  1.0000
  H   H507      1.0  0.17268  0.81570  0.50765  1.0000
  H   H508      1.0  0.17227  0.76312  0.54634  1.0000
  H   H509      1.0  0.17175  0.79801  0.48163  1.0000
  H   H510      1.0  0.14794  0.69908  0.61414  1.0000
  H   H511      1.0  0.00989  0.57983  0.37890  1.0000
  C   C447      1.0  0.06862  0.71708  0.52668  1.0000
  H   H512      1.0  0.14637  0.69995  0.57334  1.0000
  H   H513      1.0  0.08065  0.72273  0.51829  1.0000
  N   N27       1.0  0.10267  0.52058  0.42900  1.0000
  N   N28       1.0  0.00669  0.57066  0.66168  1.0000
  H   H514      1.0  0.15577  0.50187  0.38660  1.0000
  H   H515      1.0  0.23249  0.93901  0.63952  1.0000
  C   C448      1.0  0.99946  0.66742  0.65860  1.0000
  C   C449      1.0  0.01560  0.62615  0.63241  1.0000
  H   H516      1.0  0.04001  0.74621  0.50842  1.0000
  C   C450      1.0  0.14026  0.94818  0.52065  1.0000
  H   H517      1.0  0.17598  0.80790  0.39515  1.0000
  H   H518      1.0  0.04069  0.72108  0.56821  1.0000
  H   H519      1.0  0.19351  0.97424  0.47457  1.0000
  H   H520      1.0  0.08669  0.53412  0.40687  1.0000
  C   C451      1.0  0.10134  0.67659  0.65780  1.0000
  H   H521      1.0  0.13182  0.91731  0.56112  1.0000
  C   C452      1.0  0.13991  0.68851  0.61036  1.0000
  C   C453      1.0  0.15867  0.97097  0.45594  1.0000
  C   C454      1.0  0.21392  0.96037  0.61441  1.0000
  C   C455      1.0  0.10380  0.52266  0.44898  1.0000
  C   C456      1.0  0.02877  0.57667  0.34057  1.0000
  H   H522      1.0  0.01977  0.73601  0.48902  1.0000
  C   C457      1.0  0.06077  0.70316  0.52023  1.0000
  N   N29       1.0  0.21167  0.80072  0.40792  1.0000
  H   H523      1.0  0.17192  0.74630  0.51980  1.0000
  H   H524      1.0  0.16991  0.97239  0.61268  1.0000
  H   H525      1.0  0.03590  0.70248  0.66450  1.0000
  H   H526      1.0  0.09774  0.75005  0.51930  1.0000
  S   S123      1.0  0.09814  0.58805  0.34856  1.0000
  C   C458      1.0  0.23087  0.94147  0.46515  1.0000
  C   C459      1.0  0.04562  0.69524  0.53114  1.0000
  H   H527      1.0  0.08484  0.78556  0.49039  1.0000
  H   H528      1.0  0.04435  0.61867  0.63763  1.0000
  C   C460      1.0  0.10212  0.76415  0.51956  1.0000
  C   C461      1.0  0.02013  0.54517  0.35067  1.0000
  C   C462      1.0  0.23607  0.95378  0.63672  1.0000
  C   C463      1.0  0.16986  0.77998  0.39647  1.0000
  H   H529      1.0  0.12217  0.65274  0.55202  1.0000
  H   H530      1.0  0.14361  0.94947  0.50545  1.0000
  H   H531      1.0  0.11238  0.76166  0.52999  1.0000
  H   H532      1.0  0.09014  0.76065  0.48830  1.0000
  H   H533      1.0  0.06735  0.73416  0.54912  1.0000
  H   H534      1.0  0.23878  0.93500  0.45321  1.0000
  C   C464      1.0  0.01610  0.67685  0.55371  1.0000
  S   S124      1.0  0.00025  0.71371  0.61949  1.0000
  C   C465      1.0  0.09643  0.77398  0.48733  1.0000
  C   C466      1.0  0.04370  0.63041  0.37483  1.0000
  C   C467      1.0  0.21585  0.95564  0.46236  1.0000
  C   C468      1.0  0.03790  0.70109  0.54903  1.0000
  C   C469      1.0  0.18257  0.98031  0.50863  1.0000
  H   H535      1.0  0.11560  0.51267  0.45450  1.0000
  H   H536      1.0  0.01512  0.67939  0.58957  1.0000
  H   H537      1.0  0.03964  0.67578  0.58010  1.0000
  H   H538      1.0  0.08299  0.50021  0.43760  1.0000
  H   H539      1.0  0.02705  0.75767  0.53913  1.0000
  H   H540      1.0  0.16733  0.68339  0.56861  1.0000
  N   N30       1.0  0.11063  0.77216  0.50054  1.0000
  H   H541      1.0  0.12028  0.82441  0.52846  1.0000
  H   H542      1.0  0.12902  0.94622  0.57517  1.0000
  H   H543      1.0  0.17140  0.90953  0.52115  1.0000
  H   H544      1.0  0.16829  0.53212  0.38557  1.0000
  C   C470      1.0  0.22497  0.94328  0.49886  1.0000
  C   C471      1.0  0.23664  0.98276  0.61462  1.0000
  C   C472      1.0  0.12936  0.82672  0.49853  1.0000
  H   H545      1.0  0.22109  0.96249  0.53001  1.0000
  C   C473      1.0  0.03061  0.61401  0.63928  1.0000
  H   H546      1.0  0.22547  0.80159  0.37930  1.0000
  H   H547      1.0  0.02782  0.66503  0.55238  1.0000
  H   H548      1.0  0.12231  0.74438  0.49323  1.0000
  H   H549      1.0  0.10255  0.77701  0.47225  1.0000
  C   C474      1.0  0.99896  0.56929  0.33456  1.0000
  C   C475      1.0  0.16050  0.91053  0.51157  1.0000
  H   H550      1.0  0.01624  0.59427  0.39428  1.0000
  H   H551      1.0  0.12899  0.90108  0.50196  1.0000
  H   H552      1.0  0.16283  0.92231  0.49999  1.0000
  H   H553      1.0  0.17451  0.98576  0.52160  1.0000
  C   C476      1.0  0.23545  0.93533  0.48337  1.0000
  C   C477      1.0  0.13808  0.96478  0.52913  1.0000
  C   C478      1.0  0.13422  0.96402  0.54874  1.0000
  H   H554      1.0  0.21798  0.76172  0.41380  1.0000
  H   H555      1.0  0.13318  0.97677  0.55541  1.0000
  H   H556      1.0  0.23858  0.80897  0.39559  1.0000
  C   C479      1.0  0.02666  0.68621  0.58044  1.0000
  C   C480      1.0  0.01019  0.58942  0.65126  1.0000
  C   C481      1.0  0.06123  0.72334  0.54401  1.0000
  C   C482      1.0  0.02806  0.59584  0.64840  1.0000
  H   H557      1.0  0.21247  0.83061  0.40810  1.0000
  C   C483      1.0  0.11706  0.79080  0.50024  1.0000
  H   H558      1.0  0.13725  0.75563  0.50452  1.0000
  C   C484      1.0  0.13025  0.65127  0.60427  1.0000
  H   H559      1.0  0.12508  0.89556  0.54383  1.0000
  H   H560      1.0  0.22590  0.78274  0.42989  1.0000
  H   H561      1.0  0.17847  0.98449  0.43501  1.0000
  H   H562      1.0  0.04209  0.61886  0.36739  1.0000
  C   C485      1.0  0.13837  0.93028  0.53158  1.0000
  H   H563      1.0  0.07377  0.53358  0.43006  1.0000
  H   H564      1.0  0.19684  0.73926  0.41097  1.0000
  H   H565      1.0  0.19983  0.82554  0.39056  1.0000
  H   H566      1.0  0.17545  0.65647  0.59360  1.0000
  C   C486      1.0  0.12482  0.80056  0.48293  1.0000
  H   H567      1.0  0.13408  0.76299  0.48020  1.0000
  H   H568      1.0  0.10984  0.79371  0.53051  1.0000
  C   C487      1.0  0.99802  0.62010  0.63449  1.0000
  H   H569      1.0  0.22545  0.80735  0.43026  1.0000
  H   H570      1.0  0.01418  0.70079  0.65698  1.0000
  H   H571      1.0  0.04500  0.65993  0.63856  1.0000
  H   H572      1.0  0.99649  0.74671  0.47013  1.0000
  C   C488      1.0  0.20523  0.96367  0.47776  1.0000
  N   N31       1.0  0.19813  0.96521  0.51334  1.0000
  H   H573      1.0  0.15616  0.78485  0.39197  1.0000
  C   C489      1.0  0.11569  0.79989  0.51673  1.0000
  H   H574      1.0  0.01756  0.64027  0.62551  1.0000
  C   C490      1.0  0.18974  0.94952  0.52575  1.0000
  C   C491      1.0  0.12750  0.91426  0.50878  1.0000
  H   H575      1.0  0.12137  0.55179  0.42401  1.0000
  C   C492      1.0  0.19915  0.78721  0.40518  1.0000
  C   C493      1.0  0.18149  0.79315  0.39844  1.0000
  H   H576      1.0  0.23693  0.78434  0.39599  1.0000
  H   H577      1.0  0.17241  0.97512  0.50118  1.0000
  C   C494      1.0  0.20298  0.82084  0.40531  1.0000
  H   H578      1.0  0.20050  0.93865  0.53194  1.0000
  H   H579      1.0  0.00294  0.71354  0.48469  1.0000
  H   H580      1.0  0.14200  0.88240  0.52840  1.0000
  H   H581      1.0  0.00837  0.72037  0.56815  1.0000
  H   H582      1.0  0.12688  0.69649  0.60525  1.0000
  H   H583      1.0  0.01784  0.76772  0.57307  1.0000
  C   C495      1.0  0.17535  0.76065  0.40111  1.0000
  C   C496      1.0  0.13187  0.94679  0.55987  1.0000
  H   H584      1.0  0.20176  0.97964  0.53653  1.0000
  C   C497      1.0  0.11904  0.63905  0.59947  1.0000
  C   C498      1.0  0.13086  0.81823  0.48213  1.0000
  H   H585      1.0  0.07075  0.61766  0.38233  1.0000
  C   C499      1.0  0.12171  0.81761  0.51577  1.0000
  H   H586      1.0  0.13663  0.82543  0.46866  1.0000
  C   C500      1.0  0.01786  0.75309  0.53065  1.0000
  H   H587      1.0  0.01345  0.60385  0.37021  1.0000
  H   H588      1.0  0.13949  0.95397  0.47391  1.0000
  C   C501      1.0  0.13363  0.93015  0.55150  1.0000
  N   N32       1.0  0.15085  0.67718  0.59584  1.0000
  C   C502      1.0  0.13940  0.89530  0.53577  1.0000
  H   H589      1.0  0.02888  0.69790  0.58798  1.0000
  C   C503      1.0  0.15810  0.69076  0.57980  1.0000
  H   H590      1.0  0.21157  0.94521  0.61698  1.0000
  H   H591      1.0  0.22875  0.93763  0.51277  1.0000
  C   C504      1.0  0.09677  0.50173  0.42881  1.0000
  H   H592      1.0  0.20970  0.99599  0.60530  1.0000
  H   H593      1.0  0.20445  0.79672  0.43820  1.0000
  H   H594      1.0  0.13955  0.97829  0.52046  1.0000
  H   H595      1.0  0.21102  0.96562  0.59965  1.0000
  H   H596      1.0  0.18169  0.94222  0.51780  1.0000
  H   H597      1.0  0.24405  0.93709  0.60477  1.0000
  H   H598      1.0  0.22707  0.96197  0.64746  1.0000
  H   H599      1.0  0.15364  0.99177  0.39868  1.0000
  N   N33       1.0  0.03166  0.67378  0.66249  1.0000
  H   H600      1.0  0.99752  0.68037  0.64892  1.0000
  C   C505      1.0  0.00011  0.55931  0.64903  1.0000
  H   H601      1.0  0.24382  0.99104  0.42172  1.0000
  H   H602      1.0  0.99768  0.54495  0.65636  1.0000
  C   C506      1.0  0.01180  0.58228  0.33313  1.0000
  C   C507      1.0  0.12089  0.52321  0.41731  1.0000
  H   H603      1.0  0.15081  0.55688  0.40435  1.0000
  C   C508      1.0  0.22308  0.99809  0.60875  1.0000
  C   C509      1.0  0.12862  0.54034  0.41643  1.0000
  H   H604      1.0  0.24509  0.95865  0.58868  1.0000
  C   C510      1.0  0.14553  0.54342  0.40516  1.0000
  H   H605      1.0  0.16955  0.99917  0.63099  1.0000
  C   C511      1.0  0.15533  0.52954  0.39453  1.0000
  C   C512      1.0  0.13125  0.50930  0.40629  1.0000
  C   C513      1.0  0.14823  0.51252  0.39512  1.0000
  H   H606      1.0  0.99534  0.74611  0.59008  1.0000
  C   C514      1.0  0.99534  0.60204  0.64376  1.0000
  Fe  Fe61      1.0  0.09578  0.59938  0.71397  1.0000
  S   S125      1.0  0.10892  0.60849  0.73682  1.0000
  S   S126      1.0  0.07857  0.57556  0.72229  1.0000
  Fe  Fe62      1.0  0.08781  0.55025  0.85475  1.0000
  S   S127      1.0  0.10238  0.52514  0.84107  1.0000
  S   S128      1.0  0.05875  0.55666  0.84522  1.0000
  Fe  Fe63      1.0  0.12535  0.55729  0.86625  1.0000
  S   S129      1.0  0.14214  0.53351  0.85179  1.0000
  S   S130      1.0  0.13943  0.57160  0.88542  1.0000
  Fe  Fe64      1.0  0.12438  0.54342  0.82833  1.0000
  S   S131      1.0  0.13353  0.53976  0.79757  1.0000
  Fe  Fe65      1.0  0.11864  0.51775  0.86570  1.0000
  C   C515      1.0  0.15895  0.51151  0.89764  1.0000
  S   S132      1.0  0.10957  0.56910  0.84121  1.0000
  S   S133      1.0  0.10204  0.54087  0.88109  1.0000
  S   S134      1.0  0.22462  0.54470  0.89897  1.0000
  H   H607      1.0  0.01744  0.69347  0.68138  1.0000
  C   C516      1.0  0.99867  0.57793  0.72784  1.0000
  Fe  Fe66      1.0  0.05689  0.59535  0.70773  1.0000
  C   C517      1.0  0.16331  0.56469  0.88881  1.0000
  C   C518      1.0  0.17597  0.55502  0.87577  1.0000
  C   C519      1.0  0.19471  0.54931  0.87906  1.0000
  C   C520      1.0  0.20101  0.55299  0.89548  1.0000
  C   C521      1.0  0.18845  0.56286  0.90847  1.0000
  C   C522      1.0  0.16974  0.56889  0.90500  1.0000
  H   H608      1.0  0.17140  0.55216  0.86300  1.0000
  H   H609      1.0  0.20443  0.54201  0.86878  1.0000
  H   H610      1.0  0.19316  0.56593  0.92111  1.0000
  H   H611      1.0  0.16011  0.57659  0.91506  1.0000
  S   S135      1.0  0.07297  0.62001  0.70176  1.0000
  S   S136      1.0  0.10876  0.58995  0.68595  1.0000
  C   C523      1.0  0.03287  0.55204  0.87776  1.0000
  C   C524      1.0  0.03644  0.55362  0.85799  1.0000
  C   C525      1.0  0.02161  0.55359  0.84761  1.0000
  H   H612      1.0  0.17365  0.50032  0.84420  1.0000
  H   H613      1.0  0.01161  0.55029  0.90218  1.0000
  H   H614      1.0  0.04416  0.55218  0.88592  1.0000
  H   H615      1.0  0.02429  0.55471  0.83237  1.0000
  H   H616      1.0  0.02991  0.63856  0.68589  1.0000
  C   C526      1.0  0.11621  0.58953  0.75357  1.0000
  C   C527      1.0  0.11647  0.59261  0.77228  1.0000
  C   C528      1.0  0.12153  0.57739  0.78600  1.0000
  C   C529      1.0  0.12705  0.55918  0.78084  1.0000
  C   C530      1.0  0.12736  0.55628  0.76198  1.0000
  C   C531      1.0  0.12150  0.57130  0.74846  1.0000
  H   H617      1.0  0.11261  0.60676  0.77621  1.0000
  H   H618      1.0  0.12165  0.57984  0.80042  1.0000
  H   H619      1.0  0.13231  0.54243  0.75777  1.0000
  H   H620      1.0  0.12164  0.56892  0.73394  1.0000
  C   C532      1.0  0.02972  0.56185  0.71863  1.0000
  C   C533      1.0  0.02214  0.54508  0.71876  1.0000
  H   H621      1.0  0.04462  0.56204  0.71484  1.0000
  H   H622      1.0  0.02027  0.54557  0.67736  1.0000
  C   C534      1.0  0.01792  0.57835  0.72280  1.0000
  C   C535      1.0  0.01633  0.66179  0.66687  1.0000
  C   C536      1.0  0.02776  0.57926  0.77371  1.0000
  C   C537      1.0  0.01763  0.64426  0.67906  1.0000
  C   C538      1.0  0.15359  0.52477  0.92710  1.0000
  C   C539      1.0  0.00448  0.50620  0.81441  1.0000
  C   C540      1.0  0.01588  0.51996  0.81493  1.0000
  H   H623      1.0  0.03120  0.53243  0.71505  1.0000
  C   C541      1.0  0.10391  0.50887  0.77288  1.0000
  C   C542      1.0  0.19141  0.50181  0.92019  1.0000
  S   S137      1.0  0.23832  0.52148  0.94935  1.0000
  H   H624      1.0  0.07246  0.51119  0.81303  1.0000
  H   H625      1.0  0.00589  0.50309  0.85583  1.0000
  H   H626      1.0  0.05869  0.67630  0.67028  1.0000
  H   H627      1.0  0.01084  0.53479  0.81090  1.0000
  H   H628      1.0  0.04289  0.66597  0.68911  1.0000
  N   N34       1.0  0.15665  0.50685  0.91853  1.0000
  H   H629      1.0  0.19274  0.51579  0.91262  1.0000
  H   H630      1.0  0.11294  0.52902  0.73925  1.0000
  C   C543      1.0  0.03364  0.51473  0.82079  1.0000
  S   S138      1.0  0.06606  0.58541  0.67937  1.0000
  H   H631      1.0  0.11185  0.51115  0.72498  1.0000
  S   S139      1.0  0.10018  0.53612  0.69158  1.0000
  N   N35       1.0  0.05722  0.58811  0.78245  1.0000
  C   C544      1.0  0.06504  0.59442  0.79803  1.0000
  C   C545      1.0  0.06881  0.57016  0.77783  1.0000
  C   C546      1.0  0.05928  0.60280  0.76573  1.0000
  C   C547      1.0  0.03727  0.58508  0.78725  1.0000
  C   C548      1.0  0.02672  0.58780  0.80517  1.0000
  C   C549      1.0  0.08628  0.51815  0.69053  1.0000
  H   H632      1.0  0.14645  0.52079  0.89268  1.0000
  H   H633      1.0  0.05458  0.65258  0.67032  1.0000
  C   C550      1.0  0.00278  0.54492  0.72278  1.0000
  H   H634      1.0  0.06472  0.58365  0.81088  1.0000
  H   H635      1.0  0.08000  0.59663  0.79393  1.0000
  H   H636      1.0  0.05732  0.60815  0.80197  1.0000
  H   H637      1.0  0.06743  0.55874  0.79002  1.0000
  H   H638      1.0  0.08396  0.57187  0.77442  1.0000
  H   H639      1.0  0.06487  0.56517  0.76529  1.0000
  H   H640      1.0  0.05024  0.61633  0.76838  1.0000
  H   H641      1.0  0.07403  0.60593  0.76204  1.0000
  H   H642      1.0  0.05541  0.59850  0.75279  1.0000
  H   H643      1.0  0.03276  0.59184  0.81656  1.0000
  H   H644      1.0  0.02896  0.56699  0.67912  1.0000
  H   H645      1.0  0.03477  0.57704  0.75971  1.0000
  H   H646      1.0  0.14096  0.53430  0.92269  1.0000
  C   C551      1.0  0.06704  0.52219  0.68927  1.0000
  H   H647      1.0  0.04025  0.51100  0.90753  1.0000
  C   C552      1.0  0.00274  0.63345  0.68301  1.0000
  H   H648      1.0  0.15182  0.52196  0.94284  1.0000
  C   C553      1.0  0.99892  0.57944  0.79541  1.0000
  H   H649      1.0  0.12685  0.50703  0.91906  1.0000
  H   H650      1.0  0.09111  0.52062  0.73951  1.0000
  C   C554      1.0  0.01440  0.55108  0.88692  1.0000
  H   H651      1.0  0.10943  0.52237  0.77338  1.0000
  H   H652      1.0  0.13849  0.50974  0.75251  1.0000
  C   C555      1.0  0.00779  0.58515  0.80903  1.0000
  H   H653      1.0  0.09858  0.64843  0.67240  1.0000
  C   C556      1.0  0.02351  0.55938  0.66918  1.0000
  C   C557      1.0  0.00891  0.57643  0.77781  1.0000
  H   H654      1.0  0.00398  0.62025  0.69252  1.0000
  C   C558      1.0  0.02445  0.69341  0.66654  1.0000
  N   N36       1.0  0.11100  0.50101  0.75485  1.0000
  H   H655      1.0  0.08834  0.51179  0.77477  1.0000
  C   C559      1.0  0.00329  0.55240  0.85671  1.0000
  H   H656      1.0  0.17113  0.51920  0.89221  1.0000
  Fe  Fe67      1.0  0.23929  0.54473  0.92482  1.0000
  H   H657      1.0  0.05926  0.51647  0.84507  1.0000
  H   H658      1.0  0.19803  0.51416  0.85601  1.0000
  S   S140      1.0  0.23941  0.56751  0.94312  1.0000
  H   H659      1.0  0.06027  0.53668  0.68887  1.0000
  H   H660      1.0  0.00972  0.51203  0.89708  1.0000
  C   C560      1.0  0.10647  0.51602  0.73901  1.0000
  H   H661      1.0  0.04196  0.52590  0.82102  1.0000
  H   H662      1.0  0.04178  0.51073  0.68712  1.0000
  Fe  Fe68      1.0  0.08941  0.56733  0.69341  1.0000
  Fe  Fe69      1.0  0.08426  0.60891  0.67428  1.0000
  S   S141      1.0  0.02708  0.59967  0.72094  1.0000
  H   H663      1.0  0.16549  0.53310  0.92272  1.0000
  C   C561      1.0  0.05661  0.50745  0.68828  1.0000
  H   H664      1.0  0.10682  0.68105  0.66935  1.0000
  C   C562      1.0  0.04756  0.66680  0.67360  1.0000
  C   C563      1.0  0.05974  0.50095  0.84940  1.0000
  Fe  Fe70      1.0  0.24139  0.54364  0.96708  1.0000
  S   S142      1.0  0.22715  0.54234  0.99713  1.0000
  H   H665      1.0  1.00000  0.58737  0.82279  1.0000
  H   H666      1.0  0.00196  0.57209  0.76717  1.0000
  C   C564      1.0  0.99950  0.55139  0.87641  1.0000
  H   H667      1.0  0.99600  0.58246  0.68753  1.0000
  C   C565      1.0  0.19562  0.49971  0.86126  1.0000
  Fe  Fe71      1.0  0.45349  0.14459  0.09306  1.0000
  S   S143      1.0  0.44344  0.11735  0.09054  1.0000
  Fe  Fe72      1.0  0.41554  0.16202  0.11008  1.0000
  S   S144      1.0  0.40245  0.13590  0.10917  1.0000
  S   S145      1.0  0.39690  0.18889  0.11630  1.0000
  Fe  Fe73      1.0  0.42877  0.12007  0.12024  1.0000
  S   S146      1.0  0.43162  0.09333  0.14183  1.0000
  Fe  Fe74      1.0  0.41843  0.13574  0.07978  1.0000
  S   S147      1.0  0.40416  0.13758  0.05331  1.0000
  S   S148      1.0  0.44064  0.14642  0.12319  1.0000
  S   S149      1.0  0.42984  0.16277  0.08035  1.0000
  Fe  Fe75      1.0  0.44922  0.31042  0.08913  1.0000
  S   S150      1.0  0.43776  0.28398  0.08603  1.0000
  H   H668      1.0  0.38519  0.27844  0.00107  1.0000
  Fe  Fe76      1.0  0.41117  0.32720  0.10944  1.0000
  S   S151      1.0  0.39799  0.30102  0.10951  1.0000
  S   S152      1.0  0.39313  0.35442  0.11698  1.0000
  Fe  Fe77      1.0  0.42564  0.28491  0.11633  1.0000
  S   S153      1.0  0.43291  0.25744  0.13473  1.0000
  Fe  Fe78      1.0  0.41143  0.30266  0.07943  1.0000
  S   S154      1.0  0.39184  0.30341  0.05807  1.0000
  S   S155      1.0  0.43782  0.31092  0.11977  1.0000
  S   S156      1.0  0.42405  0.32917  0.07894  1.0000
  Fe  Fe79      1.0  0.42994  0.06197  0.25462  1.0000
  S   S157      1.0  0.43951  0.06470  0.28243  1.0000
  S   S158      1.0  0.43037  0.08744  0.23145  1.0000
  H   H669      1.0  0.39094  0.06444  0.22944  1.0000
  Fe  Fe80      1.0  0.41422  0.05100  0.29692  1.0000
  C   C566      1.0  0.28599  0.49234  0.10741  1.0000
  Fe  Fe81      1.0  0.45367  0.03480  0.28078  1.0000
  S   S159      1.0  0.40355  0.05079  0.26916  1.0000
  S   S160      1.0  0.44573  0.03291  0.25219  1.0000
  C   C567      1.0  0.48933  0.08061  0.18768  1.0000
  Fe  Fe82      1.0  0.28223  0.38402  0.10749  1.0000
  S   S161      1.0  0.25747  0.36939  0.10600  1.0000
  S   S162      1.0  0.30424  0.36209  0.12056  1.0000
  H   H670      1.0  0.26775  0.49116  0.06680  1.0000
  C   C568      1.0  0.49190  0.18264  0.11641  1.0000
  C   C569      1.0  0.31768  0.33385  0.07746  1.0000
  Fe  Fe83      1.0  0.25782  0.38432  0.07648  1.0000
  S   S163      1.0  0.25930  0.36621  0.05328  1.0000
  H   H671      1.0  0.25555  0.36230  0.16662  1.0000
  S   S164      1.0  0.28356  0.39748  0.07727  1.0000
  H   H672      1.0  0.44827  0.09651  0.01294  1.0000
  C   C570      1.0  0.47573  0.30716  0.02615  1.0000
  C   C571      1.0  0.47827  0.09630  0.24110  1.0000
  H   H673      1.0  0.30183  0.35955  0.18257  1.0000
  H   H674      1.0  0.38883  0.00986  0.30272  1.0000
  H   H675      1.0  0.44864  0.22811  0.01088  1.0000
  C   C572      1.0  0.48580  0.23967  0.13641  1.0000
  C   C573      1.0  0.43946  0.20058  0.01615  1.0000
  H   H676      1.0  0.48371  0.19146  0.12643  1.0000
  C   C574      1.0  0.29040  0.35862  0.17420  1.0000
  C   C575      1.0  0.43585  0.31453  0.02763  1.0000
  C   C576      1.0  0.28649  0.47312  0.11475  1.0000
  C   C577      1.0  0.28005  0.46041  0.10494  1.0000
  C   C578      1.0  0.27316  0.46691  0.08767  1.0000
  Fe  Fe84      1.0  0.26315  0.42128  0.08840  1.0000
  N   N37       1.0  0.26109  0.48349  0.01557  1.0000
  H   H677      1.0  0.29181  0.46815  0.12809  1.0000
  H   H678      1.0  0.28050  0.44563  0.11067  1.0000
  C   C579      1.0  0.25432  0.44971  0.02263  1.0000
  C   C580      1.0  0.49351  0.16150  0.09268  1.0000
  H   H679      1.0  0.33532  0.37248  0.05234  1.0000
  H   H680      1.0  0.35017  0.34239  0.08349  1.0000
  H   H681      1.0  0.32589  0.36888  0.07700  1.0000
  C   C581      1.0  0.26326  0.37446  0.16038  1.0000
  C   C582      1.0  0.36855  0.35641  0.11665  1.0000
  C   C583      1.0  0.35831  0.37408  0.11105  1.0000
  C   C584      1.0  0.33863  0.37606  0.11153  1.0000
  C   C585      1.0  0.32901  0.36047  0.11819  1.0000
  C   C586      1.0  0.33924  0.34289  0.12385  1.0000
  C   C587      1.0  0.35889  0.34080  0.12285  1.0000
  H   H682      1.0  0.36565  0.38628  0.10637  1.0000
  H   H683      1.0  0.33091  0.38972  0.10722  1.0000
  H   H684      1.0  0.33195  0.33075  0.12913  1.0000
  H   H685      1.0  0.36650  0.32722  0.12754  1.0000
  C   C588      1.0  0.39738  0.28631  0.04264  1.0000
  C   C589      1.0  0.38725  0.28820  0.02733  1.0000
  H   H686      1.0  0.38495  0.10562  0.18092  1.0000
  H   H687      1.0  0.28274  0.34678  0.18155  1.0000
  C   C590      1.0  0.41772  0.25967  0.03052  1.0000
  C   C591      1.0  0.41234  0.27173  0.04457  1.0000
  H   H688      1.0  0.37555  0.29925  0.02598  1.0000
  H   H689      1.0  0.32020  0.31828  0.07692  1.0000
  H   H690      1.0  0.42971  0.24887  0.03162  1.0000
  H   H691      1.0  0.42002  0.27010  0.05658  1.0000
  C   C592      1.0  0.43225  0.09209  0.16658  1.0000
  C   C593      1.0  0.43558  0.07421  0.17739  1.0000
  C   C594      1.0  0.43552  0.07254  0.19718  1.0000
  C   C595      1.0  0.43195  0.08873  0.20641  1.0000
  C   C596      1.0  0.42926  0.10663  0.19551  1.0000
  C   C597      1.0  0.42942  0.10833  0.17571  1.0000
  H   H692      1.0  0.43796  0.06158  0.17044  1.0000
  H   H693      1.0  0.43805  0.05877  0.20533  1.0000
  H   H694      1.0  0.42658  0.11927  0.20249  1.0000
  H   H695      1.0  0.42689  0.12218  0.16761  1.0000
  C   C598      1.0  0.41434  0.12916  0.03169  1.0000
  C   C599      1.0  0.42935  0.11452  0.03087  1.0000
  H   H696      1.0  0.27872  0.44143  0.15086  1.0000
  H   H697      1.0  0.49216  0.18179  0.01700  1.0000
  H   H698      1.0  0.27950  0.46820  0.03544  1.0000
  C   C600      1.0  0.40708  0.13741  0.01490  1.0000
  H   H699      1.0  0.43488  0.10786  0.04375  1.0000
  H   H700      1.0  0.36051  0.34646  0.05958  1.0000
  H   H701      1.0  0.47763  0.05949  0.29751  1.0000
  C   C601      1.0  0.26845  0.38048  0.19114  1.0000
  C   C602      1.0  0.42367  0.23845  0.12840  1.0000
  C   C603      1.0  0.43238  0.21981  0.13260  1.0000
  C   C604      1.0  0.42470  0.20449  0.12819  1.0000
  C   C605      1.0  0.40795  0.20777  0.12019  1.0000
  C   C606      1.0  0.39937  0.22640  0.11583  1.0000
  C   C607      1.0  0.40739  0.24174  0.11962  1.0000
  H   H702      1.0  0.44495  0.21720  0.13942  1.0000
  H   H703      1.0  0.43131  0.19013  0.13168  1.0000
  H   H704      1.0  0.38636  0.22900  0.10974  1.0000
  H   H705      1.0  0.40057  0.25607  0.11642  1.0000
  H   H706      1.0  0.31119  0.36925  0.05917  1.0000
  H   H707      1.0  0.29948  0.34704  0.04500  1.0000
  C   C608      1.0  0.41316  0.02821  0.21799  1.0000
  H   H708      1.0  0.26970  0.37180  0.14583  1.0000
  C   C609      1.0  0.47764  0.10962  0.13392  1.0000
  H   H709      1.0  0.35982  0.32946  0.03593  1.0000
  N   N38       1.0  0.38453  0.20383  0.05991  1.0000
  C   C610      1.0  0.36980  0.21657  0.07028  1.0000
  C   C611      1.0  0.38283  0.18414  0.06908  1.0000
  C   C612      1.0  0.40314  0.20840  0.06232  1.0000
  C   C613      1.0  0.38266  0.20649  0.03944  1.0000
  C   C614      1.0  0.38076  0.22495  0.02914  1.0000
  C   C615      1.0  0.38350  0.19101  0.02895  1.0000
  C   C616      1.0  0.38699  0.08622  0.20654  1.0000
  H   H710      1.0  0.25251  0.38718  0.15889  1.0000
  C   C617      1.0  0.27291  0.48607  0.08020  1.0000
  H   H711      1.0  0.35557  0.21475  0.06755  1.0000
  H   H712      1.0  0.37014  0.21363  0.08591  1.0000
  H   H713      1.0  0.37161  0.23178  0.06648  1.0000
  H   H714      1.0  0.36953  0.17949  0.06682  1.0000
  H   H715      1.0  0.38295  0.18261  0.08465  1.0000
  H   H716      1.0  0.39476  0.17392  0.06380  1.0000
  H   H717      1.0  0.40492  0.22337  0.05669  1.0000
  H   H718      1.0  0.40523  0.20641  0.07756  1.0000
  H   H719      1.0  0.41466  0.19912  0.05489  1.0000
  H   H720      1.0  0.38092  0.23739  0.03584  1.0000
  H   H721      1.0  0.38538  0.17640  0.03540  1.0000
  H   H722      1.0  0.48361  0.13685  0.15377  1.0000
  H   H723      1.0  0.29038  0.47251  0.01133  1.0000
  C   C618      1.0  0.25097  0.36766  0.01733  1.0000
  N   N39       1.0  0.27775  0.37687  0.17196  1.0000
  H   H724      1.0  0.43800  0.30128  0.03768  1.0000
  C   C619      1.0  0.25548  0.46653  0.00965  1.0000
  C   C620      1.0  0.30548  0.42475  0.14478  1.0000
  C   C621      1.0  0.39275  0.27642  0.01323  1.0000
  C   C622      1.0  0.38951  0.06723  0.21452  1.0000
  H   H725      1.0  0.27870  0.38379  0.19981  1.0000
  H   H726      1.0  0.47198  0.26832  0.11459  1.0000
  H   H727      1.0  0.37892  0.02099  0.19383  1.0000
  C   C623      1.0  0.47732  0.18631  0.01693  1.0000
  H   H728      1.0  0.29686  0.35422  0.16023  1.0000
  C   C624      1.0  0.47473  0.10870  0.22487  1.0000
  C   C625      1.0  0.38172  0.19403  0.00961  1.0000
  H   H729      1.0  0.48454  0.28601  0.11863  1.0000
  H   H730      1.0  0.45004  0.14665  0.00470  1.0000
  H   H731      1.0  0.46772  0.17571  0.10606  1.0000
  H   H732      1.0  0.39528  0.14852  0.01545  1.0000
  C   C626      1.0  0.44492  0.18098  0.01919  1.0000
  H   H733      1.0  0.38800  0.08037  0.16055  1.0000
  N   N40       1.0  0.39415  0.03224  0.21211  1.0000
  C   C627      1.0  0.46743  0.30879  0.00920  1.0000
  H   H734      1.0  0.47865  0.33045  0.10850  1.0000
  H   H735      1.0  0.31225  0.43679  0.13769  1.0000
  H   H736      1.0  0.41493  0.03759  0.22836  1.0000
  S   S165      1.0  0.42930  0.02131  0.29744  1.0000
  S   S166      1.0  0.48344  0.02224  0.28461  1.0000
  H   H737      1.0  0.35658  0.32176  0.00488  1.0000
  H   H738      1.0  0.47181  0.09065  0.16646  1.0000
  C   C628      1.0  0.43688  0.10808  0.01342  1.0000
  H   H739      1.0  0.43941  0.32651  0.03395  1.0000
  H   H740      1.0  0.26334  0.35736  0.01532  1.0000
  H   H741      1.0  0.30274  0.33895  0.07572  1.0000
  C   C629      1.0  0.48861  0.11912  0.21509  1.0000
  C   C630      1.0  0.31555  0.40663  0.14615  1.0000
  C   C631      1.0  0.27973  0.47863  0.02236  1.0000
  S   S167      1.0  0.26485  0.45151  0.07497  1.0000
  C   C632      1.0  0.46529  0.14437  0.00592  1.0000
  C   C633      1.0  0.38619  0.09089  0.18719  1.0000
  C   C634      1.0  0.32675  0.32914  0.00781  1.0000
  H   H742      1.0  0.47858  0.07323  0.19657  1.0000
  C   C635      1.0  0.47168  0.20586  0.01399  1.0000
  H   H743      1.0  0.25687  0.39248  0.19067  1.0000
  H   H744      1.0  0.42048  0.31747  0.02678  1.0000
  Fe  Fe85      1.0  0.42018  0.02190  0.26903  1.0000
  H   H745      1.0  0.46117  0.11023  0.21988  1.0000
  C   C636      1.0  0.31226  0.34121  0.03690  1.0000
  H   H746      1.0  0.49121  0.14180  0.12893  1.0000
  H   H747      1.0  0.31917  0.33620  0.09207  1.0000
  C   C637      1.0  0.34585  0.33162  0.03192  1.0000
  H   H748      1.0  0.37719  0.24206  0.00234  1.0000
  C   C638      1.0  0.45890  0.14385  0.03986  1.0000
  H   H749      1.0  0.46197  0.26740  0.15047  1.0000
  C   C639      1.0  0.48559  0.09079  0.17024  1.0000
  N   N41       1.0  0.46956  0.15241  0.02232  1.0000
  C   C640      1.0  0.45284  0.21296  0.01349  1.0000
  C   C641      1.0  0.48287  0.17367  0.10496  1.0000
  H   H750      1.0  0.46110  0.15032  0.05226  1.0000
  C   C642      1.0  0.32560  0.36449  0.06286  1.0000
  C   C643      1.0  0.48576  0.27048  0.11835  1.0000
  H   H751      1.0  0.46321  0.12829  0.04283  1.0000
  C   C644      1.0  0.34987  0.33869  0.06907  1.0000
  H   H752      1.0  0.39180  0.04726  0.17380  1.0000
  C   C645      1.0  0.32980  0.33869  0.04401  1.0000
  C   C646      1.0  0.39023  0.05752  0.18360  1.0000
  C   C647      1.0  0.38788  0.07659  0.17574  1.0000
  H   H753      1.0  0.25752  0.44893  0.03694  1.0000
  C   C648      1.0  0.27774  0.41180  0.16109  1.0000
  S   S168      1.0  0.39041  0.06024  0.31959  1.0000
  C   C649      1.0  0.28661  0.42733  0.15226  1.0000
  C   C650      1.0  0.47690  0.26752  0.15218  1.0000
  C   C651      1.0  0.46406  0.17322  0.01966  1.0000
  H   H754      1.0  0.47570  0.11770  0.11973  1.0000
  H   H755      1.0  0.26196  0.36802  0.19889  1.0000
  C   C652      1.0  0.27930  0.49875  0.09004  1.0000
  N   N42       1.0  0.33090  0.34376  0.06299  1.0000
  H   H756      1.0  0.44359  0.14583  0.03934  1.0000
  C   C653      1.0  0.37881  0.22778  0.00985  1.0000
  H   H757      1.0  0.33019  0.40462  0.14007  1.0000
  H   H758      1.0  0.47862  0.28255  0.15261  1.0000
  C   C654      1.0  0.28759  0.39312  0.16279  1.0000
  H   H759      1.0  0.41615  0.01333  0.22486  1.0000
  H   H760      1.0  0.38649  0.09736  0.21530  1.0000
  H   H761      1.0  0.28478  0.49130  0.02603  1.0000
  C   C655      1.0  0.30684  0.39099  0.15498  1.0000
  H   H762      1.0  0.35466  0.32319  0.06962  1.0000
  S   S169      1.0  0.47998  0.30903  0.07678  1.0000
  C   C656      1.0  0.40829  0.26255  0.01453  1.0000
  H   H763      1.0  0.42413  0.03042  0.20563  1.0000
  H   H764      1.0  0.31544  0.37736  0.15506  1.0000
  C   C657      1.0  0.31081  0.33638  0.01913  1.0000
  S   S170      1.0  0.48300  0.14762  0.08055  1.0000
  C   C658      1.0  0.44065  0.29684  0.00121  1.0000
  H   H765      1.0  0.47154  0.23960  0.13256  1.0000
  H   H766      1.0  0.42480  0.20629  0.01565  1.0000
  H   H767      1.0  0.46523  0.11474  0.14379  1.0000
  H   H768      1.0  0.44708  0.34264  0.00099  1.0000
  H   H769      1.0  0.26294  0.41450  0.16608  1.0000
  H   H770      1.0  0.48578  0.12867  0.20240  1.0000
  C   C659      1.0  0.38012  0.02884  0.22909  1.0000
  C   C660      1.0  0.34423  0.32701  0.01406  1.0000
  H   H771      1.0  0.38216  0.03626  0.24095  1.0000
  C   C661      1.0  0.39099  0.05225  0.20335  1.0000
  N   N43       1.0  0.48987  0.25926  0.13671  1.0000
  H   H772      1.0  0.46752  0.30863  0.03979  1.0000
  C   C662      1.0  0.39280  0.01837  0.19917  1.0000
  S   S171      1.0  0.26380  0.40903  0.11898  1.0000
  H   H773      1.0  0.40410  0.01877  0.18690  1.0000
  H   H774      1.0  0.36558  0.03353  0.22568  1.0000
  C   C663      1.0  0.37924  0.21238  0.00011  1.0000
  H   H775      1.0  0.48215  0.35542  0.06971  1.0000
  H   H776      1.0  0.47710  0.09446  0.13277  1.0000
  H   H777      1.0  0.48200  0.21559  0.01198  1.0000
  H   H778      1.0  0.43405  0.17190  0.02096  1.0000
  C   C664      1.0  0.49312  0.32507  0.10408  1.0000
  H   H779      1.0  0.42510  0.29834  0.00223  1.0000
  C   C665      1.0  0.38098  0.00150  0.31413  1.0000
  H   H780      1.0  0.46967  0.12875  0.00703  1.0000
  H   H781      1.0  0.46732  0.08828  0.24867  1.0000
  H   H782      1.0  0.47928  0.25949  0.16625  1.0000
  N   N44       1.0  0.44690  0.31259  0.00874  1.0000
  H   H783      1.0  0.44529  0.28290  0.00925  1.0000
  H   H784      1.0  0.29725  0.33832  0.01407  1.0000
  H   H785      1.0  0.38202  0.18204  0.00199  1.0000
  C   C666      1.0  0.48981  0.14661  0.02401  1.0000
  H   H786      1.0  0.48582  0.23102  0.15057  1.0000
  H   H787      1.0  0.48718  0.34145  0.03985  1.0000
  H   H788      1.0  0.24629  0.47931  0.04399  1.0000
  H   H789      1.0  0.38115  0.01356  0.23506  1.0000
  H   H790      1.0  0.24840  0.42082  0.02763  1.0000
  C   C667      1.0  0.24716  0.49015  0.03124  1.0000
  C   C668      1.0  0.24899  0.43353  0.01748  1.0000
  H   H791      1.0  0.49391  0.15214  0.03626  1.0000
  C   C669      1.0  0.49253  0.05475  0.29504  1.0000
  H   H792      1.0  0.37718  0.02287  0.33224  1.0000
  H   H793      1.0  0.49335  0.13090  0.02647  1.0000
  C   C670      1.0  0.24602  0.37500  0.03463  1.0000
  H   H794      1.0  0.39448  0.00352  0.20645  1.0000
  C   C671      1.0  0.37413  0.00886  0.33111  1.0000
  C   C672      1.0  0.49462  0.13264  0.14210  1.0000
  Fe  Fe86      1.0  0.35454  0.06758  0.63605  1.0000
  S   S172      1.0  0.34496  0.03957  0.64759  1.0000
  H   H795      1.0  0.37185  0.08340  0.49320  1.0000
  Fe  Fe87      1.0  0.34678  0.06441  0.59554  1.0000
  S   S173      1.0  0.33725  0.03595  0.60461  1.0000
  S   S174      1.0  0.34387  0.07823  0.56545  1.0000
  Fe  Fe88      1.0  0.32158  0.04887  0.62977  1.0000
  S   S175      1.0  0.29215  0.04250  0.64018  1.0000
  H   H796      1.0  0.41638  0.02519  0.62273  1.0000
  S   S176      1.0  0.32977  0.07788  0.62008  1.0000
  S   S177      1.0  0.37268  0.05749  0.61033  1.0000
  Fe  Fe89      1.0  0.35505  0.04872  0.42921  1.0000
  S   S178      1.0  0.32748  0.04577  0.42020  1.0000
  S   S179      1.0  0.38204  0.05385  0.40980  1.0000
  Fe  Fe90      1.0  0.34245  0.03536  0.47139  1.0000
  S   S180      1.0  0.31432  0.03062  0.46547  1.0000
  S   S181      1.0  0.35131  0.02536  0.50057  1.0000
  Fe  Fe91      1.0  0.32950  0.01856  0.43974  1.0000
  Fe  Fe92      1.0  0.31446  0.05829  0.44667  1.0000
  S   S182      1.0  0.28697  0.07721  0.45057  1.0000
  S   S183      1.0  0.35779  0.02039  0.44726  1.0000
  S   S184      1.0  0.34186  0.06409  0.45421  1.0000
  C   C673      1.0  0.36587  0.10419  0.44136  1.0000
  H   H797      1.0  0.40312  0.07376  0.49364  1.0000
  C   C674      1.0  0.26929  0.06569  0.42385  1.0000
  C   C675      1.0  0.26848  0.06850  0.44279  1.0000
  H   H798      1.0  0.42793  0.05991  0.63777  1.0000
  H   H799      1.0  0.40559  0.06349  0.65215  1.0000
  H   H800      1.0  0.40046  0.05294  0.44161  1.0000
  H   H801      1.0  0.28148  0.06871  0.41387  1.0000
  H   H802      1.0  0.26433  0.10838  0.62320  1.0000
  C   C676      1.0  0.26179  0.09381  0.62728  1.0000
  C   C677      1.0  0.27362  0.06065  0.63565  1.0000
  C   C678      1.0  0.26008  0.08349  0.53372  1.0000
  C   C679      1.0  0.40917  0.05823  0.45063  1.0000
  C   C680      1.0  0.27688  0.07942  0.62981  1.0000
  H   H803      1.0  0.39907  0.03580  0.48129  1.0000
  H   H804      1.0  0.36613  0.01716  0.38641  1.0000
  H   H805      1.0  0.29093  0.08301  0.62757  1.0000
  C   C681      1.0  0.34569  0.06345  0.54750  1.0000
  C   C682      1.0  0.35166  0.04398  0.55094  1.0000
  C   C683      1.0  0.35318  0.03252  0.53644  1.0000
  C   C684      1.0  0.34868  0.04037  0.51838  1.0000
  C   C685      1.0  0.34269  0.05984  0.51487  1.0000
  C   C686      1.0  0.34123  0.07133  0.52939  1.0000
  H   H806      1.0  0.35538  0.03777  0.56471  1.0000
  H   H807      1.0  0.35796  0.01752  0.53926  1.0000
  H   H808      1.0  0.33915  0.06603  0.50101  1.0000
  H   H809      1.0  0.33658  0.08638  0.52662  1.0000
  C   C687      1.0  0.36878  0.06145  0.37493  1.0000
  C   C688      1.0  0.38415  0.05496  0.38478  1.0000
  C   C689      1.0  0.40180  0.04996  0.37447  1.0000
  C   C690      1.0  0.40404  0.05126  0.35451  1.0000
  H   H810      1.0  0.35519  0.06566  0.38262  1.0000
  H   H811      1.0  0.41383  0.04506  0.38195  1.0000
  C   C691      1.0  0.37114  0.06333  0.35499  1.0000
  C   C692      1.0  0.28966  0.06485  0.54010  1.0000
  N   N45       1.0  0.39758  0.06486  0.46781  1.0000
  H   H812      1.0  0.25040  0.09670  0.58622  1.0000
  H   H813      1.0  0.25972  0.01781  0.42301  1.0000
  H   H814      1.0  0.27007  0.02722  0.44001  1.0000
  C   C693      1.0  0.37072  0.08894  0.47855  1.0000
  H   H815      1.0  0.35926  0.06895  0.34748  1.0000
  H   H816      1.0  0.28809  0.10236  0.56059  1.0000
  H   H817      1.0  0.27028  0.00976  0.61982  1.0000
  Fe  Fe93      1.0  0.36164  0.03006  0.62132  1.0000
  H   H818      1.0  0.28174  0.05270  0.57852  1.0000
  C   C694      1.0  0.38009  0.08915  0.44477  1.0000
  H   H819      1.0  0.41651  0.06971  0.44194  1.0000
  H   H820      1.0  0.36372  0.10988  0.42690  1.0000
  C   C695      1.0  0.26358  0.07926  0.51506  1.0000
  H   H821      1.0  0.43930  0.02723  0.62781  1.0000
  H   H822      1.0  0.38107  0.05168  0.49245  1.0000
  C   C696      1.0  0.28585  0.08941  0.57079  1.0000
  C   C697      1.0  0.37135  0.01075  0.37310  1.0000
  H   H823      1.0  0.42709  0.00746  0.63912  1.0000
  H   H824      1.0  0.42015  0.04621  0.45425  1.0000
  C   C698      1.0  0.34364  0.02514  0.35899  1.0000
  H   H825      1.0  0.30021  0.05891  0.54921  1.0000
  H   H826      1.0  0.38833  0.08390  0.43239  1.0000
  C   C699      1.0  0.38866  0.04857  0.47845  1.0000
  S   S185      1.0  0.36580  0.08417  0.65536  1.0000
  H   H827      1.0  0.34717  0.10951  0.48665  1.0000
  H   H828      1.0  0.33832  0.00176  0.39054  1.0000
  N   N46       1.0  0.35573  0.00697  0.36372  1.0000
  C   C700      1.0  0.31078  0.10540  0.66293  1.0000
  H   H829      1.0  0.34145  0.00259  0.63526  1.0000
  C   C701      1.0  0.38292  0.08101  0.46357  1.0000
  C   C702      1.0  0.42544  0.02299  0.63431  1.0000
  N   N47       1.0  0.26993  0.08064  0.56673  1.0000
  C   C703      1.0  0.25257  0.06471  0.45558  1.0000
  C   C704      1.0  0.35408  0.11152  0.45640  1.0000
  H   H830      1.0  0.41672  0.08321  0.47238  1.0000
  H   H831      1.0  0.27190  0.01137  0.47123  1.0000
  H   H832      1.0  0.40674  0.05675  0.62929  1.0000
  H   H833      1.0  0.30565  0.05176  0.51657  1.0000
  H   H834      1.0  0.42207  0.05886  0.48246  1.0000
  C   C705      1.0  0.41041  0.07042  0.47957  1.0000
  C   C706      1.0  0.25246  0.09378  0.57120  1.0000
  H   H835      1.0  0.34287  0.12294  0.45364  1.0000
  H   H836      1.0  0.37828  0.04452  0.47040  1.0000
  N   N48       1.0  0.41690  0.03405  0.65004  1.0000
  C   C707      1.0  0.25711  0.00642  0.61665  1.0000
  H   H837      1.0  0.30283  0.10609  0.65071  1.0000
  C   C708      1.0  0.38870  0.05812  0.34465  1.0000
  H   H838      1.0  0.33179  0.02292  0.35180  1.0000
  C   C709      1.0  0.29295  0.06066  0.52142  1.0000
  C   C710      1.0  0.35652  0.10393  0.47496  1.0000
  C   C711      1.0  0.39825  0.02799  0.65707  1.0000
  C   C712      1.0  0.27314  0.07650  0.54684  1.0000
  H   H839      1.0  0.45133  0.01081  0.65507  1.0000
  C   C713      1.0  0.28000  0.06796  0.50889  1.0000
  H   H840      1.0  0.41765  0.04731  0.34675  1.0000
  C   C714      1.0  0.25409  0.05947  0.41766  1.0000
  H   H841      1.0  0.38912  0.03037  0.64561  1.0000
  C   C715      1.0  0.41423  0.05437  0.64201  1.0000
  S   S186      1.0  0.38089  0.00278  0.62416  1.0000
  H   H842      1.0  0.28269  0.06491  0.49432  1.0000
  H   H843      1.0  0.33766  0.03198  0.37188  1.0000
  H   H844      1.0  0.25267  0.10773  0.56216  1.0000
  H   H845      1.0  0.25184  0.06685  0.47024  1.0000
  H   H846      1.0  0.25256  0.04183  0.64307  1.0000
  H   H847      1.0  0.26547  0.06535  0.59483  1.0000
  H   H848      1.0  0.38005  0.02085  0.36397  1.0000
  C   C716      1.0  0.25522  0.05628  0.63833  1.0000
  H   H849      1.0  0.35141  0.03569  0.34940  1.0000
  H   H850      1.0  0.25470  0.05758  0.40294  1.0000
  H   H851      1.0  0.28344  0.09355  0.58536  1.0000
  H   H852      1.0  0.39956  0.01263  0.66255  1.0000
  H   H853      1.0  0.29932  0.07969  0.56992  1.0000
  H   H854      1.0  0.25706  0.05543  0.57671  1.0000
  C   C717      1.0  0.26851  0.06274  0.57973  1.0000
  C   C718      1.0  0.26930  0.01400  0.43407  1.0000
  H   H855      1.0  0.24703  0.09231  0.53744  1.0000
  H   H856      1.0  0.28347  0.00952  0.42673  1.0000
  H   H857      1.0  0.25346  0.08480  0.50528  1.0000
  H   H858      1.0  0.32589  0.10221  0.65726  1.0000
  H   H859      1.0  0.30217  0.07263  0.65831  1.0000
  H   H860      1.0  0.24555  0.03571  0.61058  1.0000
  Fe  Fe94      1.0  0.44797  0.05051  0.75637  1.0000
  S   S187      1.0  0.42441  0.07445  0.75320  1.0000
  S   S188      1.0  0.47716  0.04583  0.74090  1.0000
  Fe  Fe95      1.0  0.42493  0.02707  0.78676  1.0000
  S   S189      1.0  0.39934  0.04885  0.78688  1.0000
  H   H861      1.0  0.26387  0.49675  0.91549  1.0000
  Fe  Fe96      1.0  0.40589  0.05162  0.75495  1.0000
  S   S190      1.0  0.38391  0.04639  0.73751  1.0000
  Fe  Fe97      1.0  0.41976  0.06987  0.78536  1.0000
  S   S191      1.0  0.41632  0.09530  0.80167  1.0000
  S   S192      1.0  0.43006  0.02824  0.75537  1.0000
  S   S193      1.0  0.44476  0.04765  0.78798  1.0000
  Fe  Fe98      1.0  0.40928  0.27136  0.96985  1.0000
  S   S194      1.0  0.40464  0.30284  0.96960  1.0000
  H   H862      1.0  0.46911  0.12822  0.87493  1.0000
  Fe  Fe99      1.0  0.40773  0.27411  0.92824  1.0000
  S   S195      1.0  0.40350  0.30624  0.92405  1.0000
  S   S196      1.0  0.41484  0.25406  0.90605  1.0000
  Fe  Fe100     1.0  0.42565  0.30362  0.94351  1.0000
  S   S197      1.0  0.44829  0.32245  0.94257  1.0000
  Fe  Fe101     1.0  0.38254  0.30329  0.95057  1.0000
  S   S198      1.0  0.35612  0.32397  0.95859  1.0000
  S   S199      1.0  0.43160  0.27219  0.94507  1.0000
  S   S200      1.0  0.38549  0.27123  0.95346  1.0000
  Fe  Fe102     1.0  0.42379  0.11358  0.90677  1.0000
  S   S201      1.0  0.42506  0.14396  0.89437  1.0000
  S   S202      1.0  0.41920  0.09029  0.89042  1.0000
  Fe  Fe103     1.0  0.43068  0.12056  0.94646  1.0000
  S   S203      1.0  0.43187  0.15138  0.93698  1.0000
  S   S204      1.0  0.43965  0.10784  0.97504  1.0000
  Fe  Fe104     1.0  0.40762  0.15057  0.92163  1.0000
  S   S205      1.0  0.38402  0.17462  0.92311  1.0000
  Fe  Fe105     1.0  0.44916  0.14197  0.91088  1.0000
  S   S206      1.0  0.47543  0.15493  0.90068  1.0000
  S   S207      1.0  0.40454  0.12023  0.93333  1.0000
  S   S208      1.0  0.44970  0.11104  0.92100  1.0000
  Fe  Fe106     1.0  0.25192  0.36676  0.93220  1.0000
  C   C719      1.0  0.32189  0.38089  0.90472  1.0000
  S   S209      1.0  0.27752  0.34487  0.92545  1.0000
  H   H863      1.0  0.28108  0.10879  0.69056  1.0000
  H   H864      1.0  0.47349  0.05383  0.81600  1.0000
  H   H865      1.0  0.44606  0.29624  0.98597  1.0000
  H   H866      1.0  0.36538  0.13753  0.81565  1.0000
  H   H867      1.0  0.47446  0.18173  0.95616  1.0000
  C   C720      1.0  0.31154  0.41007  0.91885  1.0000
  H   H868      1.0  0.35099  0.10625  0.71110  1.0000
  N   N49       1.0  0.30499  0.09078  0.67871  1.0000
  C   C721      1.0  0.46556  0.10071  0.86885  1.0000
  C   C722      1.0  0.26423  0.44330  0.93443  1.0000
  C   C723      1.0  0.27311  0.45483  0.94338  1.0000
  C   C724      1.0  0.27302  0.47410  0.93657  1.0000
  H   H869      1.0  0.32128  0.44177  0.95523  1.0000
  C   C725      1.0  0.44222  0.33046  0.99614  1.0000
  H   H870      1.0  0.32564  0.32524  0.99409  1.0000
  H   H871      1.0  0.27991  0.44884  0.95571  1.0000
  H   H872      1.0  0.47901  0.20621  0.90840  1.0000
  H   H873      1.0  0.46919  0.28439  0.94265  1.0000
  C   C726      1.0  0.33453  0.32982  0.94885  1.0000
  C   C727      1.0  0.32074  0.34369  0.95635  1.0000
  C   C728      1.0  0.30314  0.34831  0.94960  1.0000
  C   C729      1.0  0.29925  0.33936  0.93494  1.0000
  C   C730      1.0  0.31315  0.32575  0.92721  1.0000
  C   C731      1.0  0.33065  0.32096  0.93414  1.0000
  H   H874      1.0  0.32363  0.35083  0.96758  1.0000
  H   H875      1.0  0.29258  0.35869  0.95582  1.0000
  H   H876      1.0  0.31030  0.31873  0.91588  1.0000
  H   H877      1.0  0.34107  0.31029  0.92818  1.0000
  C   C732      1.0  0.40553  0.23236  0.91048  1.0000
  C   C733      1.0  0.38972  0.22972  0.92378  1.0000
  C   C734      1.0  0.38289  0.21209  0.92728  1.0000
  C   C735      1.0  0.39206  0.19692  0.91781  1.0000
  C   C736      1.0  0.40778  0.19960  0.90441  1.0000
  C   C737      1.0  0.41436  0.21733  0.90061  1.0000
  H   H878      1.0  0.38256  0.24132  0.93113  1.0000
  H   H879      1.0  0.37059  0.21017  0.93750  1.0000
  H   H880      1.0  0.41487  0.18804  0.89691  1.0000
  H   H881      1.0  0.42648  0.21934  0.89018  1.0000
  C   C738      1.0  0.41795  0.09348  0.82624  1.0000
  C   C739      1.0  0.41971  0.10980  0.83408  1.0000
  C   C740      1.0  0.42058  0.10900  0.85362  1.0000
  C   C741      1.0  0.41942  0.09189  0.86556  1.0000
  C   C742      1.0  0.41792  0.07554  0.85767  1.0000
  C   C743      1.0  0.41728  0.07628  0.83810  1.0000
  H   H882      1.0  0.42027  0.12316  0.82500  1.0000
  H   H883      1.0  0.42191  0.12164  0.85945  1.0000
  H   H884      1.0  0.41701  0.06224  0.86680  1.0000
  H   H885      1.0  0.41588  0.06363  0.83227  1.0000
  C   C744      1.0  0.37900  0.05760  0.71490  1.0000
  C   C745      1.0  0.36705  0.04968  0.70560  1.0000
  C   C746      1.0  0.36281  0.05779  0.68750  1.0000
  H   H886      1.0  0.24875  0.47627  0.89924  1.0000
  C   C747      1.0  0.38217  0.08214  0.68786  1.0000
  C   C748      1.0  0.38649  0.07396  0.70603  1.0000
  H   H887      1.0  0.36092  0.03725  0.71252  1.0000
  C   C749      1.0  0.31503  0.08956  0.69540  1.0000
  C   C750      1.0  0.43521  0.18427  0.96813  1.0000
  H   H888      1.0  0.39558  0.08030  0.71314  1.0000
  H   H889      1.0  0.42683  0.33385  0.99560  1.0000
  H   H890      1.0  0.42357  0.22922  0.94750  1.0000
  C   C751      1.0  0.47122  0.11864  0.86429  1.0000
  H   H891      1.0  0.48590  0.13340  0.96626  1.0000
  C   C752      1.0  0.44984  0.02837  0.69633  1.0000
  H   H892      1.0  0.41888  0.21979  0.97227  1.0000
  H   H893      1.0  0.47785  0.01281  0.77444  1.0000
  H   H894      1.0  0.29998  0.06752  0.71248  1.0000
  H   H895      1.0  0.31625  0.45612  0.92283  1.0000
  C   C753      1.0  0.37048  0.07394  0.67842  1.0000
  C   C754      1.0  0.31882  0.43293  0.94515  1.0000
  H   H896      1.0  0.47267  0.08245  0.75378  1.0000
  H   H897      1.0  0.42785  0.04837  0.70827  1.0000
  C   C755      1.0  0.31240  0.42984  0.91378  1.0000
  C   C756      1.0  0.31078  0.07647  0.71176  1.0000
  H   H898      1.0  0.48161  0.00270  0.75274  1.0000
  C   C757      1.0  0.30677  0.40755  0.88593  1.0000
  C   C758      1.0  0.31413  0.40241  0.93778  1.0000
  H   H899      1.0  0.47838  0.05436  0.83946  1.0000
  H   H900      1.0  0.37617  0.08622  0.85311  1.0000
  H   H901      1.0  0.28515  0.38213  0.90287  1.0000
  C   C759      1.0  0.47628  0.09371  0.83630  1.0000
  C   C760      1.0  0.48960  0.22027  0.96737  1.0000
  H   H902      1.0  0.42199  0.17956  0.96560  1.0000
  N   N50       1.0  0.30742  0.39783  0.90558  1.0000
  C   C761      1.0  0.32974  0.10042  0.69568  1.0000
  C   C762      1.0  0.45628  0.20829  0.95995  1.0000
  C   C763      1.0  0.32075  0.07425  0.72729  1.0000
  C   C764      1.0  0.46962  0.09079  0.80493  1.0000
  C   C765      1.0  0.48675  0.07558  0.75540  1.0000
  H   H903      1.0  0.37767  0.21472  0.98516  1.0000
  C   C766      1.0  0.47677  0.99986  0.76819  1.0000
  H   H904      1.0  0.32415  0.06821  0.66775  1.0000
  H   H905      1.0  0.33443  0.11034  0.68376  1.0000
  H   H906      1.0  0.44411  0.23712  0.96509  1.0000
  C   C767      1.0  0.44239  0.19776  0.93560  1.0000
  H   H907      1.0  0.30421  0.39778  0.87624  1.0000
  H   H908      1.0  0.32023  0.41304  0.88003  1.0000
  N   N51       1.0  0.47903  0.08109  0.82135  1.0000
  H   H909      1.0  0.39690  0.01381  0.71152  1.0000
  H   H910      1.0  0.44638  0.17211  0.96597  1.0000
  H   H911      1.0  0.30992  0.43716  0.90000  1.0000
  C   C768      1.0  0.25551  0.45100  0.91846  1.0000
  H   H912      1.0  0.35345  0.05157  0.68072  1.0000
  C   C769      1.0  0.42216  0.21601  0.95759  1.0000
  C   C770      1.0  0.48086  0.14336  0.93756  1.0000
  H   H913      1.0  0.44872  0.32974  0.98122  1.0000
  H   H914      1.0  0.42068  0.00216  0.70812  1.0000
  C   C771      1.0  0.33951  0.09818  0.71136  1.0000
  C   C772      1.0  0.43280  0.04020  0.69654  1.0000
  H   H915      1.0  0.31312  0.38764  0.94286  1.0000
  H   H916      1.0  0.45449  0.18661  0.93284  1.0000
  H   H917      1.0  0.30826  0.11979  0.66747  1.0000
  H   H918      1.0  0.46959  0.13501  0.93844  1.0000
  S   S210      1.0  0.25097  0.39180  0.94785  1.0000
  H   H919      1.0  0.28857  0.38305  0.92662  1.0000
  H   H920      1.0  0.42997  0.19263  0.93184  1.0000
  H   H921      1.0  0.33621  0.38505  0.90072  1.0000
  C   C773      1.0  0.41477  0.13117  0.99739  1.0000
  C   C774      1.0  0.48985  0.20187  0.96339  1.0000
  C   C775      1.0  0.42217  0.04171  0.68162  1.0000
  H   H922      1.0  0.37161  0.10256  0.82115  1.0000
  H   H923      1.0  0.47451  0.30755  0.97888  1.0000
  C   C776      1.0  0.48671  0.15433  0.92059  1.0000
  H   H924      1.0  0.30333  0.06064  0.68158  1.0000
  H   H925      1.0  0.43354  0.18656  0.98321  1.0000
  H   H926      1.0  0.40958  0.21056  0.95445  1.0000
  C   C777      1.0  0.30881  0.07226  0.67131  1.0000
  S   S211      1.0  0.28418  0.48840  0.94781  1.0000
  H   H927      1.0  0.49461  0.11598  0.91040  1.0000
  C   C778      1.0  0.28890  0.39147  0.91236  1.0000
  C   C779      1.0  0.47943  0.12430  0.84599  1.0000
  H   H928      1.0  0.45467  0.09601  0.80947  1.0000
  C   C780      1.0  0.33514  0.08503  0.72705  1.0000
  H   H929      1.0  0.46268  0.07497  0.85962  1.0000
  C   C781      1.0  0.48241  0.25275  0.90810  1.0000
  H   H930      1.0  0.45955  0.23785  0.90593  1.0000
  H   H931      1.0  0.29504  0.41948  0.88527  1.0000
  H   H932      1.0  0.34320  0.08293  0.73889  1.0000
  C   C782      1.0  0.47351  0.19598  0.95957  1.0000
  C   C783      1.0  0.25081  0.46616  0.99120  1.0000
  H   H933      1.0  0.44488  0.21073  0.92558  1.0000
  S   S212      1.0  0.41699  0.25069  0.99502  1.0000
  C   C784      1.0  0.46791  0.08840  0.85513  1.0000
  H   H934      1.0  0.45598  0.06527  0.83219  1.0000
  C   C785      1.0  0.47297  0.23277  0.96770  1.0000
  H   H935      1.0  0.38803  0.09477  0.68105  1.0000
  C   C786      1.0  0.47254  0.31380  0.94090  1.0000
  H   H936      1.0  0.46979  0.08118  0.79412  1.0000
  H   H937      1.0  0.32185  0.37143  0.91841  1.0000
  H   H938      1.0  0.40897  0.13751  0.98458  1.0000
  H   H939      1.0  0.31754  0.06390  0.73947  1.0000
  C   C787      1.0  0.45652  0.22687  0.96424  1.0000
  H   H940      1.0  0.27762  0.40378  0.91325  1.0000
  C   C788      1.0  0.47427  0.23654  0.90774  1.0000
  N   N52       1.0  0.43925  0.20184  0.95548  1.0000
  N   N53       1.0  0.37049  0.14380  0.87829  1.0000
  C   C789      1.0  0.35159  0.15434  0.88296  1.0000
  C   C790      1.0  0.37601  0.13240  0.89603  1.0000
  C   C791      1.0  0.38404  0.15767  0.87194  1.0000
  C   C792      1.0  0.37016  0.13219  0.86302  1.0000
  C   C793      1.0  0.37312  0.11201  0.86578  1.0000
  C   C794      1.0  0.36685  0.14107  0.84462  1.0000
  C   C795      1.0  0.37327  0.10157  0.85085  1.0000
  C   C796      1.0  0.36731  0.13047  0.82974  1.0000
  C   C797      1.0  0.37065  0.11075  0.83283  1.0000
  H   H941      1.0  0.35134  0.16309  0.89459  1.0000
  H   H942      1.0  0.34691  0.16421  0.87064  1.0000
  H   H943      1.0  0.34095  0.14444  0.88765  1.0000
  H   H944      1.0  0.36579  0.12246  0.90242  1.0000
  H   H945      1.0  0.37659  0.14153  0.90709  1.0000
  H   H946      1.0  0.39015  0.12406  0.89348  1.0000
  H   H947      1.0  0.38592  0.16547  0.88366  1.0000
  H   H948      1.0  0.39803  0.15042  0.86656  1.0000
  H   H949      1.0  0.37948  0.16875  0.86049  1.0000
  H   H950      1.0  0.37596  0.10387  0.87915  1.0000
  H   H951      1.0  0.36417  0.15632  0.84152  1.0000
  H   H952      1.0  0.31950  0.37176  0.89434  1.0000
  C   C798      1.0  0.48558  0.32662  0.93966  1.0000
  H   H953      1.0  0.27852  0.08401  0.69449  1.0000
  C   C799      1.0  0.47982  0.30651  0.99226  1.0000
  C   C800      1.0  0.48519  0.21881  0.90922  1.0000
  C   C801      1.0  0.31779  0.41369  0.95066  1.0000
  C   C802      1.0  0.48211  0.11200  0.83220  1.0000
  H   H954      1.0  0.31961  0.40751  0.96505  1.0000
  H   H955      1.0  0.27664  0.09690  0.67168  1.0000
  H   H956      1.0  0.41056  0.01025  0.73035  1.0000
  H   H957      1.0  0.47392  0.26657  0.90668  1.0000
  C   C803      1.0  0.47138  0.06286  0.82763  1.0000
  C   C804      1.0  0.40764  0.00348  0.71835  1.0000
  C   C805      1.0  0.47905  0.29445  0.94134  1.0000
  H   H958      1.0  0.26436  0.42847  0.93981  1.0000
  H   H959      1.0  0.45821  0.02749  0.70781  1.0000
  C   C806      1.0  0.25550  0.47025  0.91159  1.0000
  H   H960      1.0  0.25146  0.47814  0.98022  1.0000
  C   C807      1.0  0.42826  0.03150  0.66592  1.0000
  C   C808      1.0  0.28447  0.09532  0.68415  1.0000
  H   H961      1.0  0.45888  0.09640  0.88301  1.0000
  H   H962      1.0  0.47634  0.10316  0.79748  1.0000
  C   C809      1.0  0.31610  0.44098  0.92678  1.0000
  C   C810      1.0  0.26401  0.48186  0.92079  1.0000
  H   H963      1.0  0.48066  0.34160  0.93950  1.0000
  H   H964      1.0  0.47273  0.24713  0.97076  1.0000
  H   H965      1.0  0.40916  0.05115  0.68232  1.0000
  H   H966      1.0  0.39054  0.03594  0.66851  1.0000
  H   H967      1.0  0.27298  0.49575  0.98798  1.0000
  H   H968      1.0  0.47275  0.15087  0.99245  1.0000
  H   H969      1.0  0.48371  0.13832  0.84248  1.0000
  H   H970      1.0  0.49484  0.09928  0.76582  1.0000
  C   C811      1.0  0.49015  0.14241  0.95339  1.0000
  C   C812      1.0  0.42961  0.11634  0.99662  1.0000
  H   H971      1.0  0.39280  0.00023  0.79137  1.0000
  C   C813      1.0  0.45613  0.01782  0.68132  1.0000
  H   H972      1.0  0.46943  0.00863  0.68123  1.0000
  H   H973      1.0  0.48870  0.11695  0.81824  1.0000
  C   C814      1.0  0.49262  0.05750  0.75008  1.0000
  C   C815      1.0  0.44555  0.01926  0.66629  1.0000
  C   C816      1.0  0.24522  0.44996  0.98632  1.0000
  Fe  Fe107     1.0  0.42170  0.66272  0.09405  1.0000
  S   S213      1.0  0.42800  0.64159  0.11925  1.0000
  S   S214      1.0  0.40307  0.69052  0.09369  1.0000
  Fe  Fe108     1.0  0.44397  0.63795  0.06668  1.0000
  S   S215      1.0  0.45188  0.61419  0.08912  1.0000
  S   S216      1.0  0.45367  0.63702  0.03602  1.0000
  Fe  Fe109     1.0  0.42161  0.62020  0.10206  1.0000
  S   S217      1.0  0.40314  0.59719  0.11408  1.0000
  Fe  Fe110     1.0  0.45755  0.63771  0.10397  1.0000
  S   S218      1.0  0.48281  0.63838  0.11883  1.0000
  S   S219      1.0  0.41350  0.64170  0.07796  1.0000
  S   S220      1.0  0.45150  0.66097  0.08041  1.0000
  Fe  Fe111     1.0  0.43874  0.77441  0.11472  1.0000
  S   S221      1.0  0.41604  0.79902  0.11056  1.0000
  S   S222      1.0  0.43722  0.74694  0.13377  1.0000
  Fe  Fe112     1.0  0.46831  0.79403  0.08861  1.0000
  S   S223      1.0  0.44841  0.82053  0.08258  1.0000
  H   H974      1.0  0.35606  0.86539  0.23990  1.0000
  Fe  Fe113     1.0  0.43807  0.81677  0.11398  1.0000
  S   S224      1.0  0.43424  0.84177  0.13118  1.0000
  Fe  Fe114     1.0  0.42848  0.80048  0.07965  1.0000
  S   S225      1.0  0.41176  0.80508  0.05466  1.0000
  S   S226      1.0  0.45977  0.79196  0.12003  1.0000
  S   S227      1.0  0.44916  0.77425  0.08387  1.0000
  H   H975      1.0  0.41966  0.75252  0.04608  1.0000
  Fe  Fe115     1.0  0.45922  0.85713  0.27460  1.0000
  S   S228      1.0  0.46388  0.86856  0.24393  1.0000
  H   H976      1.0  0.46410  0.77659  0.01189  1.0000
  Fe  Fe116     1.0  0.41756  0.87140  0.27873  1.0000
  S   S229      1.0  0.41887  0.88417  0.24793  1.0000
  Fe  Fe117     1.0  0.43751  0.85715  0.24144  1.0000
  S   S230      1.0  0.43729  0.83647  0.22017  1.0000
  Fe  Fe118     1.0  0.44525  0.89443  0.25290  1.0000
  S   S231      1.0  0.45641  0.92239  0.24327  1.0000
  S   S232      1.0  0.43406  0.84365  0.27198  1.0000
  S   S233      1.0  0.44252  0.88374  0.28390  1.0000
  H   H977      1.0  0.40967  0.59786  0.07370  1.0000
  C   C817      1.0  0.48402  0.84891  0.14586  1.0000
  Fe  Fe119     1.0  0.29739  0.57860  0.10603  1.0000
  S   S234      1.0  0.30421  0.55549  0.08739  1.0000
  S   S235      1.0  0.31669  0.60124  0.10453  1.0000
  Fe  Fe120     1.0  0.28598  0.53899  0.10990  1.0000
  Fe  Fe121     1.0  0.27712  0.56711  0.07615  1.0000
  C   C818      1.0  0.26398  0.56531  0.03198  1.0000
  S   S236      1.0  0.28111  0.56118  0.12990  1.0000
  S   S237      1.0  0.27098  0.59109  0.09352  1.0000
  C   C819      1.0  0.44991  0.78391  0.01309  1.0000
  C   C820      1.0  0.35615  0.56687  0.05845  1.0000
  S   S238      1.0  0.48462  0.84257  0.28771  1.0000
  H   H978      1.0  0.41468  0.72052  0.06230  1.0000
  H   H979      1.0  0.39540  0.59053  0.01995  1.0000
  C   C821      1.0  0.39689  0.80833  0.18837  1.0000
  H   H980      1.0  0.33721  0.57201  0.00197  1.0000
  C   C822      1.0  0.44229  0.94301  0.25010  1.0000
  C   C823      1.0  0.45038  0.95970  0.24898  1.0000
  C   C824      1.0  0.43931  0.97652  0.25374  1.0000
  C   C825      1.0  0.42002  0.97681  0.25923  1.0000
  C   C826      1.0  0.41194  0.96009  0.26048  1.0000
  C   C827      1.0  0.42308  0.94317  0.25612  1.0000
  H   H981      1.0  0.46522  0.95963  0.24430  1.0000
  C   C828      1.0  0.26459  0.57117  0.01251  1.0000
  H   H982      1.0  0.39702  0.96023  0.26474  1.0000
  H   H983      1.0  0.41675  0.93035  0.25699  1.0000
  C   C829      1.0  0.43718  0.83857  0.19524  1.0000
  C   C830      1.0  0.43932  0.82190  0.18668  1.0000
  C   C831      1.0  0.43830  0.82263  0.16718  1.0000
  C   C832      1.0  0.43529  0.84011  0.15591  1.0000
  C   C833      1.0  0.43350  0.85682  0.16438  1.0000
  C   C834      1.0  0.43448  0.85609  0.18393  1.0000
  H   H984      1.0  0.44144  0.80827  0.19528  1.0000
  H   H985      1.0  0.43966  0.80963  0.16093  1.0000
  H   H986      1.0  0.43128  0.87043  0.15576  1.0000
  H   H987      1.0  0.43298  0.86906  0.19022  1.0000
  H   H988      1.0  0.35409  0.84199  0.23512  1.0000
  H   H989      1.0  0.38300  0.97797  0.29843  1.0000
  H   H990      1.0  0.36575  0.58822  0.03705  1.0000
  S   S239      1.0  0.29379  0.50805  0.12015  1.0000
  C   C835      1.0  0.37912  0.65918  0.12624  1.0000
  C   C836      1.0  0.37766  0.98355  0.31168  1.0000
  C   C837      1.0  0.38722  0.83573  0.21405  1.0000
  C   C838      1.0  0.42296  0.79850  0.03258  1.0000
  H   H991      1.0  0.42859  0.92840  0.29559  1.0000
  H   H992      1.0  0.48702  0.61106  0.02958  1.0000
  H   H993      1.0  0.40557  0.86464  0.21662  1.0000
  H   H994      1.0  0.44443  0.62019  0.00589  1.0000
  C   C839      1.0  0.44108  0.78859  0.03083  1.0000
  H   H995      1.0  0.27369  0.58143  0.00562  1.0000
  H   H996      1.0  0.38070  0.83168  0.25382  1.0000
  C   C840      1.0  0.38772  0.86756  0.32291  1.0000
  H   H997      1.0  0.44847  0.78486  0.04307  1.0000
  C   C841      1.0  0.37932  0.59820  0.11052  1.0000
  C   C842      1.0  0.36976  0.61420  0.10086  1.0000
  C   C843      1.0  0.35075  0.61464  0.09872  1.0000
  C   C844      1.0  0.34113  0.59901  0.10590  1.0000
  C   C845      1.0  0.35078  0.58288  0.11529  1.0000
  C   C846      1.0  0.36971  0.58259  0.11776  1.0000
  H   H998      1.0  0.37686  0.62636  0.09531  1.0000
  H   H999      1.0  0.34333  0.62732  0.09176  1.0000
  H   H1000     1.0  0.34352  0.57085  0.12110  1.0000
  H   H1001     1.0  0.37695  0.57017  0.12534  1.0000
  C   C847      1.0  0.43400  0.64174  0.02406  1.0000
  C   C848      1.0  0.41893  0.65547  0.02911  1.0000
  C   C849      1.0  0.40297  0.65843  0.01961  1.0000
  H   H1002     1.0  0.39906  0.81240  0.23401  1.0000
  C   C850      1.0  0.40533  0.73500  0.00944  1.0000
  H   H1003     1.0  0.41959  0.66379  0.04025  1.0000
  H   H1004     1.0  0.48521  0.83944  0.07765  1.0000
  C   C851      1.0  0.33726  0.62644  0.03723  1.0000
  C   C852      1.0  0.40245  0.71682  0.01933  1.0000
  C   C853      1.0  0.41219  0.70611  0.10527  1.0000
  C   C854      1.0  0.40667  0.72566  0.10157  1.0000
  C   C855      1.0  0.41455  0.73828  0.11013  1.0000
  C   C856      1.0  0.42732  0.73130  0.12302  1.0000
  C   C857      1.0  0.43241  0.71172  0.12715  1.0000
  C   C858      1.0  0.42515  0.69913  0.11798  1.0000
  H   H1005     1.0  0.39651  0.73111  0.09189  1.0000
  H   H1006     1.0  0.41053  0.75341  0.10698  1.0000
  H   H1007     1.0  0.44227  0.70633  0.13716  1.0000
  H   H1008     1.0  0.42949  0.68406  0.12088  1.0000
  C   C859      1.0  0.32606  0.61596  0.05101  1.0000
  N   N54       1.0  0.39850  0.59375  0.04873  1.0000
  H   H1009     1.0  0.44280  0.67566  0.00087  1.0000
  C   C860      1.0  0.38528  0.58039  0.05803  1.0000
  H   H1010     1.0  0.44459  0.69444  0.02260  1.0000
  H   H1011     1.0  0.47102  0.81859  0.13973  1.0000
  H   H1012     1.0  0.27926  0.51344  0.08405  1.0000
  H   H1013     1.0  0.39749  0.70643  0.01259  1.0000
  C   C861      1.0  0.35936  0.55512  0.07515  1.0000
  H   H1014     1.0  0.49209  0.80212  0.14098  1.0000
  C   C862      1.0  0.32135  0.59687  0.02760  1.0000
  S   S240      1.0  0.25937  0.54857  0.09689  1.0000
  H   H1015     1.0  0.25178  0.54737  0.05583  1.0000
  C   C863      1.0  0.47954  0.68113  0.00951  1.0000
  H   H1016     1.0  0.40302  0.84011  0.24544  1.0000
  H   H1017     1.0  0.39996  0.56818  0.08256  1.0000
  H   H1018     1.0  0.48598  0.68272  0.02218  1.0000
  C   C864      1.0  0.34057  0.62225  0.01855  1.0000
  H   H1019     1.0  0.34925  0.63110  0.00861  1.0000
  C   C865      1.0  0.41456  0.59370  0.05931  1.0000
  H   H1020     1.0  0.44565  0.98933  0.25277  1.0000
  C   C866      1.0  0.42360  0.93207  0.30975  1.0000
  H   H1021     1.0  0.44503  0.71854  0.01153  1.0000
  H   H1022     1.0  0.40102  0.79803  0.17844  1.0000
  C   C867      1.0  0.33264  0.60727  0.01315  1.0000
  C   C868      1.0  0.46728  0.82313  0.01411  1.0000
  H   H1023     1.0  0.32341  0.61928  0.06547  1.0000
  H   H1024     1.0  0.38656  0.87868  0.22919  1.0000
  H   H1025     1.0  0.48200  0.88277  0.27588  1.0000
  H   H1026     1.0  0.36278  0.88719  0.32906  1.0000
  C   C869      1.0  0.41364  0.80340  0.01642  1.0000
  H   H1027     1.0  0.42246  0.90346  0.32126  1.0000
  C   C870      1.0  0.48435  0.81539  0.14599  1.0000
  C   C871      1.0  0.36890  0.57931  0.04993  1.0000
  H   H1028     1.0  0.47846  0.84781  0.16122  1.0000
  H   H1029     1.0  0.39825  0.62398  0.04182  1.0000
  H   H1030     1.0  0.38376  0.85542  0.25569  1.0000
  C   C872      1.0  0.40226  0.64764  0.00514  1.0000
  H   H1031     1.0  0.39213  0.66519  0.12717  1.0000
  C   C873      1.0  0.25210  0.55212  0.04085  1.0000
  H   H1032     1.0  0.36943  0.67127  0.12022  1.0000
  C   C874      1.0  0.41504  0.74246  0.03848  1.0000
  H   H1033     1.0  0.40323  0.69793  0.04567  1.0000
  N   N55       1.0  0.37124  0.65001  0.14495  1.0000
  C   C875      1.0  0.38607  0.63520  0.15199  1.0000
  C   C876      1.0  0.36701  0.66436  0.15835  1.0000
  C   C877      1.0  0.35382  0.64252  0.14316  1.0000
  C   C878      1.0  0.33831  0.65495  0.13665  1.0000
  C   C879      1.0  0.35157  0.62300  0.14786  1.0000
  C   C880      1.0  0.32166  0.64827  0.13491  1.0000
  C   C881      1.0  0.33476  0.61655  0.14632  1.0000
  C   C882      1.0  0.31989  0.62911  0.13977  1.0000
  H   H1034     1.0  0.38131  0.62796  0.16628  1.0000
  H   H1035     1.0  0.39055  0.62432  0.14211  1.0000
  H   H1036     1.0  0.39894  0.64128  0.15331  1.0000
  H   H1037     1.0  0.36027  0.65827  0.17239  1.0000
  H   H1038     1.0  0.37996  0.66978  0.16060  1.0000
  H   H1039     1.0  0.35748  0.67701  0.15309  1.0000
  H   H1040     1.0  0.33901  0.66993  0.13266  1.0000
  H   H1041     1.0  0.36269  0.61230  0.15236  1.0000
  H   H1042     1.0  0.31012  0.65792  0.12955  1.0000
  H   H1043     1.0  0.33344  0.60156  0.14952  1.0000
  H   H1044     1.0  0.30716  0.62384  0.13797  1.0000
  C   C883      1.0  0.40629  0.58871  0.02960  1.0000
  H   H1045     1.0  0.42324  0.57956  0.06074  1.0000
  N   N56       1.0  0.46889  0.69919  0.00186  1.0000
  H   H1046     1.0  0.38509  0.87456  0.20577  1.0000
  H   H1047     1.0  0.47529  0.62160  0.00273  1.0000
  C   C884      1.0  0.41215  0.72451  0.04768  1.0000
  H   H1048     1.0  0.39962  0.81110  0.01768  1.0000
  H   H1049     1.0  0.34328  0.63803  0.04101  1.0000
  H   H1050     1.0  0.49240  0.89742  0.23508  1.0000
  H   H1051     1.0  0.41304  0.57370  0.03039  1.0000
  C   C885      1.0  0.40031  0.85282  0.33071  1.0000
  H   H1052     1.0  0.47153  0.85234  0.13811  1.0000
  H   H1053     1.0  0.40692  0.78942  0.21177  1.0000
  C   C886      1.0  0.37540  0.55566  0.08334  1.0000
  H   H1054     1.0  0.41710  0.59774  0.02252  1.0000
  H   H1055     1.0  0.47052  0.66966  0.01402  1.0000
  C   C887      1.0  0.48946  0.83597  0.10701  1.0000
  H   H1056     1.0  0.47200  0.70338  0.11161  1.0000
  C   C888      1.0  0.36093  0.85491  0.22967  1.0000
  H   H1057     1.0  0.30916  0.59328  0.05694  1.0000
  H   H1058     1.0  0.37823  0.61562  0.03642  1.0000
  H   H1059     1.0  0.47455  0.83637  0.11156  1.0000
  H   H1060     1.0  0.38265  0.64889  0.11573  1.0000
  C   C889      1.0  0.39002  0.86776  0.21932  1.0000
  H   H1061     1.0  0.34931  0.54570  0.08188  1.0000
  C   C890      1.0  0.38753  0.84401  0.24632  1.0000
  H   H1062     1.0  0.31478  0.58531  0.02466  1.0000
  N   N57       1.0  0.38163  0.85023  0.22720  1.0000
  H   H1063     1.0  0.39122  0.66888  0.02353  1.0000
  C   C891      1.0  0.41171  0.74771  0.01965  1.0000
  H   H1064     1.0  0.36528  0.95869  0.32437  1.0000
  H   H1065     1.0  0.45227  0.82663  0.01797  1.0000
  H   H1066     1.0  0.38069  0.61688  0.06067  1.0000
  H   H1067     1.0  0.37768  0.54669  0.09652  1.0000
  H   H1068     1.0  0.38671  0.83038  0.16744  1.0000
  C   C892      1.0  0.40578  0.71175  0.03819  1.0000
  H   H1069     1.0  0.42330  0.96202  0.30103  1.0000
  H   H1070     1.0  0.48019  0.81242  0.16155  1.0000
  C   C893      1.0  0.42061  0.95101  0.31278  1.0000
  H   H1071     1.0  0.35553  0.86114  0.21613  1.0000
  C   C894      1.0  0.43321  0.63122  0.00957  1.0000
  S   S241      1.0  0.27782  0.57538  0.04470  1.0000
  C   C895      1.0  0.40019  0.80352  0.20716  1.0000
  C   C896      1.0  0.38818  0.56814  0.07506  1.0000
  H   H1072     1.0  0.41184  0.84614  0.32161  1.0000
  C   C897      1.0  0.38384  0.84005  0.19484  1.0000
  C   C898      1.0  0.42009  0.91778  0.32478  1.0000
  S   S242      1.0  0.39011  0.87592  0.29830  1.0000
  Fe  Fe122     1.0  0.25528  0.57162  0.11553  1.0000
  C   C899      1.0  0.38881  0.82658  0.18220  1.0000
  H   H1073     1.0  0.41415  0.76188  0.01355  1.0000
  H   H1074     1.0  0.42417  0.60399  0.05203  1.0000
  S   S243      1.0  0.40560  0.99797  0.26399  1.0000
  H   H1075     1.0  0.34358  0.56641  0.05223  1.0000
  H   H1076     1.0  0.47288  0.81716  0.04308  1.0000
  C   C900      1.0  0.38844  0.61335  0.04683  1.0000
  C   C901      1.0  0.31807  0.60127  0.04619  1.0000
  H   H1077     1.0  0.48774  0.71590  0.01039  1.0000
  C   C902      1.0  0.39553  0.81695  0.21987  1.0000
  H   H1078     1.0  0.37748  0.85393  0.18933  1.0000
  H   H1079     1.0  0.45976  0.70858  0.02936  1.0000
  H   H1080     1.0  0.25083  0.50302  0.03593  1.0000
  C   C903      1.0  0.41746  0.63419  0.00019  1.0000
  C   C904      1.0  0.25338  0.56398  0.00186  1.0000
  H   H1081     1.0  0.26655  0.51218  0.00498  1.0000
  C   C905      1.0  0.47884  0.81781  0.02829  1.0000
  H   H1082     1.0  0.49300  0.77007  0.11150  1.0000
  H   H1083     1.0  0.48759  0.98428  0.26341  1.0000
  C   C906      1.0  0.41390  0.95580  0.33085  1.0000
  H   H1084     1.0  0.49012  0.87973  0.32081  1.0000
  H   H1085     1.0  0.49204  0.86122  0.14225  1.0000
  C   C907      1.0  0.48594  0.70452  0.11457  1.0000
  C   C908      1.0  0.36764  0.97276  0.32631  1.0000
  C   C909      1.0  0.45390  0.70543  0.01690  1.0000
  H   H1086     1.0  0.47852  0.73312  0.12091  1.0000
  C   C910      1.0  0.48969  0.72128  0.11978  1.0000
  C   C911      1.0  0.26238  0.49961  0.00012  1.0000
  H   H1087     1.0  0.35932  0.58112  0.99911  1.0000
  H   H1088     1.0  0.26570  0.85702  0.49177  1.0000
  H   H1089     1.0  0.34740  0.78866  0.63182  1.0000
  H   H1090     1.0  0.33783  0.82984  0.56121  1.0000
  Fe  Fe123     1.0  0.35726  0.86958  0.45238  1.0000
  S   S244      1.0  0.34352  0.89935  0.44588  1.0000
  S   S245      1.0  0.35581  0.85721  0.48361  1.0000
  Fe  Fe124     1.0  0.36418  0.86415  0.40965  1.0000
  S   S246      1.0  0.34989  0.89327  0.40089  1.0000
  S   S247      1.0  0.38040  0.84666  0.38707  1.0000
  Fe  Fe125     1.0  0.36637  0.90169  0.42134  1.0000
  S   S248      1.0  0.38210  0.92663  0.41244  1.0000
  Fe  Fe126     1.0  0.32841  0.88759  0.42621  1.0000
  S   S249      1.0  0.29750  0.89894  0.42755  1.0000
  S   S250      1.0  0.38165  0.87294  0.42935  1.0000
  S   S251      1.0  0.34113  0.85743  0.43360  1.0000
  Fe  Fe127     1.0  0.32926  0.88032  0.60185  1.0000
  S   S252      1.0  0.35915  0.86659  0.59719  1.0000
  C   C912      1.0  0.36684  0.81882  0.60341  1.0000
  Fe  Fe128     1.0  0.34060  0.91746  0.60745  1.0000
  S   S253      1.0  0.37144  0.90702  0.60288  1.0000
  S   S254      1.0  0.32654  0.94549  0.61565  1.0000
  Fe  Fe129     1.0  0.36398  0.89388  0.57871  1.0000
  S   S255      1.0  0.37860  0.89764  0.54842  1.0000
  S   S256      1.0  0.33383  0.90666  0.58210  1.0000
  C   C913      1.0  0.28099  0.88307  0.42881  1.0000
  C   C914      1.0  0.28657  0.86382  0.42730  1.0000
  C   C915      1.0  0.27300  0.85158  0.42836  1.0000
  H   H1091     1.0  0.29260  0.89433  0.62388  1.0000
  N   N58       1.0  0.33769  0.81856  0.62728  1.0000
  H   H1092     1.0  0.32164  0.82607  0.59312  1.0000
  H   H1093     1.0  0.30132  0.85840  0.42501  1.0000
  H   H1094     1.0  0.27740  0.83674  0.42696  1.0000
  H   H1095     1.0  0.28949  0.99524  0.46018  1.0000
  C   C916      1.0  0.36235  0.86867  0.50137  1.0000
  C   C917      1.0  0.35716  0.86209  0.52058  1.0000
  C   C918      1.0  0.36167  0.87109  0.53509  1.0000
  C   C919      1.0  0.37206  0.88634  0.53055  1.0000
  C   C920      1.0  0.37762  0.89266  0.51137  1.0000
  C   C921      1.0  0.37255  0.88407  0.49684  1.0000
  H   H1096     1.0  0.34950  0.85003  0.52425  1.0000
  H   H1097     1.0  0.35741  0.86602  0.54978  1.0000
  H   H1098     1.0  0.38585  0.90430  0.50770  1.0000
  H   H1099     1.0  0.37685  0.88913  0.48215  1.0000
  C   C922      1.0  0.28283  0.87706  0.60641  1.0000
  C   C923      1.0  0.28052  0.89069  0.61885  1.0000
  H   H1100     1.0  0.35880  0.95230  0.55600  1.0000
  C   C924      1.0  0.33731  0.97583  0.42466  1.0000
  H   H1101     1.0  0.24713  0.96173  0.40748  1.0000
  C   C925      1.0  0.37020  0.96340  0.41832  1.0000
  C   C926      1.0  0.36513  0.94609  0.41573  1.0000
  C   C927      1.0  0.34623  0.94397  0.41674  1.0000
  C   C928      1.0  0.33233  0.95885  0.42114  1.0000
  H   H1102     1.0  0.38350  0.96419  0.51816  1.0000
  H   H1103     1.0  0.38485  0.96504  0.41748  1.0000
  H   H1104     1.0  0.34223  0.93078  0.41432  1.0000
  H   H1105     1.0  0.31772  0.95705  0.42214  1.0000
  H   H1106     1.0  0.36115  0.80317  0.64096  1.0000
  C   C929      1.0  0.37352  0.96932  0.61525  1.0000
  C   C930      1.0  0.36132  0.95693  0.61265  1.0000
  C   C931      1.0  0.34205  0.96090  0.61837  1.0000
  C   C932      1.0  0.33497  0.97729  0.62670  1.0000
  C   C933      1.0  0.30280  0.84715  0.48900  1.0000
  H   H1107     1.0  0.38837  0.96645  0.61040  1.0000
  H   H1108     1.0  0.36682  0.94463  0.60576  1.0000
  H   H1109     1.0  0.32006  0.98047  0.63108  1.0000
  H   H1110     1.0  0.37348  0.91990  0.65899  1.0000
  C   C934      1.0  0.35121  0.93913  0.50634  1.0000
  H   H1111     1.0  0.29071  0.93669  0.44084  1.0000
  C   C935      1.0  0.39775  0.84642  0.35032  1.0000
  C   C936      1.0  0.38287  0.85496  0.36242  1.0000
  C   C937      1.0  0.37039  0.86980  0.35462  1.0000
  H   H1112     1.0  0.30921  0.82996  0.62265  1.0000
  H   H1113     1.0  0.36013  0.99160  0.42496  1.0000
  H   H1114     1.0  0.40740  0.83484  0.35617  1.0000
  H   H1115     1.0  0.35870  0.87628  0.36365  1.0000
  C   C938      1.0  0.24668  0.89472  0.61871  1.0000
  H   H1116     1.0  0.26139  0.95185  0.60572  1.0000
  Fe  Fe130     1.0  0.36367  0.88086  0.62187  1.0000
  H   H1117     1.0  0.26070  0.90949  0.63515  1.0000
  C   C939      1.0  0.26707  0.87244  0.59999  1.0000
  S   S257      1.0  0.30517  0.86522  0.59905  1.0000
  H   H1118     1.0  0.27612  0.86373  0.46815  1.0000
  H   H1119     1.0  0.34385  0.94474  0.46008  1.0000
  H   H1120     1.0  0.37243  0.82692  0.55521  1.0000
  H   H1121     1.0  0.35368  0.92743  0.51735  1.0000
  H   H1122     1.0  0.35295  0.97091  0.35405  1.0000
  C   C940      1.0  0.26498  0.98099  0.44077  1.0000
  H   H1123     1.0  0.25921  0.88280  0.54771  1.0000
  H   H1124     1.0  0.29666  0.89486  0.47644  1.0000
  C   C941      1.0  0.35673  0.94769  0.54244  1.0000
  H   H1125     1.0  0.36957  0.98691  0.51417  1.0000
  S   S258      1.0  0.33317  0.89223  0.62765  1.0000
  H   H1126     1.0  0.26873  0.86188  0.59042  1.0000
  C   C942      1.0  0.35081  0.95835  0.50916  1.0000
  C   C943      1.0  0.38898  0.90912  0.36572  1.0000
  N   N59       1.0  0.35402  0.96396  0.52730  1.0000
  C   C944      1.0  0.26891  0.94734  0.42351  1.0000
  H   H1127     1.0  0.39308  0.95336  0.66344  1.0000
  H   H1128     1.0  0.25086  0.95266  0.63940  1.0000
  N   N60       1.0  0.29274  0.86663  0.48982  1.0000
  H   H1129     1.0  0.28809  0.96531  0.45559  1.0000
  C   C945      1.0  0.27436  0.86735  0.48290  1.0000
  C   C946      1.0  0.30360  0.87997  0.47646  1.0000
  C   C947      1.0  0.29110  0.87149  0.50935  1.0000
  C   C948      1.0  0.27357  0.87574  0.52066  1.0000
  C   C949      1.0  0.30748  0.87168  0.51780  1.0000
  H   H1130     1.0  0.35253  0.98116  0.38280  1.0000
  C   C950      1.0  0.30646  0.87573  0.53636  1.0000
  C   C951      1.0  0.37107  0.97356  0.52415  1.0000
  H   H1131     1.0  0.35442  0.83785  0.63513  1.0000
  C   C952      1.0  0.34863  0.93440  0.48882  1.0000
  C   C953      1.0  0.36062  0.98001  0.34336  1.0000
  H   H1132     1.0  0.34439  0.93977  0.54568  1.0000
  H   H1133     1.0  0.25737  0.90479  0.43279  1.0000
  C   C954      1.0  0.33776  0.97729  0.53446  1.0000
  C   C955      1.0  0.24827  0.87773  0.43263  1.0000
  H   H1134     1.0  0.30378  0.84275  0.47464  1.0000
  C   C956      1.0  0.35622  0.97832  0.42283  1.0000
  H   H1135     1.0  0.26512  0.97662  0.62221  1.0000
  H   H1136     1.0  0.32125  0.86856  0.51006  1.0000
  H   H1137     1.0  0.31752  0.84591  0.49208  1.0000
  H   H1138     1.0  0.31919  0.87572  0.54251  1.0000
  H   H1139     1.0  0.26027  0.87604  0.51561  1.0000
  N   N61       1.0  0.40948  0.90744  0.35973  1.0000
  C   C957      1.0  0.41590  0.88780  0.35531  1.0000
  C   C958      1.0  0.41884  0.90991  0.37600  1.0000
  C   C959      1.0  0.25380  0.85850  0.43095  1.0000
  H   H1140     1.0  0.29561  0.83667  0.49940  1.0000
  C   C960      1.0  0.34416  0.99474  0.37771  1.0000
  S   S259      1.0  0.37480  0.86560  0.64906  1.0000
  C   C961      1.0  0.27271  0.87972  0.53926  1.0000
  H   H1141     1.0  0.41298  0.87702  0.36785  1.0000
  C   C962      1.0  0.26245  0.89929  0.62521  1.0000
  H   H1142     1.0  0.43422  0.90968  0.37189  1.0000
  H   H1143     1.0  0.41649  0.89855  0.38813  1.0000
  H   H1144     1.0  0.41327  0.92335  0.38193  1.0000
  H   H1145     1.0  0.43123  0.88556  0.35046  1.0000
  H   H1146     1.0  0.38534  0.89779  0.37744  1.0000
  C   C963      1.0  0.36543  0.82476  0.56962  1.0000
  C   C964      1.0  0.34670  0.80164  0.63873  1.0000
  C   C965      1.0  0.39945  0.88849  0.65738  1.0000
  H   H1147     1.0  0.39101  0.82027  0.58208  1.0000
  H   H1148     1.0  0.37555  0.81690  0.61463  1.0000
  C   C966      1.0  0.41351  0.92215  0.34349  1.0000
  C   C967      1.0  0.41016  0.94166  0.34596  1.0000
  H   H1149     1.0  0.37430  0.97752  0.53757  1.0000
  H   H1150     1.0  0.34922  0.91964  0.48689  1.0000
  H   H1151     1.0  0.36942  0.93759  0.53845  1.0000
  S   S260      1.0  0.31955  0.99359  0.43137  1.0000
  C   C968      1.0  0.37270  0.87592  0.33496  1.0000
  C   C969      1.0  0.28018  0.94856  0.43717  1.0000
  H   H1152     1.0  0.36383  0.94425  0.65379  1.0000
  C   C970      1.0  0.33677  0.82409  0.59158  1.0000
  C   C971      1.0  0.26181  0.88994  0.43161  1.0000
  H   H1153     1.0  0.27067  0.93455  0.41675  1.0000
  C   C972      1.0  0.34698  0.82015  0.60742  1.0000
  C   C973      1.0  0.37586  0.82096  0.58478  1.0000
  C   C974      1.0  0.28910  0.87968  0.54709  1.0000
  C   C975      1.0  0.34557  0.94851  0.47370  1.0000
  H   H1154     1.0  0.38132  0.90783  0.35379  1.0000
  C   C976      1.0  0.24655  0.95217  0.60350  1.0000
  H   H1155     1.0  0.31502  0.80468  0.62213  1.0000
  H   H1156     1.0  0.33932  0.98108  0.54855  1.0000
  C   C977      1.0  0.25382  0.97931  0.42668  1.0000
  H   H1157     1.0  0.26628  0.88181  0.48253  1.0000
  H   H1158     1.0  0.30518  0.87651  0.46170  1.0000
  H   H1159     1.0  0.35549  0.92607  0.64398  1.0000
  H   H1160     1.0  0.31813  0.87944  0.47975  1.0000
  C   C978      1.0  0.34492  0.96746  0.47606  1.0000
  H   H1161     1.0  0.28837  0.88268  0.56154  1.0000
  H   H1162     1.0  0.24692  0.92405  0.48557  1.0000
  H   H1163     1.0  0.40443  0.94611  0.35958  1.0000
  C   C979      1.0  0.27841  0.96512  0.44565  1.0000
  H   H1164     1.0  0.39988  0.89497  0.64279  1.0000
  H   H1165     1.0  0.38332  0.92287  0.37105  1.0000
  C   C980      1.0  0.34594  0.82637  0.57302  1.0000
  C   C981      1.0  0.31738  0.81681  0.62903  1.0000
  C   C982      1.0  0.34753  0.97236  0.49347  1.0000
  C   C983      1.0  0.36633  0.98593  0.62315  1.0000
  H   H1166     1.0  0.41136  0.97060  0.33308  1.0000
  H   H1167     1.0  0.34716  0.98726  0.49445  1.0000
  H   H1168     1.0  0.47924  0.84916  0.33442  1.0000
  C   C984      1.0  0.33950  0.83573  0.63559  1.0000
  C   C985      1.0  0.25395  0.98751  0.61813  1.0000
  N   N62       1.0  0.26304  0.99896  0.44903  1.0000
  C   C986      1.0  0.25571  0.96266  0.41830  1.0000
  H   H1169     1.0  0.40836  0.88438  0.34422  1.0000
  C   C987      1.0  0.24908  0.88147  0.60589  1.0000
  H   H1170     1.0  0.31094  0.81463  0.64409  1.0000
  C   C988      1.0  0.36029  0.92951  0.65691  1.0000
  H   H1171     1.0  0.33236  0.84868  0.62775  1.0000
  H   H1172     1.0  0.33310  0.83508  0.65067  1.0000
  H   H1173     1.0  0.32449  0.97097  0.53601  1.0000
  H   H1174     1.0  0.38081  0.99747  0.37684  1.0000
  H   H1175     1.0  0.33891  0.79912  0.65322  1.0000
  H   H1176     1.0  0.27035  0.98644  0.47652  1.0000
  H   H1177     1.0  0.33191  0.99154  0.37176  1.0000
  H   H1178     1.0  0.34255  0.97843  0.46426  1.0000
  C   C989      1.0  0.38846  0.87393  0.66396  1.0000
  C   C990      1.0  0.34710  0.98980  0.62907  1.0000
  H   H1179     1.0  0.32316  0.93710  0.65667  1.0000
  H   H1180     1.0  0.41896  0.90548  0.66418  1.0000
  H   H1181     1.0  0.33605  0.99095  0.52494  1.0000
  C   C991      1.0  0.49322  0.85169  0.33600  1.0000
  C   C992      1.0  0.27417  0.99781  0.46496  1.0000
  H   H1182     1.0  0.33353  0.90525  0.66463  1.0000
  H   H1183     1.0  0.33168  0.95551  0.66529  1.0000
  C   C993      1.0  0.36344  0.99850  0.34616  1.0000
  Fe  Fe131     1.0  0.45316  0.90147  0.76058  1.0000
  S   S261      1.0  0.43277  0.89698  0.78695  1.0000
  S   S262      1.0  0.47791  0.91601  0.76346  1.0000
  Fe  Fe132     1.0  0.42697  0.88984  0.73503  1.0000
  S   S263      1.0  0.40484  0.88440  0.75999  1.0000
  S   S264      1.0  0.42410  0.89437  0.70318  1.0000
  Fe  Fe133     1.0  0.41090  0.91138  0.76875  1.0000
  S   S265      1.0  0.39000  0.93706  0.77467  1.0000
  Fe  Fe134     1.0  0.42894  0.87037  0.77623  1.0000
  S   S266      1.0  0.43106  0.84207  0.79582  1.0000
  S   S267      1.0  0.43150  0.91757  0.74328  1.0000
  S   S268      1.0  0.45087  0.87394  0.75045  1.0000
  Fe  Fe135     1.0  0.40801  0.64354  0.92536  1.0000
  S   S269      1.0  0.41807  0.61251  0.92352  1.0000
  S   S270      1.0  0.41509  0.66750  0.90276  1.0000
  Fe  Fe136     1.0  0.39341  0.63667  0.96682  1.0000
  S   S271      1.0  0.40198  0.60536  0.96836  1.0000
  C   C994      1.0  0.48578  0.65378  0.96517  1.0000
  Fe  Fe137     1.0  0.42899  0.61266  0.95115  1.0000
  S   S272      1.0  0.45626  0.59982  0.96268  1.0000
  Fe  Fe138     1.0  0.39004  0.60806  0.94094  1.0000
  S   S273      1.0  0.37316  0.58405  0.94003  1.0000
  S   S274      1.0  0.42095  0.64381  0.95143  1.0000
  S   S275      1.0  0.37932  0.63917  0.94076  1.0000
  Fe  Fe139     1.0  0.46212  0.76476  0.91251  1.0000
  S   S276      1.0  0.46143  0.79404  0.92000  1.0000
  H   H1184     1.0  0.47948  0.84928  0.79316  1.0000
  Fe  Fe140     1.0  0.42047  0.76524  0.92414  1.0000
  S   S277      1.0  0.41669  0.79435  0.93294  1.0000
  S   S278      1.0  0.39619  0.74849  0.93042  1.0000
  Fe  Fe141     1.0  0.43548  0.80112  0.90538  1.0000
  S   S279      1.0  0.42896  0.82891  0.88609  1.0000
  C   C995      1.0  0.35322  0.93109  0.69060  1.0000
  S   S280      1.0  0.43757  0.77236  0.89596  1.0000
  H   H1185     1.0  0.34055  0.63000  0.97890  1.0000
  Fe  Fe142     1.0  0.27100  0.56103  0.93836  1.0000
  H   H1186     1.0  0.48742  0.96692  0.75378  1.0000
  S   S281      1.0  0.28672  0.58679  0.93185  1.0000
  Fe  Fe143     1.0  0.26963  0.51827  0.94424  1.0000
  C   C996      1.0  0.36763  0.93661  0.72367  1.0000
  H   H1187     1.0  0.46826  0.87459  0.84946  1.0000
  H   H1188     1.0  0.24608  0.59758  0.89179  1.0000
  C   C997      1.0  0.41524  0.97346  0.73673  1.0000
  H   H1189     1.0  0.41685  0.98069  0.74894  1.0000
  S   S282      1.0  0.27084  0.53982  0.91837  1.0000
  S   S283      1.0  0.27279  0.53882  0.96365  1.0000
  H   H1190     1.0  0.42805  0.67102  0.97409  1.0000
  C   C998      1.0  0.45701  0.70228  0.95123  1.0000
  H   H1191     1.0  0.46142  0.64019  0.97628  1.0000
  H   H1192     1.0  0.42937  0.97105  0.72840  1.0000
  H   H1193     1.0  0.45387  0.68002  0.90236  1.0000
  S   S284      1.0  0.45313  0.78346  0.97495  1.0000
  C   C999      1.0  0.48493  0.82145  0.84550  1.0000
  C   C1000     1.0  0.38314  0.98748  0.73739  1.0000
  C   C1001     1.0  0.47556  0.64179  0.97829  1.0000
  C   C1002     1.0  0.37507  0.92106  0.71427  1.0000
  H   H1194     1.0  0.30940  0.61772  0.98681  1.0000
  H   H1195     1.0  0.48537  0.89271  0.82577  1.0000
  H   H1196     1.0  0.40302  0.76265  0.96607  1.0000
  C   C1003     1.0  0.30295  0.58770  0.88450  1.0000
  H   H1197     1.0  0.47948  0.66169  0.95322  1.0000
  H   H1198     1.0  0.26733  0.60349  0.89763  1.0000
  C   C1004     1.0  0.34913  0.58529  0.93746  1.0000
  C   C1005     1.0  0.33807  0.60245  0.93233  1.0000
  C   C1006     1.0  0.31894  0.60269  0.93077  1.0000
  C   C1007     1.0  0.31070  0.58584  0.93437  1.0000
  C   C1008     1.0  0.32175  0.56872  0.93949  1.0000
  C   C1009     1.0  0.34088  0.56846  0.94096  1.0000
  H   H1199     1.0  0.34427  0.61548  0.92943  1.0000
  H   H1200     1.0  0.31050  0.61599  0.92669  1.0000
  H   H1201     1.0  0.31561  0.55564  0.94217  1.0000
  H   H1202     1.0  0.34934  0.55512  0.94486  1.0000
  C   C1010     1.0  0.41021  0.68976  0.91101  1.0000
  C   C1011     1.0  0.39753  0.69256  0.92731  1.0000
  C   C1012     1.0  0.39324  0.71064  0.93324  1.0000
  C   C1013     1.0  0.40216  0.72577  0.92332  1.0000
  C   C1014     1.0  0.41545  0.72278  0.90753  1.0000
  C   C1015     1.0  0.41910  0.70494  0.90110  1.0000
  H   H1203     1.0  0.39061  0.68092  0.93502  1.0000
  H   H1204     1.0  0.38296  0.71286  0.94549  1.0000
  H   H1205     1.0  0.42247  0.73436  0.89988  1.0000
  H   H1206     1.0  0.42878  0.70287  0.88840  1.0000
  H   H1207     1.0  0.49378  0.79183  0.96801  1.0000
  C   C1016     1.0  0.26097  0.59195  0.89336  1.0000
  H   H1208     1.0  0.46784  0.62033  0.92577  1.0000
  C   C1017     1.0  0.43109  0.83886  0.82086  1.0000
  C   C1018     1.0  0.42611  0.85394  0.83164  1.0000
  C   C1019     1.0  0.42566  0.85064  0.85152  1.0000
  C   C1020     1.0  0.43028  0.83228  0.86091  1.0000
  C   C1021     1.0  0.43551  0.81723  0.85012  1.0000
  C   C1022     1.0  0.43590  0.82053  0.83023  1.0000
  H   H1209     1.0  0.42229  0.86811  0.82471  1.0000
  H   H1210     1.0  0.42160  0.86240  0.85970  1.0000
  H   H1211     1.0  0.43918  0.80304  0.85707  1.0000
  H   H1212     1.0  0.43990  0.80879  0.82204  1.0000
  C   C1023     1.0  0.41029  0.88596  0.68853  1.0000
  C   C1024     1.0  0.39916  0.87150  0.69517  1.0000
  H   H1213     1.0  0.46777  0.96525  0.77174  1.0000
  N   N63       1.0  0.34578  0.92746  0.67360  1.0000
  N   N64       1.0  0.40193  0.73995  0.98940  1.0000
  C   C1025     1.0  0.44079  0.78911  0.99688  1.0000
  H   H1214     1.0  0.39897  0.86483  0.70968  1.0000
  H   H1215     1.0  0.41090  0.95945  0.74302  1.0000
  H   H1216     1.0  0.48329  0.84388  0.95998  1.0000
  H   H1217     1.0  0.33001  0.58880  0.89280  1.0000
  C   C1026     1.0  0.41916  0.94965  0.78717  1.0000
  C   C1027     1.0  0.40074  0.95402  0.78295  1.0000
  C   C1028     1.0  0.39118  0.97227  0.78461  1.0000
  H   H1218     1.0  0.42678  0.93581  0.78568  1.0000
  H   H1219     1.0  0.37686  0.97570  0.78156  1.0000
  C   C1029     1.0  0.48048  0.67049  0.91235  1.0000
  C   C1030     1.0  0.47981  0.61704  0.93354  1.0000
  H   H1220     1.0  0.46658  0.97770  0.80102  1.0000
  C   C1031     1.0  0.32752  0.56104  0.88682  1.0000
  C   C1032     1.0  0.49438  0.81853  0.98959  1.0000
  H   H1221     1.0  0.28040  0.59629  0.84726  1.0000
  H   H1222     1.0  0.49212  0.87955  0.75042  1.0000
  H   H1223     1.0  0.46243  0.89018  0.82008  1.0000
  H   H1224     1.0  0.34764  0.96181  0.72396  1.0000
  C   C1033     1.0  0.29065  0.57646  0.87922  1.0000
  H   H1225     1.0  0.47432  0.81731  0.87520  1.0000
  H   H1226     1.0  0.47469  0.72781  0.99192  1.0000
  C   C1034     1.0  0.34085  0.90785  0.67630  1.0000
  C   C1035     1.0  0.32109  0.58007  0.88820  1.0000
  C   C1036     1.0  0.31594  0.54963  0.88143  1.0000
  C   C1037     1.0  0.48313  0.96610  0.76935  1.0000
  C   C1038     1.0  0.41033  0.89439  0.66955  1.0000
  C   C1039     1.0  0.46806  0.68307  0.90211  1.0000
  H   H1227     1.0  0.37194  0.99635  0.72990  1.0000
  H   H1228     1.0  0.38442  0.99491  0.74958  1.0000
  C   C1040     1.0  0.36808  0.91838  0.69795  1.0000
  H   H1229     1.0  0.37301  0.93846  0.73646  1.0000
  H   H1230     1.0  0.37236  0.74808  0.99689  1.0000
  H   H1231     1.0  0.31723  0.93989  0.68124  1.0000
  H   H1232     1.0  0.47769  0.81154  0.95957  1.0000
  H   H1233     1.0  0.43697  0.68762  0.94203  1.0000
  H   H1234     1.0  0.48239  0.99305  0.80433  1.0000
  H   H1235     1.0  0.25379  0.56883  0.98686  1.0000
  C   C1041     1.0  0.34623  0.94712  0.70025  1.0000
  Fe  Fe144     1.0  0.44301  0.78430  0.94647  1.0000
  C   C1042     1.0  0.38478  0.97717  0.67913  1.0000
  C   C1043     1.0  0.47114  0.84673  0.86378  1.0000
  H   H1236     1.0  0.41542  0.80299  0.98617  1.0000
  C   C1044     1.0  0.35334  0.94970  0.71660  1.0000
  H   H1237     1.0  0.28955  0.54740  0.87373  1.0000
  C   C1045     1.0  0.47781  0.88802  0.81533  1.0000
  C   C1046     1.0  0.32871  0.94061  0.66917  1.0000
  C   C1047     1.0  0.40017  0.98613  0.79017  1.0000
  C   C1048     1.0  0.38210  0.73865  0.98777  1.0000
  H   H1238     1.0  0.46092  0.70951  0.93714  1.0000
  C   C1049     1.0  0.39881  0.97563  0.70847  1.0000
  H   H1239     1.0  0.46521  0.82709  0.98462  1.0000
  H   H1240     1.0  0.37819  0.97362  0.74335  1.0000
  S   S285      1.0  0.44516  0.75470  0.93954  1.0000
  C   C1050     1.0  0.27201  0.60091  0.86043  1.0000
  H   H1241     1.0  0.36160  0.61440  0.98419  1.0000
  H   H1242     1.0  0.37897  0.74285  0.97289  1.0000
  C   C1051     1.0  0.39450  0.95946  0.67595  1.0000
  H   H1243     1.0  0.27844  0.61268  0.86419  1.0000
  H   H1244     1.0  0.32095  0.53476  0.88058  1.0000
  C   C1052     1.0  0.40824  0.95742  0.70493  1.0000
  S   S286      1.0  0.38266  0.65041  0.99309  1.0000
  C   C1053     1.0  0.43852  0.68063  0.97194  1.0000
  C   C1054     1.0  0.49281  0.80642  0.96016  1.0000
  H   H1245     1.0  0.25874  0.55894  0.88174  1.0000
  H   H1246     1.0  0.42922  0.72675  0.97888  1.0000
  H   H1247     1.0  0.41737  0.94883  0.71433  1.0000
  C   C1055     1.0  0.48736  0.83463  0.82925  1.0000
  C   C1056     1.0  0.42254  0.79878  0.99858  1.0000
  H   H1248     1.0  0.47561  0.71530  0.96341  1.0000
  H   H1249     1.0  0.45910  0.86352  0.80299  1.0000
  H   H1250     1.0  0.37438  0.90616  0.69114  1.0000
  C   C1057     1.0  0.47341  0.86002  0.84762  1.0000
  H   H1251     1.0  0.48014  0.89787  0.80196  1.0000
  H   H1252     1.0  0.34141  0.55509  0.89023  1.0000
  C   C1058     1.0  0.44693  0.68355  0.98730  1.0000
  C   C1059     1.0  0.29781  0.55715  0.87754  1.0000
  H   H1253     1.0  0.44176  0.95930  0.79754  1.0000
  C   C1060     1.0  0.46542  0.70545  0.96657  1.0000
  C   C1061     1.0  0.47394  0.69943  0.89154  1.0000
  C   C1062     1.0  0.41840  0.98143  0.79500  1.0000
  H   H1254     1.0  0.42065  0.76121  0.98116  1.0000
  H   H1255     1.0  0.33517  0.95777  0.69557  1.0000
  H   H1256     1.0  0.29842  0.60235  0.88653  1.0000
  H   H1257     1.0  0.30871  0.59291  0.99448  1.0000
  H   H1258     1.0  0.38013  0.85408  0.68817  1.0000
  H   H1259     1.0  0.48895  0.80643  0.84470  1.0000
  S   S287      1.0  0.42973  0.99807  0.80293  1.0000
  C   C1063     1.0  0.38678  0.98514  0.69520  1.0000
  N   N65       1.0  0.27131  0.58482  0.87589  1.0000
  H   H1260     1.0  0.41249  0.73006  0.96245  1.0000
  C   C1064     1.0  0.44353  0.68997  0.95393  1.0000
  H   H1261     1.0  0.49261  0.59420  0.97533  1.0000
  C   C1065     1.0  0.40606  0.94955  0.68890  1.0000
  H   H1262     1.0  0.48953  0.78506  0.88586  1.0000
  C   C1066     1.0  0.47427  0.86344  0.79769  1.0000
  C   C1067     1.0  0.47801  0.60688  0.95169  1.0000
  H   H1263     1.0  0.24862  0.50460  0.99484  1.0000
  H   H1264     1.0  0.34966  0.61087  0.96551  1.0000
  H   H1265     1.0  0.41105  0.71170  0.98177  1.0000
  H   H1266     1.0  0.41335  0.93555  0.68661  1.0000
  H   H1267     1.0  0.35340  0.89686  0.67636  1.0000
  H   H1268     1.0  0.38636  0.91097  0.71965  1.0000
  H   H1269     1.0  0.37850  0.72401  0.99194  1.0000
  N   N66       1.0  0.38127  0.79841  0.87760  1.0000
  C   C1068     1.0  0.38940  0.79811  0.89534  1.0000
  C   C1069     1.0  0.37962  0.81829  0.86807  1.0000
  C   C1070     1.0  0.36208  0.79305  0.88251  1.0000
  C   C1071     1.0  0.39306  0.78469  0.86588  1.0000
  C   C1072     1.0  0.39610  0.76514  0.87310  1.0000
  C   C1073     1.0  0.40166  0.79009  0.84715  1.0000
  C   C1074     1.0  0.40697  0.75187  0.86224  1.0000
  C   C1075     1.0  0.41263  0.77671  0.83648  1.0000
  C   C1076     1.0  0.41527  0.75765  0.84399  1.0000
  H   H1270     1.0  0.38955  0.78416  0.90437  1.0000
  H   H1271     1.0  0.40409  0.80132  0.89210  1.0000
  H   H1272     1.0  0.38146  0.80885  0.90422  1.0000
  H   H1273     1.0  0.37302  0.81981  0.85485  1.0000
  H   H1274     1.0  0.39359  0.82341  0.86454  1.0000
  H   H1275     1.0  0.37088  0.82828  0.87730  1.0000
  H   H1276     1.0  0.36192  0.77901  0.89141  1.0000
  H   H1277     1.0  0.35259  0.80345  0.89074  1.0000
  H   H1278     1.0  0.35582  0.79225  0.86950  1.0000
  H   H1279     1.0  0.39013  0.75992  0.88726  1.0000
  H   H1280     1.0  0.40030  0.80459  0.84040  1.0000
  H   H1281     1.0  0.40897  0.73700  0.86802  1.0000
  H   H1282     1.0  0.41915  0.78121  0.82228  1.0000
  H   H1283     1.0  0.42375  0.74734  0.83565  1.0000
  C   C1077     1.0  0.42777  0.96312  0.79366  1.0000
  C   C1078     1.0  0.38845  0.86545  0.68291  1.0000
  N   N67       1.0  0.40125  0.98470  0.72496  1.0000
  H   H1284     1.0  0.48984  0.95241  0.77631  1.0000
  C   C1079     1.0  0.49383  0.60229  0.96140  1.0000
  C   C1080     1.0  0.41421  0.72649  0.97772  1.0000
  H   H1285     1.0  0.26090  0.58045  0.90551  1.0000
  C   C1081     1.0  0.48166  0.85434  0.82980  1.0000
  H   H1286     1.0  0.46413  0.70938  0.88382  1.0000
  C   C1082     1.0  0.47681  0.82752  0.86271  1.0000
  H   H1287     1.0  0.26673  0.56578  0.85699  1.0000
  C   C1083     1.0  0.48150  0.98025  0.79776  1.0000
  H   H1288     1.0  0.33153  0.90498  0.68985  1.0000
  C   C1084     1.0  0.26025  0.57120  0.87047  1.0000
  C   C1085     1.0  0.48193  0.71373  0.99752  1.0000
  C   C1086     1.0  0.48378  0.63100  0.99345  1.0000
  H   H1289     1.0  0.31955  0.60033  0.97136  1.0000
  H   H1290     1.0  0.37575  0.98478  0.66898  1.0000
  N   N68       1.0  0.33584  0.60231  0.99356  1.0000
  H   H1291     1.0  0.41711  0.62559  0.98934  1.0000
  C   C1087     1.0  0.34738  0.61501  0.98005  1.0000
  H   H1292     1.0  0.47541  0.87391  0.78466  1.0000
  H   H1293     1.0  0.47571  0.65782  0.92053  1.0000
  N   N69       1.0  0.48453  0.86797  0.81240  1.0000
  N   N70       1.0  0.48777  0.98261  0.77707  1.0000
  C   C1088     1.0  0.46050  0.69619  0.98518  1.0000
  H   H1294     1.0  0.49422  0.70949  0.98709  1.0000
  H   H1295     1.0  0.39658  0.77039  0.98887  1.0000
  C   C1089     1.0  0.40573  0.75940  0.98112  1.0000
  H   H1296     1.0  0.46426  0.85122  0.87713  1.0000
  S   S288      1.0  0.49016  0.74772  0.90526  1.0000
  C   C1090     1.0  0.31761  0.60338  0.98630  1.0000
  C   C1091     1.0  0.47485  0.82334  0.99505  1.0000
  H   H1297     1.0  0.25772  0.60709  0.85704  1.0000
  H   H1298     1.0  0.34878  0.57863  0.97882  1.0000
  C   C1092     1.0  0.34568  0.58268  0.99345  1.0000
  H   H1299     1.0  0.46152  0.99856  0.77007  1.0000
  H   H1300     1.0  0.49010  0.96802  0.80513  1.0000
  C   C1093     1.0  0.49242  0.70305  0.89082  1.0000
  H   H1301     1.0  0.24565  0.57773  0.86849  1.0000
  H   H1302     1.0  0.49099  0.67597  0.99872  1.0000
  H   H1303     1.0  0.37890  0.99887  0.69712  1.0000
  H   H1304     1.0  0.49348  0.82927  0.81615  1.0000
  C   C1094     1.0  0.51069  0.36114  0.06764  1.0000
  H   H1305     1.0  0.68295  0.35085  0.06067  1.0000
  Fe  Fe145     1.0  0.55063  0.16828  0.13147  1.0000
  S   S289      1.0  0.55113  0.13712  0.13226  1.0000
  S   S290      1.0  0.52307  0.18747  0.13173  1.0000
  Fe  Fe146     1.0  0.59259  0.16489  0.12731  1.0000
  S   S291      1.0  0.59677  0.13303  0.12713  1.0000
  S   S292      1.0  0.61401  0.18526  0.11957  1.0000
  Fe  Fe147     1.0  0.57419  0.13895  0.10787  1.0000
  S   S293      1.0  0.56841  0.12559  0.08300  1.0000
  Fe  Fe148     1.0  0.57327  0.13353  0.15162  1.0000
  S   S294      1.0  0.56706  0.11112  0.17695  1.0000
  S   S295      1.0  0.57236  0.17038  0.10602  1.0000
  S   S296      1.0  0.57061  0.16500  0.15288  1.0000
  Fe  Fe149     1.0  0.57452  0.31676  0.11394  1.0000
  S   S297      1.0  0.58123  0.28559  0.11365  1.0000
  S   S298      1.0  0.54424  0.33069  0.11728  1.0000
  Fe  Fe150     1.0  0.61607  0.32160  0.11325  1.0000
  S   S299      1.0  0.62607  0.29054  0.11263  1.0000
  S   S300      1.0  0.63407  0.34512  0.11245  1.0000
  Fe  Fe151     1.0  0.60545  0.29220  0.09205  1.0000
  S   S301      1.0  0.61061  0.27467  0.06814  1.0000
  Fe  Fe152     1.0  0.60102  0.28599  0.13426  1.0000
  S   S302      1.0  0.60060  0.26128  0.15732  1.0000
  S   S303      1.0  0.59742  0.32378  0.09040  1.0000
  S   S304      1.0  0.59236  0.31694  0.13685  1.0000
  C   C1095     1.0  0.59700  0.08858  0.03340  1.0000
  Fe  Fe153     1.0  0.60596  0.06105  0.26930  1.0000
  S   S305      1.0  0.59406  0.07966  0.29172  1.0000
  S   S306      1.0  0.61832  0.07665  0.24158  1.0000
  Fe  Fe154     1.0  0.57127  0.06098  0.29807  1.0000
  S   S307      1.0  0.54064  0.07314  0.30230  1.0000
  Fe  Fe155     1.0  0.61003  0.05816  0.31157  1.0000
  C   C1096     1.0  0.71086  0.34424  0.00890  1.0000
  S   S308      1.0  0.62352  0.04057  0.28867  1.0000
  H   H1306     1.0  0.56614  0.13476  0.01450  1.0000
  C   C1097     1.0  0.51019  0.10472  0.23808  1.0000
  C   C1098     1.0  0.53127  0.35164  0.04002  1.0000
  C   C1099     1.0  0.59378  0.13655  0.02074  1.0000
  C   C1100     1.0  0.50937  0.25995  0.13999  1.0000
  S   S309      1.0  0.58218  0.04359  0.27442  1.0000
  H   H1307     1.0  0.52203  0.29901  0.00885  1.0000
  C   C1101     1.0  0.52472  0.05952  0.29643  1.0000
  C   C1102     1.0  0.51478  0.24513  0.07581  1.0000
  C   C1103     1.0  0.51825  0.03119  0.28552  1.0000
  C   C1104     1.0  0.53107  0.04229  0.28936  1.0000
  H   H1308     1.0  0.52336  0.01765  0.28056  1.0000
  H   H1309     1.0  0.54582  0.03717  0.28734  1.0000
  C   C1105     1.0  0.59377  0.28377  0.05312  1.0000
  C   C1106     1.0  0.59557  0.27819  0.03509  1.0000
  H   H1310     1.0  0.50947  0.07224  0.20738  1.0000
  C   C1107     1.0  0.56872  0.30116  0.02788  1.0000
  C   C1108     1.0  0.56597  0.30552  0.04642  1.0000
  C   C1109     1.0  0.57863  0.29697  0.05899  1.0000
  S   S310      1.0  0.58589  0.04154  0.32031  1.0000
  H   H1311     1.0  0.55093  0.08018  0.25194  1.0000
  H   H1312     1.0  0.55440  0.31589  0.05087  1.0000
  H   H1313     1.0  0.57687  0.30085  0.07310  1.0000
  C   C1110     1.0  0.52645  0.32325  0.10694  1.0000
  C   C1111     1.0  0.50758  0.32992  0.11268  1.0000
  H   H1314     1.0  0.51653  0.09951  0.27501  1.0000
  H   H1315     1.0  0.74077  0.34180  0.06948  1.0000
  C   C1112     1.0  0.51636  0.30721  0.08360  1.0000
  C   C1113     1.0  0.53074  0.31151  0.09264  1.0000
  H   H1316     1.0  0.50817  0.13621  0.14504  1.0000
  H   H1317     1.0  0.60713  0.26779  0.03061  1.0000
  H   H1318     1.0  0.51989  0.29880  0.07202  1.0000
  H   H1319     1.0  0.54517  0.30617  0.08819  1.0000
  C   C1114     1.0  0.58207  0.10143  0.19424  1.0000
  C   C1115     1.0  0.59865  0.10863  0.19522  1.0000
  C   C1116     1.0  0.60969  0.10087  0.20974  1.0000
  C   C1117     1.0  0.60407  0.08615  0.22359  1.0000
  C   C1118     1.0  0.58749  0.07897  0.22257  1.0000
  C   C1119     1.0  0.57674  0.08639  0.20780  1.0000
  H   H1320     1.0  0.60296  0.12014  0.18481  1.0000
  H   H1321     1.0  0.62257  0.10640  0.21030  1.0000
  H   H1322     1.0  0.58325  0.06736  0.23287  1.0000
  H   H1323     1.0  0.56423  0.08041  0.20681  1.0000
  C   C1120     1.0  0.56694  0.13218  0.04470  1.0000
  C   C1121     1.0  0.57798  0.13179  0.05922  1.0000
  C   C1122     1.0  0.59687  0.13427  0.05440  1.0000
  H   H1324     1.0  0.55236  0.13003  0.04834  1.0000
  H   H1325     1.0  0.60559  0.13360  0.06547  1.0000
  C   C1123     1.0  0.60946  0.20633  0.13020  1.0000
  C   C1124     1.0  0.59842  0.20740  0.14781  1.0000
  C   C1125     1.0  0.59579  0.22422  0.15624  1.0000
  C   C1126     1.0  0.60376  0.24017  0.14686  1.0000
  C   C1127     1.0  0.61431  0.23923  0.12904  1.0000
  C   C1128     1.0  0.61739  0.22231  0.12090  1.0000
  H   H1326     1.0  0.59250  0.19508  0.15527  1.0000
  H   H1327     1.0  0.58763  0.22483  0.17005  1.0000
  H   H1328     1.0  0.62053  0.25137  0.12164  1.0000
  H   H1329     1.0  0.62602  0.22164  0.10737  1.0000
  C   C1129     1.0  0.51147  0.17921  0.11559  1.0000
  C   C1130     1.0  0.52192  0.16780  0.10261  1.0000
  C   C1131     1.0  0.51302  0.15905  0.09113  1.0000
  H   H1330     1.0  0.57964  0.23961  0.11314  1.0000
  H   H1331     1.0  0.61959  0.13752  0.03168  1.0000
  H   H1332     1.0  0.57115  0.18697  0.01554  1.0000
  H   H1333     1.0  0.53694  0.16516  0.10164  1.0000
  H   H1334     1.0  0.52130  0.14965  0.08168  1.0000
  C   C1132     1.0  0.72627  0.33829  0.07429  1.0000
  C   C1133     1.0  0.57473  0.13479  0.02553  1.0000
  C   C1134     1.0  0.69509  0.34224  0.12415  1.0000
  C   C1135     1.0  0.68425  0.35968  0.11964  1.0000
  C   C1136     1.0  0.66570  0.36026  0.11582  1.0000
  C   C1137     1.0  0.65785  0.34348  0.11625  1.0000
  C   C1138     1.0  0.66897  0.32604  0.11996  1.0000
  C   C1139     1.0  0.68744  0.32545  0.12403  1.0000
  H   H1335     1.0  0.68988  0.37271  0.11984  1.0000
  H   H1336     1.0  0.65723  0.37383  0.11290  1.0000
  H   H1337     1.0  0.66322  0.31306  0.12006  1.0000
  H   H1338     1.0  0.69569  0.31190  0.12761  1.0000
  H   H1339     1.0  0.63363  0.31042  0.14813  1.0000
  C   C1140     1.0  0.52862  0.23570  0.08670  1.0000
  H   H1340     1.0  0.50127  0.30282  0.03898  1.0000
  C   C1141     1.0  0.56972  0.24602  0.10283  1.0000
  C   C1142     1.0  0.67725  0.32695  0.16935  1.0000
  H   H1341     1.0  0.55026  0.20579  0.10584  1.0000
  C   C1143     1.0  0.69398  0.31598  0.17344  1.0000
  H   H1342     1.0  0.67658  0.34227  0.16671  1.0000
  H   H1343     1.0  0.70833  0.28786  0.17923  1.0000
  H   H1344     1.0  0.70615  0.32281  0.17402  1.0000
  H   H1345     1.0  0.62441  0.31146  0.17282  1.0000
  N   N71       1.0  0.59583  0.19828  0.01992  1.0000
  C   C1144     1.0  0.57882  0.18897  0.02723  1.0000
  H   H1346     1.0  0.62235  0.08892  0.01452  1.0000
  H   H1347     1.0  0.50412  0.33899  0.12376  1.0000
  C   C1145     1.0  0.60501  0.20201  0.03579  1.0000
  C   C1146     1.0  0.58991  0.21572  0.00721  1.0000
  C   C1147     1.0  0.61075  0.21988  0.03666  1.0000
  H   H1348     1.0  0.51619  0.12573  0.21316  1.0000
  C   C1148     1.0  0.62004  0.22268  0.05148  1.0000
  C   C1149     1.0  0.62387  0.20790  0.06580  1.0000
  C   C1150     1.0  0.52554  0.10842  0.26468  1.0000
  H   H1349     1.0  0.56640  0.34550  0.05197  1.0000
  H   H1350     1.0  0.51262  0.09206  0.12342  1.0000
  C   C1151     1.0  0.54571  0.26252  0.14861  1.0000
  S   S311      1.0  0.63043  0.06583  0.32937  1.0000
  H   H1351     1.0  0.50752  0.36670  0.08105  1.0000
  H   H1352     1.0  0.53524  0.36424  0.09311  1.0000
  C   C1152     1.0  0.51895  0.25956  0.06128  1.0000
  H   H1353     1.0  0.69339  0.32752  0.06937  1.0000
  C   C1153     1.0  0.53473  0.27863  0.14105  1.0000
  H   H1354     1.0  0.60838  0.23195  0.02600  1.0000
  H   H1355     1.0  0.52755  0.10812  0.15739  1.0000
  H   H1356     1.0  0.62423  0.23645  0.05197  1.0000
  C   C1154     1.0  0.73055  0.44535  0.03659  1.0000
  H   H1357     1.0  0.62135  0.17885  0.07672  1.0000
  C   C1155     1.0  0.69521  0.29629  0.17618  1.0000
  C   C1156     1.0  0.50612  0.11723  0.22150  1.0000
  C   C1157     1.0  0.73735  0.47422  0.04610  1.0000
  C   C1158     1.0  0.58094  0.07908  0.00379  1.0000
  C   C1159     1.0  0.52032  0.08996  0.18263  1.0000
  C   C1160     1.0  0.70666  0.34959  0.02710  1.0000
  H   H1358     1.0  0.72698  0.37252  0.05336  1.0000
  H   H1359     1.0  0.53741  0.12939  0.23298  1.0000
  C   C1161     1.0  0.52091  0.24378  0.14785  1.0000
  H   H1360     1.0  0.53380  0.08978  0.18743  1.0000
  C   C1162     1.0  0.53883  0.24514  0.15199  1.0000
  C   C1163     1.0  0.49750  0.31397  0.08924  1.0000
  H   H1361     1.0  0.61372  0.17177  0.01674  1.0000
  C   C1164     1.0  0.60930  0.18725  0.05057  1.0000
  H   H1362     1.0  0.49888  0.15140  0.01082  1.0000
  C   C1165     1.0  0.50541  0.06579  0.29916  1.0000
  H   H1363     1.0  0.73629  0.44300  0.00683  1.0000
  H   H1364     1.0  0.51200  0.00539  0.25501  1.0000
  H   H1365     1.0  0.54413  0.22426  0.12075  1.0000
  H   H1366     1.0  0.58020  0.22622  0.01512  1.0000
  C   C1166     1.0  0.60478  0.13639  0.03524  1.0000
  C   C1167     1.0  0.58298  0.28687  0.02248  1.0000
  C   C1168     1.0  0.51079  0.10747  0.12472  1.0000
  C   C1169     1.0  0.49896  0.03730  0.28842  1.0000
  H   H1367     1.0  0.54741  0.23265  0.15802  1.0000
  H   H1368     1.0  0.55955  0.26353  0.15198  1.0000
  H   H1369     1.0  0.63104  0.21008  0.07730  1.0000
  C   C1170     1.0  0.51680  0.27746  0.13690  1.0000
  N   N72       1.0  0.56210  0.23143  0.09485  1.0000
  H   H1370     1.0  0.72664  0.32262  0.07642  1.0000
  C   C1171     1.0  0.69410  0.34294  0.06887  1.0000
  H   H1371     1.0  0.54003  0.29222  0.13863  1.0000
  H   H1372     1.0  0.73728  0.48201  0.05779  1.0000
  C   C1172     1.0  0.60916  0.18549  0.00834  1.0000
  C   C1173     1.0  0.60029  0.08143  0.00062  1.0000
  C   C1174     1.0  0.51665  0.10034  0.16525  1.0000
  C   C1175     1.0  0.51636  0.34516  0.03385  1.0000
  H   H1373     1.0  0.52439  0.22465  0.09771  1.0000
  C   C1176     1.0  0.55555  0.21755  0.11091  1.0000
  H   H1374     1.0  0.70252  0.37672  0.05081  1.0000
  H   H1375     1.0  0.57233  0.35558  0.07105  1.0000
  H   H1376     1.0  0.54030  0.27568  0.04601  1.0000
  C   C1177     1.0  0.57813  0.08618  0.03604  1.0000
  H   H1377     1.0  0.51058  0.00919  0.32604  1.0000
  C   C1178     1.0  0.61841  0.19027  0.06542  1.0000
  H   H1378     1.0  0.57243  0.21027  0.07630  1.0000
  C   C1179     1.0  0.55101  0.25508  0.06810  1.0000
  H   H1379     1.0  0.54960  0.02901  0.32080  1.0000
  C   C1180     1.0  0.71798  0.34184  0.04156  1.0000
  H   H1380     1.0  0.62206  0.19201  0.00232  1.0000
  N   N73       1.0  0.65546  0.09542  0.27246  1.0000
  C   C1181     1.0  0.65698  0.07444  0.27572  1.0000
  C   C1182     1.0  0.63590  0.10341  0.27892  1.0000
  C   C1183     1.0  0.65910  0.10119  0.25168  1.0000
  C   C1184     1.0  0.66857  0.10180  0.28330  1.0000
  C   C1185     1.0  0.66644  0.09797  0.30336  1.0000
  C   C1186     1.0  0.68382  0.11161  0.27451  1.0000
  C   C1187     1.0  0.57011  0.08149  0.02126  1.0000
  C   C1188     1.0  0.69602  0.11721  0.28528  1.0000
  C   C1189     1.0  0.69344  0.11323  0.30497  1.0000
  H   H1381     1.0  0.67163  0.06781  0.27185  1.0000
  H   H1382     1.0  0.65258  0.06900  0.29079  1.0000
  H   H1383     1.0  0.64787  0.06904  0.26717  1.0000
  H   H1384     1.0  0.63108  0.09774  0.29382  1.0000
  H   H1385     1.0  0.62580  0.09985  0.27020  1.0000
  H   H1386     1.0  0.63440  0.11912  0.27799  1.0000
  H   H1387     1.0  0.67318  0.09475  0.24559  1.0000
  H   H1388     1.0  0.64883  0.09637  0.24400  1.0000
  H   H1389     1.0  0.65778  0.11689  0.24816  1.0000
  H   H1390     1.0  0.65528  0.09048  0.31104  1.0000
  H   H1391     1.0  0.68668  0.11511  0.25934  1.0000
  H   H1392     1.0  0.60302  0.09274  0.04481  1.0000
  H   H1393     1.0  0.70757  0.12466  0.27833  1.0000
  H   H1394     1.0  0.58213  0.17449  0.03480  1.0000
  H   H1395     1.0  0.50869  0.29052  0.13165  1.0000
  H   H1396     1.0  0.49762  0.08467  0.26048  1.0000
  H   H1397     1.0  0.54474  0.34991  0.03132  1.0000
  C   C1190     1.0  0.57755  0.22124  0.08284  1.0000
  H   H1398     1.0  0.57780  0.25520  0.09176  1.0000
  C   C1191     1.0  0.50670  0.08008  0.19381  1.0000
  H   H1399     1.0  0.54025  0.39366  0.04570  1.0000
  H   H1400     1.0  0.52549  0.03312  0.33081  1.0000
  C   C1192     1.0  0.54718  0.24061  0.08329  1.0000
  H   H1401     1.0  0.58423  0.23102  0.07128  1.0000
  H   H1402     1.0  0.55559  0.33906  0.07568  1.0000
  H   H1403     1.0  0.64952  0.32778  0.16367  1.0000
  C   C1193     1.0  0.66261  0.29822  0.16996  1.0000
  H   H1404     1.0  0.70949  0.37328  0.07388  1.0000
  H   H1405     1.0  0.66349  0.26378  0.15711  1.0000
  H   H1406     1.0  0.55729  0.37647  0.03474  1.0000
  H   H1407     1.0  0.65164  0.26579  0.19051  1.0000
  C   C1194     1.0  0.66175  0.31831  0.16756  1.0000
  C   C1195     1.0  0.67975  0.28748  0.17460  1.0000
  C   C1196     1.0  0.65250  0.27556  0.15306  1.0000
  H   H1408     1.0  0.56482  0.25944  0.06457  1.0000
  H   H1409     1.0  0.68142  0.27217  0.17678  1.0000
  C   C1197     1.0  0.71298  0.36842  0.05962  1.0000
  C   C1198     1.0  0.63015  0.30175  0.16206  1.0000
  H   H1410     1.0  0.52910  0.38747  0.08040  1.0000
  H   H1411     1.0  0.52452  0.11113  0.12687  1.0000
  N   N74       1.0  0.64667  0.28850  0.16776  1.0000
  H   H1412     1.0  0.65810  0.28336  0.13936  1.0000
  H   H1413     1.0  0.63629  0.28630  0.19747  1.0000
  C   C1199     1.0  0.52892  0.35985  0.05711  1.0000
  H   H1414     1.0  0.60590  0.17313  0.05069  1.0000
  H   H1415     1.0  0.74346  0.32202  0.04651  1.0000
  Fe  Fe156     1.0  0.59835  0.02511  0.29620  1.0000
  H   H1416     1.0  0.51638  0.22990  0.15106  1.0000
  H   H1417     1.0  0.67664  0.10048  0.32932  1.0000
  C   C1200     1.0  0.64048  0.27716  0.18594  1.0000
  H   H1418     1.0  0.58888  0.21393  0.09126  1.0000
  H   H1419     1.0  0.61846  0.29398  0.16059  1.0000
  H   H1420     1.0  0.55253  0.37973  0.08574  1.0000
  H   H1421     1.0  0.55825  0.25535  0.11029  1.0000
  N   N75       1.0  0.54493  0.36685  0.06314  1.0000
  H   H1422     1.0  0.55611  0.11134  0.23899  1.0000
  C   C1201     1.0  0.73081  0.45659  0.05067  1.0000
  C   C1202     1.0  0.73785  0.32315  0.01835  1.0000
  H   H1423     1.0  0.62818  0.26998  0.18484  1.0000
  H   H1424     1.0  0.64054  0.26871  0.15042  1.0000
  S   S312      1.0  0.71738  0.34075  0.13187  1.0000
  C   C1203     1.0  0.56045  0.35109  0.06550  1.0000
  C   C1204     1.0  0.55176  0.38189  0.04846  1.0000
  H   H1425     1.0  0.72614  0.45147  0.06530  1.0000
  C   C1205     1.0  0.54016  0.37496  0.08135  1.0000
  H   H1426     1.0  0.69019  0.34649  0.08358  1.0000
  H   H1427     1.0  0.54505  0.11033  0.21874  1.0000
  C   C1206     1.0  0.53707  0.26442  0.05733  1.0000
  H   H1428     1.0  0.51864  0.33869  0.02088  1.0000
  C   C1207     1.0  0.72639  0.33101  0.00455  1.0000
  H   H1429     1.0  0.56702  0.21092  0.11943  1.0000
  H   H1430     1.0  0.56898  0.19747  0.03713  1.0000
  H   H1431     1.0  0.50808  0.26705  0.05312  1.0000
  N   N76       1.0  0.71306  0.34766  0.06077  1.0000
  H   H1432     1.0  0.56340  0.38798  0.05279  1.0000
  H   H1433     1.0  0.69445  0.35991  0.02974  1.0000
  H   H1434     1.0  0.72216  0.34296  0.08859  1.0000
  Fe  Fe157     1.0  0.73937  0.36092  0.12210  1.0000
  C   C1208     1.0  0.54227  0.11391  0.23351  1.0000
  H   H1435     1.0  0.70291  0.11757  0.31328  1.0000
  H   H1436     1.0  0.72575  0.43158  0.04029  1.0000
  C   C1209     1.0  0.67867  0.10363  0.31399  1.0000
  H   H1437     1.0  0.52831  0.07287  0.25686  1.0000
  N   N77       1.0  0.52846  0.10248  0.24547  1.0000
  C   C1210     1.0  0.73653  0.45181  0.01778  1.0000
  H   H1438     1.0  0.56965  0.08839  0.04947  1.0000
  H   H1439     1.0  0.50035  0.07905  0.30476  1.0000
  H   H1440     1.0  0.58458  0.28276  0.00846  1.0000
  H   H1441     1.0  0.53902  0.10715  0.27065  1.0000
  H   H1442     1.0  0.50068  0.24129  0.07872  1.0000
  C   C1211     1.0  0.60793  0.08635  0.01597  1.0000
  H   H1443     1.0  0.51874  0.12337  0.26449  1.0000
  H   H1444     1.0  0.49678  0.26673  0.10655  1.0000
  H   H1445     1.0  0.53889  0.07708  0.23273  1.0000
  C   C1212     1.0  0.53697  0.08230  0.24676  1.0000
  C   C1213     1.0  0.73380  0.32842  0.03662  1.0000
  H   H1446     1.0  0.55533  0.07991  0.02333  1.0000
  H   H1447     1.0  0.50786  0.11546  0.11071  1.0000
  C   C1214     1.0  0.50695  0.30159  0.00900  1.0000
  H   H1448     1.0  0.74387  0.43010  0.13361  1.0000
  C   C1215     1.0  0.49926  0.10085  0.15835  1.0000
  C   C1216     1.0  0.74291  0.46950  0.01302  1.0000
  C   C1217     1.0  0.49867  0.34674  0.04444  1.0000
  S   S313      1.0  0.55521  0.31450  0.01121  1.0000
  S   S314      1.0  0.74199  0.37653  0.09277  1.0000
  C   C1218     1.0  0.74384  0.48114  0.02706  1.0000
  C   C1219     1.0  0.49584  0.35474  0.06125  1.0000
  H   H1449     1.0  0.49603  0.23221  0.12596  1.0000
  N   N78       1.0  0.49555  0.11233  0.14011  1.0000
  C   C1220     1.0  0.49568  0.09432  0.24769  1.0000
  H   H1450     1.0  0.60214  0.22265  0.99978  1.0000
  C   C1221     1.0  0.49522  0.30366  0.02593  1.0000
  Fe  Fe158     1.0  0.65243  0.04355  0.43752  1.0000
  S   S315      1.0  0.67841  0.02292  0.43193  1.0000
  S   S316      1.0  0.62900  0.04629  0.41902  1.0000
  Fe  Fe159     1.0  0.66355  0.05071  0.47552  1.0000
  S   S317      1.0  0.68991  0.03040  0.47246  1.0000
  S   S318      1.0  0.65984  0.06644  0.50119  1.0000
  Fe  Fe160     1.0  0.69349  0.04352  0.44222  1.0000
  S   S319      1.0  0.72156  0.05093  0.42746  1.0000
  C   C1222     1.0  0.53990  0.02785  0.33428  1.0000
  C   C1223     1.0  0.74121  0.06565  0.61722  1.0000
  S   S320      1.0  0.66803  0.06543  0.44551  1.0000
  S   S321      1.0  0.64549  0.03094  0.46809  1.0000
  Fe  Fe161     1.0  0.66905  0.03204  0.60864  1.0000
  S   S322      1.0  0.69938  0.02482  0.61223  1.0000
  S   S323      1.0  0.65958  0.02097  0.58419  1.0000
  Fe  Fe162     1.0  0.65910  0.04710  0.64764  1.0000
  H   H1451     1.0  0.65789  0.00940  0.54840  1.0000
  H   H1452     1.0  0.70383  0.07271  0.56497  1.0000
  Fe  Fe163     1.0  0.69634  0.05294  0.62288  1.0000
  S   S324      1.0  0.71924  0.07035  0.60867  1.0000
  Fe  Fe164     1.0  0.68978  0.01406  0.64235  1.0000
  C   C1224     1.0  0.74337  0.05500  0.63485  1.0000
  S   S325      1.0  0.66611  0.06109  0.61750  1.0000
  S   S326      1.0  0.65966  0.01878  0.63806  1.0000
  H   H1453     1.0  0.72837  0.02466  0.46113  1.0000
  C   C1225     1.0  0.56053  0.00383  0.35046  1.0000
  C   C1226     1.0  0.52746  0.00691  0.36093  1.0000
  C   C1227     1.0  0.61538  0.04721  0.38527  1.0000
  C   C1228     1.0  0.61540  0.05129  0.36549  1.0000
  C   C1229     1.0  0.65997  0.05360  0.52416  1.0000
  C   C1230     1.0  0.66088  0.06321  0.53956  1.0000
  C   C1231     1.0  0.66135  0.05335  0.55797  1.0000
  C   C1232     1.0  0.66025  0.03388  0.56120  1.0000
  C   C1233     1.0  0.65906  0.02435  0.54586  1.0000
  C   C1234     1.0  0.65923  0.03406  0.52736  1.0000
  H   H1454     1.0  0.66122  0.07837  0.53725  1.0000
  H   H1455     1.0  0.66204  0.06090  0.56971  1.0000
  N   N79       1.0  0.54172  0.00808  0.34392  1.0000
  H   H1456     1.0  0.65835  0.02656  0.51565  1.0000
  C   C1235     1.0  0.72349  0.07756  0.51822  1.0000
  H   H1457     1.0  0.70206  0.05242  0.50842  1.0000
  H   H1458     1.0  0.69838  0.08665  0.48077  1.0000
  C   C1236     1.0  0.71060  0.07330  0.53463  1.0000
  H   H1459     1.0  0.52968  0.01614  0.37130  1.0000
  H   H1460     1.0  0.70941  0.00757  0.39400  1.0000
  C   C1237     1.0  0.68331  0.01472  0.38311  1.0000
  C   C1238     1.0  0.64564  0.05802  0.38255  1.0000
  C   C1239     1.0  0.63041  0.05065  0.39394  1.0000
  N   N80       1.0  0.71926  0.07508  0.49930  1.0000
  H   H1461     1.0  0.65722  0.06084  0.38905  1.0000
  H   H1462     1.0  0.73149  0.04926  0.64338  1.0000
  C   C1240     1.0  0.71393  0.07599  0.55261  1.0000
  H   H1463     1.0  0.70477  0.10341  0.49417  1.0000
  H   H1464     1.0  0.60360  0.04886  0.35910  1.0000
  C   C1241     1.0  0.64554  0.06235  0.36278  1.0000
  C   C1242     1.0  0.74317  0.08727  0.53903  1.0000
  H   H1465     1.0  0.65717  0.06846  0.35417  1.0000
  H   H1466     1.0  0.65590  0.01868  0.37416  1.0000
  C   C1243     1.0  0.71533  0.05544  0.49935  1.0000
  H   H1467     1.0  0.72699  0.04483  0.50423  1.0000
  C   C1244     1.0  0.73984  0.04691  0.44157  1.0000
  H   H1468     1.0  0.71351  0.05284  0.48494  1.0000
  H   H1469     1.0  0.73253  0.08525  0.56877  1.0000
  C   C1245     1.0  0.70243  0.08842  0.49468  1.0000
  C   C1246     1.0  0.73012  0.08308  0.55479  1.0000
  H   H1470     1.0  0.68992  0.08617  0.50531  1.0000
  S   S327      1.0  0.68907  0.04153  0.65371  1.0000
  H   H1471     1.0  0.60351  0.04161  0.39398  1.0000
  H   H1472     1.0  0.69771  0.06804  0.53365  1.0000
  C   C1247     1.0  0.63037  0.05915  0.35417  1.0000
  Fe  Fe165     1.0  0.67244  0.01191  0.46264  1.0000
  H   H1473     1.0  0.54327  0.03804  0.34309  1.0000
  H   H1474     1.0  0.68558  0.02929  0.37827  1.0000
  H   H1475     1.0  0.56262  0.01409  0.35987  1.0000
  C   C1248     1.0  0.73476  0.07861  0.48377  1.0000
  H   H1476     1.0  0.73127  0.07619  0.46983  1.0000
  C   C1249     1.0  0.74000  0.08459  0.52096  1.0000
  H   H1477     1.0  0.73770  0.09355  0.48191  1.0000
  H   H1478     1.0  0.51297  0.01157  0.35736  1.0000
  H   H1479     1.0  0.74192  0.04288  0.57463  1.0000
  H   H1480     1.0  0.57193  0.00478  0.33830  1.0000
  C   C1250     1.0  0.73966  0.03319  0.45752  1.0000
  C   C1251     1.0  0.66655  0.00879  0.38081  1.0000
  C   C1252     1.0  0.69682  0.00215  0.39221  1.0000
  Fe  Fe166     1.0  0.57412  0.03453  0.80664  1.0000
  S   S328      1.0  0.57414  0.04458  0.77554  1.0000
  C   C1253     1.0  0.57337  0.09605  0.71541  1.0000
  Fe  Fe167     1.0  0.58214  0.07213  0.81659  1.0000
  S   S329      1.0  0.58325  0.08486  0.78593  1.0000
  S   S330      1.0  0.58380  0.09422  0.83598  1.0000
  Fe  Fe168     1.0  0.55775  0.07106  0.78551  1.0000
  S   S331      1.0  0.53239  0.08836  0.77403  1.0000
  Fe  Fe169     1.0  0.59970  0.05736  0.77836  1.0000
  S   S332      1.0  0.62635  0.05648  0.75706  1.0000
  S   S333      1.0  0.55544  0.06008  0.81641  1.0000
  S   S334      1.0  0.60092  0.04552  0.80913  1.0000
  S   S335      1.0  0.69288  0.34924  0.95956  1.0000
  H   H1481     1.0  0.50493  0.01062  0.78679  1.0000
  Fe  Fe170     1.0  0.57884  0.12315  0.93873  1.0000
  S   S336      1.0  0.55846  0.14840  0.93005  1.0000
  S   S337      1.0  0.58303  0.09600  0.92483  1.0000
  Fe  Fe171     1.0  0.58685  0.14075  0.97293  1.0000
  S   S338      1.0  0.56696  0.16718  0.96672  1.0000
  C   C1254     1.0  0.53428  0.10079  0.85082  1.0000
  Fe  Fe172     1.0  0.54803  0.14759  0.96103  1.0000
  S   S339      1.0  0.51737  0.15059  0.97181  1.0000
  Fe  Fe173     1.0  0.57935  0.16568  0.93647  1.0000
  S   S340      1.0  0.58452  0.19287  0.91802  1.0000
  S   S341      1.0  0.56677  0.12102  0.96967  1.0000
  S   S342      1.0  0.60091  0.14058  0.94275  1.0000
  Fe  Fe174     1.0  0.59487  0.31944  0.94676  1.0000
  S   S343      1.0  0.60002  0.30224  0.97451  1.0000
  S   S344      1.0  0.61635  0.33847  0.93096  1.0000
  Fe  Fe175     1.0  0.55918  0.30087  0.94529  1.0000
  S   S345      1.0  0.56271  0.28228  0.97268  1.0000
  S   S346      1.0  0.53570  0.29290  0.93165  1.0000
  Fe  Fe176     1.0  0.56889  0.30837  0.98241  1.0000
  H   H1482     1.0  0.59769  0.09279  0.69368  1.0000
  Fe  Fe177     1.0  0.59324  0.27785  0.96183  1.0000
  S   S347      1.0  0.60978  0.24873  0.96618  1.0000
  S   S348      1.0  0.56372  0.32767  0.95565  1.0000
  S   S349      1.0  0.58971  0.29451  0.93349  1.0000
  C   C1255     1.0  0.49929  0.08507  0.76225  1.0000
  H   H1483     1.0  0.66039  0.05720  0.69272  1.0000
  C   C1256     1.0  0.50500  0.32027  0.93799  1.0000
  C   C1257     1.0  0.51154  0.30101  0.93757  1.0000
  H   H1484     1.0  0.72954  0.32694  0.99039  1.0000
  H   H1485     1.0  0.53805  0.10117  0.83562  1.0000
  H   H1486     1.0  0.54537  0.11660  0.91167  1.0000
  H   H1487     1.0  0.51490  0.33039  0.93618  1.0000
  C   C1258     1.0  0.53665  0.08451  0.88250  1.0000
  H   H1488     1.0  0.59921  0.12103  0.70246  1.0000
  C   C1259     1.0  0.59301  0.20809  0.93063  1.0000
  C   C1260     1.0  0.60126  0.20104  0.94705  1.0000
  C   C1261     1.0  0.60710  0.21356  0.95749  1.0000
  C   C1262     1.0  0.60381  0.23317  0.95211  1.0000
  C   C1263     1.0  0.59568  0.24016  0.93562  1.0000
  C   C1264     1.0  0.59083  0.22761  0.92460  1.0000
  H   H1489     1.0  0.60339  0.18593  0.95156  1.0000
  H   H1490     1.0  0.61392  0.20804  0.96986  1.0000
  H   H1491     1.0  0.59344  0.25521  0.93112  1.0000
  H   H1492     1.0  0.58511  0.23306  0.91156  1.0000
  C   C1265     1.0  0.50534  0.15242  0.95226  1.0000
  H   H1493     1.0  0.52770  0.11800  0.93194  1.0000
  H   H1494     1.0  0.52837  0.08467  0.93819  1.0000
  H   H1495     1.0  0.60962  0.09211  0.72246  1.0000
  C   C1266     1.0  0.49843  0.28812  0.93976  1.0000
  C   C1267     1.0  0.51111  0.16356  0.93535  1.0000
  H   H1496     1.0  0.53803  0.26058  0.90519  1.0000
  H   H1497     1.0  0.55966  0.22360  0.89757  1.0000
  H   H1498     1.0  0.50224  0.22485  0.97034  1.0000
  H   H1499     1.0  0.52269  0.17153  0.93455  1.0000
  H   H1500     1.0  0.53673  0.20224  0.92765  1.0000
  C   C1268     1.0  0.68054  0.40172  0.92489  1.0000
  H   H1501     1.0  0.59038  0.08464  0.96425  1.0000
  C   C1269     1.0  0.49927  0.30301  0.99218  1.0000
  C   C1270     1.0  0.61530  0.38794  0.94413  1.0000
  C   C1271     1.0  0.67179  0.34655  0.95105  1.0000
  C   C1272     1.0  0.66810  0.35335  0.93254  1.0000
  C   C1273     1.0  0.65108  0.35083  0.92662  1.0000
  C   C1274     1.0  0.63761  0.34137  0.93904  1.0000
  C   C1275     1.0  0.64140  0.33444  0.95748  1.0000
  C   C1276     1.0  0.65840  0.33692  0.96337  1.0000
  H   H1502     1.0  0.67842  0.36034  0.92273  1.0000
  H   H1503     1.0  0.64833  0.35625  0.91232  1.0000
  H   H1504     1.0  0.63115  0.32736  0.96732  1.0000
  H   H1505     1.0  0.66108  0.33154  0.97770  1.0000
  H   H1506     1.0  0.66269  0.42643  0.90061  1.0000
  H   H1507     1.0  0.62799  0.09627  0.96019  1.0000
  C   C1277     1.0  0.58355  0.09408  0.86080  1.0000
  C   C1278     1.0  0.58515  0.07734  0.87350  1.0000
  C   C1279     1.0  0.58499  0.07814  0.89303  1.0000
  C   C1280     1.0  0.58323  0.09564  0.90009  1.0000
  C   C1281     1.0  0.58146  0.11235  0.88743  1.0000
  C   C1282     1.0  0.58166  0.11154  0.86794  1.0000
  H   H1508     1.0  0.58668  0.06380  0.86824  1.0000
  H   H1509     1.0  0.58640  0.06511  0.90266  1.0000
  H   H1510     1.0  0.58013  0.12592  0.89257  1.0000
  H   H1511     1.0  0.58042  0.12457  0.85827  1.0000
  C   C1283     1.0  0.62818  0.05412  0.73265  1.0000
  C   C1284     1.0  0.64541  0.05590  0.72115  1.0000
  C   C1285     1.0  0.61289  0.05102  0.72438  1.0000
  H   H1512     1.0  0.65733  0.05824  0.72743  1.0000
  H   H1513     1.0  0.59963  0.04932  0.73307  1.0000
  H   H1514     1.0  0.60339  0.38005  0.94723  1.0000
  C   C1286     1.0  0.63815  0.00060  0.72153  1.0000
  H   H1515     1.0  0.66935  0.01450  0.70996  1.0000
  S   S350      1.0  0.72862  0.37968  0.92020  1.0000
  C   C1287     1.0  0.51745  0.07622  0.76463  1.0000
  C   C1288     1.0  0.52327  0.05800  0.75956  1.0000
  C   C1289     1.0  0.64720  0.05525  0.70147  1.0000
  H   H1516     1.0  0.53732  0.05113  0.76117  1.0000
  C   C1290     1.0  0.58356  0.08966  0.69861  1.0000
  H   H1517     1.0  0.65649  0.38889  0.95996  1.0000
  H   H1518     1.0  0.55193  0.21661  0.93366  1.0000
  Fe  Fe178     1.0  0.71607  0.36815  0.94947  1.0000
  H   H1519     1.0  0.54130  0.21137  0.89383  1.0000
  C   C1291     1.0  0.54034  0.08477  0.86284  1.0000
  H   H1520     1.0  0.73106  0.43255  0.95476  1.0000
  H   H1521     1.0  0.52328  0.13107  0.90973  1.0000
  C   C1292     1.0  0.53741  0.21688  0.93039  1.0000
  H   H1522     1.0  0.54150  0.23581  0.88403  1.0000
  C   C1293     1.0  0.61469  0.05042  0.70471  1.0000
  C   C1294     1.0  0.54434  0.22531  0.89662  1.0000
  C   C1295     1.0  0.53126  0.08366  0.92271  1.0000
  H   H1523     1.0  0.53424  0.07455  0.71556  1.0000
  H   H1524     1.0  0.69387  0.40791  0.92057  1.0000
  C   C1296     1.0  0.64541  0.39329  0.95113  1.0000
  H   H1525     1.0  0.51216  0.20332  0.91211  1.0000
  H   H1526     1.0  0.71814  0.47725  0.91014  1.0000
  H   H1527     1.0  0.62871  0.10148  0.98359  1.0000
  H   H1528     1.0  0.52772  0.21975  0.94341  1.0000
  H   H1529     1.0  0.60791  0.10883  0.97275  1.0000
  N   N81       1.0  0.61226  0.07905  0.98234  1.0000
  C   C1297     1.0  0.51288  0.23347  0.91203  1.0000
  H   H1530     1.0  0.60565  0.40446  0.91927  1.0000
  N   N82       1.0  0.52258  0.10088  0.91144  1.0000
  H   H1531     1.0  0.50694  0.26460  0.90937  1.0000
  H   H1532     1.0  0.60283  0.18198  0.99633  1.0000
  C   C1298     1.0  0.73808  0.45976  0.95760  1.0000
  C   C1299     1.0  0.52643  0.10042  0.89071  1.0000
  C   C1300     1.0  0.50182  0.16446  0.91948  1.0000
  C   C1301     1.0  0.51986  0.11628  0.87801  1.0000
  H   H1533     1.0  0.51559  0.03483  0.74776  1.0000
  C   C1302     1.0  0.73041  0.48523  0.93288  1.0000
  S   S351      1.0  0.63262  0.05402  0.66821  1.0000
  H   H1534     1.0  0.50595  0.08938  0.80855  1.0000
  H   H1535     1.0  0.50211  0.06677  0.80399  1.0000
  H   H1536     1.0  0.59682  0.05984  0.97253  1.0000
  H   H1537     1.0  0.49848  0.10315  0.93294  1.0000
  C   C1303     1.0  0.57601  0.07858  0.68808  1.0000
  C   C1304     1.0  0.50204  0.10275  0.91739  1.0000
  C   C1305     1.0  0.54797  0.07896  0.71070  1.0000
  H   H1538     1.0  0.53835  0.01366  0.78239  1.0000
  C   C1306     1.0  0.50419  0.21727  0.91135  1.0000
  S   S352      1.0  0.60443  0.13851  0.99691  1.0000
  H   H1539     1.0  0.53110  0.25461  0.93033  1.0000
  H   H1540     1.0  0.59307  0.13438  0.72185  1.0000
  H   H1541     1.0  0.60484  0.10436  0.74283  1.0000
  S   S353      1.0  0.56689  0.00528  0.81821  1.0000
  N   N83       1.0  0.66471  0.41633  0.93016  1.0000
  C   C1307     1.0  0.66866  0.42458  0.94663  1.0000
  C   C1308     1.0  0.66398  0.43181  0.91401  1.0000
  C   C1309     1.0  0.62952  0.38395  0.95563  1.0000
  C   C1310     1.0  0.55531  0.09025  0.72122  1.0000
  C   C1311     1.0  0.53924  0.24924  0.91744  1.0000
  Fe  Fe179     1.0  0.72662  0.40715  0.93237  1.0000
  C   C1312     1.0  0.63241  0.41126  0.92378  1.0000
  C   C1313     1.0  0.55827  0.07320  0.69413  1.0000
  H   H1542     1.0  0.67165  0.41368  0.95880  1.0000
  H   H1543     1.0  0.68129  0.43212  0.94305  1.0000
  H   H1544     1.0  0.65662  0.43495  0.95162  1.0000
  H   H1545     1.0  0.68296  0.39023  0.93678  1.0000
  H   H1546     1.0  0.65217  0.44323  0.91694  1.0000
  H   H1547     1.0  0.67710  0.43862  0.91113  1.0000
  C   C1314     1.0  0.72413  0.45323  0.93112  1.0000
  C   C1315     1.0  0.61670  0.40161  0.92829  1.0000
  H   H1548     1.0  0.50649  0.17272  0.90626  1.0000
  H   H1549     1.0  0.51172  0.12879  0.88318  1.0000
  S   S354      1.0  0.71702  0.43666  0.91887  1.0000
  N   N84       1.0  0.65614  0.28095  0.93442  1.0000
  C   C1316     1.0  0.66906  0.26514  0.94313  1.0000
  C   C1317     1.0  0.66757  0.29610  0.92526  1.0000
  C   C1318     1.0  0.64253  0.28840  0.94982  1.0000
  C   C1319     1.0  0.64566  0.27513  0.92060  1.0000
  C   C1320     1.0  0.64450  0.25580  0.91938  1.0000
  C   C1321     1.0  0.63513  0.28897  0.90873  1.0000
  C   C1322     1.0  0.63403  0.25077  0.90658  1.0000
  C   C1323     1.0  0.62474  0.28378  0.89596  1.0000
  C   C1324     1.0  0.62422  0.26472  0.89486  1.0000
  H   H1550     1.0  0.67900  0.25819  0.93210  1.0000
  H   H1551     1.0  0.67757  0.27015  0.95256  1.0000
  H   H1552     1.0  0.66123  0.25427  0.95233  1.0000
  H   H1553     1.0  0.67692  0.29168  0.91253  1.0000
  H   H1554     1.0  0.67646  0.29988  0.93510  1.0000
  H   H1555     1.0  0.65882  0.30964  0.92083  1.0000
  H   H1556     1.0  0.63386  0.27740  0.95728  1.0000
  H   H1557     1.0  0.64959  0.29328  0.96055  1.0000
  H   H1558     1.0  0.63269  0.30063  0.94429  1.0000
  H   H1559     1.0  0.65116  0.24426  0.92848  1.0000
  H   H1560     1.0  0.63425  0.30395  0.90967  1.0000
  H   H1561     1.0  0.63306  0.23595  0.90614  1.0000
  H   H1562     1.0  0.61662  0.29464  0.88725  1.0000
  H   H1563     1.0  0.61584  0.26074  0.88522  1.0000
  C   C1325     1.0  0.73795  0.47878  0.94984  1.0000
  H   H1564     1.0  0.64722  0.01492  0.68598  1.0000
  C   C1326     1.0  0.64733  0.40732  0.93510  1.0000
  H   H1565     1.0  0.62859  0.37298  0.96769  1.0000
  C   C1327     1.0  0.60226  0.07364  0.96782  1.0000
  H   H1566     1.0  0.63266  0.42149  0.91119  1.0000
  H   H1567     1.0  0.57376  0.07562  0.99295  1.0000
  H   H1568     1.0  0.57573  0.13298  0.70686  1.0000
  C   C1328     1.0  0.53001  0.11734  0.91638  1.0000
  C   C1329     1.0  0.52399  0.11650  0.85839  1.0000
  S   S355      1.0  0.71209  0.39625  0.96060  1.0000
  C   C1330     1.0  0.58767  0.12476  0.71381  1.0000
  N   N85       1.0  0.53308  0.23140  0.91411  1.0000
  H   H1569     1.0  0.50709  0.06975  0.82702  1.0000
  C   C1331     1.0  0.59840  0.09646  0.73387  1.0000
  N   N86       1.0  0.58174  0.10779  0.72630  1.0000
  C   C1332     1.0  0.63171  0.05292  0.69310  1.0000
  H   H1570     1.0  0.56462  0.10253  0.75318  1.0000
  H   H1571     1.0  0.57523  0.12355  0.75037  1.0000
  C   C1333     1.0  0.72357  0.47240  0.92347  1.0000
  C   C1334     1.0  0.56870  0.11457  0.74258  1.0000
  H   H1572     1.0  0.50323  0.27317  0.94011  1.0000
  H   H1573     1.0  0.58258  0.21262  0.99572  1.0000
  H   H1574     1.0  0.55570  0.12310  0.73795  1.0000
  H   H1575     1.0  0.61152  0.07219  0.95415  1.0000
  C   C1335     1.0  0.51096  0.04879  0.75197  1.0000
  H   H1576     1.0  0.67794  0.39493  0.91279  1.0000
  H   H1577     1.0  0.60279  0.04807  0.69844  1.0000
  H   H1578     1.0  0.52572  0.07070  0.92048  1.0000
  H   H1579     1.0  0.54246  0.07188  0.89086  1.0000
  H   H1580     1.0  0.59460  0.08327  0.74284  1.0000
  H   H1581     1.0  0.54656  0.09407  0.73392  1.0000
  H   H1582     1.0  0.54683  0.08166  0.91912  1.0000
  H   H1583     1.0  0.55420  0.24728  0.91978  1.0000
  H   H1584     1.0  0.51950  0.12903  0.84899  1.0000
  H   H1585     1.0  0.50845  0.30158  0.97897  1.0000
  H   H1586     1.0  0.54884  0.07281  0.85686  1.0000
  H   H1587     1.0  0.58423  0.07375  0.67539  1.0000
  C   C1336     1.0  0.73104  0.44710  0.94839  1.0000
  Fe  Fe180     1.0  0.74102  0.38830  0.96873  1.0000
  C   C1337     1.0  0.49938  0.07656  0.81500  1.0000
  H   H1588     1.0  0.50276  0.19207  0.96326  1.0000
  C   C1338     1.0  0.50147  0.25137  0.90989  1.0000
  C   C1339     1.0  0.61960  0.09709  0.97438  1.0000
  H   H1589     1.0  0.55258  0.06436  0.68608  1.0000
  H   H1590     1.0  0.63735  0.01630  0.71975  1.0000
  H   H1591     1.0  0.63722  0.06135  0.97182  1.0000
  S   S356      1.0  0.74431  0.35922  0.96002  1.0000
  C   C1340     1.0  0.62832  0.06404  0.98541  1.0000
  H   H1592     1.0  0.59633  0.00702  0.78681  1.0000
  H   H1593     1.0  0.74383  0.45466  0.97072  1.0000
  H   H1594     1.0  0.62334  0.05045  0.99220  1.0000
  H   H1595     1.0  0.63772  0.06787  0.99465  1.0000
  C   C1341     1.0  0.53361  0.00196  0.77732  1.0000
  H   H1596     1.0  0.70205  0.35041  0.99804  1.0000
  H   H1597     1.0  0.49591  0.09072  0.91374  1.0000
  C   C1342     1.0  0.51453  0.00001  0.77984  1.0000
  C   C1343     1.0  0.54725  0.75947  0.04619  1.0000
  H   H1598     1.0  0.49844  0.64052  0.03146  1.0000
  H   H1599     1.0  0.71525  0.54450  0.15873  1.0000
  H   H1600     1.0  0.59123  0.77322  0.00553  1.0000
  Fe  Fe181     1.0  0.61604  0.66532  0.06791  1.0000
  S   S357      1.0  0.61681  0.63452  0.06661  1.0000
  S   S358      1.0  0.61646  0.68422  0.03996  1.0000
  Fe  Fe182     1.0  0.60962  0.65970  0.11059  1.0000
  S   S359      1.0  0.60907  0.62812  0.11253  1.0000
  S   S360      1.0  0.59968  0.67746  0.13429  1.0000
  Fe  Fe183     1.0  0.63455  0.62929  0.09032  1.0000
  S   S361      1.0  0.65819  0.60467  0.08650  1.0000
  Fe  Fe184     1.0  0.59150  0.63593  0.08858  1.0000
  S   S362      1.0  0.56759  0.62322  0.08032  1.0000
  S   S363      1.0  0.63601  0.66054  0.08967  1.0000
  S   S364      1.0  0.59002  0.66714  0.08875  1.0000
  C   C1344     1.0  0.51289  0.78475  0.09189  1.0000
  Fe  Fe185     1.0  0.57348  0.78966  0.13133  1.0000
  S   S365      1.0  0.57664  0.81922  0.11720  1.0000
  S   S366      1.0  0.54613  0.77886  0.14143  1.0000
  Fe  Fe186     1.0  0.61485  0.77678  0.12783  1.0000
  S   S367      1.0  0.62155  0.80531  0.11388  1.0000
  S   S368      1.0  0.63726  0.75179  0.13065  1.0000
  Fe  Fe187     1.0  0.59928  0.81685  0.13615  1.0000
  S   S369      1.0  0.60265  0.84119  0.15192  1.0000
  Fe  Fe188     1.0  0.59849  0.80464  0.09641  1.0000
  S   S370      1.0  0.60728  0.80854  0.06446  1.0000
  S   S371      1.0  0.59453  0.78811  0.15140  1.0000
  S   S372      1.0  0.59324  0.77540  0.10936  1.0000
  H   H1601     1.0  0.60855  0.59828  0.05628  1.0000
  H   H1602     1.0  0.55927  0.69518  0.14818  1.0000
  H   H1603     1.0  0.59081  0.62464  0.04111  1.0000
  H   H1604     1.0  0.52878  0.96088  0.29692  1.0000
  Fe  Fe189     1.0  0.60719  0.86319  0.25671  1.0000
  S   S373      1.0  0.59215  0.89171  0.24694  1.0000
  S   S374      1.0  0.61145  0.83848  0.23928  1.0000
  Fe  Fe190     1.0  0.60733  0.87303  0.29709  1.0000
  S   S375      1.0  0.59174  0.90193  0.28998  1.0000
  Fe  Fe191     1.0  0.57416  0.88813  0.27487  1.0000
  S   S376      1.0  0.54381  0.90001  0.27675  1.0000
  Fe  Fe192     1.0  0.61120  0.90330  0.26287  1.0000
  S   S377      1.0  0.62109  0.93141  0.25070  1.0000
  S   S378      1.0  0.58771  0.85892  0.28404  1.0000
  S   S379      1.0  0.62826  0.87496  0.27055  1.0000
  C   C1345     1.0  0.51644  0.90997  0.22078  1.0000
  C   C1346     1.0  0.65444  0.57048  0.13056  1.0000
  H   H1605     1.0  0.57019  0.70434  0.11384  1.0000
  C   C1347     1.0  0.52783  0.88365  0.27945  1.0000
  C   C1348     1.0  0.53314  0.86434  0.28499  1.0000
  C   C1349     1.0  0.51981  0.85167  0.28773  1.0000
  C   C1350     1.0  0.70022  0.51464  0.15254  1.0000
  H   H1606     1.0  0.53486  0.73195  0.14357  1.0000
  H   H1607     1.0  0.54738  0.85920  0.28746  1.0000
  H   H1608     1.0  0.52379  0.83678  0.29235  1.0000
  C   C1351     1.0  0.60555  0.97703  0.29035  1.0000
  C   C1352     1.0  0.61006  0.98224  0.27089  1.0000
  C   C1353     1.0  0.61545  0.96814  0.25879  1.0000
  C   C1354     1.0  0.61629  0.94888  0.26614  1.0000
  C   C1355     1.0  0.61236  0.94380  0.28568  1.0000
  C   C1356     1.0  0.60677  0.95781  0.29770  1.0000
  C   C1357     1.0  0.56678  0.94567  0.26678  1.0000
  H   H1609     1.0  0.61877  0.97217  0.24370  1.0000
  H   H1610     1.0  0.61392  0.92908  0.29159  1.0000
  H   H1611     1.0  0.60349  0.95376  0.31278  1.0000
  H   H1612     1.0  0.52828  0.67799  0.11674  1.0000
  H   H1613     1.0  0.55489  0.79301  0.10178  1.0000
  C   C1358     1.0  0.54141  0.78795  0.10398  1.0000
  C   C1359     1.0  0.56236  0.93921  0.23598  1.0000
  C   C1360     1.0  0.60373  0.84036  0.17654  1.0000
  C   C1361     1.0  0.60302  0.82357  0.18906  1.0000
  C   C1362     1.0  0.60516  0.82328  0.20826  1.0000
  C   C1363     1.0  0.60758  0.83985  0.21528  1.0000
  C   C1364     1.0  0.60751  0.85682  0.20294  1.0000
  C   C1365     1.0  0.60576  0.85701  0.18366  1.0000
  H   H1614     1.0  0.60115  0.81076  0.18387  1.0000
  H   H1615     1.0  0.60521  0.81007  0.21769  1.0000
  H   H1616     1.0  0.60949  0.86966  0.20808  1.0000
  H   H1617     1.0  0.60630  0.87009  0.17410  1.0000
  C   C1366     1.0  0.57391  0.81259  0.01412  1.0000
  C   C1367     1.0  0.56450  0.81143  0.03275  1.0000
  C   C1368     1.0  0.57446  0.80993  0.04841  1.0000
  C   C1369     1.0  0.59391  0.80985  0.04551  1.0000
  C   C1370     1.0  0.60330  0.81084  0.02691  1.0000
  C   C1371     1.0  0.59340  0.81209  0.01130  1.0000
  H   H1618     1.0  0.54941  0.81179  0.03510  1.0000
  H   H1619     1.0  0.56707  0.80920  0.06264  1.0000
  H   H1620     1.0  0.61832  0.81094  0.02452  1.0000
  H   H1621     1.0  0.58128  0.60255  0.04364  1.0000
  C   C1372     1.0  0.53402  0.78012  0.12202  1.0000
  H   H1622     1.0  0.53285  0.61841  0.06864  1.0000
  C   C1373     1.0  0.62001  0.59442  0.04556  1.0000
  C   C1374     1.0  0.61049  0.69792  0.13306  1.0000
  C   C1375     1.0  0.62899  0.69872  0.12452  1.0000
  C   C1376     1.0  0.63739  0.71513  0.12418  1.0000
  C   C1377     1.0  0.62711  0.73094  0.13185  1.0000
  C   C1378     1.0  0.60848  0.73028  0.13997  1.0000
  C   C1379     1.0  0.60035  0.71366  0.14094  1.0000
  H   H1623     1.0  0.63700  0.68650  0.11870  1.0000
  H   H1624     1.0  0.65180  0.71560  0.11787  1.0000
  H   H1625     1.0  0.60047  0.74243  0.14595  1.0000
  H   H1626     1.0  0.58621  0.71299  0.14791  1.0000
  C   C1380     1.0  0.65233  0.58017  0.03936  1.0000
  C   C1381     1.0  0.64777  0.73173  0.01915  1.0000
  C   C1382     1.0  0.52947  0.62440  0.08182  1.0000
  C   C1383     1.0  0.54404  0.62848  0.09073  1.0000
  C   C1384     1.0  0.53960  0.63598  0.10794  1.0000
  C   C1385     1.0  0.52079  0.63885  0.11638  1.0000
  C   C1386     1.0  0.51798  0.69048  0.11747  1.0000
  H   H1627     1.0  0.55070  0.63896  0.11504  1.0000
  H   H1628     1.0  0.51751  0.64410  0.12997  1.0000
  C   C1387     1.0  0.50759  0.72277  0.12384  1.0000
  C   C1388     1.0  0.59918  0.67789  0.02834  1.0000
  C   C1389     1.0  0.58470  0.66865  0.03890  1.0000
  C   C1390     1.0  0.50625  0.77553  0.10953  1.0000
  H   H1629     1.0  0.58402  0.66538  0.05394  1.0000
  C   C1391     1.0  0.71557  0.59228  0.10894  1.0000
  C   C1392     1.0  0.71060  0.58052  0.09722  1.0000
  C   C1393     1.0  0.69309  0.58467  0.09029  1.0000
  C   C1394     1.0  0.68043  0.60070  0.09483  1.0000
  C   C1395     1.0  0.68557  0.61268  0.10621  1.0000
  C   C1396     1.0  0.70300  0.60841  0.11329  1.0000
  H   H1630     1.0  0.72023  0.56824  0.09354  1.0000
  H   H1631     1.0  0.68926  0.57533  0.08148  1.0000
  H   H1632     1.0  0.67601  0.62505  0.10981  1.0000
  H   H1633     1.0  0.70673  0.61762  0.12230  1.0000
  H   H1634     1.0  0.53933  0.77212  0.05146  1.0000
  N   N87       1.0  0.51147  0.62085  0.01213  1.0000
  C   C1397     1.0  0.53082  0.79024  0.08886  1.0000
  C   C1398     1.0  0.50248  0.83332  0.12034  1.0000
  H   H1635     1.0  0.60930  0.99708  0.26516  1.0000
  C   C1399     1.0  0.50711  0.95873  0.26118  1.0000
  H   H1636     1.0  0.64410  0.54742  0.12151  1.0000
  C   C1400     1.0  0.65568  0.55186  0.12684  1.0000
  H   H1637     1.0  0.58121  0.93792  0.26460  1.0000
  H   H1638     1.0  0.51888  0.83895  0.06557  1.0000
  C   C1401     1.0  0.69726  0.60699  0.01629  1.0000
  H   H1639     1.0  0.53275  0.83101  0.12179  1.0000
  C   C1402     1.0  0.54462  0.74170  0.05605  1.0000
  H   H1640     1.0  0.66251  0.62531  0.04831  1.0000
  H   H1641     1.0  0.57400  0.71379  0.02744  1.0000
  H   H1642     1.0  0.57740  0.93390  0.23166  1.0000
  H   H1643     1.0  0.50935  0.73604  0.12807  1.0000
  C   C1403     1.0  0.68739  0.61089  0.03382  1.0000
  C   C1404     1.0  0.57097  0.66319  0.03005  1.0000
  H   H1644     1.0  0.63880  0.77975  0.01140  1.0000
  H   H1645     1.0  0.52955  0.84128  0.25146  1.0000
  C   C1405     1.0  0.57005  0.74474  0.02199  1.0000
  H   H1646     1.0  0.54148  0.73843  0.11846  1.0000
  H   H1647     1.0  0.55229  0.71153  0.05670  1.0000
  H   H1648     1.0  0.53470  0.74063  0.06889  1.0000
  H   H1649     1.0  0.52087  0.80992  0.00182  1.0000
  C   C1406     1.0  0.54849  0.96735  0.31379  1.0000
  C   C1407     1.0  0.51433  0.83775  0.08069  1.0000
  H   H1650     1.0  0.71490  0.53614  0.10873  1.0000
  C   C1408     1.0  0.55575  0.70314  0.11111  1.0000
  C   C1409     1.0  0.55448  0.72541  0.04916  1.0000
  H   H1651     1.0  0.54473  0.67989  0.14205  1.0000
  N   N88       1.0  0.54144  0.70837  0.12712  1.0000
  C   C1410     1.0  0.54510  0.69481  0.14421  1.0000
  H   H1652     1.0  0.71307  0.50434  0.15484  1.0000
  C   C1411     1.0  0.51665  0.77351  0.12469  1.0000
  H   H1653     1.0  0.53450  0.69801  0.15656  1.0000
  H   H1654     1.0  0.64944  0.86424  0.31448  1.0000
  H   H1655     1.0  0.59090  0.58126  0.01831  1.0000
  S   S380      1.0  0.73691  0.58710  0.11906  1.0000
  N   N89       1.0  0.70464  0.53106  0.13836  1.0000
  C   C1412     1.0  0.51602  0.99018  0.25555  1.0000
  H   H1656     1.0  0.72441  0.55127  0.13427  1.0000
  H   H1657     1.0  0.56835  0.97593  0.22593  1.0000
  H   H1658     1.0  0.64213  0.58054  0.12787  1.0000
  S   S381      1.0  0.59814  0.99389  0.30610  1.0000
  C   C1413     1.0  0.50584  0.81356  0.00444  1.0000
  H   H1659     1.0  0.55872  0.72801  0.13349  1.0000
  H   H1660     1.0  0.49629  0.94947  0.26495  1.0000
  C   C1414     1.0  0.50621  0.63479  0.10747  1.0000
  N   N90       1.0  0.56029  0.95426  0.24852  1.0000
  C   C1415     1.0  0.65111  0.58310  0.02000  1.0000
  H   H1661     1.0  0.50514  0.90516  0.27208  1.0000
  C   C1416     1.0  0.54041  0.96275  0.25215  1.0000
  C   C1417     1.0  0.52591  0.95103  0.25733  1.0000
  H   H1662     1.0  0.55607  0.92642  0.24306  1.0000
  C   C1418     1.0  0.57306  0.96822  0.23933  1.0000
  C   C1419     1.0  0.60527  0.62457  0.00463  1.0000
  H   H1663     1.0  0.58769  0.96120  0.23575  1.0000
  N   N91       1.0  0.58318  0.74585  0.00412  1.0000
  C   C1420     1.0  0.63887  0.76545  0.01879  1.0000
  H   H1664     1.0  0.56710  0.95667  0.27601  1.0000
  H   H1665     1.0  0.52894  0.93577  0.25868  1.0000
  H   H1666     1.0  0.72576  0.51453  0.12090  1.0000
  N   N92       1.0  0.64989  0.78440  0.17172  1.0000
  C   C1421     1.0  0.66766  0.77168  0.16765  1.0000
  C   C1422     1.0  0.63465  0.77259  0.17892  1.0000
  C   C1423     1.0  0.64536  0.79545  0.15348  1.0000
  C   C1424     1.0  0.65187  0.79644  0.18610  1.0000
  C   C1425     1.0  0.65532  0.78805  0.20461  1.0000
  C   C1426     1.0  0.65037  0.81657  0.18238  1.0000
  C   C1427     1.0  0.65665  0.79912  0.21863  1.0000
  C   C1428     1.0  0.65193  0.82746  0.19646  1.0000
  C   C1429     1.0  0.65487  0.81879  0.21457  1.0000
  H   H1667     1.0  0.67137  0.76180  0.18034  1.0000
  H   H1668     1.0  0.66670  0.76266  0.15656  1.0000
  H   H1669     1.0  0.67955  0.77998  0.16250  1.0000
  H   H1670     1.0  0.63792  0.76210  0.19132  1.0000
  H   H1671     1.0  0.63201  0.76420  0.16798  1.0000
  H   H1672     1.0  0.62127  0.78154  0.18322  1.0000
  H   H1673     1.0  0.65660  0.80410  0.14673  1.0000
  H   H1674     1.0  0.64398  0.78600  0.14302  1.0000
  H   H1675     1.0  0.63183  0.80502  0.15538  1.0000
  H   H1676     1.0  0.65676  0.77285  0.20845  1.0000
  H   H1677     1.0  0.64744  0.82437  0.16888  1.0000
  H   H1678     1.0  0.65878  0.79248  0.23282  1.0000
  H   H1679     1.0  0.65015  0.84281  0.19350  1.0000
  H   H1680     1.0  0.65533  0.82739  0.22561  1.0000
  N   N93       1.0  0.62066  0.74140  0.06736  1.0000
  C   C1430     1.0  0.63007  0.75094  0.07945  1.0000
  C   C1431     1.0  0.60070  0.74998  0.06804  1.0000
  C   C1432     1.0  0.62098  0.72118  0.07574  1.0000
  C   C1433     1.0  0.63009  0.74402  0.04763  1.0000
  C   C1434     1.0  0.63920  0.72864  0.03789  1.0000
  C   C1435     1.0  0.63036  0.76253  0.03754  1.0000
  H   H1681     1.0  0.50699  0.80902  0.03460  1.0000
  H   H1682     1.0  0.69405  0.51934  0.16646  1.0000
  N   N94       1.0  0.60109  0.60774  0.01838  1.0000
  H   H1683     1.0  0.62861  0.76661  0.07551  1.0000
  H   H1684     1.0  0.62410  0.74844  0.09460  1.0000
  H   H1685     1.0  0.64533  0.74561  0.07859  1.0000
  H   H1686     1.0  0.59911  0.76569  0.06432  1.0000
  H   H1687     1.0  0.59288  0.74731  0.08249  1.0000
  H   H1688     1.0  0.59346  0.74411  0.05811  1.0000
  H   H1689     1.0  0.63558  0.71403  0.07666  1.0000
  H   H1690     1.0  0.61360  0.71971  0.09051  1.0000
  H   H1691     1.0  0.61392  0.71313  0.06745  1.0000
  H   H1692     1.0  0.63983  0.71404  0.04435  1.0000
  H   H1693     1.0  0.62404  0.77494  0.04415  1.0000
  H   H1694     1.0  0.50496  0.98789  0.30487  1.0000
  H   H1695     1.0  0.65454  0.71976  0.01198  1.0000
  H   H1696     1.0  0.54418  0.84884  0.19903  1.0000
  N   N95       1.0  0.54709  0.85350  0.22723  1.0000
  C   C1436     1.0  0.56255  0.85336  0.23855  1.0000
  C   C1437     1.0  0.53561  0.83857  0.23682  1.0000
  H   H1697     1.0  0.55301  0.71236  0.09772  1.0000
  C   C1438     1.0  0.53631  0.87273  0.22514  1.0000
  H   H1698     1.0  0.50577  0.82511  0.16830  1.0000
  C   C1439     1.0  0.54532  0.88851  0.21617  1.0000
  H   H1699     1.0  0.56009  0.88675  0.21078  1.0000
  H   H1700     1.0  0.52050  0.81369  0.14996  1.0000
  S   S382      1.0  0.60941  0.86638  0.32873  1.0000
  H   H1701     1.0  0.57317  0.86245  0.23122  1.0000
  H   H1702     1.0  0.55715  0.85858  0.25236  1.0000
  H   H1703     1.0  0.57033  0.83888  0.24150  1.0000
  H   H1704     1.0  0.57341  0.62208  0.02708  1.0000
  H   H1705     1.0  0.55903  0.95561  0.31021  1.0000
  C   C1440     1.0  0.50217  0.97828  0.26029  1.0000
  C   C1441     1.0  0.55974  0.76107  0.02942  1.0000
  C   C1442     1.0  0.54415  0.72751  0.13079  1.0000
  C   C1443     1.0  0.71226  0.52410  0.11998  1.0000
  H   H1706     1.0  0.52099  0.64548  0.01940  1.0000
  H   H1707     1.0  0.71065  0.59805  0.01635  1.0000
  H   H1708     1.0  0.56005  0.65578  0.03851  1.0000
  H   H1709     1.0  0.50834  0.59662  0.03362  1.0000
  H   H1710     1.0  0.63781  0.58347  0.06717  1.0000
  H   H1711     1.0  0.49952  0.62446  0.08310  1.0000
  C   C1444     1.0  0.64755  0.75008  0.00960  1.0000
  C   C1445     1.0  0.58607  0.61445  0.03322  1.0000
  C   C1446     1.0  0.66251  0.62979  0.01808  1.0000
  C   C1447     1.0  0.61846  0.59816  0.02586  1.0000
  H   H1712     1.0  0.56088  0.77529  0.02246  1.0000
  H   H1713     1.0  0.69678  0.56960  0.14452  1.0000
  C   C1448     1.0  0.71974  0.53933  0.14473  1.0000
  H   H1714     1.0  0.56306  0.83355  0.20929  1.0000
  C   C1449     1.0  0.51687  0.87647  0.23187  1.0000
  C   C1450     1.0  0.68561  0.56378  0.13997  1.0000
  C   C1451     1.0  0.63679  0.58571  0.05209  1.0000
  H   H1715     1.0  0.60737  0.74198  0.01860  1.0000
  H   H1716     1.0  0.69015  0.50656  0.14810  1.0000
  H   H1717     1.0  0.55764  0.93531  0.27471  1.0000
  H   H1718     1.0  0.72371  0.51500  0.01831  1.0000
  C   C1452     1.0  0.67009  0.62232  0.03469  1.0000
  H   H1719     1.0  0.69315  0.60511  0.04687  1.0000
  H   H1720     1.0  0.54409  0.82429  0.23819  1.0000
  H   H1721     1.0  0.66835  0.59094  0.13989  1.0000
  C   C1453     1.0  0.65479  0.93450  0.31856  1.0000
  H   H1722     1.0  0.66316  0.57864  0.01012  1.0000
  C   C1454     1.0  0.53490  0.98264  0.25169  1.0000
  C   C1455     1.0  0.64754  0.86609  0.32932  1.0000
  H   H1723     1.0  0.53605  0.79724  0.07516  1.0000
  H   H1724     1.0  0.50874  0.92414  0.21919  1.0000
  C   C1456     1.0  0.59352  0.59442  0.00861  1.0000
  C   C1457     1.0  0.52175  0.83321  0.11288  1.0000
  C   C1458     1.0  0.53547  0.90682  0.21399  1.0000
  H   H1725     1.0  0.55581  0.94459  0.22287  1.0000
  H   H1726     1.0  0.66535  0.57372  0.04458  1.0000
  C   C1459     1.0  0.56694  0.72685  0.03236  1.0000
  C   C1460     1.0  0.55528  0.84818  0.20828  1.0000
  C   C1461     1.0  0.66927  0.57633  0.13733  1.0000
  H   H1727     1.0  0.55400  0.87884  0.31257  1.0000
  C   C1462     1.0  0.57194  0.66630  0.01040  1.0000
  H   H1728     1.0  0.49855  0.59576  0.01232  1.0000
  C   C1463     1.0  0.67185  0.53908  0.12968  1.0000
  H   H1729     1.0  0.55620  0.68817  0.10873  1.0000
  C   C1464     1.0  0.67224  0.62598  0.00046  1.0000
  C   C1465     1.0  0.51061  0.62776  0.09001  1.0000
  C   C1466     1.0  0.68743  0.54470  0.13613  1.0000
  H   H1730     1.0  0.56558  0.85757  0.20078  1.0000
  C   C1467     1.0  0.50720  0.89484  0.22966  1.0000
  C   C1468     1.0  0.52238  0.70741  0.12265  1.0000
  H   H1731     1.0  0.61125  0.63483  0.01139  1.0000
  H   H1732     1.0  0.54488  0.99269  0.24845  1.0000
  C   C1469     1.0  0.50003  0.68914  0.11346  1.0000
  H   H1733     1.0  0.51106  0.76716  0.13857  1.0000
  C   C1470     1.0  0.52747  0.83553  0.09333  1.0000
  C   C1471     1.0  0.59977  0.68175  0.00862  1.0000
  C   C1472     1.0  0.63445  0.59191  0.01329  1.0000
  H   H1734     1.0  0.52392  0.83754  0.22881  1.0000
  C   C1473     1.0  0.51267  0.63386  0.02589  1.0000
  C   C1474     1.0  0.51125  0.82706  0.15294  1.0000
  H   H1735     1.0  0.51948  0.62631  0.03825  1.0000
  H   H1736     1.0  0.54260  0.91859  0.20692  1.0000
  H   H1737     1.0  0.50877  0.86553  0.23914  1.0000
  C   C1475     1.0  0.50932  0.89024  0.27643  1.0000
  C   C1476     1.0  0.53153  0.97027  0.30632  1.0000
  H   H1738     1.0  0.54226  0.83505  0.08794  1.0000
  H   H1739     1.0  0.51993  0.83884  0.15073  1.0000
  C   C1477     1.0  0.51807  0.98540  0.31092  1.0000
  C   C1478     1.0  0.50131  0.85828  0.28444  1.0000
  H   H1740     1.0  0.64366  0.94043  0.30946  1.0000
  H   H1741     1.0  0.57433  0.97869  0.24886  1.0000
  H   H1742     1.0  0.73238  0.52869  0.14645  1.0000
  H   H1743     1.0  0.53696  0.60207  0.01717  1.0000
  H   H1744     1.0  0.66502  0.94482  0.31716  1.0000
  H   H1745     1.0  0.63538  0.96697  0.32230  1.0000
  H   H1746     1.0  0.66225  0.92174  0.31225  1.0000
  C   C1479     1.0  0.60198  0.73586  0.00757  1.0000
  C   C1480     1.0  0.53067  0.61186  0.00561  1.0000
  C   C1481     1.0  0.49940  0.86892  0.32832  1.0000
  C   C1482     1.0  0.49807  0.81311  0.02347  1.0000
  H   H1747     1.0  0.70267  0.51579  0.11511  1.0000
  C   C1483     1.0  0.73797  0.51274  0.01024  1.0000
  H   H1748     1.0  0.49690  0.67600  0.10975  1.0000
  H   H1749     1.0  0.55973  0.84268  0.31587  1.0000
  H   H1750     1.0  0.67218  0.52482  0.12653  1.0000
  H   H1751     1.0  0.58013  0.60089  0.00325  1.0000
  C   C1484     1.0  0.55589  0.87775  0.32776  1.0000
  H   H1752     1.0  0.67716  0.86471  0.33072  1.0000
  H   H1753     1.0  0.60195  0.72048  0.01238  1.0000
  H   H1754     1.0  0.54061  0.62236  0.00075  1.0000
  H   H1755     1.0  0.74292  0.52688  0.00587  1.0000
  H   H1756     1.0  0.73941  0.51262  0.04688  1.0000
  H   H1757     1.0  0.64900  0.63864  0.01894  1.0000
  H   H1758     1.0  0.61095  0.68880  0.00026  1.0000
  C   C1485     1.0  0.52146  0.99759  0.32307  1.0000
  C   C1486     1.0  0.50087  0.60541  0.02225  1.0000
  S   S383      1.0  0.55609  0.65667  0.99978  1.0000
  H   H1759     1.0  0.57091  0.87888  0.32809  1.0000
  C   C1487     1.0  0.55211  0.97956  0.32580  1.0000
  S   S384      1.0  0.49813  0.79096  0.07430  1.0000
  H   H1760     1.0  0.62018  0.92506  0.33230  1.0000
  H   H1761     1.0  0.57803  0.84591  0.32886  1.0000
  C   C1488     1.0  0.56297  0.84391  0.33022  1.0000
  H   H1762     1.0  0.56571  0.97664  0.33070  1.0000
  H   H1763     1.0  0.52172  0.88535  0.32237  1.0000
  C   C1489     1.0  0.51776  0.87191  0.32929  1.0000
  C   C1490     1.0  0.58618  0.67586  0.99963  1.0000
  H   H1764     1.0  0.63784  0.90477  0.33185  1.0000
  C   C1491     1.0  0.53860  0.99507  0.33091  1.0000
  C   C1492     1.0  0.49616  0.87754  0.27862  1.0000
  N   N96       1.0  0.49582  0.83118  0.14093  1.0000
  C   C1493     1.0  0.69007  0.61455  0.99903  1.0000
  C   C1494     1.0  0.49537  0.83799  0.08752  1.0000
  C   C1495     1.0  0.64581  0.95834  0.60150  1.0000
  Fe  Fe193     1.0  0.69793  0.88951  0.57145  1.0000
  S   S385      1.0  0.72776  0.88617  0.57729  1.0000
  S   S386      1.0  0.69086  0.89817  0.54133  1.0000
  Fe  Fe194     1.0  0.68251  0.89039  0.61412  1.0000
  S   S387      1.0  0.71123  0.88721  0.62285  1.0000
  Fe  Fe195     1.0  0.71769  0.90792  0.59702  1.0000
  S   S388      1.0  0.73307  0.93297  0.59507  1.0000
  Fe  Fe196     1.0  0.71852  0.86576  0.60241  1.0000
  S   S389      1.0  0.73514  0.83791  0.61173  1.0000
  S   S390      1.0  0.68843  0.91290  0.58973  1.0000
  S   S391      1.0  0.68918  0.86723  0.59527  1.0000
  Fe  Fe197     1.0  0.68874  0.87689  0.43855  1.0000
  S   S392      1.0  0.69172  0.90763  0.43594  1.0000
  S   S393      1.0  0.69358  0.85894  0.46680  1.0000
  Fe  Fe198     1.0  0.68311  0.87982  0.39627  1.0000
  S   S394      1.0  0.68611  0.91075  0.39139  1.0000
  S   S395      1.0  0.68141  0.86816  0.36890  1.0000
  Fe  Fe199     1.0  0.70988  0.90315  0.40875  1.0000
  C   C1496     1.0  0.62372  0.95313  0.57379  1.0000
  Fe  Fe200     1.0  0.66758  0.91190  0.41900  1.0000
  S   S396      1.0  0.64439  0.93626  0.42073  1.0000
  S   S397      1.0  0.70854  0.87198  0.41188  1.0000
  S   S398      1.0  0.66301  0.88137  0.42328  1.0000
  H   H1765     1.0  0.64897  0.93873  0.63726  1.0000
  C   C1497     1.0  0.65733  0.94486  0.52871  1.0000
  H   H1766     1.0  0.67272  0.92800  0.35066  1.0000
  C   C1498     1.0  0.66416  0.96898  0.46105  1.0000
  C   C1499     1.0  0.65391  0.97880  0.44682  1.0000
  C   C1500     1.0  0.64620  0.96873  0.43533  1.0000
  C   C1501     1.0  0.64888  0.94891  0.43809  1.0000
  C   C1502     1.0  0.65771  0.93924  0.45334  1.0000
  C   C1503     1.0  0.66562  0.94923  0.46465  1.0000
  H   H1767     1.0  0.62834  0.94241  0.49585  1.0000
  H   H1768     1.0  0.63910  0.97629  0.42372  1.0000
  H   H1769     1.0  0.65891  0.92396  0.45607  1.0000
  H   H1770     1.0  0.67333  0.94155  0.47577  1.0000
  C   C1504     1.0  0.72440  0.94708  0.61305  1.0000
  C   C1505     1.0  0.71448  0.93968  0.63004  1.0000
  C   C1506     1.0  0.70764  0.95131  0.64424  1.0000
  H   H1771     1.0  0.56867  0.86105  0.35914  1.0000
  C   C1507     1.0  0.65418  0.89157  0.65923  1.0000
  C   C1508     1.0  0.72758  0.96602  0.61034  1.0000
  H   H1772     1.0  0.71216  0.92501  0.63230  1.0000
  H   H1773     1.0  0.73352  0.86091  0.44731  1.0000
  C   C1509     1.0  0.71034  0.97043  0.64122  1.0000
  H   H1774     1.0  0.73524  0.97180  0.59723  1.0000
  C   C1510     1.0  0.69098  0.88645  0.52129  1.0000
  C   C1511     1.0  0.69656  0.86695  0.52127  1.0000
  C   C1512     1.0  0.69726  0.85866  0.50453  1.0000
  C   C1513     1.0  0.69224  0.86972  0.48774  1.0000
  C   C1514     1.0  0.68630  0.88911  0.48799  1.0000
  C   C1515     1.0  0.68570  0.89739  0.50461  1.0000
  H   H1775     1.0  0.70040  0.85830  0.53408  1.0000
  H   H1776     1.0  0.70164  0.84360  0.50458  1.0000
  H   H1777     1.0  0.68190  0.89775  0.47546  1.0000
  H   H1778     1.0  0.68098  0.91239  0.50451  1.0000
  C   C1516     1.0  0.62817  0.97107  0.57475  1.0000
  C   C1517     1.0  0.66109  0.86857  0.35789  1.0000
  C   C1518     1.0  0.63025  0.92314  0.52158  1.0000
  C   C1519     1.0  0.62097  0.97824  0.36642  1.0000
  H   H1779     1.0  0.67317  0.96341  0.40127  1.0000
  C   C1520     1.0  0.62737  0.86980  0.35879  1.0000
  C   C1521     1.0  0.64303  0.87059  0.36791  1.0000
  H   H1780     1.0  0.50028  0.82415  0.35118  1.0000
  H   H1781     1.0  0.62252  0.95928  0.39240  1.0000
  H   H1782     1.0  0.70067  0.95882  0.51789  1.0000
  H   H1783     1.0  0.64121  0.87213  0.38282  1.0000
  H   H1784     1.0  0.69870  0.84387  0.63508  1.0000
  H   H1785     1.0  0.65745  0.91131  0.36279  1.0000
  S   S399      1.0  0.73701  0.91569  0.40062  1.0000
  H   H1786     1.0  0.54773  0.89032  0.33379  1.0000
  H   H1787     1.0  0.67711  0.98446  0.53129  1.0000
  C   C1522     1.0  0.66246  0.91870  0.34867  1.0000
  H   H1788     1.0  0.69981  0.94565  0.65730  1.0000
  H   H1789     1.0  0.66660  0.95324  0.56162  1.0000
  S   S400      1.0  0.67621  0.98112  0.47359  1.0000
  H   H1790     1.0  0.61453  0.99039  0.37346  1.0000
  C   C1523     1.0  0.74082  0.87353  0.51707  1.0000
  C   C1524     1.0  0.71081  0.97928  0.42665  1.0000
  N   N97       1.0  0.70783  0.97058  0.41010  1.0000
  H   H1791     1.0  0.70691  0.81302  0.65218  1.0000
  H   H1792     1.0  0.73070  0.90243  0.44075  1.0000
  S   S401      1.0  0.69952  0.98560  0.65766  1.0000
  H   H1793     1.0  0.71287  0.94249  0.42548  1.0000
  H   H1794     1.0  0.69460  0.93522  0.51971  1.0000
  H   H1795     1.0  0.73341  0.88184  0.52853  1.0000
  C   C1525     1.0  0.63322  0.96452  0.33759  1.0000
  C   C1526     1.0  0.72587  0.96763  0.39758  1.0000
  C   C1527     1.0  0.63230  0.91735  0.33927  1.0000
  H   H1796     1.0  0.68365  0.95713  0.59833  1.0000
  H   H1797     1.0  0.68274  0.86164  0.64622  1.0000
  C   C1528     1.0  0.67863  0.95096  0.55037  1.0000
  C   C1529     1.0  0.50519  0.83754  0.34525  1.0000
  H   H1798     1.0  0.62683  0.91196  0.35407  1.0000
  C   C1530     1.0  0.69379  0.98325  0.39952  1.0000
  C   C1531     1.0  0.66180  0.94446  0.62957  1.0000
  H   H1799     1.0  0.68563  0.95339  0.50252  1.0000
  C   C1532     1.0  0.67676  0.97751  0.39642  1.0000
  C   C1533     1.0  0.70216  0.95163  0.41742  1.0000
  C   C1534     1.0  0.72060  0.97765  0.62443  1.0000
  N   N98       1.0  0.68681  0.83495  0.66395  1.0000
  H   H1800     1.0  0.72358  0.83899  0.65076  1.0000
  H   H1801     1.0  0.63575  0.90576  0.54762  1.0000
  S   S402      1.0  0.65531  0.89413  0.63420  1.0000
  H   H1802     1.0  0.68549  0.93605  0.55287  1.0000
  H   H1803     1.0  0.54452  0.87075  0.36525  1.0000
  C   C1535     1.0  0.66650  0.97621  0.52804  1.0000
  C   C1536     1.0  0.63845  0.94655  0.34803  1.0000
  H   H1804     1.0  0.65236  0.99411  0.44423  1.0000
  C   C1537     1.0  0.53056  0.85752  0.33809  1.0000
  H   H1805     1.0  0.64217  0.98786  0.58846  1.0000
  C   C1538     1.0  0.68560  0.84624  0.64504  1.0000
  H   H1806     1.0  0.67032  0.90708  0.34083  1.0000
  H   H1807     1.0  0.67420  0.84275  0.63797  1.0000
  C   C1539     1.0  0.68910  0.95057  0.51726  1.0000
  C   C1540     1.0  0.67492  0.96811  0.60641  1.0000
  C   C1541     1.0  0.63025  0.93772  0.58634  1.0000
  C   C1542     1.0  0.66323  0.86638  0.33856  1.0000
  N   N99       1.0  0.67255  0.95544  0.53121  1.0000
  H   H1808     1.0  0.64568  0.92764  0.60926  1.0000
  C   C1543     1.0  0.64806  0.94952  0.51230  1.0000
  H   H1809     1.0  0.66978  0.94754  0.64053  1.0000
  C   C1544     1.0  0.62550  0.96075  0.37704  1.0000
  H   H1810     1.0  0.65301  0.98018  0.53695  1.0000
  H   H1811     1.0  0.52793  0.99210  0.36824  1.0000
  H   H1812     1.0  0.61351  0.87086  0.36680  1.0000
  C   C1545     1.0  0.63398  0.94509  0.36806  1.0000
  C   C1546     1.0  0.64656  0.97647  0.62715  1.0000
  H   H1813     1.0  0.56182  0.82997  0.33900  1.0000
  H   H1814     1.0  0.65411  0.97840  0.63895  1.0000
  C   C1547     1.0  0.63477  0.93880  0.50881  1.0000
  C   C1548     1.0  0.74302  0.84945  0.44142  1.0000
  C   C1549     1.0  0.62475  0.98009  0.34675  1.0000
  H   H1815     1.0  0.53230  0.82897  0.35368  1.0000
  H   H1816     1.0  0.67263  0.98134  0.59641  1.0000
  C   C1550     1.0  0.62953  0.86756  0.33947  1.0000
  N   N100      1.0  0.65707  0.96160  0.61595  1.0000
  H   H1817     1.0  0.72057  0.96975  0.43552  1.0000
  H   H1818     1.0  0.62680  0.92373  0.58560  1.0000
  H   H1819     1.0  0.73467  0.87985  0.50389  1.0000
  H   H1820     1.0  0.68883  0.95273  0.42728  1.0000
  H   H1821     1.0  0.62101  0.99367  0.33845  1.0000
  C   C1551     1.0  0.65217  0.92896  0.54157  1.0000
  H   H1822     1.0  0.64462  0.99062  0.61848  1.0000
  C   C1552     1.0  0.66337  0.99021  0.38732  1.0000
  C   C1553     1.0  0.63888  0.91827  0.53795  1.0000
  C   C1554     1.0  0.52353  0.84042  0.34645  1.0000
  H   H1823     1.0  0.62303  0.98311  0.56505  1.0000
  H   H1824     1.0  0.61522  0.95114  0.56328  1.0000
  H   H1825     1.0  0.63687  0.93182  0.37706  1.0000
  C   C1555     1.0  0.64117  0.94019  0.59999  1.0000
  H   H1826     1.0  0.63243  0.97280  0.63342  1.0000
  H   H1827     1.0  0.70048  0.94378  0.40572  1.0000
  H   H1828     1.0  0.68342  0.97141  0.61680  1.0000
  H   H1829     1.0  0.73713  0.85884  0.52019  1.0000
  H   H1830     1.0  0.62030  0.91456  0.51859  1.0000
  H   H1831     1.0  0.73192  0.98102  0.39257  1.0000
  H   H1832     1.0  0.68928  0.95988  0.55223  1.0000
  H   H1833     1.0  0.66461  0.98149  0.51306  1.0000
  N   N101      1.0  0.64694  0.92968  0.33871  1.0000
  H   H1834     1.0  0.65142  0.96115  0.50165  1.0000
  H   H1835     1.0  0.69731  0.98230  0.43594  1.0000
  H   H1836     1.0  0.72165  0.83124  0.44481  1.0000
  H   H1837     1.0  0.73659  0.95764  0.40492  1.0000
  C   C1556     1.0  0.63910  0.97367  0.58831  1.0000
  H   H1838     1.0  0.65871  0.92401  0.55422  1.0000
  H   H1839     1.0  0.67083  0.93299  0.62244  1.0000
  H   H1840     1.0  0.71672  0.99287  0.42253  1.0000
  H   H1841     1.0  0.68357  0.89239  0.65967  1.0000
  H   H1842     1.0  0.74290  0.80512  0.43096  1.0000
  N   N102      1.0  0.55041  0.85971  0.33852  1.0000
  H   H1843     1.0  0.72403  0.96128  0.38488  1.0000
  C   C1557     1.0  0.71911  0.84301  0.66473  1.0000
  H   H1844     1.0  0.68301  0.80900  0.65429  1.0000
  H   H1845     1.0  0.65024  0.98570  0.38574  1.0000
  C   C1558     1.0  0.55383  0.85925  0.35838  1.0000
  H   H1846     1.0  0.55129  0.84557  0.36714  1.0000
  H   H1847     1.0  0.72331  0.99218  0.62235  1.0000
  H   H1848     1.0  0.56264  0.98945  0.35865  1.0000
  C   C1559     1.0  0.69312  0.81484  0.66129  1.0000
  C   C1560     1.0  0.73629  0.83271  0.43998  1.0000
  H   H1849     1.0  0.62434  0.89062  0.66381  1.0000
  Fe  Fe201     1.0  0.60327  0.91468  0.76687  1.0000
  S   S403      1.0  0.59951  0.90295  0.74065  1.0000
  S   S404      1.0  0.60622  0.94576  0.76363  1.0000
  Fe  Fe202     1.0  0.61212  0.87573  0.78939  1.0000
  S   S405      1.0  0.60995  0.86104  0.76450  1.0000
  S   S406      1.0  0.62139  0.85663  0.81549  1.0000
  Fe  Fe203     1.0  0.62559  0.88305  0.74588  1.0000
  S   S407      1.0  0.65147  0.87817  0.72401  1.0000
  Fe  Fe204     1.0  0.58406  0.88207  0.76123  1.0000
  S   S408      1.0  0.55910  0.86924  0.75618  1.0000
  S   S409      1.0  0.63022  0.89584  0.77115  1.0000
  S   S410      1.0  0.58529  0.89564  0.78718  1.0000
  H   H1850     1.0  0.62413  0.99762  0.71932  1.0000
  S   S411      1.0  0.70808  0.58470  0.92390  1.0000
  C   C1561     1.0  0.59193  0.99309  0.78884  1.0000
  Fe  Fe205     1.0  0.59867  0.62309  0.94954  1.0000
  S   S412      1.0  0.59762  0.65231  0.95759  1.0000
  S   S413      1.0  0.62182  0.59979  0.95883  1.0000
  Fe  Fe206     1.0  0.55839  0.63153  0.93842  1.0000
  S   S414      1.0  0.55467  0.66085  0.94626  1.0000
  S   S415      1.0  0.53433  0.62623  0.92401  1.0000
  Fe  Fe207     1.0  0.58367  0.66264  0.93143  1.0000
  S   S416      1.0  0.58394  0.69042  0.91233  1.0000
  Fe  Fe208     1.0  0.56863  0.64830  0.97142  1.0000
  H   H1851     1.0  0.59579  0.76601  0.98241  1.0000
  S   S417      1.0  0.58703  0.63378  0.92184  1.0000
  S   S418      1.0  0.57000  0.61850  0.96527  1.0000
  Fe  Fe209     1.0  0.59410  0.82720  0.92452  1.0000
  S   S419      1.0  0.58942  0.80219  0.91151  1.0000
  S   S420      1.0  0.60341  0.85302  0.90515  1.0000
  Fe  Fe210     1.0  0.57366  0.81272  0.96406  1.0000
  S   S421      1.0  0.56630  0.78772  0.95277  1.0000
  Fe  Fe211     1.0  0.59610  0.78507  0.93906  1.0000
  S   S422      1.0  0.61226  0.75613  0.94529  1.0000
  Fe  Fe212     1.0  0.56035  0.80748  0.92669  1.0000
  S   S423      1.0  0.53588  0.81322  0.91023  1.0000
  S   S424      1.0  0.60384  0.80955  0.95104  1.0000
  S   S425      1.0  0.56466  0.83286  0.93906  1.0000
  N   N103      1.0  0.52521  0.69383  0.90055  1.0000
  H   H1852     1.0  0.51753  0.71247  0.92193  1.0000
  H   H1853     1.0  0.55349  0.67921  0.89535  1.0000
  H   H1854     1.0  0.61890  0.91442  0.88935  1.0000
  C   C1562     1.0  0.52549  0.79381  0.90701  1.0000
  C   C1563     1.0  0.51244  0.64464  0.98254  1.0000
  C   C1564     1.0  0.51288  0.61860  0.93516  1.0000
  C   C1565     1.0  0.51111  0.60846  0.95334  1.0000
  H   H1855     1.0  0.66209  0.85109  0.67705  1.0000
  H   H1856     1.0  0.65444  0.92801  0.81496  1.0000
  H   H1857     1.0  0.52374  0.68804  0.93089  1.0000
  H   H1858     1.0  0.50457  0.83965  0.94430  1.0000
  H   H1859     1.0  0.52315  0.60503  0.96095  1.0000
  C   C1566     1.0  0.57618  0.73670  0.98991  1.0000
  C   C1567     1.0  0.50259  0.63189  0.99595  1.0000
  C   C1568     1.0  0.59115  0.70862  0.92220  1.0000
  C   C1569     1.0  0.60319  0.70438  0.93613  1.0000
  C   C1570     1.0  0.60959  0.71906  0.94315  1.0000
  C   C1571     1.0  0.60371  0.73803  0.93655  1.0000
  C   C1572     1.0  0.59118  0.74232  0.92308  1.0000
  C   C1573     1.0  0.58510  0.72761  0.91574  1.0000
  H   H1860     1.0  0.60811  0.68979  0.94099  1.0000
  H   H1861     1.0  0.61931  0.71569  0.95354  1.0000
  H   H1862     1.0  0.58656  0.75694  0.91797  1.0000
  H   H1863     1.0  0.57579  0.73096  0.90498  1.0000
  C   C1574     1.0  0.68406  0.58837  0.93365  1.0000
  C   C1575     1.0  0.67227  0.60392  0.92567  1.0000
  C   C1576     1.0  0.65321  0.60766  0.93318  1.0000
  C   C1577     1.0  0.64571  0.59582  0.94875  1.0000
  C   C1578     1.0  0.65753  0.58033  0.95681  1.0000
  C   C1579     1.0  0.67657  0.57657  0.94928  1.0000
  H   H1864     1.0  0.67789  0.61312  0.91355  1.0000
  H   H1865     1.0  0.64431  0.61960  0.92680  1.0000
  H   H1866     1.0  0.65184  0.57100  0.96878  1.0000
  H   H1867     1.0  0.68540  0.56443  0.95541  1.0000
  C   C1580     1.0  0.61453  0.85557  0.84029  1.0000
  C   C1581     1.0  0.60180  0.86959  0.84859  1.0000
  C   C1582     1.0  0.59798  0.86849  0.86853  1.0000
  C   C1583     1.0  0.60623  0.85301  0.88026  1.0000
  C   C1584     1.0  0.61828  0.83864  0.87188  1.0000
  C   C1585     1.0  0.62266  0.84012  0.85206  1.0000
  H   H1868     1.0  0.59538  0.88153  0.83974  1.0000
  H   H1869     1.0  0.58886  0.87981  0.87491  1.0000
  H   H1870     1.0  0.62498  0.82684  0.88073  1.0000
  H   H1871     1.0  0.63259  0.82924  0.84581  1.0000
  C   C1586     1.0  0.65174  0.88490  0.69925  1.0000
  C   C1587     1.0  0.66893  0.88744  0.68799  1.0000
  H   H1872     1.0  0.49922  0.80534  0.94521  1.0000
  H   H1873     1.0  0.68968  0.58409  0.98222  1.0000
  H   H1874     1.0  0.68973  0.63537  0.96324  1.0000
  C   C1588     1.0  0.63560  0.88653  0.69044  1.0000
  H   H1875     1.0  0.68141  0.88659  0.69469  1.0000
  H   H1876     1.0  0.52902  0.70641  0.87138  1.0000
  C   C1589     1.0  0.52181  0.97131  0.76484  1.0000
  H   H1877     1.0  0.62226  0.88466  0.69893  1.0000
  C   C1590     1.0  0.53684  0.88282  0.75743  1.0000
  C   C1591     1.0  0.53381  0.90074  0.76347  1.0000
  H   H1878     1.0  0.54541  0.90666  0.76708  1.0000
  C   C1592     1.0  0.52099  0.76065  0.91411  1.0000
  H   H1879     1.0  0.52782  0.81308  0.95072  1.0000
  C   C1593     1.0  0.60036  0.97981  0.77673  1.0000
  C   C1594     1.0  0.59492  0.96167  0.77925  1.0000
  C   C1595     1.0  0.58100  0.95675  0.79404  1.0000
  H   H1880     1.0  0.61117  0.98365  0.76536  1.0000
  H   H1881     1.0  0.57660  0.94282  0.79593  1.0000
  H   H1882     1.0  0.58673  0.67873  0.98441  1.0000
  C   C1596     1.0  0.63684  0.88985  0.67051  1.0000
  H   H1883     1.0  0.52296  0.72332  0.88837  1.0000
  C   C1597     1.0  0.50418  0.65522  0.96729  1.0000
  N   N104      1.0  0.56911  0.81632  0.85447  1.0000
  C   C1598     1.0  0.55914  0.80122  0.86622  1.0000
  C   C1599     1.0  0.58932  0.80870  0.85163  1.0000
  C   C1600     1.0  0.56660  0.83260  0.86547  1.0000
  C   C1601     1.0  0.56236  0.82267  0.83583  1.0000
  C   C1602     1.0  0.54766  0.81497  0.82984  1.0000
  C   C1603     1.0  0.57074  0.83686  0.82288  1.0000
  C   C1604     1.0  0.54215  0.82087  0.81183  1.0000
  C   C1605     1.0  0.56510  0.84264  0.80495  1.0000
  C   C1606     1.0  0.55092  0.83459  0.79940  1.0000
  H   H1884     1.0  0.54391  0.80620  0.86953  1.0000
  H   H1885     1.0  0.56094  0.78818  0.85921  1.0000
  H   H1886     1.0  0.56449  0.79690  0.88017  1.0000
  H   H1887     1.0  0.59178  0.79631  0.84357  1.0000
  H   H1888     1.0  0.59501  0.80413  0.86538  1.0000
  H   H1889     1.0  0.59803  0.81933  0.84358  1.0000
  H   H1890     1.0  0.55158  0.83878  0.86787  1.0000
  H   H1891     1.0  0.57136  0.82837  0.87970  1.0000
  H   H1892     1.0  0.57474  0.84407  0.85832  1.0000
  H   H1893     1.0  0.54035  0.80423  0.83869  1.0000
  H   H1894     1.0  0.58199  0.84343  0.82636  1.0000
  H   H1895     1.0  0.53123  0.81454  0.80735  1.0000
  H   H1896     1.0  0.57197  0.85322  0.79514  1.0000
  H   H1897     1.0  0.54690  0.83892  0.78531  1.0000
  Fe  Fe213     1.0  0.73185  0.56381  0.93551  1.0000
  C   C1607     1.0  0.49852  0.83866  0.95955  1.0000
  H   H1898     1.0  0.56164  0.96644  0.81756  1.0000
  H   H1899     1.0  0.49869  0.62975  0.91087  1.0000
  H   H1900     1.0  0.51222  0.66432  0.95690  1.0000
  H   H1901     1.0  0.57554  0.72132  0.99446  1.0000
  H   H1902     1.0  0.52405  0.86139  0.74801  1.0000
  H   H1903     1.0  0.54230  0.77290  0.92432  1.0000
  C   C1608     1.0  0.51098  0.79708  0.89576  1.0000
  C   C1609     1.0  0.52715  0.69929  0.91911  1.0000
  H   H1904     1.0  0.64759  0.86861  0.86015  1.0000
  H   H1905     1.0  0.61436  0.93408  0.85953  1.0000
  C   C1610     1.0  0.52173  0.87521  0.75281  1.0000
  C   C1611     1.0  0.51569  0.91094  0.76497  1.0000
  C   C1612     1.0  0.58569  0.76558  0.99569  1.0000
  C   C1613     1.0  0.52255  0.81287  0.96607  1.0000
  C   C1614     1.0  0.66755  0.83624  0.67450  1.0000
  H   H1906     1.0  0.71079  0.58599  0.96598  1.0000
  H   H1907     1.0  0.57230  0.77380  0.99179  1.0000
  C   C1615     1.0  0.70953  0.85323  0.70114  1.0000
  H   H1908     1.0  0.64293  0.88722  0.82976  1.0000
  H   H1909     1.0  0.52447  0.74673  0.92172  1.0000
  H   H1910     1.0  0.53055  0.82246  0.97151  1.0000
  H   H1911     1.0  0.52665  0.64648  0.98361  1.0000
  C   C1616     1.0  0.57256  0.97009  0.80625  1.0000
  H   H1912     1.0  0.60393  0.94627  0.83180  1.0000
  H   H1913     1.0  0.54177  0.70189  0.91972  1.0000
  C   C1617     1.0  0.62894  0.91299  0.84129  1.0000
  H   H1914     1.0  0.67792  0.61478  0.96393  1.0000
  H   H1915     1.0  0.68243  0.84645  0.70050  1.0000
  H   H1916     1.0  0.60330  0.59010  0.99611  1.0000
  C   C1618     1.0  0.67105  0.99876  0.71061  1.0000
  C   C1619     1.0  0.73236  0.84942  0.67356  1.0000
  C   C1620     1.0  0.64529  0.94046  0.72496  1.0000
  H   H1917     1.0  0.68086  0.96758  0.69015  1.0000
  H   H1918     1.0  0.63069  0.96682  0.73156  1.0000
  C   C1621     1.0  0.49895  0.67400  0.91186  1.0000
  N   N105      1.0  0.62546  0.92393  0.82274  1.0000
  C   C1622     1.0  0.50057  0.90331  0.76038  1.0000
  C   C1623     1.0  0.54672  0.98876  0.76850  1.0000
  H   H1919     1.0  0.50798  0.66374  0.92013  1.0000
  H   H1920     1.0  0.63529  0.88169  0.89005  1.0000
  H   H1921     1.0  0.65416  0.75240  0.99505  1.0000
  C   C1624     1.0  0.50574  0.76429  0.90369  1.0000
  H   H1922     1.0  0.66058  0.99419  0.67763  1.0000
  H   H1923     1.0  0.53760  0.66498  0.90927  1.0000
  S   S426      1.0  0.56086  0.81439  0.99483  1.0000
  C   C1625     1.0  0.53093  0.77549  0.91577  1.0000
  H   H1924     1.0  0.53626  0.67072  0.88438  1.0000
  C   C1626     1.0  0.53860  0.67649  0.89722  1.0000
  C   C1627     1.0  0.67075  0.96051  0.70012  1.0000
  C   C1628     1.0  0.50364  0.88546  0.75418  1.0000
  S   S427      1.0  0.72944  0.54694  0.96431  1.0000
  C   C1629     1.0  0.53094  0.70929  0.88568  1.0000
  H   H1925     1.0  0.68278  0.99526  0.69933  1.0000
  C   C1630     1.0  0.70052  0.84178  0.67373  1.0000
  H   H1926     1.0  0.56149  0.99031  0.76659  1.0000
  C   C1631     1.0  0.50121  0.78231  0.89400  1.0000
  C   C1632     1.0  0.50483  0.86659  0.80518  1.0000
  N   N106      1.0  0.65342  0.99197  0.70804  1.0000
  C   C1633     1.0  0.67018  0.89075  0.66809  1.0000
  C   C1634     1.0  0.61829  0.94429  0.82382  1.0000
  H   H1927     1.0  0.59782  0.91607  0.82465  1.0000
  H   H1928     1.0  0.61703  0.95241  0.80953  1.0000
  H   H1929     1.0  0.51831  0.95907  0.75978  1.0000
  C   C1635     1.0  0.50801  0.98462  0.77368  1.0000
  C   C1636     1.0  0.62206  0.92010  0.85880  1.0000
  C   C1637     1.0  0.62459  0.90895  0.87613  1.0000
  H   H1930     1.0  0.62784  0.95123  0.83047  1.0000
  H   H1931     1.0  0.63535  0.93255  0.73448  1.0000
  H   H1932     1.0  0.50784  0.87781  0.79318  1.0000
  H   H1933     1.0  0.68477  0.93305  0.69396  1.0000
  H   H1934     1.0  0.70573  0.85736  0.71526  1.0000
  H   H1935     1.0  0.66703  0.82704  0.68839  1.0000
  H   H1936     1.0  0.49594  0.71608  0.88249  1.0000
  C   C1638     1.0  0.61136  0.91546  0.81508  1.0000
  H   H1937     1.0  0.60851  0.92298  0.80094  1.0000
  C   C1639     1.0  0.69172  0.61966  0.96394  1.0000
  C   C1640     1.0  0.63396  0.89054  0.87659  1.0000
  H   H1938     1.0  0.61609  0.90028  0.81333  1.0000
  C   C1641     1.0  0.67310  0.94070  0.70213  1.0000
  H   H1939     1.0  0.64794  0.90871  0.80517  1.0000
  C   C1642     1.0  0.64296  0.92317  0.80908  1.0000
  C   C1643     1.0  0.63830  0.89411  0.84233  1.0000
  C   C1644     1.0  0.64091  0.88319  0.85972  1.0000
  H   H1940     1.0  0.64085  0.93226  0.79539  1.0000
  C   C1645     1.0  0.54086  0.97344  0.76234  1.0000
  H   H1941     1.0  0.61232  0.73696  0.99446  1.0000
  H   H1942     1.0  0.56190  0.74354  0.98717  1.0000
  H   H1943     1.0  0.51340  0.92467  0.76988  1.0000
  H   H1944     1.0  0.55124  0.96308  0.75572  1.0000
  H   H1945     1.0  0.52624  0.79812  0.97291  1.0000
  H   H1946     1.0  0.66230  0.91537  0.71627  1.0000
  C   C1646     1.0  0.70342  0.58959  0.97997  1.0000
  C   C1647     1.0  0.50563  0.69025  0.90076  1.0000
  H   H1947     1.0  0.66550  0.63219  0.98819  1.0000
  H   H1948     1.0  0.73648  0.50720  0.99701  1.0000
  H   H1949     1.0  0.71848  0.63198  0.97979  1.0000
  N   N107      1.0  0.70089  0.61030  0.98066  1.0000
  H   H1950     1.0  0.65740  0.83169  0.66654  1.0000
  C   C1648     1.0  0.71968  0.61659  0.97861  1.0000
  H   H1951     1.0  0.64042  0.99554  0.73651  1.0000
  H   H1952     1.0  0.70030  0.61623  0.95037  1.0000
  C   C1649     1.0  0.57794  0.98833  0.80354  1.0000
  H   H1953     1.0  0.73782  0.85964  0.69850  1.0000
  N   N108      1.0  0.50205  0.81904  0.96928  1.0000
  H   H1954     1.0  0.54600  0.71093  0.88530  1.0000
  C   C1650     1.0  0.65565  0.97096  0.71066  1.0000
  H   H1955     1.0  0.51324  0.86815  0.81642  1.0000
  C   C1651     1.0  0.66043  0.93071  0.71462  1.0000
  H   H1956     1.0  0.50493  0.84865  0.96626  1.0000
  C   C1652     1.0  0.64281  0.96029  0.72309  1.0000
  C   C1653     1.0  0.72755  0.85458  0.69172  1.0000
  H   H1957     1.0  0.72799  0.61400  0.96469  1.0000
  C   C1654     1.0  0.69617  0.84686  0.69240  1.0000
  H   H1958     1.0  0.58546  0.73777  0.97609  1.0000
  H   H1959     1.0  0.50685  0.81123  0.88891  1.0000
  H   H1960     1.0  0.69472  0.80591  0.67513  1.0000
  H   H1961     1.0  0.67563  0.99252  0.72454  1.0000
  H   H1962     1.0  0.61524  0.62084  0.99206  1.0000
  H   H1963     1.0  0.51032  0.85290  0.79973  1.0000
  C   C1655     1.0  0.49728  0.62247  0.92518  1.0000
  H   H1964     1.0  0.53053  0.60361  0.99373  1.0000
  H   H1965     1.0  0.63601  0.99435  0.68591  1.0000
  H   H1966     1.0  0.72837  0.60880  0.98949  1.0000
  H   H1967     1.0  0.60081  0.81305  0.99706  1.0000
  H   H1968     1.0  0.73014  0.49995  0.92686  1.0000
  H   H1969     1.0  0.71200  0.58154  0.99081  1.0000
  H   H1970     1.0  0.63415  0.59376  0.99813  1.0000
  H   H1971     1.0  0.59243  0.63218  0.99891  1.0000
  C   C1656     1.0  0.64911  0.99913  0.68857  1.0000
  H   H1972     1.0  0.87787  0.45344  0.30103  1.0000
  S   S428      1.0  0.76886  0.34558  0.11913  1.0000
  H   H1973     1.0  0.76058  0.49228  0.10101  1.0000
  S   S429      1.0  0.78330  0.38593  0.09967  1.0000
  H   H1974     1.0  0.92312  0.49693  0.13173  1.0000
  Fe  Fe214     1.0  0.77160  0.36230  0.09019  1.0000
  S   S430      1.0  0.78083  0.34820  0.06380  1.0000
  Fe  Fe215     1.0  0.77779  0.37066  0.12911  1.0000
  S   S431      1.0  0.79575  0.37178  0.15229  1.0000
  H   H1975     1.0  0.91772  0.49111  0.16556  1.0000
  H   H1976     1.0  0.75985  0.35869  0.00088  1.0000
  S   S432      1.0  0.90561  0.38928  0.30583  1.0000
  Fe  Fe216     1.0  0.90095  0.37282  0.16807  1.0000
  S   S433      1.0  0.88816  0.37908  0.19720  1.0000
  S   S434      1.0  0.88488  0.36171  0.14816  1.0000
  Fe  Fe217     1.0  0.93883  0.38578  0.17178  1.0000
  S   S435      1.0  0.92848  0.39307  0.20101  1.0000
  S   S436      1.0  0.96698  0.39451  0.15786  1.0000
  Fe  Fe218     1.0  0.91612  0.36596  0.20596  1.0000
  S   S437      1.0  0.92008  0.34650  0.23301  1.0000
  Fe  Fe219     1.0  0.90179  0.40546  0.18939  1.0000
  S   S438      1.0  0.88815  0.43399  0.19620  1.0000
  S   S439      1.0  0.92828  0.35740  0.17734  1.0000
  S   S440      1.0  0.91274  0.40040  0.15965  1.0000
  C   C1657     1.0  0.90993  0.37707  0.28582  1.0000
  C   C1658     1.0  0.91921  0.35851  0.28654  1.0000
  C   C1659     1.0  0.92222  0.34915  0.27030  1.0000
  C   C1660     1.0  0.91627  0.35841  0.25322  1.0000
  C   C1661     1.0  0.90722  0.37706  0.25248  1.0000
  C   C1662     1.0  0.90394  0.38629  0.26876  1.0000
  H   H1977     1.0  0.92382  0.35127  0.29965  1.0000
  H   H1978     1.0  0.92921  0.33472  0.27095  1.0000
  H   H1979     1.0  0.90247  0.38428  0.23942  1.0000
  H   H1980     1.0  0.89675  0.40064  0.26811  1.0000
  C   C1663     1.0  0.93713  0.46582  0.19745  1.0000
  C   C1664     1.0  0.92010  0.47029  0.20877  1.0000
  C   C1665     1.0  0.90498  0.46044  0.20854  1.0000
  C   C1666     1.0  0.90698  0.44609  0.19703  1.0000
  C   C1667     1.0  0.92414  0.44142  0.18596  1.0000
  C   C1668     1.0  0.93921  0.45130  0.18616  1.0000
  H   H1981     1.0  0.94092  0.46603  0.24079  1.0000
  H   H1982     1.0  0.89180  0.46390  0.21729  1.0000
  H   H1983     1.0  0.92573  0.43045  0.17688  1.0000
  H   H1984     1.0  0.95232  0.44787  0.17730  1.0000
  H   H1985     1.0  0.84184  0.37731  0.24383  1.0000
  C   C1669     1.0  0.82056  0.36967  0.15031  1.0000
  C   C1670     1.0  0.82880  0.37475  0.16497  1.0000
  C   C1671     1.0  0.84845  0.37286  0.16426  1.0000
  C   C1672     1.0  0.86009  0.36560  0.14899  1.0000
  C   C1673     1.0  0.85186  0.36067  0.13426  1.0000
  C   C1674     1.0  0.83219  0.36285  0.13481  1.0000
  H   H1986     1.0  0.81993  0.38016  0.17695  1.0000
  H   H1987     1.0  0.85457  0.37691  0.17558  1.0000
  H   H1988     1.0  0.86074  0.35501  0.12240  1.0000
  H   H1989     1.0  0.82605  0.35885  0.12346  1.0000
  C   C1675     1.0  0.91463  0.45514  0.29213  1.0000
  C   C1676     1.0  0.86516  0.48178  0.16257  1.0000
  C   C1677     1.0  0.75580  0.38444  0.01369  1.0000
  H   H1990     1.0  0.97583  0.41712  0.18686  1.0000
  N   N109      1.0  0.98354  0.41528  0.21506  1.0000
  H   H1991     1.0  0.75008  0.31304  0.01483  1.0000
  C   C1678     1.0  0.77119  0.36206  0.04450  1.0000
  C   C1679     1.0  0.76533  0.38139  0.04506  1.0000
  C   C1680     1.0  0.75782  0.39255  0.02964  1.0000
  C   C1681     1.0  0.91641  0.43593  0.32269  1.0000
  C   C1682     1.0  0.76150  0.36505  0.01310  1.0000
  C   C1683     1.0  0.76945  0.35391  0.02842  1.0000
  H   H1992     1.0  0.76698  0.38788  0.05722  1.0000
  H   H1993     1.0  0.77416  0.33898  0.02789  1.0000
  C   C1684     1.0  0.82429  0.34363  0.01516  1.0000
  N   N110      1.0  0.80695  0.43036  0.13527  1.0000
  C   C1685     1.0  0.79211  0.42462  0.15066  1.0000
  C   C1686     1.0  0.80191  0.45057  0.12782  1.0000
  C   C1687     1.0  0.80703  0.41893  0.11967  1.0000
  C   C1688     1.0  0.82516  0.42789  0.14281  1.0000
  C   C1689     1.0  0.84134  0.41624  0.13529  1.0000
  C   C1690     1.0  0.82707  0.43734  0.15825  1.0000
  C   C1691     1.0  0.85826  0.41423  0.14288  1.0000
  C   C1692     1.0  0.84397  0.43492  0.16594  1.0000
  C   C1693     1.0  0.85952  0.42341  0.15825  1.0000
  H   H1994     1.0  0.79631  0.41010  0.15784  1.0000
  H   H1995     1.0  0.78891  0.43437  0.16164  1.0000
  H   H1996     1.0  0.77864  0.42435  0.14520  1.0000
  H   H1997     1.0  0.79908  0.45999  0.13914  1.0000
  H   H1998     1.0  0.78897  0.45275  0.12083  1.0000
  H   H1999     1.0  0.81331  0.45579  0.11712  1.0000
  H   H2000     1.0  0.79308  0.42101  0.11444  1.0000
  H   H2001     1.0  0.81733  0.42296  0.10722  1.0000
  H   H2002     1.0  0.81016  0.40347  0.12448  1.0000
  H   H2003     1.0  0.84125  0.40815  0.12383  1.0000
  H   H2004     1.0  0.81539  0.44650  0.16461  1.0000
  H   H2005     1.0  0.87034  0.40495  0.13718  1.0000
  H   H2006     1.0  0.75368  0.40758  0.03005  1.0000
  C   C1694     1.0  0.80951  0.37550  0.01847  1.0000
  C   C1695     1.0  0.95685  0.39112  0.25985  1.0000
  H   H2007     1.0  0.80408  0.38648  0.02743  1.0000
  H   H2008     1.0  0.85016  0.31554  0.19161  1.0000
  H   H2009     1.0  0.84508  0.44180  0.17806  1.0000
  H   H2010     1.0  0.92014  0.46476  0.14646  1.0000
  H   H2011     1.0  0.91859  0.48116  0.21794  1.0000
  C   C1696     1.0  0.98067  0.40655  0.26888  1.0000
  C   C1697     1.0  0.98867  0.38443  0.16580  1.0000
  C   C1698     1.0  0.74923  0.45802  0.13709  1.0000
  Fe  Fe220     1.0  0.75324  0.39883  0.10486  1.0000
  H   H2012     1.0  0.96982  0.44346  0.21839  1.0000
  C   C1699     1.0  0.98364  0.43612  0.21262  1.0000
  H   H2013     1.0  0.82695  0.37137  0.21690  1.0000
  H   H2014     1.0  0.87200  0.30831  0.17783  1.0000
  H   H2015     1.0  0.74691  0.45551  0.15241  1.0000
  C   C1700     1.0  0.88701  0.44307  0.30988  1.0000
  H   H2016     1.0  0.87121  0.35744  0.25186  1.0000
  H   H2017     1.0  0.91316  0.48598  0.29183  1.0000
  H   H2018     1.0  0.89848  0.45840  0.15895  1.0000
  H   H2019     1.0  0.98767  0.41017  0.27988  1.0000
  C   C1701     1.0  0.96243  0.39720  0.24076  1.0000
  C   C1702     1.0  0.98651  0.41257  0.24980  1.0000
  H   H2020     1.0  0.88570  0.33210  0.23349  1.0000
  H   H2021     1.0  0.90558  0.49523  0.11738  1.0000
  C   C1703     1.0  0.96581  0.39589  0.27390  1.0000
  H   H2022     1.0  0.93529  0.43316  0.25351  1.0000
  H   H2023     1.0  0.98636  0.44207  0.19741  1.0000
  C   C1704     1.0  0.93368  0.46300  0.25497  1.0000
  S   S441      1.0  0.95553  0.47898  0.19658  1.0000
  H   H2024     1.0  0.87097  0.47248  0.17414  1.0000
  C   C1705     1.0  0.75487  0.46450  0.09758  1.0000
  C   C1706     1.0  0.89937  0.46717  0.32209  1.0000
  H   H2025     1.0  0.91919  0.42224  0.31680  1.0000
  H   H2026     1.0  0.98000  0.49210  0.16042  1.0000
  C   C1707     1.0  0.97735  0.40837  0.23513  1.0000
  C   C1708     1.0  0.91783  0.47389  0.28423  1.0000
  H   H2027     1.0  0.97779  0.36188  0.18546  1.0000
  H   H2028     1.0  0.97133  0.39594  0.20181  1.0000
  C   C1709     1.0  0.90465  0.46768  0.14657  1.0000
  H   H2029     1.0  0.88979  0.42964  0.30341  1.0000
  C   C1710     1.0  0.75026  0.44688  0.10671  1.0000
  C   C1711     1.0  0.93061  0.44451  0.26219  1.0000
  C   C1712     1.0  0.99008  0.36866  0.17971  1.0000
  C   C1713     1.0  0.97123  0.41140  0.20181  1.0000
  H   H2030     1.0  0.96124  0.39120  0.28868  1.0000
  C   C1714     1.0  0.92119  0.44058  0.28045  1.0000
  H   H2031     1.0  0.84079  0.34644  0.19802  1.0000
  H   H2032     1.0  0.93018  0.44056  0.32345  1.0000
  N   N111      1.0  0.87456  0.32175  0.20211  1.0000
  C   C1715     1.0  0.89338  0.32657  0.19363  1.0000
  C   C1716     1.0  0.87684  0.30319  0.21422  1.0000
  C   C1717     1.0  0.86438  0.31951  0.18632  1.0000
  C   C1718     1.0  0.86493  0.33661  0.21372  1.0000
  C   C1719     1.0  0.87279  0.34020  0.22952  1.0000
  C   C1720     1.0  0.84793  0.34810  0.20966  1.0000
  C   C1721     1.0  0.86453  0.35470  0.24021  1.0000
  C   C1722     1.0  0.83973  0.36256  0.22048  1.0000
  C   C1723     1.0  0.84807  0.36592  0.23565  1.0000
  H   H2033     1.0  0.90247  0.32759  0.20448  1.0000
  H   H2034     1.0  0.90111  0.31589  0.18458  1.0000
  H   H2035     1.0  0.89215  0.34046  0.18446  1.0000
  H   H2036     1.0  0.88626  0.30301  0.22509  1.0000
  H   H2037     1.0  0.88319  0.29150  0.20577  1.0000
  H   H2038     1.0  0.86307  0.29962  0.22178  1.0000
  H   H2039     1.0  0.86300  0.33276  0.17614  1.0000
  H   H2040     1.0  0.87251  0.42142  0.16438  1.0000
  C   C1724     1.0  0.98922  0.47887  0.15995  1.0000
  C   C1725     1.0  0.92716  0.47767  0.26589  1.0000
  H   H2041     1.0  0.91890  0.42604  0.28530  1.0000
  H   H2042     1.0  0.92914  0.49214  0.26005  1.0000
  H   H2043     1.0  0.90116  0.46290  0.13366  1.0000
  H   H2044     1.0  0.88966  0.47851  0.31494  1.0000
  H   H2045     1.0  0.87884  0.43973  0.32406  1.0000
  H   H2046     1.0  0.91201  0.47322  0.32421  1.0000
  H   H2047     1.0  0.83055  0.32999  0.02156  1.0000
  C   C1726     1.0  0.75384  0.47563  0.12795  1.0000
  S   S442      1.0  0.75596  0.49333  0.14155  1.0000
  H   H2048     1.0  0.94546  0.38260  0.26376  1.0000
  C   C1727     1.0  0.98323  0.46507  0.15134  1.0000
  H   H2049     1.0  0.96999  0.46801  0.14560  1.0000
  H   H2050     1.0  0.95651  0.41799  0.20540  1.0000
  N   N112      1.0  0.90454  0.45059  0.31137  1.0000
  C   C1728     1.0  0.75682  0.47881  0.10816  1.0000
  C   C1729     1.0  0.84566  0.48453  0.16313  1.0000
  H   H2051     1.0  0.95479  0.39287  0.23074  1.0000
  H   H2052     1.0  0.77964  0.48627  0.01766  1.0000
  C   C1730     1.0  0.76975  0.49713  0.01014  1.0000
  C   C1731     1.0  0.74761  0.44359  0.12649  1.0000
  H   H2053     1.0  0.83693  0.47794  0.17506  1.0000
  H   H2054     1.0  0.81899  0.35552  0.04149  1.0000
  H   H2055     1.0  0.89581  0.48556  0.17796  1.0000
  C   C1732     1.0  0.81791  0.35804  0.02642  1.0000
  S   S443      1.0  0.74788  0.38475  0.13481  1.0000
  H   H2056     1.0  0.98924  0.43682  0.14366  1.0000
  H   H2057     1.0  0.75716  0.46698  0.08229  1.0000
  H   H2058     1.0  0.82216  0.49863  0.14922  1.0000
  N   N113      1.0  0.89753  0.48802  0.14742  1.0000
  C   C1733     1.0  0.87691  0.49098  0.14754  1.0000
  C   C1734     1.0  0.83731  0.49605  0.14855  1.0000
  S   S444      1.0  0.94586  0.39157  0.33166  1.0000
  Fe  Fe221     1.0  0.92027  0.37801  0.33157  1.0000
  C   C1735     1.0  0.90233  0.49359  0.16494  1.0000
  C   C1736     1.0  0.99405  0.44746  0.15030  1.0000
  S   S445      1.0  0.74713  0.42961  0.09302  1.0000
  C   C1737     1.0  0.90772  0.49923  0.13118  1.0000
  C   C1738     1.0  0.80726  0.37858  0.99928  1.0000
  H   H2059     1.0  0.99463  0.44029  0.21969  1.0000
  C   C1739     1.0  0.95626  0.24406  0.39523  1.0000
  H   H2060     1.0  0.76963  0.00675  0.40651  1.0000
  Fe  Fe222     1.0  0.93317  0.39856  0.36043  1.0000
  H   H2061     1.0  0.97975  0.24760  0.55319  1.0000
  S   S446      1.0  0.94226  0.42640  0.36444  1.0000
  Fe  Fe223     1.0  0.92175  0.35778  0.37161  1.0000
  H   H2062     1.0  0.82824  0.03335  0.55532  1.0000
  S   S447      1.0  0.91328  0.33683  0.39755  1.0000
  C   C1740     1.0  0.95473  0.28256  0.37797  1.0000
  H   H2063     1.0  0.76223  0.04451  0.65563  1.0000
  H   H2064     1.0  0.76980  0.03729  0.59133  1.0000
  S   S448      1.0  0.94676  0.37131  0.37497  1.0000
  S   S449      1.0  0.90661  0.38621  0.35999  1.0000
  Fe  Fe224     1.0  0.84818  0.03073  0.43270  1.0000
  S   S450      1.0  0.83932  0.01836  0.46241  1.0000
  C   C1741     1.0  0.97006  0.43430  0.39934  1.0000
  Fe  Fe225     1.0  0.84222  0.07166  0.44242  1.0000
  S   S451      1.0  0.83205  0.06197  0.47284  1.0000
  S   S452      1.0  0.84112  0.10372  0.43482  1.0000
  Fe  Fe226     1.0  0.85623  0.03878  0.47028  1.0000
  S   S453      1.0  0.87394  0.02967  0.49376  1.0000
  Fe  Fe227     1.0  0.81606  0.04269  0.46207  1.0000
  S   S454      1.0  0.78802  0.03595  0.47741  1.0000
  S   S455      1.0  0.86745  0.04932  0.44052  1.0000
  S   S456      1.0  0.82376  0.05413  0.43161  1.0000
  Fe  Fe228     1.0  0.82410  0.05938  0.61978  1.0000
  S   S457      1.0  0.85125  0.04471  0.62958  1.0000
  S   S458      1.0  0.79772  0.05691  0.64034  1.0000
  Fe  Fe229     1.0  0.84318  0.07212  0.58081  1.0000
  S   S459      1.0  0.87154  0.05850  0.58761  1.0000
  S   S460      1.0  0.84063  0.08707  0.55155  1.0000
  Fe  Fe230     1.0  0.85670  0.03361  0.60136  1.0000
  H   H2065     1.0  0.81145  0.09652  0.64538  1.0000
  Fe  Fe231     1.0  0.86313  0.07121  0.61471  1.0000
  S   S461      1.0  0.88354  0.08621  0.62641  1.0000
  S   S462      1.0  0.82880  0.04677  0.59265  1.0000
  S   S463      1.0  0.83547  0.08645  0.60699  1.0000
  Fe  Fe232     1.0  0.92082  0.22869  0.62521  1.0000
  S   S464      1.0  0.94601  0.23138  0.60337  1.0000
  C   C1742     1.0  0.85331  0.11896  0.66372  1.0000
  Fe  Fe233     1.0  0.91071  0.19410  0.60980  1.0000
  S   S465      1.0  0.93542  0.19438  0.58703  1.0000
  S   S466      1.0  0.88809  0.17532  0.60883  1.0000
  Fe  Fe234     1.0  0.95171  0.19983  0.60922  1.0000
  C   C1743     1.0  0.96933  0.27463  0.38905  1.0000
  Fe  Fe235     1.0  0.92795  0.22580  0.58276  1.0000
  S   S467      1.0  0.93322  0.23955  0.55259  1.0000
  S   S468      1.0  0.90189  0.22578  0.60393  1.0000
  Fe  Fe236     1.0  0.90849  0.20623  0.46507  1.0000
  S   S469      1.0  0.92917  0.18099  0.45823  1.0000
  S   S470      1.0  0.89317  0.20742  0.49456  1.0000
  Fe  Fe237     1.0  0.90992  0.22472  0.42434  1.0000
  S   S471      1.0  0.92999  0.20027  0.41405  1.0000
  S   S472      1.0  0.90051  0.25026  0.40342  1.0000
  Fe  Fe238     1.0  0.91256  0.18076  0.43429  1.0000
  S   S473      1.0  0.91000  0.15070  0.42921  1.0000
  Fe  Fe239     1.0  0.94488  0.20219  0.43866  1.0000
  S   S474      1.0  0.97591  0.20288  0.43047  1.0000
  S   S475      1.0  0.89084  0.20499  0.44232  1.0000
  S   S476      1.0  0.92578  0.22769  0.44783  1.0000
  H   H2066     1.0  0.85499  0.11683  0.48890  1.0000
  C   C1744     1.0  0.76078  0.05236  0.64178  1.0000
  C   C1745     1.0  0.77469  0.00209  0.62050  1.0000
  C   C1746     1.0  0.80331  0.00921  0.43365  1.0000
  H   H2067     1.0  0.97211  0.19335  0.47163  1.0000
  N   N114      1.0  0.79633  0.00604  0.41623  1.0000
  S   S477      1.0  0.86633  0.00446  0.59175  1.0000
  H   H2068     1.0  0.94356  0.27484  0.37640  1.0000
  H   H2069     1.0  0.97968  0.21709  0.57253  1.0000
  C   C1747     1.0  0.98192  0.30506  0.38109  1.0000
  H   H2070     1.0  0.96917  0.46939  0.38683  1.0000
  C   C1748     1.0  0.92245  0.22994  0.53667  1.0000
  C   C1749     1.0  0.93055  0.23025  0.51771  1.0000
  C   C1750     1.0  0.92192  0.22290  0.50474  1.0000
  C   C1751     1.0  0.90485  0.21579  0.51060  1.0000
  C   C1752     1.0  0.89669  0.21561  0.52952  1.0000
  C   C1753     1.0  0.90564  0.22237  0.54262  1.0000
  H   H2071     1.0  0.94357  0.23608  0.51307  1.0000
  H   H2072     1.0  0.92837  0.22296  0.49020  1.0000
  H   H2073     1.0  0.88337  0.21036  0.53403  1.0000
  H   H2074     1.0  0.89926  0.22228  0.55722  1.0000
  C   C1754     1.0  0.88799  0.15031  0.61293  1.0000
  C   C1755     1.0  0.90159  0.13794  0.62207  1.0000
  C   C1756     1.0  0.90020  0.11833  0.62587  1.0000
  C   C1757     1.0  0.88541  0.11082  0.62031  1.0000
  C   C1758     1.0  0.87211  0.12314  0.61070  1.0000
  C   C1759     1.0  0.87334  0.14274  0.60717  1.0000
  H   H2075     1.0  0.91292  0.14352  0.62664  1.0000
  H   H2076     1.0  0.91056  0.10895  0.63333  1.0000
  H   H2077     1.0  0.86060  0.11765  0.60643  1.0000
  H   H2078     1.0  0.86260  0.15216  0.60030  1.0000
  C   C1760     1.0  0.86043  0.11662  0.43293  1.0000
  C   C1761     1.0  0.85709  0.13649  0.43237  1.0000
  C   C1762     1.0  0.87203  0.14720  0.43131  1.0000
  C   C1763     1.0  0.89052  0.13816  0.43036  1.0000
  C   C1764     1.0  0.89385  0.11834  0.43072  1.0000
  C   C1765     1.0  0.87892  0.10760  0.43214  1.0000
  H   H2079     1.0  0.84285  0.14361  0.43283  1.0000
  H   H2080     1.0  0.86925  0.16244  0.43092  1.0000
  H   H2081     1.0  0.90811  0.11121  0.42991  1.0000
  H   H2082     1.0  0.88173  0.09237  0.43242  1.0000
  C   C1766     1.0  0.86825  0.04656  0.50953  1.0000
  C   C1767     1.0  0.86813  0.04081  0.52893  1.0000
  C   C1768     1.0  0.85987  0.05334  0.54188  1.0000
  C   C1769     1.0  0.85202  0.07173  0.53544  1.0000
  C   C1770     1.0  0.85289  0.07770  0.51602  1.0000
  C   C1771     1.0  0.86137  0.06526  0.50306  1.0000
  H   H2083     1.0  0.87352  0.02638  0.53401  1.0000
  H   H2084     1.0  0.85892  0.04836  0.55681  1.0000
  H   H2085     1.0  0.84650  0.09172  0.51100  1.0000
  H   H2086     1.0  0.86221  0.07000  0.48804  1.0000
  H   H2087     1.0  0.95905  0.31462  0.65410  1.0000
  C   C1772     1.0  0.90258  0.47234  0.37135  1.0000
  H   H2088     1.0  0.88704  0.15191  0.46826  1.0000
  C   C1773     1.0  0.85494  0.13556  0.51950  1.0000
  H   H2089     1.0  0.99295  0.39585  0.64357  1.0000
  C   C1774     1.0  0.77429  0.06998  0.61301  1.0000
  C   C1775     1.0  0.77625  0.05993  0.63095  1.0000
  H   H2090     1.0  0.91693  0.09176  0.54352  1.0000
  H   H2091     1.0  0.86106  0.11427  0.56443  1.0000
  C   C1776     1.0  0.97147  0.28914  0.64245  1.0000
  C   C1777     1.0  0.76966  0.04034  0.46344  1.0000
  H   H2092     1.0  0.90275  0.44195  0.37378  1.0000
  H   H2093     1.0  0.97289  0.20419  0.64175  1.0000
  C   C1778     1.0  0.91228  0.31226  0.39765  1.0000
  C   C1779     1.0  0.91697  0.29935  0.41349  1.0000
  C   C1780     1.0  0.91420  0.28015  0.41511  1.0000
  C   C1781     1.0  0.90622  0.27375  0.40113  1.0000
  C   C1782     1.0  0.90189  0.28656  0.38514  1.0000
  C   C1783     1.0  0.90505  0.30564  0.38330  1.0000
  H   H2094     1.0  0.92234  0.30438  0.42477  1.0000
  H   H2095     1.0  0.91757  0.27052  0.42748  1.0000
  H   H2096     1.0  0.89571  0.28178  0.37423  1.0000
  H   H2097     1.0  0.90114  0.31543  0.37117  1.0000
  C   C1784     1.0  0.93035  0.44976  0.36443  1.0000
  S   S478      1.0  0.95760  0.35983  0.66501  1.0000
  H   H2098     1.0  0.87355  0.13864  0.66017  1.0000
  C   C1785     1.0  0.86844  0.14273  0.50491  1.0000
  C   C1786     1.0  0.87548  0.29965  0.65732  1.0000
  C   C1787     1.0  0.85979  0.13643  0.65753  1.0000
  H   H2099     1.0  0.87909  0.10421  0.51057  1.0000
  H   H2100     1.0  0.75415  0.01948  0.48092  1.0000
  H   H2101     1.0  0.98561  0.37502  0.63842  1.0000
  C   C1788     1.0  0.95392  0.30115  0.36879  1.0000
  C   C1789     1.0  0.75785  0.03925  0.54732  1.0000
  H   H2102     1.0  0.98209  0.42797  0.36286  1.0000
  H   H2103     1.0  0.95751  0.24292  0.37984  1.0000
  C   C1790     1.0  0.92095  0.30196  0.63021  1.0000
  C   C1791     1.0  0.91953  0.28257  0.63065  1.0000
  H   H2104     1.0  0.90156  0.12978  0.46779  1.0000
  H   H2105     1.0  0.92101  0.31118  0.61689  1.0000
  H   H2106     1.0  0.91839  0.27701  0.61777  1.0000
  H   H2107     1.0  0.79165  0.02434  0.61949  1.0000
  C   C1792     1.0  0.98717  0.20618  0.63595  1.0000
  H   H2108     1.0  0.89860  0.11685  0.51017  1.0000
  S   S479      1.0  0.92778  0.19692  0.63274  1.0000
  H   H2109     1.0  0.81520  0.05723  0.53115  1.0000
  N   N115      1.0  0.90684  0.15574  0.55244  1.0000
  C   C1793     1.0  0.92119  0.15330  0.56554  1.0000
  C   C1794     1.0  0.91537  0.16268  0.53308  1.0000
  C   C1795     1.0  0.89182  0.17086  0.55854  1.0000
  C   C1796     1.0  0.90009  0.13731  0.55254  1.0000
  C   C1797     1.0  0.88117  0.13424  0.55877  1.0000
  C   C1798     1.0  0.91279  0.12150  0.54689  1.0000
  C   C1799     1.0  0.87549  0.11642  0.55936  1.0000
  C   C1800     1.0  0.90694  0.10374  0.54756  1.0000
  C   C1801     1.0  0.88830  0.10124  0.55372  1.0000
  H   H2110     1.0  0.93372  0.14321  0.56129  1.0000
  H   H2111     1.0  0.92634  0.16692  0.56619  1.0000
  H   H2112     1.0  0.91532  0.14794  0.58023  1.0000
  H   H2113     1.0  0.92797  0.15310  0.52795  1.0000
  H   H2114     1.0  0.92003  0.17685  0.53250  1.0000
  H   H2115     1.0  0.90513  0.16428  0.52271  1.0000
  H   H2116     1.0  0.88493  0.16685  0.57310  1.0000
  H   H2117     1.0  0.89749  0.18425  0.55914  1.0000
  H   H2118     1.0  0.88098  0.17425  0.54875  1.0000
  H   H2119     1.0  0.87049  0.14525  0.56355  1.0000
  H   H2120     1.0  0.92744  0.12266  0.54227  1.0000
  C   C1802     1.0  0.98381  0.46844  0.38100  1.0000
  C   C1803     1.0  0.91872  0.27061  0.64787  1.0000
  C   C1804     1.0  0.84437  0.14705  0.53235  1.0000
  N   N116      1.0  0.81086  0.02787  0.53543  1.0000
  C   C1805     1.0  0.81526  0.04532  0.52285  1.0000
  S   S480      1.0  0.85628  0.01256  0.40891  1.0000
  C   C1806     1.0  0.77557  0.01058  0.41858  1.0000
  C   C1807     1.0  0.79207  0.03174  0.54644  1.0000
  C   C1808     1.0  0.92193  0.29743  0.66400  1.0000
  C   C1809     1.0  0.81117  0.01261  0.52354  1.0000
  C   C1810     1.0  0.98614  0.27425  0.64258  1.0000
  H   H2121     1.0  0.95595  0.46215  0.35557  1.0000
  S   S481      1.0  0.92248  0.33428  0.64568  1.0000
  H   H2122     1.0  0.96735  0.24210  0.42849  1.0000
  C   C1811     1.0  0.98335  0.21017  0.55942  1.0000
  H   H2123     1.0  0.80507  0.05007  0.51245  1.0000
  H   H2124     1.0  0.94249  0.30703  0.36068  1.0000
  H   H2125     1.0  0.75520  0.08133  0.59268  1.0000
  C   C1812     1.0  0.96745  0.31236  0.37035  1.0000
  H   H2126     1.0  0.98678  0.26330  0.63354  1.0000
  C   C1813     1.0  0.82497  0.13047  0.64935  1.0000
  H   H2127     1.0  0.76880  0.00318  0.43192  1.0000
  N   N117      1.0  0.87905  0.13036  0.49115  1.0000
  C   C1814     1.0  0.75441  0.03009  0.46857  1.0000
  S   S482      1.0  0.91423  0.24680  0.64952  1.0000
  H   H2128     1.0  0.95982  0.44091  0.38953  1.0000
  H   H2129     1.0  0.99002  0.22936  0.40089  1.0000
  C   C1815     1.0  0.96738  0.25637  0.42005  1.0000
  C   C1816     1.0  0.84689  0.16601  0.53109  1.0000
  H   H2130     1.0  0.85427  0.16429  0.64227  1.0000
  H   H2131     1.0  0.82337  0.00910  0.55786  1.0000
  H   H2132     1.0  0.95367  0.26491  0.42418  1.0000
  C   C1817     1.0  0.79157  0.00961  0.61791  1.0000
  Fe  Fe240     1.0  0.95768  0.36380  0.34612  1.0000
  H   H2133     1.0  0.98256  0.21067  0.52277  1.0000
  H   H2134     1.0  0.99236  0.31392  0.38228  1.0000
  H   H2135     1.0  0.96661  0.32682  0.36337  1.0000
  H   H2136     1.0  0.90387  0.14452  0.48495  1.0000
  C   C1818     1.0  0.81064  0.09513  0.66109  1.0000
  H   H2137     1.0  0.96971  0.20823  0.55521  1.0000
  N   N118      1.0  0.97042  0.25519  0.39941  1.0000
  C   C1819     1.0  0.97051  0.30306  0.65421  1.0000
  H   H2138     1.0  0.97079  0.24002  0.53437  1.0000
  H   H2139     1.0  0.83413  0.14113  0.54330  1.0000
  H   H2140     1.0  0.83989  0.01795  0.53892  1.0000
  H   H2141     1.0  0.96280  0.45300  0.65376  1.0000
  C   C1820     1.0  0.84280  0.08135  0.65998  1.0000
  C   C1821     1.0  0.98610  0.19683  0.46660  1.0000
  H   H2142     1.0  0.84588  0.08380  0.64432  1.0000
  H   H2143     1.0  0.98076  0.49873  0.37262  1.0000
  H   H2144     1.0  0.75066  0.08820  0.50939  1.0000
  C   C1822     1.0  0.75510  0.05720  0.43647  1.0000
  C   C1823     1.0  0.92200  0.30952  0.64688  1.0000
  C   C1824     1.0  0.87059  0.16219  0.50395  1.0000
  H   H2145     1.0  0.94094  0.49523  0.35790  1.0000
  H   H2146     1.0  0.85835  0.13719  0.47191  1.0000
  N   N119      1.0  0.87683  0.26746  0.46637  1.0000
  C   C1825     1.0  0.87487  0.25112  0.45676  1.0000
  C   C1826     1.0  0.89549  0.26366  0.47320  1.0000
  C   C1827     1.0  0.86212  0.26811  0.48300  1.0000
  C   C1828     1.0  0.87504  0.28586  0.45397  1.0000
  C   C1829     1.0  0.87014  0.28778  0.43530  1.0000
  C   C1830     1.0  0.87822  0.30262  0.46051  1.0000
  C   C1831     1.0  0.86912  0.30530  0.42383  1.0000
  C   C1832     1.0  0.87734  0.32001  0.44883  1.0000
  C   C1833     1.0  0.87292  0.32132  0.43048  1.0000
  H   H2147     1.0  0.88557  0.24986  0.44405  1.0000
  H   H2148     1.0  0.87675  0.23744  0.46625  1.0000
  H   H2149     1.0  0.86072  0.25229  0.45226  1.0000
  H   H2150     1.0  0.90694  0.26479  0.46115  1.0000
  H   H2151     1.0  0.89792  0.24920  0.48118  1.0000
  H   H2152     1.0  0.89717  0.27358  0.48306  1.0000
  H   H2153     1.0  0.84786  0.27113  0.47848  1.0000
  H   H2154     1.0  0.86295  0.25438  0.49255  1.0000
  H   H2155     1.0  0.86340  0.27926  0.49170  1.0000
  H   H2156     1.0  0.86768  0.27590  0.42887  1.0000
  H   H2157     1.0  0.88170  0.30235  0.47462  1.0000
  H   H2158     1.0  0.86614  0.30631  0.40937  1.0000
  H   H2159     1.0  0.88043  0.33253  0.45383  1.0000
  H   H2160     1.0  0.87291  0.33467  0.42120  1.0000
  H   H2161     1.0  0.87220  0.27022  0.65920  1.0000
  H   H2162     1.0  0.97851  0.26297  0.42462  1.0000
  H   H2163     1.0  0.87322  0.11512  0.46956  1.0000
  H   H2164     1.0  0.78614  0.07585  0.60455  1.0000
  H   H2165     1.0  0.96843  0.44289  0.41126  1.0000
  H   H2166     1.0  0.87975  0.32769  0.65880  1.0000
  H   H2167     1.0  0.79957  0.03470  0.40330  1.0000
  H   H2168     1.0  0.81152  0.12910  0.64549  1.0000
  H   H2169     1.0  0.87898  0.30122  0.64203  1.0000
  H   H2170     1.0  0.99111  0.19590  0.56346  1.0000
  H   H2171     1.0  0.83767  0.06729  0.66389  1.0000
  S   S483      1.0  0.95265  0.41502  0.65979  1.0000
  C   C1834     1.0  0.93255  0.48369  0.36121  1.0000
  C   C1835     1.0  0.88888  0.11307  0.50125  1.0000
  H   H2172     1.0  0.85228  0.12100  0.52103  1.0000
  H   H2173     1.0  0.77100  0.02597  0.41921  1.0000
  H   H2174     1.0  0.99379  0.34334  0.64198  1.0000
  H   H2175     1.0  0.81954  0.01777  0.39844  1.0000
  H   H2176     1.0  0.75536  0.06778  0.42408  1.0000
  H   H2177     1.0  0.86175  0.18840  0.51578  1.0000
  H   H2178     1.0  0.82156  0.00392  0.61192  1.0000
  H   H2179     1.0  0.88021  0.16911  0.49317  1.0000
  H   H2180     1.0  0.96073  0.28979  0.63334  1.0000
  H   H2181     1.0  0.89219  0.00745  0.44143  1.0000
  C   C1836     1.0  0.85996  0.17355  0.51693  1.0000
  S   S484      1.0  0.93354  0.34894  0.34300  1.0000
  C   C1837     1.0  0.80392  0.01974  0.40046  1.0000
  C   C1838     1.0  0.94101  0.46492  0.35992  1.0000
  H   H2182     1.0  0.96564  0.42021  0.40524  1.0000
  H   H2183     1.0  0.78168  0.06201  0.44342  1.0000
  C   C1839     1.0  0.91105  0.45353  0.36996  1.0000
  C   C1840     1.0  0.83565  0.11543  0.65989  1.0000
  S   S485      1.0  0.98853  0.35456  0.33964  1.0000
  H   H2184     1.0  0.98499  0.40690  0.37945  1.0000
  H   H2185     1.0  0.77664  0.03595  0.52200  1.0000
  C   C1841     1.0  0.77004  0.05388  0.44735  1.0000
  C   C1842     1.0  0.86584  0.12463  0.47997  1.0000
  H   H2186     1.0  0.88375  0.08747  0.55429  1.0000
  H   H2187     1.0  0.82544  0.00884  0.51585  1.0000
  H   H2188     1.0  0.90961  0.43267  0.33750  1.0000
  C   C1843     1.0  0.89347  0.13962  0.47759  1.0000
  H   H2189     1.0  0.83857  0.17492  0.54100  1.0000
  H   H2190     1.0  0.82938  0.04307  0.51446  1.0000
  H   H2191     1.0  0.89195  0.46320  0.33651  1.0000
  H   H2192     1.0  0.88770  0.47517  0.37605  1.0000
  H   H2193     1.0  0.80098  0.03029  0.57457  1.0000
  H   H2194     1.0  0.99252  0.24990  0.52971  1.0000
  C   C1844     1.0  0.77572  0.03558  0.53719  1.0000
  H   H2195     1.0  0.89724  0.10366  0.49117  1.0000
  H   H2196     1.0  0.81887  0.00601  0.43235  1.0000
  S   S486      1.0  0.98214  0.18762  0.60683  1.0000
  H   H2197     1.0  0.80189  0.01684  0.51229  1.0000
  H   H2198     1.0  0.98210  0.34962  0.38079  1.0000
  C   C1845     1.0  0.78944  0.03252  0.56633  1.0000
  H   H2199     1.0  0.99222  0.21866  0.65982  1.0000
  H   H2200     1.0  0.79895  0.01845  0.38689  1.0000
  H   H2201     1.0  0.76161  0.01111  0.62407  1.0000
  H   H2202     1.0  0.94172  0.25029  0.40010  1.0000
  C   C1846     1.0  0.82614  0.02179  0.54750  1.0000
  C   C1847     1.0  0.98402  0.24056  0.54017  1.0000
  C   C1848     1.0  0.75675  0.07306  0.60631  1.0000
  H   H2203     1.0  0.95790  0.22930  0.40265  1.0000
  C   C1849     1.0  0.75576  0.03973  0.56680  1.0000
  C   C1850     1.0  0.91331  0.48748  0.36714  1.0000
  H   H2204     1.0  0.79950  0.02418  0.43647  1.0000
  C   C1851     1.0  0.99055  0.42059  0.37412  1.0000
  C   C1852     1.0  0.99028  0.48553  0.37286  1.0000
  H   H2205     1.0  0.74788  0.06892  0.48631  1.0000
  C   C1853     1.0  0.99133  0.20208  0.44726  1.0000
  C   C1854     1.0  0.77152  0.03651  0.57623  1.0000
  H   H2206     1.0  0.75581  0.09268  0.54087  1.0000
  H   H2207     1.0  0.80677  0.99956  0.53232  1.0000
  C   C1855     1.0  0.84895  0.15090  0.64739  1.0000
  H   H2208     1.0  0.82342  0.15915  0.63504  1.0000
  C   C1856     1.0  0.92007  0.27813  0.66450  1.0000
  N   N120      1.0  0.98958  0.43250  0.38946  1.0000
  C   C1857     1.0  0.98284  0.28652  0.39042  1.0000
  C   C1858     1.0  0.98921  0.24447  0.39439  1.0000
  C   C1859     1.0  0.83162  0.14791  0.64325  1.0000
  H   H2209     1.0  0.99256  0.24456  0.37879  1.0000
  H   H2210     1.0  0.79745  0.00039  0.44653  1.0000
  N   N121      1.0  0.99459  0.22139  0.54409  1.0000
  C   C1860     1.0  0.99500  0.19972  0.61875  1.0000
  H   H2211     1.0  0.99409  0.28164  0.39892  1.0000
  C   C1861     1.0  0.99367  0.35770  0.37614  1.0000
  H   H2212     1.0  0.74555  0.04200  0.54000  1.0000
  H   H2213     1.0  0.85646  0.08003  0.66552  1.0000
  S   S487      1.0  0.74648  0.39929  0.99477  1.0000
  S   S488      1.0  0.75531  0.40124  0.94117  1.0000
  H   H2214     1.0  0.95147  0.48128  0.67054  1.0000
  C   C1862     1.0  0.98880  0.37571  0.73672  1.0000
  H   H2215     1.0  0.84025  0.09368  0.69360  1.0000
  H   H2216     1.0  0.87194  0.48970  0.89867  1.0000
  H   H2217     1.0  0.76709  0.49855  0.91986  1.0000
  Fe  Fe241     1.0  0.75658  0.37295  0.93151  1.0000
  S   S489      1.0  0.78336  0.35901  0.91564  1.0000
  N   N122      1.0  0.87348  0.32829  0.69852  1.0000
  Fe  Fe242     1.0  0.91719  0.36722  0.70495  1.0000
  H   H2218     1.0  0.82328  0.48998  0.89201  1.0000
  S   S490      1.0  0.89319  0.37316  0.72771  1.0000
  Fe  Fe243     1.0  0.95719  0.35033  0.69601  1.0000
  C   C1863     1.0  0.94430  0.43513  0.67171  1.0000
  H   H2219     1.0  0.96411  0.34452  0.80337  1.0000
  N   N123      1.0  0.97652  0.36845  0.80832  1.0000
  C   C1864     1.0  0.82029  0.38491  0.95796  1.0000
  S   S491      1.0  0.94424  0.37857  0.70458  1.0000
  S   S492      1.0  0.93034  0.33790  0.69923  1.0000
  Fe  Fe244     1.0  0.89979  0.42080  0.83367  1.0000
  S   S493      1.0  0.90032  0.41618  0.86494  1.0000
  S   S494      1.0  0.89539  0.45022  0.81836  1.0000
  Fe  Fe245     1.0  0.90592  0.37902  0.83062  1.0000
  S   S495      1.0  0.90576  0.37110  0.86213  1.0000
  S   S496      1.0  0.91748  0.35815  0.80997  1.0000
  Fe  Fe246     1.0  0.88119  0.39436  0.86494  1.0000
  S   S497      1.0  0.85594  0.40029  0.88730  1.0000
  Fe  Fe247     1.0  0.92461  0.39365  0.85932  1.0000
  S   S498      1.0  0.95108  0.38566  0.87360  1.0000
  S   S499      1.0  0.87976  0.40023  0.83346  1.0000
  S   S500      1.0  0.92571  0.40044  0.82790  1.0000
  H   H2220     1.0  0.89075  0.45977  0.85969  1.0000
  H   H2221     1.0  0.96326  0.39683  0.80091  1.0000
  C   C1865     1.0  0.94143  0.48104  0.83024  1.0000
  C   C1866     1.0  0.94246  0.46146  0.83492  1.0000
  C   C1867     1.0  0.92823  0.45203  0.83133  1.0000
  C   C1868     1.0  0.91332  0.46210  0.82234  1.0000
  C   C1869     1.0  0.91262  0.48166  0.81697  1.0000
  S   S501      1.0  0.98404  0.33512  0.70544  1.0000
  H   H2222     1.0  0.95386  0.45373  0.84209  1.0000
  H   H2223     1.0  0.92877  0.43701  0.83571  1.0000
  C   C1870     1.0  0.81377  0.49143  0.90543  1.0000
  H   H2224     1.0  0.95168  0.45667  0.79432  1.0000
  C   C1871     1.0  0.98205  0.43720  0.71217  1.0000
  C   C1872     1.0  0.95346  0.42072  0.75876  1.0000
  C   C1873     1.0  0.81377  0.36429  0.98731  1.0000
  H   H2225     1.0  0.95005  0.37856  0.79782  1.0000
  C   C1874     1.0  0.90026  0.36970  0.75041  1.0000
  C   C1875     1.0  0.88827  0.37700  0.76551  1.0000
  C   C1876     1.0  0.89364  0.37399  0.78380  1.0000
  C   C1877     1.0  0.91088  0.36335  0.78706  1.0000
  C   C1878     1.0  0.92294  0.35623  0.77191  1.0000
  C   C1879     1.0  0.91774  0.35956  0.75358  1.0000
  H   H2226     1.0  0.87473  0.38484  0.76311  1.0000
  H   H2227     1.0  0.88421  0.37938  0.79547  1.0000
  H   H2228     1.0  0.93625  0.34791  0.77439  1.0000
  H   H2229     1.0  0.92705  0.35383  0.74202  1.0000
  H   H2230     1.0  0.98393  0.47394  0.90855  1.0000
  Fe  Fe248     1.0  0.94245  0.38742  0.67373  1.0000
  H   H2231     1.0  0.85485  0.34641  0.71646  1.0000
  H   H2232     1.0  0.97477  0.35614  0.83774  1.0000
  H   H2233     1.0  0.90952  0.49667  0.87992  1.0000
  H   H2234     1.0  0.83527  0.38319  0.96032  1.0000
  C   C1880     1.0  0.80285  0.37121  0.90629  1.0000
  C   C1881     1.0  0.81854  0.36184  0.89588  1.0000
  C   C1882     1.0  0.83473  0.37074  0.88931  1.0000
  C   C1883     1.0  0.83543  0.38901  0.89335  1.0000
  C   C1884     1.0  0.81968  0.39841  0.90360  1.0000
  C   C1885     1.0  0.80343  0.38966  0.90988  1.0000
  H   H2235     1.0  0.81826  0.34756  0.89302  1.0000
  H   H2236     1.0  0.84679  0.36329  0.88152  1.0000
  H   H2237     1.0  0.82012  0.41252  0.90686  1.0000
  H   H2238     1.0  0.79152  0.39709  0.91781  1.0000
  H   H2239     1.0  0.97317  0.40947  0.71713  1.0000
  C   C1886     1.0  0.86759  0.27988  0.68664  1.0000
  C   C1887     1.0  0.94421  0.44551  0.88559  1.0000
  H   H2240     1.0  0.92394  0.42134  0.69164  1.0000
  H   H2241     1.0  0.81868  0.47997  0.91646  1.0000
  H   H2242     1.0  0.88192  0.35626  0.69559  1.0000
  H   H2243     1.0  0.87689  0.46610  0.91029  1.0000
  N   N124      1.0  0.91805  0.42816  0.75861  1.0000
  C   C1888     1.0  0.92064  0.41498  0.74407  1.0000
  C   C1889     1.0  0.90542  0.42035  0.77509  1.0000
  C   C1890     1.0  0.90869  0.44671  0.75033  1.0000
  C   C1891     1.0  0.93579  0.43082  0.76501  1.0000
  C   C1892     1.0  0.93568  0.44376  0.77811  1.0000
  H   H2244     1.0  0.95877  0.42052  0.84940  1.0000
  C   C1893     1.0  0.93011  0.43429  0.68709  1.0000
  H   H2245     1.0  0.84866  0.32304  0.71805  1.0000
  H   H2246     1.0  0.99228  0.29636  0.70270  1.0000
  H   H2247     1.0  0.92656  0.40037  0.74968  1.0000
  H   H2248     1.0  0.90707  0.41347  0.73939  1.0000
  H   H2249     1.0  0.92983  0.42012  0.73110  1.0000
  H   H2250     1.0  0.91228  0.40685  0.78227  1.0000
  H   H2251     1.0  0.89215  0.41741  0.77085  1.0000
  C   C1894     1.0  0.98164  0.48616  0.89732  1.0000
  H   H2252     1.0  0.90370  0.45662  0.76103  1.0000
  H   H2253     1.0  0.91839  0.45391  0.73901  1.0000
  H   H2254     1.0  0.89608  0.44512  0.74395  1.0000
  H   H2255     1.0  0.92275  0.45178  0.78368  1.0000
  H   H2256     1.0  0.76244  0.43711  0.91305  1.0000
  H   H2257     1.0  0.98328  0.41589  0.76017  1.0000
  C   C1895     1.0  0.94032  0.42842  0.89620  1.0000
  C   C1896     1.0  0.99336  0.35081  0.71658  1.0000
  C   C1897     1.0  0.88348  0.47800  0.90157  1.0000
  N   N125      1.0  0.89470  0.47240  0.88381  1.0000
  H   H2258     1.0  0.95857  0.44723  0.87985  1.0000
  H   H2259     1.0  0.76911  0.49276  0.99610  1.0000
  C   C1898     1.0  0.79115  0.47188  0.89960  1.0000
  C   C1899     1.0  0.80270  0.46322  0.88467  1.0000
  C   C1900     1.0  0.77660  0.46184  0.90981  1.0000
  C   C1901     1.0  0.80007  0.44550  0.88050  1.0000
  C   C1902     1.0  0.77387  0.44432  0.90528  1.0000
  C   C1903     1.0  0.78559  0.43615  0.89070  1.0000
  H   H2260     1.0  0.96317  0.48038  0.70457  1.0000
  C   C1904     1.0  0.99494  0.46859  0.87158  1.0000
  H   H2261     1.0  0.93372  0.47282  0.87322  1.0000
  H   H2262     1.0  0.98813  0.37541  0.88397  1.0000
  H   H2263     1.0  0.86455  0.29252  0.71197  1.0000
  C   C1905     1.0  0.88065  0.34512  0.68680  1.0000
  H   H2264     1.0  0.88893  0.33313  0.72046  1.0000
  H   H2265     1.0  0.98206  0.43874  0.78286  1.0000
  H   H2266     1.0  0.90111  0.48947  0.80995  1.0000
  H   H2267     1.0  0.81372  0.47014  0.87592  1.0000
  H   H2268     1.0  0.76700  0.46723  0.92129  1.0000
  H   H2269     1.0  0.80923  0.43897  0.86924  1.0000
  C   C1906     1.0  0.81964  0.35205  0.95614  1.0000
  H   H2270     1.0  0.78343  0.42252  0.88729  1.0000
  H   H2271     1.0  0.74713  0.47396  0.99822  1.0000
  H   H2272     1.0  0.98327  0.40267  0.68448  1.0000
  N   N126      1.0  0.82894  0.09691  0.66702  1.0000
  H   H2273     1.0  0.81678  0.10585  0.69387  1.0000
  H   H2274     1.0  0.97003  0.38339  0.78127  1.0000
  C   C1907     1.0  0.78236  0.49677  0.92095  1.0000
  H   H2275     1.0  0.89483  0.34120  0.67906  1.0000
  N   N127      1.0  0.79384  0.49091  0.90340  1.0000
  H   H2276     1.0  0.96426  0.38055  0.83377  1.0000
  C   C1908     1.0  0.91061  0.45776  0.88838  1.0000
  H   H2277     1.0  0.78516  0.48632  0.93360  1.0000
  C   C1909     1.0  0.88256  0.46467  0.87286  1.0000
  H   H2278     1.0  0.95492  0.41053  0.74890  1.0000
  H   H2279     1.0  0.98931  0.48677  0.67809  1.0000
  C   C1910     1.0  0.97139  0.41423  0.85536  1.0000
  H   H2280     1.0  0.81278  0.33912  0.96141  1.0000
  H   H2281     1.0  0.92274  0.30301  0.67693  1.0000
  C   C1911     1.0  0.92187  0.42583  0.90316  1.0000
  C   C1912     1.0  0.93118  0.46740  0.69052  1.0000
  H   H2282     1.0  0.89240  0.48328  0.91042  1.0000
  H   H2283     1.0  0.80610  0.08098  0.66649  1.0000
  C   C1913     1.0  0.96449  0.38244  0.79654  1.0000
  C   C1914     1.0  0.98553  0.41597  0.68849  1.0000
  C   C1915     1.0  0.96991  0.42365  0.76515  1.0000
  C   C1916     1.0  0.98746  0.42360  0.85182  1.0000
  H   H2284     1.0  0.82754  0.33483  0.98801  1.0000
  C   C1917     1.0  0.92662  0.49121  0.82113  1.0000
  C   C1918     1.0  0.94554  0.46823  0.67525  1.0000
  H   H2285     1.0  0.97773  0.43939  0.72674  1.0000
  H   H2286     1.0  0.98241  0.31291  0.67548  1.0000
  S   S502      1.0  0.91417  0.37827  0.67452  1.0000
  C   C1919     1.0  0.90720  0.44027  0.89943  1.0000
  H   H2287     1.0  0.91891  0.41229  0.91099  1.0000
  C   C1920     1.0  0.90062  0.48990  0.87235  1.0000
  S   S503      1.0  0.92215  0.48708  0.70287  1.0000
  H   H2288     1.0  0.82126  0.08052  0.69394  1.0000
  C   C1921     1.0  0.88618  0.32138  0.71316  1.0000
  C   C1922     1.0  0.98184  0.36144  0.72965  1.0000
  H   H2289     1.0  0.95159  0.41697  0.89870  1.0000
  H   H2290     1.0  0.91936  0.26901  0.67789  1.0000
  H   H2291     1.0  0.89993  0.31449  0.70672  1.0000
  H   H2292     1.0  0.81999  0.38733  0.94239  1.0000
  H   H2293     1.0  0.78386  0.38454  0.97153  1.0000
  C   C1923     1.0  0.95219  0.44660  0.78438  1.0000
  H   H2294     1.0  0.78376  0.35958  0.97221  1.0000
  H   H2295     1.0  0.90128  0.43025  0.78593  1.0000
  C   C1924     1.0  0.98797  0.38876  0.87478  1.0000
  H   H2296     1.0  0.89310  0.43732  0.90470  1.0000
  S   S504      1.0  0.74846  0.49346  0.96137  1.0000
  C   C1925     1.0  0.79104  0.37177  0.96513  1.0000
  N   N128      1.0  0.81133  0.36803  0.96698  1.0000
  H   H2297     1.0  0.91199  0.44976  0.70767  1.0000
  C   C1926     1.0  0.97960  0.41993  0.70690  1.0000
  H   H2298     1.0  0.78862  0.37407  0.95002  1.0000
  H   H2299     1.0  0.96753  0.35872  0.73422  1.0000
  C   C1927     1.0  0.87241  0.31282  0.68740  1.0000
  H   H2300     1.0  0.96897  0.47010  0.72756  1.0000
  C   C1928     1.0  0.85456  0.33464  0.70807  1.0000
  C   C1929     1.0  0.97806  0.34970  0.80158  1.0000
  H   H2301     1.0  0.98135  0.47033  0.86574  1.0000
  C   C1930     1.0  0.96928  0.43655  0.77792  1.0000
  H   H2302     1.0  0.83502  0.34864  0.95661  1.0000
  H   H2303     1.0  0.81770  0.35548  0.94086  1.0000
  C   C1931     1.0  0.92344  0.45040  0.69626  1.0000
  H   H2304     1.0  0.95265  0.36206  0.82894  1.0000
  C   C1932     1.0  0.92967  0.46008  0.88177  1.0000
  H   H2305     1.0  0.97985  0.38401  0.74667  1.0000
  H   H2306     1.0  0.88033  0.31090  0.72455  1.0000
  H   H2307     1.0  0.87115  0.35200  0.67628  1.0000
  H   H2308     1.0  0.97530  0.49266  0.71788  1.0000
  S   S505      1.0  0.95773  0.49269  0.83767  1.0000
  C   C1933     1.0  0.86776  0.29500  0.69674  1.0000
  C   C1934     1.0  0.97146  0.39699  0.86722  1.0000
  C   C1935     1.0  0.82672  0.09413  0.68802  1.0000
  C   C1936     1.0  0.96673  0.36673  0.82804  1.0000
  H   H2309     1.0  0.86470  0.26617  0.69406  1.0000
  H   H2310     1.0  0.81312  0.39817  0.96339  1.0000
  H   H2311     1.0  0.87615  0.45235  0.88099  1.0000
  H   H2312     1.0  0.79999  0.39214  0.99398  1.0000
  H   H2313     1.0  0.84456  0.33983  0.69755  1.0000
  H   H2314     1.0  0.90841  0.48695  0.85836  1.0000
  C   C1937     1.0  0.87593  0.31481  0.66726  1.0000
  C   C1938     1.0  0.99012  0.45131  0.69893  1.0000
  C   C1939     1.0  0.87162  0.28215  0.66698  1.0000
  H   H2315     1.0  0.96765  0.48609  0.89287  1.0000
  N   N129      1.0  0.99239  0.46956  0.70491  1.0000
  H   H2316     1.0  0.87084  0.47548  0.86844  1.0000
  H   H2317     1.0  0.98352  0.35010  0.78627  1.0000
  H   H2318     1.0  0.98713  0.43722  0.84308  1.0000
  C   C1940     1.0  0.97420  0.47847  0.71411  1.0000
  Fe  Fe249     1.0  0.92953  0.34960  0.66863  1.0000
  H   H2319     1.0  0.98759  0.33890  0.80960  1.0000
  H   H2320     1.0  0.86241  0.10813  0.67130  1.0000
  C   C1941     1.0  0.82236  0.34662  0.99585  1.0000
  C   C1942     1.0  0.99385  0.42932  0.67518  1.0000
  C   C1943     1.0  0.98402  0.30197  0.66637  1.0000
  C   C1944     1.0  0.95191  0.45219  0.66575  1.0000
  H   H2321     1.0  0.79920  0.10580  0.66661  1.0000
  H   H2322     1.0  0.98076  0.49940  0.90388  1.0000
  Fe  Fe250     1.0  0.76818  0.51908  0.12566  1.0000
  Fe  Fe251     1.0  0.78810  0.53852  0.09006  1.0000
  S   S506      1.0  0.79013  0.56457  0.10330  1.0000
  S   S507      1.0  0.79983  0.53267  0.06034  1.0000
  Fe  Fe252     1.0  0.79840  0.54383  0.12850  1.0000
  S   S508      1.0  0.81774  0.54288  0.15118  1.0000
  S   S509      1.0  0.79857  0.51803  0.11424  1.0000
  Fe  Fe253     1.0  0.91992  0.54373  0.18050  1.0000
  S   S510      1.0  0.91211  0.51900  0.20119  1.0000
  S   S511      1.0  0.90276  0.55320  0.15575  1.0000
  Fe  Fe254     1.0  0.95403  0.54730  0.20047  1.0000
  S   S512      1.0  0.94796  0.52284  0.22259  1.0000
  S   S513      1.0  0.97859  0.56002  0.20743  1.0000
  H   H2323     1.0  0.98592  0.57353  0.32871  1.0000
  H   H2324     1.0  0.87935  0.59413  0.19976  1.0000
  Fe  Fe255     1.0  0.91791  0.53537  0.22328  1.0000
  S   S514      1.0  0.89928  0.53344  0.25115  1.0000
  S   S515      1.0  0.95088  0.53235  0.17602  1.0000
  S   S516      1.0  0.92382  0.56126  0.20296  1.0000
  C   C1945     1.0  0.96377  0.57111  0.25413  1.0000
  C   C1946     1.0  0.96579  0.56518  0.28744  1.0000
  S   S517      1.0  0.91755  0.58702  0.30586  1.0000
  H   H2325     1.0  0.86031  0.60421  0.21576  1.0000
  H   H2326     1.0  0.94464  0.59703  0.27446  1.0000
  Fe  Fe256     1.0  0.94293  0.50898  0.19860  1.0000
  H   H2327     1.0  0.82257  0.56953  0.22144  1.0000
  C   C1947     1.0  0.90351  0.54880  0.26630  1.0000
  C   C1948     1.0  0.90857  0.56670  0.25904  1.0000
  C   C1949     1.0  0.91183  0.57885  0.27138  1.0000
  C   C1950     1.0  0.91087  0.57279  0.29090  1.0000
  C   C1951     1.0  0.90554  0.55499  0.29813  1.0000
  C   C1952     1.0  0.90162  0.54312  0.28587  1.0000
  H   H2328     1.0  0.90979  0.57125  0.24396  1.0000
  H   H2329     1.0  0.91548  0.59278  0.26575  1.0000
  H   H2330     1.0  0.90424  0.55043  0.31321  1.0000
  H   H2331     1.0  0.89745  0.52938  0.29155  1.0000
  H   H2332     1.0  0.96323  0.60769  0.25939  1.0000
  H   H2333     1.0  0.74749  0.57504  0.03465  1.0000
  C   C1953     1.0  0.76546  0.56082  0.01297  1.0000
  C   C1954     1.0  0.84194  0.54446  0.15123  1.0000
  C   C1955     1.0  0.85290  0.55345  0.13585  1.0000
  C   C1956     1.0  0.87155  0.55575  0.13736  1.0000
  C   C1957     1.0  0.87957  0.54887  0.15410  1.0000
  C   C1958     1.0  0.86886  0.53911  0.16911  1.0000
  C   C1959     1.0  0.85013  0.53717  0.16778  1.0000
  H   H2334     1.0  0.84682  0.55916  0.12303  1.0000
  H   H2335     1.0  0.87970  0.56322  0.12557  1.0000
  H   H2336     1.0  0.87491  0.53318  0.18184  1.0000
  H   H2337     1.0  0.84185  0.53007  0.17970  1.0000
  H   H2338     1.0  0.76615  0.56008  0.06040  1.0000
  C   C1960     1.0  0.79232  0.53979  0.02359  1.0000
  C   C1961     1.0  0.78670  0.54395  0.04220  1.0000
  C   C1962     1.0  0.77048  0.55665  0.04613  1.0000
  H   H2339     1.0  0.80494  0.53007  0.02048  1.0000
  N   N130      1.0  0.97049  0.57829  0.26990  1.0000
  H   H2340     1.0  0.80112  0.57356  0.19795  1.0000
  C   C1963     1.0  0.87061  0.59133  0.21367  1.0000
  H   H2341     1.0  0.95092  0.56241  0.28923  1.0000
  S   S518      1.0  0.76827  0.54356  0.14146  1.0000
  C   C1964     1.0  0.75311  0.50898  0.03819  1.0000
  H   H2342     1.0  0.96705  0.57099  0.30057  1.0000
  H   H2343     1.0  0.94898  0.56825  0.25764  1.0000
  H   H2344     1.0  0.90317  0.51476  0.13125  1.0000
  H   H2345     1.0  0.97233  0.55760  0.25058  1.0000
  C   C1965     1.0  0.96005  0.59732  0.27216  1.0000
  H   H2346     1.0  0.81155  0.58367  0.16425  1.0000
  Fe  Fe257     1.0  0.75989  0.56200  0.11523  1.0000
  H   H2347     1.0  0.98541  0.50440  0.18639  1.0000
  H   H2348     1.0  0.84417  0.58997  0.15393  1.0000
  H   H2349     1.0  0.88041  0.58963  0.22450  1.0000
  H   H2350     1.0  0.97477  0.55125  0.28726  1.0000
  C   C1966     1.0  0.75995  0.56513  0.03152  1.0000
  H   H2351     1.0  0.84175  0.51430  0.12235  1.0000
  S   S519      1.0  0.75754  0.53732  0.10040  1.0000
  N   N131      1.0  0.86093  0.57435  0.21503  1.0000
  C   C1967     1.0  0.85283  0.56990  0.23515  1.0000
  C   C1968     1.0  0.87501  0.55810  0.21020  1.0000
  C   C1969     1.0  0.84691  0.57768  0.20154  1.0000
  C   C1970     1.0  0.82796  0.57432  0.20702  1.0000
  C   C1971     1.0  0.85233  0.58353  0.18201  1.0000
  C   C1972     1.0  0.81538  0.57668  0.19367  1.0000
  C   C1973     1.0  0.83957  0.58605  0.16886  1.0000
  C   C1974     1.0  0.82117  0.58250  0.17465  1.0000
  H   H2352     1.0  0.84666  0.55636  0.23763  1.0000
  H   H2353     1.0  0.86378  0.56781  0.24489  1.0000
  H   H2354     1.0  0.84194  0.58152  0.23974  1.0000
  H   H2355     1.0  0.86836  0.54497  0.21134  1.0000
  H   H2356     1.0  0.88585  0.55514  0.21993  1.0000
  H   H2357     1.0  0.88247  0.56062  0.19557  1.0000
  H   H2358     1.0  0.86667  0.58552  0.17655  1.0000
  C   C1975     1.0  0.78169  0.54815  0.00900  1.0000
  H   H2359     1.0  0.96351  0.60297  0.28460  1.0000
  H   H2360     1.0  0.75885  0.52263  0.03368  1.0000
  H   H2361     1.0  0.89755  0.50889  0.16583  1.0000
  C   C1976     1.0  0.99082  0.57989  0.26645  1.0000
  H   H2362     1.0  0.96399  0.58154  0.24103  1.0000
  C   C1977     1.0  0.84842  0.50489  0.13337  1.0000
  H   H2363     1.0  0.99323  0.58364  0.29546  1.0000
  H   H2364     1.0  0.77613  0.51054  0.00700  1.0000
  C   C1978     1.0  0.86791  0.50261  0.13285  1.0000
  H   H2365     1.0  0.87549  0.51047  0.12098  1.0000
  N   N132      1.0  0.75104  0.49966  0.02167  1.0000
  H   H2366     1.0  0.76297  0.49996  0.04735  1.0000
  H   H2367     1.0  0.99493  0.57937  0.23565  1.0000
  Fe  Fe258     1.0  0.93208  0.72879  0.60268  1.0000
  S   S520      1.0  0.92667  0.70043  0.59612  1.0000
  S   S521      1.0  0.90791  0.75291  0.59895  1.0000
  Fe  Fe259     1.0  0.97225  0.71309  0.60987  1.0000
  S   S522      1.0  0.96985  0.68415  0.60345  1.0000
  H   H2368     1.0  0.91204  0.73646  0.49776  1.0000
  Fe  Fe260     1.0  0.95529  0.69967  0.57918  1.0000
  S   S523      1.0  0.96573  0.69095  0.55016  1.0000
  Fe  Fe261     1.0  0.94178  0.68719  0.62104  1.0000
  S   S524      1.0  0.93416  0.66482  0.64596  1.0000
  S   S525      1.0  0.95995  0.72855  0.58414  1.0000
  S   S526      1.0  0.94485  0.71560  0.62906  1.0000
  Fe  Fe262     1.0  0.96148  0.69915  0.44002  1.0000
  S   S527      1.0  0.94031  0.67880  0.44741  1.0000
  H   H2369     1.0  0.98629  0.62954  0.62918  1.0000
  Fe  Fe263     1.0  0.93197  0.73338  0.43112  1.0000
  S   S528      1.0  0.90848  0.71548  0.43726  1.0000
  S   S529      1.0  0.92993  0.76562  0.42572  1.0000
  Fe  Fe264     1.0  0.92278  0.70182  0.46238  1.0000
  S   S530      1.0  0.90732  0.69773  0.49175  1.0000
  Fe  Fe265     1.0  0.92827  0.69383  0.42153  1.0000
  S   S531      1.0  0.91952  0.67812  0.39970  1.0000
  S   S532      1.0  0.94501  0.72085  0.45738  1.0000
  S   S533      1.0  0.95072  0.71302  0.41303  1.0000
  H   H2370     1.0  0.89550  0.95163  0.42724  1.0000
  H   H2371     1.0  0.79499  0.94111  0.43466  1.0000
  C   C1979     1.0  0.97741  0.59914  0.37225  1.0000
  H   H2372     1.0  0.98071  0.57335  0.40133  1.0000
  S   S534      1.0  0.94151  0.54094  0.37848  1.0000
  H   H2373     1.0  0.80647  0.81035  0.42374  1.0000
  Fe  Fe266     1.0  0.91913  0.53569  0.36230  1.0000
  S   S535      1.0  0.90233  0.51082  0.36971  1.0000
  Fe  Fe267     1.0  0.92962  0.57195  0.37430  1.0000
  S   S536      1.0  0.92955  0.58850  0.39909  1.0000
  Fe  Fe268     1.0  0.85077  0.89759  0.62017  1.0000
  S   S537      1.0  0.82323  0.89295  0.61261  1.0000
  S   S538      1.0  0.85230  0.92298  0.63495  1.0000
  Fe  Fe269     1.0  0.87089  0.85974  0.60733  1.0000
  S   S539      1.0  0.84495  0.85256  0.59814  1.0000
  S   S540      1.0  0.89902  0.84084  0.60811  1.0000
  Fe  Fe270     1.0  0.84039  0.88339  0.58644  1.0000
  S   S541      1.0  0.82765  0.89448  0.55998  1.0000
  Fe  Fe271     1.0  0.82997  0.86279  0.62504  1.0000
  S   S542      1.0  0.80960  0.84550  0.64399  1.0000
  S   S543      1.0  0.86772  0.89004  0.59296  1.0000
  S   S544      1.0  0.85615  0.86793  0.63528  1.0000
  Fe  Fe272     1.0  0.86224  0.87831  0.46251  1.0000
  S   S545      1.0  0.87645  0.87428  0.43339  1.0000
  S   S546      1.0  0.88006  0.87449  0.48590  1.0000
  Fe  Fe273     1.0  0.82314  0.88499  0.45073  1.0000
  S   S547      1.0  0.83429  0.88113  0.42062  1.0000
  S   S548      1.0  0.79248  0.89007  0.46220  1.0000
  Fe  Fe274     1.0  0.85387  0.85636  0.43284  1.0000
  S   S549      1.0  0.85590  0.82617  0.42597  1.0000
  Fe  Fe275     1.0  0.85558  0.89946  0.42456  1.0000
  S   S550      1.0  0.86380  0.92413  0.40332  1.0000
  S   S551      1.0  0.84088  0.85905  0.46274  1.0000
  S   S552      1.0  0.84316  0.90473  0.45384  1.0000
  C   C1980     1.0  0.85516  0.94576  0.62260  1.0000
  C   C1981     1.0  0.85937  0.94873  0.60288  1.0000
  C   C1982     1.0  0.86226  0.96693  0.59362  1.0000
  C   C1983     1.0  0.86082  0.98234  0.60393  1.0000
  C   C1984     1.0  0.85609  0.97946  0.62360  1.0000
  C   C1985     1.0  0.85338  0.96122  0.63288  1.0000
  H   H2374     1.0  0.86086  0.93695  0.59479  1.0000
  H   H2375     1.0  0.86604  0.96900  0.57841  1.0000
  C   C1986     1.0  0.89047  0.82103  0.50846  1.0000
  H   H2376     1.0  0.85006  0.95906  0.64815  1.0000
  C   C1987     1.0  0.84238  0.88851  0.53968  1.0000
  C   C1988     1.0  0.86112  0.88074  0.54058  1.0000
  C   C1989     1.0  0.87279  0.87641  0.52400  1.0000
  C   C1990     1.0  0.86555  0.87949  0.50670  1.0000
  C   C1991     1.0  0.84670  0.88679  0.50595  1.0000
  C   C1992     1.0  0.83520  0.89156  0.52238  1.0000
  H   H2377     1.0  0.86666  0.87828  0.55397  1.0000
  H   H2378     1.0  0.88735  0.87070  0.52461  1.0000
  H   H2379     1.0  0.84094  0.88893  0.49273  1.0000
  H   H2380     1.0  0.82071  0.89756  0.52173  1.0000
  C   C1993     1.0  0.90594  0.76197  0.47880  1.0000
  C   C1994     1.0  0.86109  0.94840  0.40655  1.0000
  C   C1995     1.0  0.86767  0.96101  0.39118  1.0000
  C   C1996     1.0  0.76830  0.85062  0.56518  1.0000
  H   H2381     1.0  0.87414  0.95573  0.37809  1.0000
  C   C1997     1.0  0.77146  0.91069  0.41299  1.0000
  C   C1998     1.0  0.78389  0.90502  0.42656  1.0000
  C   C1999     1.0  0.77710  0.89862  0.44527  1.0000
  H   H2382     1.0  0.90237  0.93003  0.64100  1.0000
  H   H2383     1.0  0.77677  0.91558  0.39851  1.0000
  H   H2384     1.0  0.79870  0.90560  0.42252  1.0000
  H   H2385     1.0  0.80115  0.95352  0.58393  1.0000
  H   H2386     1.0  0.93338  0.88650  0.60085  1.0000
  C   C2000     1.0  0.77458  0.98294  0.61892  1.0000
  C   C2001     1.0  0.78037  0.82750  0.63993  1.0000
  C   C2002     1.0  0.78916  0.84380  0.63437  1.0000
  C   C2003     1.0  0.78135  0.85848  0.62163  1.0000
  C   C2004     1.0  0.76453  0.85697  0.61484  1.0000
  H   H2387     1.0  0.86717  0.93808  0.48877  1.0000
  H   H2388     1.0  0.78800  0.87116  0.61735  1.0000
  H   H2389     1.0  0.91694  0.92639  0.46951  1.0000
  H   H2390     1.0  0.88644  0.83670  0.50615  1.0000
  C   C2005     1.0  0.78905  0.86774  0.53321  1.0000
  C   C2006     1.0  0.83336  0.77542  0.60365  1.0000
  H   H2391     1.0  0.87959  0.92596  0.43931  1.0000
  H   H2392     1.0  0.89527  0.57894  0.66448  1.0000
  C   C2007     1.0  0.87495  0.81752  0.48235  1.0000
  H   H2393     1.0  0.76693  0.95253  0.60091  1.0000
  H   H2394     1.0  0.99325  0.70259  0.57132  1.0000
  H   H2395     1.0  0.77430  0.92921  0.61184  1.0000
  S   S553      1.0  0.90540  0.56621  0.36067  1.0000
  C   C2008     1.0  0.89369  0.96046  0.43844  1.0000
  C   C2009     1.0  0.90762  0.82171  0.47726  1.0000
  H   H2396     1.0  0.89921  0.78720  0.52371  1.0000
  C   C2010     1.0  0.90912  0.78214  0.42589  1.0000
  C   C2011     1.0  0.89137  0.77644  0.42721  1.0000
  C   C2012     1.0  0.87523  0.79008  0.42727  1.0000
  C   C2013     1.0  0.87659  0.80949  0.42638  1.0000
  C   C2014     1.0  0.89429  0.81515  0.42551  1.0000
  C   C2015     1.0  0.91046  0.80156  0.42505  1.0000
  H   H2397     1.0  0.89012  0.76157  0.42786  1.0000
  H   H2398     1.0  0.86162  0.78555  0.42790  1.0000
  H   H2399     1.0  0.89558  0.83004  0.42462  1.0000
  H   H2400     1.0  0.92413  0.80611  0.42397  1.0000
  C   C2016     1.0  0.92366  0.65318  0.39929  1.0000
  C   C2017     1.0  0.92944  0.64059  0.41473  1.0000
  C   C2018     1.0  0.93130  0.62087  0.41435  1.0000
  C   C2019     1.0  0.92783  0.61348  0.39839  1.0000
  C   C2020     1.0  0.92277  0.62604  0.38264  1.0000
  C   C2021     1.0  0.92052  0.64579  0.38319  1.0000
  H   H2401     1.0  0.93228  0.64597  0.42709  1.0000
  H   H2402     1.0  0.93523  0.61129  0.42660  1.0000
  H   H2403     1.0  0.92003  0.62056  0.37027  1.0000
  H   H2404     1.0  0.91609  0.65539  0.37114  1.0000
  C   C2022     1.0  0.90706  0.77756  0.59994  1.0000
  C   C2023     1.0  0.89192  0.79003  0.59326  1.0000
  C   C2024     1.0  0.88952  0.80943  0.59532  1.0000
  C   C2025     1.0  0.90231  0.81669  0.60406  1.0000
  C   C2026     1.0  0.91783  0.80437  0.61016  1.0000
  C   C2027     1.0  0.92019  0.78488  0.60817  1.0000
  H   H2405     1.0  0.88181  0.78458  0.58667  1.0000
  H   H2406     1.0  0.87764  0.81872  0.59031  1.0000
  H   H2407     1.0  0.92790  0.80983  0.61681  1.0000
  H   H2408     1.0  0.93192  0.77547  0.61336  1.0000
  C   C2028     1.0  0.93922  0.63976  0.64716  1.0000
  H   H2409     1.0  0.85802  0.93811  0.46698  1.0000
  C   C2029     1.0  0.82407  0.79106  0.61207  1.0000
  C   C2030     1.0  0.94357  0.59959  0.65080  1.0000
  C   C2031     1.0  0.94427  0.61051  0.63285  1.0000
  C   C2032     1.0  0.94217  0.63050  0.63101  1.0000
  H   H2410     1.0  0.86723  0.91625  0.48011  1.0000
  C   C2033     1.0  0.99124  0.64279  0.41370  1.0000
  H   H2411     1.0  0.94614  0.60348  0.62028  1.0000
  H   H2412     1.0  0.94223  0.63873  0.61714  1.0000
  C   C2034     1.0  0.94891  0.69181  0.53472  1.0000
  C   C2035     1.0  0.95482  0.68632  0.51667  1.0000
  C   C2036     1.0  0.94209  0.68823  0.50346  1.0000
  C   C2037     1.0  0.92321  0.69505  0.50844  1.0000
  C   C2038     1.0  0.91717  0.70020  0.52662  1.0000
  C   C2039     1.0  0.93005  0.69881  0.53968  1.0000
  H   H2413     1.0  0.96928  0.68058  0.51285  1.0000
  H   H2414     1.0  0.94685  0.68407  0.48953  1.0000
  H   H2415     1.0  0.90259  0.70553  0.53052  1.0000
  H   H2416     1.0  0.92537  0.70315  0.55354  1.0000
  H   H2417     1.0  0.90912  0.81751  0.46280  1.0000
  H   H2418     1.0  0.90432  0.83748  0.47552  1.0000
  H   H2419     1.0  0.87607  0.81366  0.46777  1.0000
  H   H2420     1.0  0.87017  0.83306  0.48118  1.0000
  N   N133      1.0  0.87705  0.66479  0.44592  1.0000
  C   C2040     1.0  0.89509  0.66563  0.45273  1.0000
  C   C2041     1.0  0.87199  0.68319  0.43423  1.0000
  C   C2042     1.0  0.86233  0.66304  0.46250  1.0000
  C   C2043     1.0  0.87891  0.64817  0.43552  1.0000
  C   C2044     1.0  0.88330  0.62954  0.44490  1.0000
  C   C2045     1.0  0.87678  0.64983  0.41599  1.0000
  C   C2046     1.0  0.88536  0.61363  0.43536  1.0000
  C   C2047     1.0  0.87871  0.63379  0.40666  1.0000
  C   C2048     1.0  0.88302  0.61576  0.41629  1.0000
  H   H2421     1.0  0.90642  0.66677  0.44057  1.0000
  H   H2422     1.0  0.89441  0.67807  0.46049  1.0000
  H   H2423     1.0  0.89953  0.65289  0.46259  1.0000
  H   H2424     1.0  0.88302  0.68591  0.42199  1.0000
  H   H2425     1.0  0.87063  0.69537  0.44247  1.0000
  H   H2426     1.0  0.85838  0.68372  0.42877  1.0000
  H   H2427     1.0  0.86602  0.65063  0.47308  1.0000
  H   H2428     1.0  0.86010  0.67569  0.47022  1.0000
  H   H2429     1.0  0.84870  0.66146  0.45804  1.0000
  H   H2430     1.0  0.88554  0.62714  0.45960  1.0000
  H   H2431     1.0  0.87417  0.66336  0.40740  1.0000
  H   H2432     1.0  0.88923  0.59956  0.44261  1.0000
  H   H2433     1.0  0.87754  0.63538  0.39165  1.0000
  H   H2434     1.0  0.88521  0.60342  0.40880  1.0000
  H   H2435     1.0  0.97732  0.67136  0.40917  1.0000
  C   C2049     1.0  0.89603  0.89327  0.63454  1.0000
  C   C2050     1.0  0.90095  0.78087  0.51076  1.0000
  N   N134      1.0  0.79428  0.83976  0.42062  1.0000
  C   C2051     1.0  0.85915  0.81688  0.64084  1.0000
  H   H2436     1.0  0.86745  0.81912  0.62667  1.0000
  H   H2437     1.0  0.91845  0.91324  0.58455  1.0000
  H   H2438     1.0  0.81976  0.94425  0.59810  1.0000
  H   H2439     1.0  0.92140  0.86932  0.61658  1.0000
  C   C2052     1.0  0.79729  0.86118  0.54973  1.0000
  H   H2440     1.0  0.90438  0.97155  0.59213  1.0000
  H   H2441     1.0  0.80989  0.85835  0.39987  1.0000
  N   N135      1.0  0.85713  0.79656  0.64660  1.0000
  H   H2442     1.0  0.86624  0.82268  0.65094  1.0000
  H   H2443     1.0  0.88898  0.90601  0.45448  1.0000
  H   H2444     1.0  0.82837  0.95722  0.38218  1.0000
  C   C2053     1.0  0.77013  0.86191  0.49985  1.0000
  H   H2445     1.0  0.79988  0.92404  0.63169  1.0000
  H   H2446     1.0  0.75836  0.86847  0.60528  1.0000
  C   C2054     1.0  0.85828  0.77303  0.62308  1.0000
  H   H2447     1.0  0.81179  0.86280  0.55019  1.0000
  H   H2448     1.0  0.97328  0.74266  0.46854  1.0000
  C   C2055     1.0  0.78689  0.85280  0.56574  1.0000
  C   C2056     1.0  0.80841  0.99808  0.61365  1.0000
  H   H2449     1.0  0.84486  0.98062  0.43780  1.0000
  H   H2450     1.0  0.77565  0.80816  0.41986  1.0000
  C   C2057     1.0  0.86587  0.98043  0.39238  1.0000
  C   C2058     1.0  0.90549  0.93297  0.62579  1.0000
  H   H2451     1.0  0.78831  0.86973  0.41064  1.0000
  S   S554      1.0  0.94561  0.57449  0.65246  1.0000
  H   H2452     1.0  0.79653  0.85718  0.44206  1.0000
  H   H2453     1.0  0.96538  0.59296  0.41003  1.0000
  H   H2454     1.0  0.75749  0.90005  0.49603  1.0000
  C   C2059     1.0  0.85108  0.97520  0.42475  1.0000
  H   H2455     1.0  0.79321  0.84801  0.57863  1.0000
  H   H2456     1.0  0.87164  0.76546  0.62638  1.0000
  H   H2457     1.0  0.89704  0.87803  0.64060  1.0000
  H   H2458     1.0  0.82737  0.77028  0.59281  1.0000
  H   H2459     1.0  0.88623  0.99576  0.47553  1.0000
  C   C2060     1.0  0.81195  0.94717  0.40798  1.0000
  H   H2460     1.0  0.88460  0.96217  0.48620  1.0000
  C   C2061     1.0  0.79514  0.85620  0.40552  1.0000
  C   C2062     1.0  0.85263  0.95554  0.42342  1.0000
  H   H2461     1.0  0.82408  0.80993  0.63207  1.0000
  N   N136      1.0  0.79211  0.95017  0.61399  1.0000
  H   H2462     1.0  0.88628  0.78755  0.63734  1.0000
  C   C2063     1.0  0.80591  0.82311  0.41289  1.0000
  C   C2064     1.0  0.85041  0.76643  0.60916  1.0000
  H   H2463     1.0  0.76396  0.86667  0.48641  1.0000
  H   H2464     1.0  0.85500  0.99118  0.63171  1.0000
  C   C2065     1.0  0.80468  0.94419  0.59703  1.0000
  Fe  Fe276     1.0  0.95789  0.54701  0.34989  1.0000
  H   H2465     1.0  0.86367  0.81018  0.49126  1.0000
  H   H2466     1.0  0.93126  0.88046  0.64260  1.0000
  H   H2467     1.0  0.99221  0.72574  0.43267  1.0000
  C   C2066     1.0  0.98681  0.74780  0.52610  1.0000
  H   H2468     1.0  0.89894  0.78887  0.46312  1.0000
  H   H2469     1.0  0.87019  0.61625  0.65943  1.0000
  H   H2470     1.0  0.90194  0.90958  0.48201  1.0000
  H   H2471     1.0  0.80064  0.81981  0.40019  1.0000
  H   H2472     1.0  0.98654  0.56598  0.64413  1.0000
  H   H2473     1.0  0.87102  0.98989  0.38022  1.0000
  N   N137      1.0  0.89291  0.81259  0.49047  1.0000
  H   H2474     1.0  0.92154  0.81787  0.48244  1.0000
  N   N138      1.0  0.91385  0.89810  0.62329  1.0000
  C   C2067     1.0  0.91968  0.88423  0.60944  1.0000
  C   C2068     1.0  0.79504  0.97124  0.42659  1.0000
  H   H2475     1.0  0.84717  0.94600  0.43527  1.0000
  C   C2069     1.0  0.91437  0.92348  0.59443  1.0000
  C   C2070     1.0  0.76403  0.82570  0.63262  1.0000
  C   C2071     1.0  0.76991  0.86642  0.53239  1.0000
  C   C2072     1.0  0.99389  0.62462  0.40820  1.0000
  H   H2476     1.0  0.99311  0.75882  0.55039  1.0000
  C   C2073     1.0  0.84928  0.78911  0.63180  1.0000
  C   C2074     1.0  0.90324  0.95198  0.61779  1.0000
  H   H2477     1.0  0.76105  0.97799  0.62147  1.0000
  C   C2075     1.0  0.91124  0.91810  0.61437  1.0000
  S   S555      1.0  0.98785  0.53407  0.34437  1.0000
  H   H2478     1.0  0.94193  0.89968  0.62828  1.0000
  C   C2076     1.0  0.79940  0.93962  0.63125  1.0000
  C   C2077     1.0  0.92847  0.89549  0.63610  1.0000
  C   C2078     1.0  0.76716  0.82004  0.42579  1.0000
  H   H2479     1.0  0.75745  0.81296  0.63684  1.0000
  N   N139      1.0  0.76143  0.87375  0.51483  1.0000
  H   H2480     1.0  0.87910  0.81532  0.51885  1.0000
  H   H2481     1.0  0.84547  0.82592  0.64002  1.0000
  H   H2482     1.0  0.79782  0.87392  0.52112  1.0000
  H   H2483     1.0  0.89705  0.98511  0.41774  1.0000
  H   H2484     1.0  0.79049  0.94387  0.64430  1.0000
  H   H2485     1.0  0.92437  0.90411  0.64802  1.0000
  H   H2486     1.0  0.82025  0.99041  0.38608  1.0000
  H   H2487     1.0  0.81390  0.94230  0.63213  1.0000
  C   C2079     1.0  0.90086  0.78162  0.47705  1.0000
  H   H2488     1.0  0.90369  0.81859  0.51500  1.0000
  C   C2080     1.0  0.80298  0.84362  0.43677  1.0000
  H   H2489     1.0  0.78546  0.86255  0.49638  1.0000
  C   C2081     1.0  0.76176  0.85162  0.43500  1.0000
  C   C2082     1.0  0.77446  0.83699  0.42706  1.0000
  C   C2083     1.0  0.75595  0.84048  0.62022  1.0000
  H   H2490     1.0  0.90301  0.60173  0.65807  1.0000
  C   C2084     1.0  0.89822  0.79173  0.49291  1.0000
  H   H2491     1.0  0.87532  0.77124  0.65575  1.0000
  H   H2492     1.0  0.78597  0.97440  0.43936  1.0000
  C   C2085     1.0  0.81390  0.98036  0.39686  1.0000
  C   C2086     1.0  0.97321  0.63582  0.38429  1.0000
  C   C2087     1.0  0.89184  0.99243  0.44602  1.0000
  H   H2493     1.0  0.96134  0.66529  0.38315  1.0000
  C   C2088     1.0  0.75226  0.90952  0.41797  1.0000
  H   H2494     1.0  0.81076  0.79808  0.60785  1.0000
  C   C2089     1.0  0.77343  0.94454  0.61328  1.0000
  H   H2495     1.0  0.91425  0.94642  0.57137  1.0000
  H   H2496     1.0  0.96538  0.63410  0.37320  1.0000
  C   C2090     1.0  0.80010  0.95214  0.42405  1.0000
  C   C2091     1.0  0.85770  0.98771  0.40909  1.0000
  H   H2497     1.0  0.90769  0.75306  0.52614  1.0000
  C   C2092     1.0  0.88983  0.95326  0.45793  1.0000
  C   C2093     1.0  0.90262  0.92495  0.47708  1.0000
  H   H2498     1.0  0.89839  0.96309  0.62674  1.0000
  C   C2094     1.0  0.99383  0.74105  0.50843  1.0000
  H   H2499     1.0  0.80171  0.83208  0.44884  1.0000
  H   H2500     1.0  0.95510  0.74985  0.50700  1.0000
  H   H2501     1.0  0.96198  0.60281  0.37567  1.0000
  C   C2095     1.0  0.89467  0.97977  0.43270  1.0000
  H   H2502     1.0  0.90451  0.92113  0.44050  1.0000
  H   H2503     1.0  0.78797  0.85424  0.39347  1.0000
  H   H2504     1.0  0.95321  0.72964  0.49608  1.0000
  S   S556      1.0  0.93662  0.53949  0.33397  1.0000
  C   C2096     1.0  0.81872  0.96124  0.39439  1.0000
  C   C2097     1.0  0.86934  0.93134  0.47556  1.0000
  H   H2505     1.0  0.90094  0.93202  0.49005  1.0000
  H   H2506     1.0  0.77988  0.89498  0.50366  1.0000
  C   C2098     1.0  0.90591  0.76116  0.51239  1.0000
  H   H2507     1.0  0.98843  0.58682  0.41693  1.0000
  C   C2099     1.0  0.80845  0.97893  0.61217  1.0000
  H   H2508     1.0  0.81817  0.84475  0.43276  1.0000
  H   H2509     1.0  0.96046  0.72612  0.51905  1.0000
  C   C2100     1.0  0.83185  0.79780  0.62595  1.0000
  C   C2101     1.0  0.88836  0.98581  0.46522  1.0000
  C   C2102     1.0  0.98466  0.65653  0.66272  1.0000
  H   H2510     1.0  0.81628  0.93238  0.40618  1.0000
  C   C2103     1.0  0.75984  0.85728  0.54882  1.0000
  C   C2104     1.0  0.75780  0.89823  0.45041  1.0000
  H   H2511     1.0  0.89143  0.90166  0.64658  1.0000
  H   H2512     1.0  0.90790  0.75465  0.46635  1.0000
  H   H2513     1.0  0.75234  0.89335  0.46480  1.0000
  C   C2105     1.0  0.80180  0.98596  0.41307  1.0000
  H   H2514     1.0  0.75988  0.90268  0.52001  1.0000
  C   C2106     1.0  0.90839  0.75174  0.49645  1.0000
  C   C2107     1.0  0.97074  0.65395  0.38988  1.0000
  N   N140      1.0  0.88812  0.93302  0.46460  1.0000
  C   C2108     1.0  0.88742  0.96653  0.47115  1.0000
  H   H2515     1.0  0.97182  0.66128  0.65643  1.0000
  C   C2109     1.0  0.76483  0.89369  0.50844  1.0000
  C   C2110     1.0  0.79155  0.97075  0.61461  1.0000
  H   H2516     1.0  0.80358  0.92940  0.59490  1.0000
  H   H2517     1.0  0.82077  0.82568  0.40833  1.0000
  C   C2111     1.0  0.89042  0.92111  0.44900  1.0000
  C   C2112     1.0  0.90658  0.95678  0.59825  1.0000
  H   H2518     1.0  0.78630  0.81615  0.64981  1.0000
  H   H2519     1.0  0.88452  0.89618  0.62557  1.0000
  C   C2113     1.0  0.74831  0.81805  0.43217  1.0000
  H   H2520     1.0  0.85781  0.75438  0.60246  1.0000
  H   H2521     1.0  0.90894  0.88485  0.59977  1.0000
  H   H2522     1.0  0.82191  0.97046  0.60956  1.0000
  H   H2523     1.0  0.76361  0.94662  0.62646  1.0000
  C   C2114     1.0  0.91204  0.94257  0.58660  1.0000
  H   H2524     1.0  0.97219  0.74856  0.53194  1.0000
  H   H2525     1.0  0.98235  0.60823  0.35910  1.0000
  C   C2115     1.0  0.96178  0.73517  0.50509  1.0000
  S   S557      1.0  0.94788  0.57816  0.34673  1.0000
  C   C2116     1.0  0.98027  0.58799  0.40487  1.0000
  C   C2117     1.0  0.97964  0.65740  0.40459  1.0000
  H   H2526     1.0  0.76625  0.86492  0.43614  1.0000
  H   H2527     1.0  0.98147  0.59801  0.64511  1.0000
  H   H2528     1.0  0.89204  0.63339  0.66354  1.0000
  S   S558      1.0  0.99084  0.68538  0.44347  1.0000
  C   C2118     1.0  0.87588  0.78649  0.65037  1.0000
  H   H2529     1.0  0.97965  0.58430  0.36882  1.0000
  C   C2119     1.0  0.93912  0.62880  0.66505  1.0000
  H   H2530     1.0  0.88162  0.79264  0.66123  1.0000
  H   H2531     1.0  0.76030  0.84390  0.57761  1.0000
  H   H2532     1.0  0.97698  0.76210  0.48000  1.0000
  N   N141      1.0  0.98171  0.73469  0.49647  1.0000
  H   H2533     1.0  0.98951  0.70531  0.50657  1.0000
  H   H2534     1.0  0.76816  0.84678  0.50429  1.0000
  C   C2120     1.0  0.98213  0.74706  0.47803  1.0000
  C   C2121     1.0  0.98491  0.62052  0.39334  1.0000
  H   H2535     1.0  0.97957  0.70928  0.48465  1.0000
  C   C2122     1.0  0.98876  0.71489  0.49298  1.0000
  Fe  Fe277     1.0  0.92474  0.57015  0.33335  1.0000
  N   N142      1.0  0.98742  0.60098  0.38828  1.0000
  H   H2536     1.0  0.83030  0.80354  0.66327  1.0000
  C   C2123     1.0  0.74546  0.90336  0.43674  1.0000
  C   C2124     1.0  0.84419  0.79479  0.66458  1.0000
  H   H2537     1.0  0.74534  0.85526  0.54953  1.0000
  H   H2538     1.0  0.97623  0.56084  0.73182  1.0000
  S   S559      1.0  0.77536  0.53444  0.95705  1.0000
  H   H2539     1.0  0.88390  0.58012  0.88202  1.0000
  S   S560      1.0  0.75703  0.57673  0.93952  1.0000
  Fe  Fe278     1.0  0.77498  0.55132  0.92816  1.0000
  S   S561      1.0  0.79956  0.55192  0.90407  1.0000
  Fe  Fe279     1.0  0.75532  0.55865  0.96782  1.0000
  H   H2540     1.0  0.85459  0.61385  0.68126  1.0000
  H   H2541     1.0  0.79003  0.51977  0.88970  1.0000
  S   S562      1.0  0.94964  0.56327  0.70667  1.0000
  H   H2542     1.0  0.91098  0.58632  0.67798  1.0000
  S   S563      1.0  0.93952  0.52154  0.72851  1.0000
  H   H2543     1.0  0.79731  0.50240  0.87377  1.0000
  Fe  Fe280     1.0  0.92422  0.55056  0.72140  1.0000
  S   S564      1.0  0.90267  0.56738  0.74047  1.0000
  Fe  Fe281     1.0  0.96426  0.53348  0.71136  1.0000
  S   S565      1.0  0.91570  0.54389  0.69460  1.0000
  Fe  Fe282     1.0  0.91202  0.53564  0.87799  1.0000
  S   S566      1.0  0.91327  0.53288  0.84713  1.0000
  S   S567      1.0  0.88826  0.52770  0.90121  1.0000
  Fe  Fe283     1.0  0.95264  0.54665  0.87226  1.0000
  S   S568      1.0  0.95635  0.54551  0.84096  1.0000
  N   N143      1.0  0.88256  0.59957  0.68320  1.0000
  Fe  Fe284     1.0  0.92660  0.55963  0.84210  1.0000
  S   S569      1.0  0.91650  0.58386  0.82104  1.0000
  H   H2544     1.0  0.97475  0.63124  0.67814  1.0000
  C   C2125     1.0  0.89856  0.59133  0.67034  1.0000
  S   S570      1.0  0.92371  0.56346  0.87297  1.0000
  S   S571      1.0  0.94074  0.51917  0.88005  1.0000
  C   C2126     1.0  0.90770  0.57138  0.76266  1.0000
  C   C2127     1.0  0.92016  0.55870  0.77312  1.0000
  C   C2128     1.0  0.92284  0.56213  0.79128  1.0000
  C   C2129     1.0  0.91348  0.57852  0.79866  1.0000
  C   C2130     1.0  0.90132  0.59124  0.78800  1.0000
  C   C2131     1.0  0.89823  0.58754  0.77026  1.0000
  H   H2545     1.0  0.92740  0.54609  0.76740  1.0000
  H   H2546     1.0  0.93228  0.55224  0.79944  1.0000
  H   H2547     1.0  0.89412  0.60393  0.79356  1.0000
  H   H2548     1.0  0.88855  0.59733  0.76230  1.0000
  C   C2132     1.0  0.82409  0.54436  0.90369  1.0000
  C   C2133     1.0  0.83226  0.53726  0.92016  1.0000
  C   C2134     1.0  0.85187  0.53203  0.91911  1.0000
  C   C2135     1.0  0.86356  0.53397  0.90168  1.0000
  C   C2136     1.0  0.85533  0.54050  0.88517  1.0000
  C   C2137     1.0  0.83573  0.54567  0.88618  1.0000
  H   H2549     1.0  0.82353  0.53613  0.93373  1.0000
  H   H2550     1.0  0.85807  0.52686  0.93198  1.0000
  H   H2551     1.0  0.86410  0.54159  0.87167  1.0000
  H   H2552     1.0  0.82956  0.55102  0.87334  1.0000
  H   H2553     1.0  0.85655  0.60836  0.82498  1.0000
  H   H2554     1.0  0.89255  0.59937  0.85590  1.0000
  H   H2555     1.0  0.99189  0.51552  0.87388  1.0000
  H   H2556     1.0  0.88879  0.57727  0.70580  1.0000
  H   H2557     1.0  0.83887  0.59666  0.83987  1.0000
  Fe  Fe285     1.0  0.94245  0.55475  0.68034  1.0000
  C   C2138     1.0  0.78851  0.50514  0.88734  1.0000
  H   H2558     1.0  0.93707  0.63580  0.67764  1.0000
  H   H2559     1.0  0.86514  0.58936  0.70856  1.0000
  H   H2560     1.0  0.84163  0.77982  0.66905  1.0000
  H   H2561     1.0  0.89769  0.62926  0.73178  1.0000
  C   C2139     1.0  0.87688  0.58410  0.69806  1.0000
  N   N144      1.0  0.86443  0.59529  0.85217  1.0000
  H   H2562     1.0  0.83789  0.58010  0.92629  1.0000
  H   H2563     1.0  0.81581  0.59325  0.90328  1.0000
  H   H2564     1.0  0.84393  0.61921  0.84484  1.0000
  C   C2140     1.0  0.84317  0.58365  0.91149  1.0000
  H   H2565     1.0  0.84985  0.79969  0.67626  1.0000
  C   C2141     1.0  0.83076  0.59113  0.89847  1.0000
  C   C2142     1.0  0.86229  0.58001  0.90532  1.0000
  H   H2566     1.0  0.77361  0.50517  0.88536  1.0000
  H   H2567     1.0  0.87230  0.57248  0.69199  1.0000
  C   C2143     1.0  0.86906  0.58384  0.88613  1.0000
  C   C2144     1.0  0.99384  0.50234  0.86724  1.0000
  C   C2145     1.0  0.85686  0.59170  0.87247  1.0000
  Fe  Fe286     1.0  0.94293  0.51908  0.84881  1.0000
  C   C2146     1.0  0.85024  0.60535  0.84003  1.0000
  Fe  Fe287     1.0  0.93317  0.51545  0.70055  1.0000
  C   C2147     1.0  0.87180  0.57696  0.84504  1.0000
  H   H2568     1.0  0.88504  0.61116  0.83453  1.0000
  H   H2569     1.0  0.87186  0.57352  0.91538  1.0000
  H   H2570     1.0  0.88785  0.60282  0.72065  1.0000
  H   H2571     1.0  0.90421  0.65811  0.70976  1.0000
  H   H2572     1.0  0.87742  0.57896  0.82970  1.0000
  C   C2148     1.0  0.83740  0.59514  0.87923  1.0000
  C   C2149     1.0  0.89024  0.61498  0.71030  1.0000
  C   C2150     1.0  0.89591  0.63021  0.71696  1.0000
  C   C2151     1.0  0.87994  0.60704  0.84976  1.0000
  H   H2573     1.0  0.87545  0.62024  0.85648  1.0000
  H   H2574     1.0  0.78618  0.54499  0.99467  1.0000
  S   S572      1.0  0.95922  0.52558  0.68378  1.0000
  H   H2575     1.0  0.97818  0.57984  0.67368  1.0000
  H   H2576     1.0  0.88354  0.56915  0.85252  1.0000
  H   H2577     1.0  0.99206  0.55264  0.84842  1.0000
  H   H2578     1.0  0.82691  0.60055  0.86997  1.0000
  H   H2579     1.0  0.86066  0.56760  0.84683  1.0000
  H   H2580     1.0  0.98957  0.59062  0.73137  1.0000
  H   H2581     1.0  0.94093  0.60074  0.68081  1.0000
  S   S573      1.0  0.97647  0.54988  0.88826  1.0000
  C   C2152     1.0  0.89235  0.63220  0.67864  1.0000
  H   H2582     1.0  0.86123  0.59444  0.66741  1.0000
  C   C2153     1.0  0.89958  0.64643  0.70460  1.0000
  S   S574      1.0  0.74978  0.53989  0.92155  1.0000
  H   H2583     1.0  0.78529  0.51072  0.92387  1.0000
  H   H2584     1.0  0.98954  0.55951  0.68674  1.0000
  S   S575      1.0  0.99321  0.52505  0.71941  1.0000
  H   H2585     1.0  0.99060  0.51029  0.81011  1.0000
  C   C2154     1.0  0.99198  0.57329  0.67806  1.0000
  C   C2155     1.0  0.88816  0.61556  0.69087  1.0000
  H   H2586     1.0  0.92594  0.50639  0.81729  1.0000
  C   C2156     1.0  0.89774  0.64745  0.68550  1.0000
  H   H2587     1.0  0.98424  0.57741  0.79847  1.0000
  C   C2157     1.0  0.99110  0.56117  0.72788  1.0000
  C   C2158     1.0  0.98627  0.63962  0.67496  1.0000
  H   H2588     1.0  0.90120  0.65985  0.67577  1.0000
  H   H2589     1.0  0.88841  0.50077  0.86939  1.0000
  C   C2159     1.0  0.86646  0.60636  0.67237  1.0000
  S   S576      1.0  0.75163  0.57137  0.99515  1.0000
  H   H2590     1.0  0.98098  0.50297  0.86047  1.0000
  Fe  Fe288     1.0  0.74942  0.52433  0.95098  1.0000
  H   H2591     1.0  0.81581  0.50522  0.90960  1.0000
  C   C2160     1.0  0.94131  0.60886  0.66689  1.0000
  H   H2592     1.0  0.74641  0.85040  0.66619  1.0000
