data_image0
_chemical_formula_structural       FeHSC2SH3NH3C2H2CHCH2CHCH3CH3CNCH3FeHSCSCFeS2FeHSFeSHS2H2CHC4NC7H2CSC2H3C2H3SHCH3FeH2C2HC3H3CH3C2HCH2NHCHFeSHCSCFeSFeSHFeS2FeS2FeSFeS3CHCNHCH4C4H3SCH3C2H2CHC6H4C3H8C2NC7HCH10C3SCH2C3H6CHC2H3FeHC2HSC3HCH5CH3CH2C3HNC5HC2H4C3NCNC2HCHSHCS2HC2HNCSHFeSHFe3SCS2C4H5FeCHCHS2CH2CH3CH2C2H2C3HC8HCH6NHC8H4CH2SC2HCSHCH2CH4CH2CHCH4CHC2HCH4CHC2HCNH3CH5CFeSCFeSHSHCH2S2CSH6FeSHSHFeSCFeS2FeSFeS3CSHCHCHCHC2SC5H2C6H4C5H4C3H4CFeCNCFeC6HCHCHC6H4CH4C2HC2H3CSNCFeH3C2HC2H3NC2HC2FeCFeCH2CFeH4CH2SHCSC2HFeHC2H3CSC2HSCSH5CNCH4CH3C2H6CH2SHCHCHSH3C4HCH3SHCH6CH2NCFeS2FeS2FeSFeS4H2SFeSCFeS2FeSFeS3Fe2SFeCHCFeNHSHC6H5CH2C8HC4HNH3C6H4SC3H5C6H2NC9H16CHCNH5CHCHC2H6CHC2HNCSCH2S2HCH2CH4C3SH2CNHC2SC3SC2H6CH2C2H2CHSHCHC2H2SHC2H2Fe2CHCHSH5CFeC4H3CH2SH3CFeSCHC2FeSCSFeH2FeS2HFeSHSFeS2FeSHFeSFeS3HC4H3SC7H5C4H4C7H6CH2C2H2FeC4HC2HCNH2CH2C2H4CH5CH2CH2C2HCNSH4CHCNC5H13S2CH5CH3C2H2CHC2FeHCSCHC3HC3HC3H2CH5C4H2CSHC2H4NH2CH3C5HFeS2FeS3FeS2FeS2FeSFeS3FeS2FeS2FeSFeHS2FeS2FeCSFeC2S2C6H4C6H6C4NH3C5H6C2HSC2H2C3H3C7H3SH2SCHCH2C3H4CSCH3CH2CH2CH3CH4CH2C3H8CHCH3C2SH2CH2CSC3HNC6H11CHC3H2C2NC6HCH2CFeC4HCH5CHN2HC2H4CH4CHFeH2C2H9NSH2C2H2CNSH2CHFeC2HCHCH2C3SC2S2FeS2FeS2FeSFeS3C6H3FeH2C5HC6H5CHC4HSCNC4H2CFeCH9CH6C2H5C5SH2NHN2C3HFeH6CH3CSHC2H10C3H2CHCSH2CHNH2NC6HCHCH3CHCNHCH2CHFeCHCH6C3H3CHCHCSC2HC4HC2FeSHFeS2FeSFeS4FeS2FeS2FeSFeS3C6H3C4HC2H4C2H3C6H4SC5HC6H5NHFeC2H2C2NHC2HCH4CHCH2CHCH2C2SCHC3H5CHCNHCH5CHC5H3CHCH3C2H2SH3CH3SNC9H14CHCH2C2H5C4HCH3C2NH3C2NHCH3CH4CH3NHCHC2SCH3CHCSCFeSHSH2CFeH6CH3C3SCFeSHSHCHC2HCHCHSHCHCH2C2H2CFeH2
_chemical_formula_sum              "Fe96 H864 S192 C720 N48"
_cell_length_a       57.7877
_cell_length_b       58.0632
_cell_length_c       40.4729
_cell_angle_alpha    91.8287
_cell_angle_beta     91.5308
_cell_angle_gamma    118.914

_space_group_name_H-M_alt    "P 1"
_space_group_IT_number       1

loop_
  _space_group_symop_operation_xyz
  'x, y, z'

loop_
  _atom_site_type_symbol
  _atom_site_label
  _atom_site_symmetry_multiplicity
  _atom_site_fract_x
  _atom_site_fract_y
  _atom_site_fract_z
  _atom_site_occupancy
  Fe  Fe1       1.0  0.31713  0.44031  0.49017  1.0000
  H   H1        1.0  0.34228  0.46274  0.35970  1.0000
  S   S1        1.0  0.33663  0.48425  0.49054  1.0000
  C   C1        1.0  0.31383  0.50244  0.24676  1.0000
  C   C2        1.0  0.20955  0.39602  0.47177  1.0000
  S   S2        1.0  0.32709  0.43549  0.43741  1.0000
  H   H2        1.0  0.26296  0.46423  0.29405  1.0000
  H   H3        1.0  0.31129  0.48789  0.22646  1.0000
  H   H4        1.0  0.29207  0.49550  0.03779  1.0000
  N   N1        1.0  0.28888  0.49506  0.26342  1.0000
  H   H5        1.0  0.26423  0.47529  0.21927  1.0000
  H   H6        1.0  0.32979  0.50406  0.26420  1.0000
  H   H7        1.0  0.11519  0.36156  0.50258  1.0000
  C   C3        1.0  0.20804  0.41890  0.46695  1.0000
  C   C4        1.0  0.18687  0.42156  0.47873  1.0000
  H   H8        1.0  0.18766  0.44029  0.47538  1.0000
  H   H9        1.0  0.29597  0.46851  0.29339  1.0000
  C   C5        1.0  0.18979  0.37556  0.48821  1.0000
  H   H10       1.0  0.27915  0.46707  0.49836  1.0000
  C   C6        1.0  0.28000  0.46914  0.27814  1.0000
  H   H11       1.0  0.24939  0.48717  0.24905  1.0000
  H   H12       1.0  0.22399  0.43512  0.45519  1.0000
  C   C7        1.0  0.26836  0.49157  0.23779  1.0000
  H   H13       1.0  0.16153  0.44556  0.51252  1.0000
  C   C8        1.0  0.14376  0.42802  0.50094  1.0000
  H   H14       1.0  0.27383  0.45293  0.25879  1.0000
  H   H15       1.0  0.11727  0.38055  0.46747  1.0000
  H   H16       1.0  0.22659  0.39454  0.46378  1.0000
  C   C9        1.0  0.11824  0.38101  0.49500  1.0000
  H   H17       1.0  0.14319  0.43026  0.47379  1.0000
  H   H18       1.0  0.10096  0.38266  0.50395  1.0000
  H   H19       1.0  0.12629  0.42880  0.51075  1.0000
  C   C10       1.0  0.16622  0.40095  0.49541  1.0000
  N   N2        1.0  0.14367  0.40313  0.50872  1.0000
  C   C11       1.0  0.16839  0.37788  0.49984  1.0000
  H   H20       1.0  0.27481  0.50934  0.22307  1.0000
  H   H21       1.0  0.31782  0.50575  0.32245  1.0000
  H   H22       1.0  0.15387  0.36169  0.51304  1.0000
  Fe  Fe2       1.0  0.34923  0.47976  0.43976  1.0000
  H   H23       1.0  0.19146  0.35809  0.49262  1.0000
  S   S3        1.0  0.27755  0.41765  0.51426  1.0000
  C   C12       1.0  0.30514  0.50914  0.01943  1.0000
  S   S4        1.0  0.35084  0.50807  0.40166  1.0000
  C   C13       1.0  0.35268  0.48035  0.34605  1.0000
  Fe  Fe3       1.0  0.11618  0.43106  0.60670  1.0000
  S   S5        1.0  0.11935  0.45883  0.64838  1.0000
  S   S6        1.0  0.07762  0.39839  0.58224  1.0000
  Fe  Fe4       1.0  0.17592  0.46280  0.59412  1.0000
  H   H24       1.0  0.06242  0.48255  0.63476  1.0000
  S   S7        1.0  0.20832  0.47111  0.55766  1.0000
  Fe  Fe5       1.0  0.15694  0.45891  0.66440  1.0000
  S   S8        1.0  0.16491  0.45529  0.71873  1.0000
  H   H25       1.0  0.20750  0.42200  0.57640  1.0000
  S   S9        1.0  0.15198  0.42811  0.62497  1.0000
  S   S10       1.0  0.13983  0.46351  0.57299  1.0000
  H   H26       1.0  0.03783  0.43663  0.65215  1.0000
  H   H27       1.0  0.31604  0.49993  0.00750  1.0000
  C   C14       1.0  0.32493  0.46761  0.59075  1.0000
  H   H28       1.0  0.11318  0.49248  0.77412  1.0000
  C   C15       1.0  0.06802  0.47732  0.65794  1.0000
  C   C16       1.0  0.22775  0.45604  0.54743  1.0000
  C   C17       1.0  0.18089  0.48330  0.74645  1.0000
  C   C18       1.0  0.02307  0.37491  0.57979  1.0000
  N   N3        1.0  0.31977  0.48910  0.60253  1.0000
  C   C19       1.0  0.18025  0.47997  0.78073  1.0000
  C   C20       1.0  0.22312  0.43192  0.55951  1.0000
  C   C21       1.0  0.08962  0.49631  0.67741  1.0000
  C   C22       1.0  0.08362  0.46333  0.71651  1.0000
  C   C23       1.0  0.33617  0.50225  0.63319  1.0000
  C   C24       1.0  0.04424  0.38802  0.63455  1.0000
  C   C25       1.0  0.04639  0.38689  0.60026  1.0000
  H   H29       1.0  0.08882  0.45638  0.73842  1.0000
  H   H30       1.0  0.06197  0.39690  0.65063  1.0000
  C   C26       1.0  0.05423  0.45147  0.66764  1.0000
  S   S11       1.0  0.25680  0.50902  0.94509  1.0000
  C   C27       1.0  0.32662  0.50832  0.57622  1.0000
  C   C28       1.0  0.31884  0.50332  0.91015  1.0000
  H   H31       1.0  0.30406  0.49209  0.66748  1.0000
  H   H32       1.0  0.28382  0.46139  0.62481  1.0000
  H   H33       1.0  0.23461  0.40157  0.55832  1.0000
  C   C29       1.0  0.29450  0.49724  0.92355  1.0000
  C   C30       1.0  0.23857  0.42040  0.54927  1.0000
  H   H34       1.0  0.27919  0.46817  0.58353  1.0000
  H   H35       1.0  0.28546  0.49255  0.61538  1.0000
  H   H36       1.0  0.32368  0.48780  0.90485  1.0000
  S   S12       1.0  0.18321  0.49327  0.63492  1.0000
  H   H37       1.0  0.14891  0.50573  0.69505  1.0000
  C   C31       1.0  0.19052  0.50193  0.80345  1.0000
  H   H38       1.0  0.13352  0.48386  0.74885  1.0000
  H   H39       1.0  0.31256  0.45689  0.56800  1.0000
  H   H40       1.0  0.28062  0.47705  0.92847  1.0000
  Fe  Fe6       1.0  0.14533  0.49108  0.61589  1.0000
  H   H41       1.0  0.17115  0.46030  0.78976  1.0000
  H   H42       1.0  0.12814  0.40416  0.55631  1.0000
  C   C32       1.0  0.14446  0.40196  0.54521  1.0000
  C   C33       1.0  0.19288  0.50881  0.73507  1.0000
  H   H43       1.0  0.31349  0.49938  0.55349  1.0000
  C   C34       1.0  0.29088  0.47739  0.60703  1.0000
  C   C35       1.0  0.25897  0.43302  0.52727  1.0000
  C   C36       1.0  0.06192  0.44454  0.69693  1.0000
  H   H44       1.0  0.27140  0.49515  0.81149  1.0000
  H   H45       1.0  0.05135  0.42429  0.70409  1.0000
  H   H46       1.0  0.19400  0.51166  0.70878  1.0000
  C   C37       1.0  0.09834  0.48986  0.70712  1.0000
  H   H47       1.0  0.18931  0.49912  0.82978  1.0000
  H   H48       1.0  0.32056  0.45292  0.60992  1.0000
  H   H49       1.0  0.16355  0.41799  0.55634  1.0000
  C   C38       1.0  0.24822  0.46864  0.52556  1.0000
  C   C39       1.0  0.32514  0.50191  0.66434  1.0000
  H   H50       1.0  0.14243  0.38303  0.55340  1.0000
  C   C40       1.0  0.12911  0.49995  0.75611  1.0000
  H   H51       1.0  0.34587  0.47508  0.58427  1.0000
  H   H52       1.0  0.02449  0.37386  0.55325  1.0000
  N   N4        1.0  0.12186  0.51019  0.72665  1.0000
  H   H53       1.0  0.29205  0.51008  0.99951  1.0000
  C   C41       1.0  0.26382  0.45730  0.51564  1.0000
  H   H54       1.0  0.25188  0.48722  0.51594  1.0000
  Fe  Fe7       1.0  0.13526  0.65526  0.49392  1.0000
  S   S13       1.0  0.14034  0.63345  0.45026  1.0000
  H   H55       1.0  0.34076  0.58354  0.23721  1.0000
  C   C42       1.0  0.28471  0.83549  0.50794  1.0000
  S   S14       1.0  0.20394  0.66627  0.46988  1.0000
  C   C43       1.0  0.03397  0.60287  0.44600  1.0000
  Fe  Fe8       1.0  0.17485  0.67268  0.43960  1.0000
  S   S15       1.0  0.19135  0.69186  0.39162  1.0000
  Fe  Fe9       1.0  0.16912  0.62929  0.48465  1.0000
  S   S16       1.0  0.16784  0.69543  0.48077  1.0000
  H   H56       1.0  0.24522  0.62238  0.34189  1.0000
  Fe  Fe10      1.0  0.20485  0.62867  0.22706  1.0000
  S   S17       1.0  0.20712  0.63247  0.17157  1.0000
  S   S18       1.0  0.17046  0.62261  0.25809  1.0000
  Fe  Fe11      1.0  0.25582  0.62663  0.23428  1.0000
  S   S19       1.0  0.26310  0.63081  0.18033  1.0000
  S   S20       1.0  0.28471  0.62188  0.26763  1.0000
  Fe  Fe12      1.0  0.25009  0.66124  0.18365  1.0000
  S   S21       1.0  0.27450  0.69581  0.15293  1.0000
  Fe  Fe13      1.0  0.22017  0.60177  0.17193  1.0000
  S   S22       1.0  0.21223  0.56860  0.13466  1.0000
  S   S23       1.0  0.24688  0.66000  0.23902  1.0000
  S   S24       1.0  0.21378  0.59505  0.22612  1.0000
  C   C44       1.0  0.30432  0.71823  0.17408  1.0000
  H   H57       1.0  0.30139  0.70233  0.06459  1.0000
  C   C45       1.0  0.33034  0.73718  0.22551  1.0000
  N   N5        1.0  0.22029  0.61859  0.38293  1.0000
  H   H58       1.0  0.25889  0.56192  0.03382  1.0000
  C   C46       1.0  0.30595  0.72092  0.20865  1.0000
  H   H59       1.0  0.03156  0.59833  0.41958  1.0000
  H   H60       1.0  0.24230  0.66105  0.38867  1.0000
  H   H61       1.0  0.32059  0.66092  0.22700  1.0000
  H   H62       1.0  0.28839  0.71046  0.22242  1.0000
  C   C47       1.0  0.19338  0.59160  0.04885  1.0000
  C   C48       1.0  0.19818  0.58972  0.08266  1.0000
  C   C49       1.0  0.20671  0.57209  0.09252  1.0000
  C   C50       1.0  0.21058  0.55653  0.06841  1.0000
  H   H63       1.0  0.20620  0.60890  0.31618  1.0000
  H   H64       1.0  0.19467  0.60143  0.10111  1.0000
  H   H65       1.0  0.16476  0.57568  0.28951  1.0000
  S   S25       1.0  0.16988  0.59070  0.48347  1.0000
  C   C51       1.0  0.29223  0.60025  0.24528  1.0000
  H   H66       1.0  0.22266  0.64856  0.35075  1.0000
  H   H67       1.0  0.25670  0.67298  0.06664  1.0000
  H   H68       1.0  0.26199  0.63055  0.38133  1.0000
  C   C52       1.0  0.32232  0.58352  0.23235  1.0000
  C   C53       1.0  0.31606  0.60009  0.25170  1.0000
  H   H69       1.0  0.20704  0.64712  0.38885  1.0000
  H   H70       1.0  0.31791  0.67957  0.19406  1.0000
  C   C54       1.0  0.28479  0.53442  0.28593  1.0000
  H   H71       1.0  0.24325  0.63816  0.06667  1.0000
  C   C55       1.0  0.18506  0.67239  0.35461  1.0000
  C   C56       1.0  0.20243  0.68253  0.32878  1.0000
  C   C57       1.0  0.19849  0.66722  0.29939  1.0000
  C   C58       1.0  0.17665  0.64195  0.29522  1.0000
  C   C59       1.0  0.15907  0.63198  0.32089  1.0000
  C   C60       1.0  0.16350  0.64693  0.35074  1.0000
  H   H72       1.0  0.21912  0.70222  0.33156  1.0000
  H   H73       1.0  0.21192  0.67525  0.27958  1.0000
  H   H74       1.0  0.14203  0.61253  0.31774  1.0000
  H   H75       1.0  0.14995  0.63896  0.37044  1.0000
  C   C61       1.0  0.27726  0.56663  0.08213  1.0000
  C   C62       1.0  0.32705  0.73250  0.15637  1.0000
  C   C63       1.0  0.06306  0.62461  0.49481  1.0000
  H   H76       1.0  0.32981  0.61300  0.27124  1.0000
  H   H77       1.0  0.16458  0.54034  0.49802  1.0000
  H   H78       1.0  0.32125  0.52191  0.23578  1.0000
  H   H79       1.0  0.18614  0.60480  0.04143  1.0000
  H   H80       1.0  0.22378  0.80218  0.47063  1.0000
  H   H81       1.0  0.29836  0.56850  0.12738  1.0000
  H   H82       1.0  0.13244  0.54997  0.38395  1.0000
  H   H83       1.0  0.34184  0.69578  0.22726  1.0000
  C   C64       1.0  0.05965  0.61807  0.46079  1.0000
  C   C65       1.0  0.30467  0.56712  0.20680  1.0000
  N   N6        1.0  0.23755  0.76417  0.44728  1.0000
  C   C66       1.0  0.25122  0.76484  0.41652  1.0000
  C   C67       1.0  0.23437  0.74135  0.46594  1.0000
  C   C68       1.0  0.21058  0.75946  0.43742  1.0000
  C   C69       1.0  0.25344  0.78882  0.46785  1.0000
  C   C70       1.0  0.27967  0.79605  0.47916  1.0000
  C   C71       1.0  0.24356  0.80609  0.47753  1.0000
  C   C72       1.0  0.30807  0.54646  0.05181  1.0000
  H   H84       1.0  0.31465  0.82379  0.50824  1.0000
  C   C73       1.0  0.29055  0.55417  0.31054  1.0000
  H   H85       1.0  0.27048  0.76541  0.42159  1.0000
  H   H86       1.0  0.23916  0.74695  0.39989  1.0000
  H   H87       1.0  0.25502  0.78238  0.40242  1.0000
  H   H88       1.0  0.25349  0.74234  0.47330  1.0000
  H   H89       1.0  0.22268  0.72245  0.45118  1.0000
  H   H90       1.0  0.22397  0.74007  0.48909  1.0000
  H   H91       1.0  0.19868  0.75747  0.45941  1.0000
  H   H92       1.0  0.21134  0.77546  0.42230  1.0000
  H   H93       1.0  0.19918  0.74075  0.42205  1.0000
  H   H94       1.0  0.32684  0.53977  0.36511  1.0000
  C   C74       1.0  0.31493  0.53822  0.34305  1.0000
  C   C75       1.0  0.30939  0.51851  0.31854  1.0000
  C   C76       1.0  0.28898  0.55013  0.03325  1.0000
  S   S26       1.0  0.31177  0.54628  0.18217  1.0000
  C   C77       1.0  0.32810  0.72522  0.02905  1.0000
  H   H95       1.0  0.21652  0.54236  0.07595  1.0000
  H   H96       1.0  0.28372  0.56842  0.30711  1.0000
  C   C78       1.0  0.22329  0.64497  0.37752  1.0000
  C   C79       1.0  0.19106  0.59577  0.33195  1.0000
  C   C80       1.0  0.16719  0.57686  0.31632  1.0000
  H   H97       1.0  0.07697  0.52398  0.51230  1.0000
  H   H98       1.0  0.26694  0.55429  0.18116  1.0000
  H   H99       1.0  0.07675  0.62515  0.44578  1.0000
  H   H100      1.0  0.26512  0.57378  0.09393  1.0000
  H   H101      1.0  0.23989  0.59653  0.36899  1.0000
  H   H102      1.0  0.25107  0.84169  0.50509  1.0000
  C   C81       1.0  0.24273  0.61688  0.36817  1.0000
  H   H103      1.0  0.25398  0.61442  0.02642  1.0000
  C   C82       1.0  0.27460  0.58362  0.21993  1.0000
  C   C83       1.0  0.19482  0.59829  0.36697  1.0000
  H   H104      1.0  0.33898  0.74188  0.04659  1.0000
  H   H105      1.0  0.27365  0.53462  0.26419  1.0000
  H   H106      1.0  0.32312  0.63191  0.18205  1.0000
  Fe  Fe14      1.0  0.19582  0.68727  0.51185  1.0000
  H   H107      1.0  0.32581  0.73075  0.12961  1.0000
  C   C84       1.0  0.14617  0.56033  0.33499  1.0000
  C   C85       1.0  0.27380  0.55996  0.04833  1.0000
  H   H108      1.0  0.25603  0.58335  0.21496  1.0000
  S   S27       1.0  0.09496  0.64391  0.51475  1.0000
  C   C86       1.0  0.20678  0.55916  0.03458  1.0000
  C   C87       1.0  0.17286  0.58122  0.38534  1.0000
  C   C88       1.0  0.14897  0.56255  0.36942  1.0000
  H   H109      1.0  0.17347  0.58207  0.41206  1.0000
  C   C89       1.0  0.28075  0.56704  0.20081  1.0000
  H   H110      1.0  0.33152  0.73886  0.25229  1.0000
  H   H111      1.0  0.20759  0.61980  0.43246  1.0000
  H   H112      1.0  0.04048  0.56239  0.48256  1.0000
  H   H113      1.0  0.31012  0.57150  0.35790  1.0000
  H   H114      1.0  0.08461  0.59030  0.48956  1.0000
  C   C90       1.0  0.31122  0.55363  0.08629  1.0000
  H   H115      1.0  0.24197  0.63097  0.43043  1.0000
  H   H116      1.0  0.11043  0.58211  0.49111  1.0000
  H   H117      1.0  0.32273  0.65345  0.15186  1.0000
  C   C91       1.0  0.22229  0.61618  0.41924  1.0000
  H   H118      1.0  0.12754  0.54614  0.32267  1.0000
  H   H119      1.0  0.28836  0.78367  0.47344  1.0000
  C   C92       1.0  0.03328  0.55091  0.50410  1.0000
  C   C93       1.0  0.29498  0.81903  0.49891  1.0000
  C   C94       1.0  0.30635  0.70225  0.03903  1.0000
  H   H120      1.0  0.21916  0.59632  0.42520  1.0000
  N   N7        1.0  0.26763  0.65618  0.02534  1.0000
  C   C95       1.0  0.04053  0.61539  0.51384  1.0000
  C   C96       1.0  0.08858  0.57357  0.49290  1.0000
  C   C97       1.0  0.29600  0.56359  0.10098  1.0000
  C   C98       1.0  0.25909  0.82904  0.49730  1.0000
  C   C99       1.0  0.26113  0.65669  0.06059  1.0000
  H   H121      1.0  0.07905  0.55890  0.47176  1.0000
  C   C100      1.0  0.19809  0.57665  0.02471  1.0000
  C   C101      1.0  0.30553  0.55603  0.33906  1.0000
  H   H122      1.0  0.27743  0.65875  0.07783  1.0000
  H   H123      1.0  0.33127  0.51824  0.07796  1.0000
  H   H124      1.0  0.32498  0.55140  0.10274  1.0000
  H   H125      1.0  0.28911  0.63510  0.03382  1.0000
  C   C102      1.0  0.33223  0.67753  0.21100  1.0000
  C   C103      1.0  0.29382  0.51571  0.28941  1.0000
  C   C104      1.0  0.34193  0.53210  0.05842  1.0000
  N   N8        1.0  0.32345  0.53543  0.03535  1.0000
  C   C105      1.0  0.27148  0.63294  0.01934  1.0000
  N   N9        1.0  0.35154  0.67290  0.19252  1.0000
  C   C106      1.0  0.33612  0.64999  0.16884  1.0000
  C   C107      1.0  0.35155  0.74848  0.17328  1.0000
  H   H126      1.0  0.34934  0.64594  0.15303  1.0000
  C   C108      1.0  0.29147  0.68039  0.01623  1.0000
  H   H127      1.0  0.20989  0.54713  0.01617  1.0000
  S   S28       1.0  0.16273  0.64923  0.52890  1.0000
  H   H128      1.0  0.27416  0.62971  0.99280  1.0000
  C   C109      1.0  0.28153  0.51649  0.81365  1.0000
  S   S29       1.0  0.29874  0.83532  0.59326  1.0000
  S   S30       1.0  0.13971  0.52689  0.61394  1.0000
  H   H129      1.0  0.29086  0.74744  0.78526  1.0000
  C   C110      1.0  0.25221  0.74814  0.55476  1.0000
  C   C111      1.0  0.24011  0.76399  0.55580  1.0000
  H   H130      1.0  0.31432  0.79432  0.58464  1.0000
  N   N10       1.0  0.32116  0.60131  0.82783  1.0000
  C   C112      1.0  0.30003  0.68292  0.98330  1.0000
  S   S31       1.0  0.26244  0.56144  0.88597  1.0000
  H   H131      1.0  0.15284  0.51503  0.54884  1.0000
  Fe  Fe15      1.0  0.21553  0.56865  0.94650  1.0000
  S   S32       1.0  0.23110  0.59407  0.90313  1.0000
  H   H132      1.0  0.30109  0.55866  0.92866  1.0000
  Fe  Fe16      1.0  0.22243  0.55691  0.87384  1.0000
  Fe  Fe17      1.0  0.24429  0.53840  0.93009  1.0000
  Fe  Fe18      1.0  0.26962  0.59643  0.91809  1.0000
  S   S33       1.0  0.30960  0.63245  0.92216  1.0000
  C   C113      1.0  0.33810  0.67944  0.89431  1.0000
  S   S34       1.0  0.25501  0.57385  0.96347  1.0000
  S   S35       1.0  0.32344  0.73356  0.85280  1.0000
  C   C114      1.0  0.31276  0.65901  0.89967  1.0000
  C   C115      1.0  0.29056  0.66066  0.88832  1.0000
  C   C116      1.0  0.29375  0.68319  0.87269  1.0000
  C   C117      1.0  0.31915  0.70413  0.86875  1.0000
  H   H133      1.0  0.32728  0.70780  0.94806  1.0000
  H   H134      1.0  0.04291  0.62034  0.54016  1.0000
  H   H135      1.0  0.27094  0.64506  0.89238  1.0000
  H   H136      1.0  0.27657  0.68476  0.86471  1.0000
  H   H137      1.0  0.11364  0.54208  0.71759  1.0000
  Fe  Fe19      1.0  0.34280  0.86150  0.60753  1.0000
  C   C118      1.0  0.28776  0.51705  0.92956  1.0000
  H   H138      1.0  0.08891  0.57495  0.57674  1.0000
  C   C119      1.0  0.11677  0.53171  0.73842  1.0000
  H   H139      1.0  0.26866  0.56671  0.80372  1.0000
  S   S36       1.0  0.23470  0.71410  0.54168  1.0000
  S   S37       1.0  0.21164  0.55539  0.81906  1.0000
  C   C120      1.0  0.30585  0.54314  0.92327  1.0000
  H   H140      1.0  0.25836  0.76519  0.68784  1.0000
  H   H141      1.0  0.29435  0.61021  0.79957  1.0000
  C   C121      1.0  0.29980  0.76803  0.79592  1.0000
  H   H142      1.0  0.13379  0.54695  0.75415  1.0000
  H   H143      1.0  0.24736  0.51923  0.79715  1.0000
  H   H144      1.0  0.34361  0.56918  0.90432  1.0000
  C   C122      1.0  0.28065  0.55761  0.80956  1.0000
  H   H145      1.0  0.21942  0.75566  0.54825  1.0000
  H   H146      1.0  0.14263  0.53198  0.68460  1.0000
  C   C123      1.0  0.28152  0.80178  0.57814  1.0000
  C   C124      1.0  0.29373  0.78605  0.57662  1.0000
  H   H147      1.0  0.28974  0.66717  0.96454  1.0000
  H   H148      1.0  0.33877  0.82135  0.67123  1.0000
  C   C125      1.0  0.33419  0.60873  0.86154  1.0000
  C   C126      1.0  0.25465  0.79056  0.56768  1.0000
  C   C127      1.0  0.03864  0.53415  0.55613  1.0000
  H   H149      1.0  0.28860  0.74727  0.56471  1.0000
  C   C128      1.0  0.33557  0.72719  0.99639  1.0000
  C   C129      1.0  0.30331  0.61301  0.82503  1.0000
  C   C130      1.0  0.15007  0.54510  0.57819  1.0000
  C   C131      1.0  0.15278  0.57041  0.57842  1.0000
  C   C132      1.0  0.16003  0.58499  0.54989  1.0000
  C   C133      1.0  0.16149  0.54888  0.52049  1.0000
  C   C134      1.0  0.27908  0.75937  0.56524  1.0000
  C   C135      1.0  0.15476  0.53447  0.54925  1.0000
  H   H150      1.0  0.14948  0.57888  0.60081  1.0000
  C   C136      1.0  0.33679  0.52933  0.90335  1.0000
  H   H151      1.0  0.31405  0.63467  0.83101  1.0000
  H   H152      1.0  0.35197  0.74531  0.98864  1.0000
  H   H153      1.0  0.34144  0.56755  0.83718  1.0000
  H   H154      1.0  0.28528  0.54498  0.00696  1.0000
  H   H155      1.0  0.29639  0.85286  0.52413  1.0000
  H   H156      1.0  0.28714  0.60446  0.84266  1.0000
  N   N11       1.0  0.32163  0.78665  0.77589  1.0000
  H   H157      1.0  0.09999  0.51595  0.66843  1.0000
  C   C137      1.0  0.33350  0.81299  0.79340  1.0000
  C   C138      1.0  0.26801  0.53010  0.80568  1.0000
  C   C139      1.0  0.31300  0.78833  0.74163  1.0000
  C   C140      1.0  0.33167  0.80534  0.71955  1.0000
  C   C141      1.0  0.28624  0.77364  0.72920  1.0000
  C   C142      1.0  0.32409  0.80795  0.68741  1.0000
  C   C143      1.0  0.27886  0.77639  0.69691  1.0000
  C   C144      1.0  0.29770  0.79363  0.67615  1.0000
  H   H158      1.0  0.09889  0.52394  0.75339  1.0000
  H   H159      1.0  0.31905  0.82047  0.79446  1.0000
  H   H160      1.0  0.08762  0.53533  0.55481  1.0000
  H   H161      1.0  0.16245  0.60456  0.55060  1.0000
  C   C145      1.0  0.30739  0.57229  0.82202  1.0000
  H   H162      1.0  0.28409  0.77375  0.79833  1.0000
  H   H163      1.0  0.16340  0.53610  0.71984  1.0000
  S   S38       1.0  0.19351  0.58059  0.98245  1.0000
  C   C146      1.0  0.32090  0.55783  0.82845  1.0000
  C   C147      1.0  0.30800  0.53035  0.82472  1.0000
  H   H164      1.0  0.32004  0.59756  0.88059  1.0000
  C   C148      1.0  0.09264  0.58265  0.55155  1.0000
  S   S39       1.0  0.20302  0.53078  0.91609  1.0000
  H   H165      1.0  0.29186  0.79597  0.65128  1.0000
  C   C149      1.0  0.20143  0.52737  0.79196  1.0000
  H   H166      1.0  0.35219  0.63529  0.80636  1.0000
  H   H167      1.0  0.31850  0.51974  0.83121  1.0000
  C   C150      1.0  0.33029  0.54924  0.91016  1.0000
  H   H168      1.0  0.21161  0.55037  0.74867  1.0000
  H   H169      1.0  0.34715  0.51558  0.56810  1.0000
  H   H170      1.0  0.27061  0.75996  0.74388  1.0000
  H   H171      1.0  0.08548  0.59734  0.55007  1.0000
  C   C151      1.0  0.20294  0.53072  0.75773  1.0000
  H   H172      1.0  0.30698  0.76761  0.82163  1.0000
  H   H173      1.0  0.34054  0.81265  0.81922  1.0000
  C   C152      1.0  0.34169  0.61337  0.80324  1.0000
  H   H174      1.0  0.24500  0.80252  0.56882  1.0000
  C   C153      1.0  0.32164  0.70605  0.97359  1.0000
  H   H175      1.0  0.34772  0.77501  0.80043  1.0000
  H   H176      1.0  0.05057  0.53229  0.57578  1.0000
  H   H177      1.0  0.32685  0.55519  0.98984  1.0000
  H   H178      1.0  0.24619  0.64872  0.97789  1.0000
  C   C154      1.0  0.34125  0.70198  0.87902  1.0000
  H   H179      1.0  0.33416  0.75873  0.76067  1.0000
  C   C155      1.0  0.34184  0.77786  0.77507  1.0000
  C   C156      1.0  0.14511  0.52145  0.70565  1.0000
  H   H180      1.0  0.33284  0.60771  0.77755  1.0000
  C   C157      1.0  0.33941  0.55313  0.00953  1.0000
  H   H181      1.0  0.34230  0.63010  0.86812  1.0000
  H   H182      1.0  0.35133  0.60515  0.86419  1.0000
  H   H183      1.0  0.11449  0.59362  0.54945  1.0000
  H   H184      1.0  0.35101  0.82787  0.78106  1.0000
  C   C158      1.0  0.16392  0.57411  0.52064  1.0000
  H   H185      1.0  0.32472  0.52571  0.58479  1.0000
  C   C159      1.0  0.24442  0.65254  0.00456  1.0000
  C   C160      1.0  0.05049  0.54874  0.52806  1.0000
  H   H186      1.0  0.24161  0.67017  0.00688  1.0000
  C   C161      1.0  0.08870  0.54174  0.52904  1.0000
  N   N12       1.0  0.07955  0.56147  0.52516  1.0000
  H   H187      1.0  0.22580  0.63526  0.01167  1.0000
  H   H188      1.0  0.10977  0.54974  0.52301  1.0000
  H   H189      1.0  0.33253  0.51389  0.71629  1.0000
  C   C162      1.0  0.34134  0.51443  0.69279  1.0000
  H   H190      1.0  0.14725  0.51549  0.76984  1.0000
  H   H191      1.0  0.35234  0.81697  0.72705  1.0000
  H   H192      1.0  0.35144  0.54555  0.99677  1.0000
  H   H193      1.0  0.45461  0.28331  0.39521  1.0000
  H   H194      1.0  0.43274  0.41166  0.42631  1.0000
  C   C163      1.0  0.54830  0.19850  0.49562  1.0000
  Fe  Fe20      1.0  0.45263  0.33392  0.48401  1.0000
  S   S40       1.0  0.48640  0.36447  0.45714  1.0000
  C   C164      1.0  0.66576  0.31402  0.18738  1.0000
  Fe  Fe21      1.0  0.49855  0.33314  0.45069  1.0000
  S   S41       1.0  0.51166  0.31861  0.40618  1.0000
  H   H195      1.0  0.38473  0.45454  0.34314  1.0000
  S   S42       1.0  0.46297  0.30151  0.47424  1.0000
  H   H196      1.0  0.42776  0.47793  0.41962  1.0000
  C   C165      1.0  0.50476  0.18971  0.50904  1.0000
  H   H197      1.0  0.42426  0.25916  0.37337  1.0000
  H   H198      1.0  0.46821  0.47021  0.35804  1.0000
  S   S43       1.0  0.66620  0.23158  0.18804  1.0000
  S   S44       1.0  0.63039  0.03764  0.46942  1.0000
  C   C166      1.0  0.57668  0.42095  0.51391  1.0000
  S   S45       1.0  0.63680  0.10203  0.48944  1.0000
  H   H199      1.0  0.40970  0.48215  0.30232  1.0000
  H   H200      1.0  0.40212  0.30805  0.35267  1.0000
  H   H201      1.0  0.48359  0.32018  0.25494  1.0000
  H   H202      1.0  0.61134  0.14774  0.33741  1.0000
  H   H203      1.0  0.53385  0.26471  0.05493  1.0000
  H   H204      1.0  0.43804  0.45764  0.39819  1.0000
  Fe  Fe22      1.0  0.63897  0.18837  0.17889  1.0000
  S   S46       1.0  0.60693  0.17627  0.13876  1.0000
  H   H205      1.0  0.65367  0.11424  0.38352  1.0000
  S   S47       1.0  0.62867  0.18151  0.23202  1.0000
  H   H206      1.0  0.56987  0.21287  0.49647  1.0000
  Fe  Fe23      1.0  0.62179  0.36907  0.22289  1.0000
  S   S48       1.0  0.61067  0.33983  0.18013  1.0000
  C   C167      1.0  0.61065  0.18499  0.03979  1.0000
  Fe  Fe24      1.0  0.56557  0.35737  0.23220  1.0000
  S   S49       1.0  0.54934  0.32734  0.18925  1.0000
  S   S50       1.0  0.54033  0.36792  0.26504  1.0000
  Fe  Fe25      1.0  0.57657  0.31349  0.20949  1.0000
  S   S51       1.0  0.56508  0.27069  0.20474  1.0000
  Fe  Fe26      1.0  0.58450  0.35575  0.16194  1.0000
  S   S52       1.0  0.58060  0.35269  0.10580  1.0000
  S   S53       1.0  0.59011  0.34100  0.25454  1.0000
  S   S54       1.0  0.59840  0.38761  0.20281  1.0000
  C   C168      1.0  0.55551  0.15849  0.23663  1.0000
  S   S55       1.0  0.38724  0.48265  0.45872  1.0000
  H   H207      1.0  0.65399  0.10784  0.32251  1.0000
  C   C169      1.0  0.61779  0.24817  0.06796  1.0000
  H   H208      1.0  0.58098  0.12970  0.31349  1.0000
  C   C170      1.0  0.55815  0.19700  0.26462  1.0000
  H   H209      1.0  0.61149  0.15035  0.29371  1.0000
  C   C171      1.0  0.53508  0.23322  0.49133  1.0000
  H   H210      1.0  0.39380  0.28741  0.38680  1.0000
  C   C172      1.0  0.40467  0.29201  0.36344  1.0000
  C   C173      1.0  0.61449  0.42050  0.03532  1.0000
  S   S56       1.0  0.67088  0.17696  0.18306  1.0000
  C   C174      1.0  0.59394  0.37390  0.04550  1.0000
  C   C175      1.0  0.59400  0.37935  0.07956  1.0000
  C   C176      1.0  0.60443  0.40551  0.09154  1.0000
  C   C177      1.0  0.61447  0.42603  0.06939  1.0000
  C   C178      1.0  0.55055  0.26300  0.44534  1.0000
  H   H211      1.0  0.58563  0.35374  0.03595  1.0000
  H   H212      1.0  0.60437  0.40987  0.11773  1.0000
  C   C179      1.0  0.62799  0.25671  0.25579  1.0000
  C   C180      1.0  0.61233  0.24012  0.22907  1.0000
  C   C181      1.0  0.59266  0.24423  0.21388  1.0000
  C   C182      1.0  0.58927  0.26547  0.22459  1.0000
  C   C183      1.0  0.60524  0.28234  0.25096  1.0000
  C   C184      1.0  0.62430  0.27769  0.26695  1.0000
  H   H213      1.0  0.61488  0.22372  0.22047  1.0000
  H   H214      1.0  0.58005  0.23091  0.19384  1.0000
  H   H215      1.0  0.60256  0.29866  0.25951  1.0000
  H   H216      1.0  0.63631  0.29050  0.28771  1.0000
  C   C185      1.0  0.52207  0.24721  0.50241  1.0000
  C   C186      1.0  0.60153  0.18020  0.07204  1.0000
  C   C187      1.0  0.61786  0.17993  0.09812  1.0000
  C   C188      1.0  0.64313  0.18382  0.09170  1.0000
  C   C189      1.0  0.65188  0.18771  0.05927  1.0000
  H   H217      1.0  0.63273  0.19520  0.34483  1.0000
  H   H218      1.0  0.58201  0.17732  0.07694  1.0000
  H   H219      1.0  0.65578  0.18349  0.11163  1.0000
  H   H220      1.0  0.41290  0.50413  0.39202  1.0000
  C   C190      1.0  0.44683  0.32386  0.31712  1.0000
  C   C191      1.0  0.66217  0.14724  0.31249  1.0000
  C   C192      1.0  0.46088  0.47503  0.27597  1.0000
  H   H221      1.0  0.67853  0.44766  0.10557  1.0000
  H   H222      1.0  0.67483  0.32394  0.25493  1.0000
  H   H223      1.0  0.44426  0.34051  0.38062  1.0000
  H   H224      1.0  0.36828  0.33940  0.49130  1.0000
  C   C193      1.0  0.45987  0.32923  0.28741  1.0000
  Fe  Fe27      1.0  0.65883  0.22385  0.24145  1.0000
  C   C194      1.0  0.60892  0.24625  0.12592  1.0000
  N   N13       1.0  0.42390  0.47784  0.36636  1.0000
  C   C195      1.0  0.57263  0.19441  0.29109  1.0000
  Fe  Fe28      1.0  0.66066  0.08099  0.48265  1.0000
  C   C196      1.0  0.40569  0.35511  0.46799  1.0000
  C   C197      1.0  0.38254  0.35534  0.47742  1.0000
  C   C198      1.0  0.37780  0.37619  0.46924  1.0000
  C   C199      1.0  0.39589  0.39661  0.45078  1.0000
  C   C200      1.0  0.41878  0.39611  0.44090  1.0000
  C   C201      1.0  0.42385  0.37567  0.44980  1.0000
  H   H225      1.0  0.38573  0.45566  0.38730  1.0000
  C   C202      1.0  0.65205  0.31185  0.15752  1.0000
  H   H226      1.0  0.48342  0.28600  0.28966  1.0000
  C   C203      1.0  0.58551  0.30101  0.06481  1.0000
  H   H227      1.0  0.59841  0.26309  0.03699  1.0000
  C   C204      1.0  0.52107  0.33408  0.36813  1.0000
  C   C205      1.0  0.53109  0.32344  0.34449  1.0000
  C   C206      1.0  0.53772  0.33415  0.31327  1.0000
  C   C207      1.0  0.53417  0.35550  0.30517  1.0000
  C   C208      1.0  0.52421  0.36624  0.32887  1.0000
  C   C209      1.0  0.51789  0.35574  0.36038  1.0000
  H   H228      1.0  0.53352  0.30664  0.35019  1.0000
  H   H229      1.0  0.54484  0.32534  0.29512  1.0000
  H   H230      1.0  0.52135  0.38272  0.32275  1.0000
  H   H231      1.0  0.51043  0.36429  0.37842  1.0000
  C   C210      1.0  0.59230  0.25716  0.12052  1.0000
  H   H232      1.0  0.43650  0.32089  0.41587  1.0000
  H   H233      1.0  0.53944  0.18187  0.21633  1.0000
  H   H234      1.0  0.65421  0.30326  0.20768  1.0000
  H   H235      1.0  0.62223  0.44621  0.07867  1.0000
  C   C211      1.0  0.62065  0.19583  0.32341  1.0000
  C   C212      1.0  0.57894  0.17360  0.29120  1.0000
  H   H236      1.0  0.43758  0.33550  0.32402  1.0000
  C   C213      1.0  0.44571  0.32388  0.39140  1.0000
  C   C214      1.0  0.54984  0.17923  0.23730  1.0000
  H   H237      1.0  0.53798  0.29240  0.44360  1.0000
  H   H238      1.0  0.63409  0.23301  0.10433  1.0000
  H   H239      1.0  0.44154  0.37559  0.44199  1.0000
  C   C215      1.0  0.56955  0.15540  0.26326  1.0000
  S   S57       1.0  0.66062  0.14173  0.26921  1.0000
  N   N14       1.0  0.59459  0.17153  0.31944  1.0000
  C   C216      1.0  0.45983  0.29067  0.32702  1.0000
  Fe  Fe29      1.0  0.36473  0.43848  0.46021  1.0000
  H   H240      1.0  0.59811  0.18561  0.01996  1.0000
  H   H241      1.0  0.46711  0.33035  0.39589  1.0000
  H   H242      1.0  0.49364  0.43354  0.51098  1.0000
  C   C217      1.0  0.54808  0.25725  0.05966  1.0000
  C   C218      1.0  0.65782  0.12674  0.33323  1.0000
  H   H243      1.0  0.61899  0.21397  0.32748  1.0000
  C   C219      1.0  0.35953  0.50497  0.36111  1.0000
  C   C220      1.0  0.58029  0.16848  0.35028  1.0000
  H   H244      1.0  0.57805  0.18602  0.35674  1.0000
  H   H245      1.0  0.59102  0.16582  0.37187  1.0000
  H   H246      1.0  0.56014  0.15102  0.34777  1.0000
  N   N15       1.0  0.57086  0.27594  0.08167  1.0000
  C   C221      1.0  0.56023  0.28182  0.11198  1.0000
  C   C222      1.0  0.43788  0.47671  0.39712  1.0000
  H   H247      1.0  0.57279  0.31017  0.05974  1.0000
  C   C223      1.0  0.58838  0.26445  0.08847  1.0000
  C   C224      1.0  0.60136  0.25923  0.06228  1.0000
  Fe  Fe30      1.0  0.50833  0.37360  0.50660  1.0000
  C   C225      1.0  0.45938  0.47286  0.33566  1.0000
  Fe  Fe31      1.0  0.37288  0.48325  0.50913  1.0000
  C   C226      1.0  0.43882  0.47877  0.27518  1.0000
  H   H248      1.0  0.67042  0.24084  0.06910  1.0000
  H   H249      1.0  0.66177  0.38424  0.17436  1.0000
  C   C227      1.0  0.52318  0.26830  0.48546  1.0000
  Fe  Fe32      1.0  0.66321  0.17420  0.23759  1.0000
  H   H250      1.0  0.54724  0.26368  0.12495  1.0000
  H   H251      1.0  0.54140  0.19055  0.46977  1.0000
  H   H252      1.0  0.67127  0.19027  0.05431  1.0000
  H   H253      1.0  0.56157  0.26929  0.42308  1.0000
  C   C228      1.0  0.62176  0.24198  0.09982  1.0000
  H   H254      1.0  0.57643  0.29567  0.12975  1.0000
  H   H255      1.0  0.55421  0.21349  0.26469  1.0000
  S   S58       1.0  0.65966  0.15927  0.42435  1.0000
  H   H256      1.0  0.59252  0.29834  0.04043  1.0000
  C   C229      1.0  0.42695  0.47955  0.30449  1.0000
  S   S59       1.0  0.65249  0.25153  0.27484  1.0000
  C   C230      1.0  0.63586  0.18874  0.03336  1.0000
  C   C231      1.0  0.44641  0.30441  0.33791  1.0000
  H   H257      1.0  0.46318  0.42457  0.48818  1.0000
  Fe  Fe33      1.0  0.66677  0.13389  0.45992  1.0000
  H   H258      1.0  0.46999  0.47436  0.25313  1.0000
  C   C232      1.0  0.66194  0.15452  0.38163  1.0000
  C   C233      1.0  0.42236  0.50263  0.36900  1.0000
  H   H259      1.0  0.57360  0.13913  0.26074  1.0000
  H   H260      1.0  0.54952  0.14505  0.21494  1.0000
  H   H261      1.0  0.63145  0.50959  0.51510  1.0000
  C   C234      1.0  0.47266  0.31531  0.27739  1.0000
  S   S60       1.0  0.52399  0.34550  0.49776  1.0000
  C   C235      1.0  0.66714  0.17525  0.36100  1.0000
  C   C236      1.0  0.37214  0.50125  0.29507  1.0000
  H   H262      1.0  0.46973  0.39960  0.50417  1.0000
  S   S61       1.0  0.41120  0.32880  0.47897  1.0000
  C   C237      1.0  0.53733  0.27613  0.45687  1.0000
  S   S62       1.0  0.39071  0.42279  0.43838  1.0000
  H   H263      1.0  0.51290  0.27854  0.49451  1.0000
  H   H264      1.0  0.60289  0.31566  0.08049  1.0000
  H   H265      1.0  0.39702  0.43609  0.36498  1.0000
  H   H266      1.0  0.55067  0.09505  0.50773  1.0000
  H   H267      1.0  0.46075  0.34473  0.27237  1.0000
  C   C238      1.0  0.65773  0.13036  0.36777  1.0000
  N   N16       1.0  0.43293  0.29954  0.36963  1.0000
  C   C239      1.0  0.43384  0.27825  0.38812  1.0000
  H   H268      1.0  0.39459  0.27435  0.34606  1.0000
  H   H269      1.0  0.46157  0.27628  0.34156  1.0000
  H   H270      1.0  0.65485  0.32327  0.10720  1.0000
  H   H271      1.0  0.67439  0.39548  0.07474  1.0000
  C   C240      1.0  0.47109  0.47200  0.30611  1.0000
  H   H272      1.0  0.56592  0.40618  0.49423  1.0000
  H   H273      1.0  0.55437  0.25386  0.03502  1.0000
  H   H274      1.0  0.63066  0.30046  0.15602  1.0000
  C   C241      1.0  0.59969  0.14882  0.31570  1.0000
  C   C242      1.0  0.47255  0.29603  0.29707  1.0000
  H   H275      1.0  0.63231  0.19868  0.30103  1.0000
  H   H276      1.0  0.42338  0.27495  0.41168  1.0000
  H   H277      1.0  0.48817  0.46891  0.30653  1.0000
  H   H278      1.0  0.57934  0.20926  0.31113  1.0000
  H   H279      1.0  0.61155  0.24053  0.15039  1.0000
  H   H280      1.0  0.58272  0.25959  0.14188  1.0000
  C   C243      1.0  0.66568  0.32479  0.13016  1.0000
  H   H281      1.0  0.41026  0.50421  0.34838  1.0000
  H   H282      1.0  0.54812  0.29155  0.10628  1.0000
  S   S63       1.0  0.66314  0.39165  0.24570  1.0000
  H   H283      1.0  0.67094  0.19414  0.37171  1.0000
  C   C244      1.0  0.54957  0.24185  0.46221  1.0000
  H   H284      1.0  0.61493  0.42770  0.49910  1.0000
  C   C245      1.0  0.66724  0.17164  0.32653  1.0000
  H   H285      1.0  0.67103  0.18768  0.31085  1.0000
  S   S64       1.0  0.38066  0.49850  0.25422  1.0000
  H   H286      1.0  0.35332  0.45943  0.30126  1.0000
  H   H287      1.0  0.49662  0.18256  0.48329  1.0000
  H   H288      1.0  0.53715  0.23776  0.07083  1.0000
  C   C246      1.0  0.35884  0.47851  0.31299  1.0000
  C   C247      1.0  0.39671  0.45513  0.36531  1.0000
  C   C248      1.0  0.43697  0.47690  0.33573  1.0000
  C   C249      1.0  0.60426  0.39436  0.02350  1.0000
  H   H289      1.0  0.68496  0.29080  0.23101  1.0000
  C   C250      1.0  0.47202  0.41956  0.50967  1.0000
  H   H290      1.0  0.56028  0.23263  0.45192  1.0000
  H   H291      1.0  0.35994  0.37617  0.47666  1.0000
  H   H292      1.0  0.43072  0.48104  0.25173  1.0000
  S   S65       1.0  0.35295  0.43944  0.51257  1.0000
  H   H293      1.0  0.68314  0.27274  0.05224  1.0000
  C   C251      1.0  0.67068  0.40954  0.06047  1.0000
  H   H294      1.0  0.45852  0.49329  0.39961  1.0000
  H   H295      1.0  0.66463  0.01810  0.49848  1.0000
  H   H296      1.0  0.67254  0.45735  0.05184  1.0000
  H   H297      1.0  0.62680  0.24364  0.04736  1.0000
  H   H298      1.0  0.66548  0.40174  0.03431  1.0000
  H   H299      1.0  0.65274  0.40925  0.07019  1.0000
  C   C252      1.0  0.68208  0.39365  0.18374  1.0000
  H   H300      1.0  0.54618  0.18162  0.51011  1.0000
  H   H301      1.0  0.68194  0.44569  0.01656  1.0000
  N   N17       1.0  0.53289  0.21056  0.50957  1.0000
  C   C253      1.0  0.46112  0.01649  0.62218  1.0000
  Fe  Fe34      1.0  0.48852  0.16066  0.61067  1.0000
  S   S66       1.0  0.52947  0.18976  0.62928  1.0000
  S   S67       1.0  0.46360  0.17448  0.58141  1.0000
  Fe  Fe35      1.0  0.49553  0.11291  0.62964  1.0000
  S   S68       1.0  0.53721  0.13965  0.64989  1.0000
  S   S69       1.0  0.48833  0.07054  0.62508  1.0000
  Fe  Fe36      1.0  0.52101  0.16419  0.67290  1.0000
  S   S70       1.0  0.53681  0.18745  0.72196  1.0000
  Fe  Fe37      1.0  0.54180  0.16262  0.60485  1.0000
  S   S71       1.0  0.57419  0.17699  0.56856  1.0000
  S   S72       1.0  0.47864  0.13615  0.65604  1.0000
  S   S73       1.0  0.50144  0.13484  0.58309  1.0000
  S   S74       1.0  0.65313  0.46744  0.54431  1.0000
  H   H302      1.0  0.51628  0.27016  0.60792  1.0000
  H   H303      1.0  0.50334  0.22339  0.61606  1.0000
  S   S75       1.0  0.64879  0.12635  0.58186  1.0000
  Fe  Fe38      1.0  0.63841  0.23488  0.89205  1.0000
  S   S76       1.0  0.64265  0.24723  0.94568  1.0000
  C   C254      1.0  0.48768  0.09518  0.71538  1.0000
  Fe  Fe39      1.0  0.58399  0.18836  0.89740  1.0000
  S   S77       1.0  0.58342  0.19635  0.95236  1.0000
  S   S78       1.0  0.54877  0.15668  0.86697  1.0000
  Fe  Fe40      1.0  0.60068  0.23875  0.93988  1.0000
  S   S79       1.0  0.59062  0.26736  0.96655  1.0000
  Fe  Fe41      1.0  0.62559  0.20425  0.95414  1.0000
  S   S80       1.0  0.64848  0.19587  0.99367  1.0000
  S   S81       1.0  0.59791  0.23016  0.88507  1.0000
  S   S82       1.0  0.62475  0.19242  0.90028  1.0000
  Fe  Fe42      1.0  0.62132  0.39671  0.89971  1.0000
  Fe  Fe43      1.0  0.48777  0.31562  0.52186  1.0000
  S   S83       1.0  0.59446  0.35630  0.87734  1.0000
  Fe  Fe44      1.0  0.64656  0.45427  0.88443  1.0000
  C   C255      1.0  0.52616  0.26109  0.87923  1.0000
  H   H304      1.0  0.52226  0.28685  0.91558  1.0000
  C   C256      1.0  0.66199  0.46197  0.79501  1.0000
  Fe  Fe45      1.0  0.63522  0.43664  0.95621  1.0000
  N   N18       1.0  0.67943  0.34088  0.91281  1.0000
  H   H305      1.0  0.53021  0.22566  0.55817  1.0000
  S   S84       1.0  0.60923  0.42757  0.90978  1.0000
  H   H306      1.0  0.51144  0.51118  0.56410  1.0000
  C   C257      1.0  0.59163  0.29216  0.94190  1.0000
  C   C258      1.0  0.59275  0.31484  0.95671  1.0000
  C   C259      1.0  0.59392  0.33484  0.93703  1.0000
  C   C260      1.0  0.59357  0.33195  0.90253  1.0000
  C   C261      1.0  0.59237  0.30929  0.88780  1.0000
  C   C262      1.0  0.59152  0.28954  0.90748  1.0000
  H   H307      1.0  0.59269  0.31699  0.98334  1.0000
  H   H308      1.0  0.59436  0.35214  0.94850  1.0000
  H   H309      1.0  0.59215  0.30707  0.86114  1.0000
  H   H310      1.0  0.59049  0.27219  0.89598  1.0000
  H   H311      1.0  0.53745  0.31514  0.81794  1.0000
  C   C263      1.0  0.66656  0.50502  0.78701  1.0000
  H   H312      1.0  0.53878  0.27556  0.79824  1.0000
  H   H313      1.0  0.64446  0.30458  0.92179  1.0000
  C   C264      1.0  0.53470  0.27708  0.82387  1.0000
  C   C265      1.0  0.61143  0.16476  0.54672  1.0000
  C   C266      1.0  0.51286  0.06520  0.54918  1.0000
  C   C267      1.0  0.48820  0.46931  0.55288  1.0000
  C   C268      1.0  0.54941  0.08196  0.58908  1.0000
  C   C269      1.0  0.64779  0.35620  0.83826  1.0000
  C   C270      1.0  0.52520  0.28377  0.88980  1.0000
  C   C271      1.0  0.66637  0.31340  0.92358  1.0000
  H   H314      1.0  0.68042  0.16986  0.62354  1.0000
  C   C272      1.0  0.59620  0.16444  0.57322  1.0000
  C   C273      1.0  0.59809  0.15340  0.60267  1.0000
  C   C274      1.0  0.61480  0.14227  0.60544  1.0000
  C   C275      1.0  0.62927  0.14174  0.57855  1.0000
  H   H315      1.0  0.52952  0.32115  0.87633  1.0000
  N   N19       1.0  0.54182  0.07508  0.55338  1.0000
  H   H316      1.0  0.58694  0.15369  0.62347  1.0000
  H   H317      1.0  0.61615  0.13367  0.62825  1.0000
  H   H318      1.0  0.50476  0.11547  0.71460  1.0000
  C   C276      1.0  0.54114  0.17457  0.75902  1.0000
  C   C277      1.0  0.56564  0.18788  0.77673  1.0000
  C   C278      1.0  0.56845  0.18170  0.80937  1.0000
  C   C279      1.0  0.54666  0.16234  0.82471  1.0000
  C   C280      1.0  0.52229  0.14846  0.80673  1.0000
  C   C281      1.0  0.51950  0.15459  0.77399  1.0000
  H   H319      1.0  0.58233  0.20372  0.76557  1.0000
  H   H320      1.0  0.58734  0.19245  0.82298  1.0000
  H   H321      1.0  0.50528  0.13375  0.81870  1.0000
  H   H322      1.0  0.50027  0.14502  0.76109  1.0000
  S   S85       1.0  0.52853  0.41370  0.53284  1.0000
  C   C282      1.0  0.57714  0.44763  0.56140  1.0000
  C   C283      1.0  0.60482  0.45945  0.56450  1.0000
  C   C284      1.0  0.61850  0.45249  0.54185  1.0000
  H   H323      1.0  0.50739  0.08029  0.55786  1.0000
  H   H324      1.0  0.50141  0.04778  0.56413  1.0000
  H   H325      1.0  0.56661  0.45310  0.57893  1.0000
  H   H326      1.0  0.61552  0.47370  0.58456  1.0000
  H   H327      1.0  0.65689  0.44539  0.81014  1.0000
  C   C285      1.0  0.48714  0.26167  0.56829  1.0000
  C   C286      1.0  0.46632  0.24157  0.54890  1.0000
  C   C287      1.0  0.45892  0.21495  0.55375  1.0000
  C   C288      1.0  0.47238  0.20815  0.57773  1.0000
  C   C289      1.0  0.49301  0.22827  0.59726  1.0000
  C   C290      1.0  0.50027  0.25483  0.59262  1.0000
  H   H328      1.0  0.49192  0.19670  0.52061  1.0000
  H   H329      1.0  0.67219  0.31224  0.94965  1.0000
  N   N20       1.0  0.56306  0.36706  0.60075  1.0000
  C   C291      1.0  0.53831  0.36847  0.59525  1.0000
  C   C292      1.0  0.57139  0.36243  0.56790  1.0000
  C   C293      1.0  0.55733  0.34390  0.62044  1.0000
  C   C294      1.0  0.58315  0.39148  0.61891  1.0000
  C   C295      1.0  0.60761  0.40926  0.60549  1.0000
  C   C296      1.0  0.57839  0.39818  0.65115  1.0000
  C   C297      1.0  0.62612  0.43203  0.62355  1.0000
  C   C298      1.0  0.59705  0.42105  0.66893  1.0000
  C   C299      1.0  0.62085  0.43793  0.65513  1.0000
  H   H330      1.0  0.52913  0.36922  0.61873  1.0000
  H   H331      1.0  0.54209  0.38628  0.58179  1.0000
  H   H332      1.0  0.52306  0.35100  0.58029  1.0000
  H   H333      1.0  0.57443  0.37829  0.55093  1.0000
  H   H334      1.0  0.55608  0.34356  0.55534  1.0000
  H   H335      1.0  0.58991  0.36105  0.57013  1.0000
  H   H336      1.0  0.54321  0.32506  0.60678  1.0000
  H   H337      1.0  0.57575  0.34297  0.62656  1.0000
  H   H338      1.0  0.54799  0.34411  0.64398  1.0000
  H   H339      1.0  0.61291  0.40634  0.58092  1.0000
  H   H340      1.0  0.56014  0.38581  0.66281  1.0000
  H   H341      1.0  0.64459  0.44539  0.61274  1.0000
  H   H342      1.0  0.59310  0.42581  0.69356  1.0000
  H   H343      1.0  0.63521  0.45569  0.66891  1.0000
  H   H344      1.0  0.61009  0.17336  0.52390  1.0000
  H   H345      1.0  0.49014  0.03000  0.70060  1.0000
  C   C300      1.0  0.66985  0.46129  0.76263  1.0000
  H   H346      1.0  0.53945  0.06423  0.60398  1.0000
  C   C301      1.0  0.45989  0.03963  0.63027  1.0000
  N   N21       1.0  0.45935  0.42055  0.54064  1.0000
  H   H347      1.0  0.44281  0.19953  0.53863  1.0000
  H   H348      1.0  0.60373  0.38984  0.99730  1.0000
  H   H349      1.0  0.59649  0.49584  0.51735  1.0000
  H   H350      1.0  0.63895  0.15286  0.52837  1.0000
  H   H351      1.0  0.60690  0.05197  0.52950  1.0000
  C   C302      1.0  0.43674  0.03748  0.64307  1.0000
  H   H352      1.0  0.64368  0.34105  0.78805  1.0000
  C   C303      1.0  0.67434  0.35714  0.93759  1.0000
  H   H353      1.0  0.50567  0.46698  0.55359  1.0000
  C   C304      1.0  0.51438  0.21927  0.80695  1.0000
  C   C305      1.0  0.56111  0.24398  0.82149  1.0000
  H   H354      1.0  0.51702  0.23100  0.78482  1.0000
  H   H355      1.0  0.51582  0.20161  0.79817  1.0000
  H   H356      1.0  0.49391  0.21238  0.81508  1.0000
  H   H357      1.0  0.56393  0.25477  0.79847  1.0000
  H   H358      1.0  0.56511  0.22750  0.81530  1.0000
  H   H359      1.0  0.53359  0.19909  0.85117  1.0000
  C   C306      1.0  0.50375  0.08596  0.76625  1.0000
  H   H360      1.0  0.50212  0.17249  0.52318  1.0000
  C   C307      1.0  0.56308  0.42836  0.53612  1.0000
  C   C308      1.0  0.47212  0.41415  0.56855  1.0000
  H   H361      1.0  0.51065  0.20696  0.87014  1.0000
  N   N22       1.0  0.49538  0.07698  0.73110  1.0000
  C   C309      1.0  0.44097  0.45260  0.54448  1.0000
  S   S86       1.0  0.65649  0.42247  0.87095  1.0000
  C   C310      1.0  0.62777  0.15317  0.54924  1.0000
  H   H362      1.0  0.63770  0.36738  0.83284  1.0000
  H   H363      1.0  0.54215  0.20275  0.55857  1.0000
  S   S87       1.0  0.62813  0.44654  0.00814  1.0000
  S   S88       1.0  0.64472  0.40388  0.94766  1.0000
  H   H364      1.0  0.53550  0.09971  0.71566  1.0000
  C   C311      1.0  0.65100  0.34126  0.81304  1.0000
  H   H365      1.0  0.52359  0.24735  0.89799  1.0000
  H   H366      1.0  0.57110  0.09083  0.59419  1.0000
  C   C312      1.0  0.67584  0.48230  0.74214  1.0000
  H   H367      1.0  0.57700  0.10945  0.53881  1.0000
  H   H368      1.0  0.43548  0.05505  0.64948  1.0000
  H   H369      1.0  0.46411  0.41607  0.59257  1.0000
  H   H370      1.0  0.65318  0.36795  0.88903  1.0000
  C   C313      1.0  0.57742  0.06300  0.54235  1.0000
  C   C314      1.0  0.51880  0.07911  0.71416  1.0000
  C   C315      1.0  0.43126  0.39949  0.53749  1.0000
  S   S89       1.0  0.67128  0.46658  0.93207  1.0000
  H   H371      1.0  0.48840  0.08806  0.77995  1.0000
  H   H372      1.0  0.54363  0.09657  0.59875  1.0000
  C   C316      1.0  0.44484  0.47816  0.54995  1.0000
  N   N23       1.0  0.53428  0.23440  0.83418  1.0000
  H   H373      1.0  0.57671  0.25744  0.84009  1.0000
  C   C317      1.0  0.55015  0.05591  0.54154  1.0000
  C   C318      1.0  0.54256  0.21910  0.54451  1.0000
  S   S90       1.0  0.66885  0.25956  0.85694  1.0000
  C   C319      1.0  0.52919  0.30310  0.86770  1.0000
  C   C320      1.0  0.53085  0.21583  0.86047  1.0000
  C   C321      1.0  0.49179  0.49475  0.55854  1.0000
  S   S91       1.0  0.49808  0.29558  0.56292  1.0000
  C   C322      1.0  0.53190  0.03008  0.52857  1.0000
  C   C323      1.0  0.53379  0.29971  0.83478  1.0000
  H   H374      1.0  0.42046  0.39917  0.55997  1.0000
  H   H375      1.0  0.47979  0.08809  0.68949  1.0000
  H   H376      1.0  0.54563  0.22568  0.88149  1.0000
  H   H377      1.0  0.65271  0.35006  0.93917  1.0000
  H   H378      1.0  0.50576  0.05997  0.52278  1.0000
  H   H379      1.0  0.50811  0.07186  0.77947  1.0000
  C   C324      1.0  0.47014  0.49915  0.55717  1.0000
  H   H380      1.0  0.67149  0.30035  0.90838  1.0000
  H   H381      1.0  0.46902  0.39369  0.56550  1.0000
  C   C325      1.0  0.47250  0.04995  0.72928  1.0000
  C   C326      1.0  0.53131  0.25722  0.84588  1.0000
  H   H382      1.0  0.42082  0.43740  0.53877  1.0000
  H   H383      1.0  0.52195  0.10559  0.76863  1.0000
  C   C327      1.0  0.66052  0.48392  0.80751  1.0000
  H   H384      1.0  0.52634  0.06666  0.72552  1.0000
  S   S92       1.0  0.47389  0.34490  0.53394  1.0000
  H   H385      1.0  0.66560  0.31445  0.80068  1.0000
  C   C328      1.0  0.66330  0.32636  0.82015  1.0000
  H   H386      1.0  0.49394  0.42699  0.57047  1.0000
  C   C329      1.0  0.67411  0.50419  0.75433  1.0000
  C   C330      1.0  0.47312  0.02813  0.71311  1.0000
  H   H387      1.0  0.51405  0.07331  0.68732  1.0000
  H   H388      1.0  0.47214  0.09714  0.72873  1.0000
  S   S93       1.0  0.65249  0.48613  0.84899  1.0000
  H   H389      1.0  0.56330  0.23556  0.54611  1.0000
  C   C331      1.0  0.46260  0.44732  0.54629  1.0000
  C   C332      1.0  0.67247  0.32643  0.85245  1.0000
  H   H390      1.0  0.42942  0.37953  0.53377  1.0000
  H   H391      1.0  0.45593  0.24650  0.53022  1.0000
  Fe  Fe46      1.0  0.67613  0.49756  0.58561  1.0000
  Fe  Fe47      1.0  0.66439  0.12239  0.53313  1.0000
  C   C333      1.0  0.42645  0.01966  0.74202  1.0000
  H   H392      1.0  0.68190  0.35634  0.96287  1.0000
  C   C334      1.0  0.44852  0.04486  0.74392  1.0000
  H   H393      1.0  0.51075  0.24178  0.52429  1.0000
  S   S94       1.0  0.65988  0.50952  0.62860  1.0000
  H   H394      1.0  0.44653  0.06044  0.75656  1.0000
  H   H395      1.0  0.60316  0.50997  0.57829  1.0000
  H   H396      1.0  0.68156  0.31435  0.85677  1.0000
  H   H397      1.0  0.51077  0.02262  0.52751  1.0000
  H   H398      1.0  0.54906  0.11423  0.54269  1.0000
  C   C335      1.0  0.65685  0.35632  0.87072  1.0000
  Fe  Fe48      1.0  0.67860  0.43298  0.92003  1.0000
  C   C336      1.0  0.60438  0.43317  0.51665  1.0000
  C   C337      1.0  0.55517  0.09944  0.53483  1.0000
  C   C338      1.0  0.56762  0.02108  0.51599  1.0000
  C   C339      1.0  0.66960  0.34141  0.87880  1.0000
  H   H399      1.0  0.68441  0.37831  0.93158  1.0000
  H   H400      1.0  0.40811  0.01630  0.75262  1.0000
  H   H401      1.0  0.68510  0.18466  0.56646  1.0000
  C   C340      1.0  0.58591  0.04583  0.52960  1.0000
  H   H402      1.0  0.42806  0.48174  0.54861  1.0000
  H   H403      1.0  0.59254  0.08212  0.55230  1.0000
  S   S95       1.0  0.39617  0.50927  0.55348  1.0000
  H   H404      1.0  0.67095  0.44420  0.75326  1.0000
  H   H405      1.0  0.47897  0.01788  0.61248  1.0000
  H   H406      1.0  0.42077  0.40194  0.51563  1.0000
  C   C341      1.0  0.54068  0.01306  0.51590  1.0000
  Fe  Fe49      1.0  0.57739  0.88075  0.47917  1.0000
  S   S96       1.0  0.53629  0.87538  0.47420  1.0000
  C   C342      1.0  0.49477  0.68775  0.46878  1.0000
  H   H407      1.0  0.48290  0.69281  0.12034  1.0000
  C   C343      1.0  0.42233  0.73372  0.05196  1.0000
  C   C344      1.0  0.48651  0.64793  0.13223  1.0000
  Fe  Fe50      1.0  0.52575  0.83798  0.44433  1.0000
  S   S97       1.0  0.49355  0.82248  0.40317  1.0000
  C   C345      1.0  0.57561  0.53107  0.51376  1.0000
  S   S98       1.0  0.56763  0.84494  0.44530  1.0000
  Fe  Fe51      1.0  0.38609  0.53113  0.22078  1.0000
  H   H408      1.0  0.49191  0.67420  0.44823  1.0000
  H   H409      1.0  0.37462  0.79693  0.06184  1.0000
  Fe  Fe52      1.0  0.41102  0.58920  0.20799  1.0000
  S   S99       1.0  0.38531  0.58242  0.16205  1.0000
  S   S100      1.0  0.44182  0.62954  0.22830  1.0000
  H   H410      1.0  0.47663  0.89383  0.23231  1.0000
  Fe  Fe53      1.0  0.39462  0.55013  0.14967  1.0000
  S   S101      1.0  0.40219  0.54245  0.09701  1.0000
  H   H411      1.0  0.58047  0.94098  0.45535  1.0000
  S   S102      1.0  0.42234  0.55836  0.19406  1.0000
  Fe  Fe54      1.0  0.47782  0.79635  0.21286  1.0000
  S   S103      1.0  0.48369  0.78901  0.15960  1.0000
  S   S104      1.0  0.51234  0.81372  0.25064  1.0000
  Fe  Fe55      1.0  0.41925  0.77600  0.20038  1.0000
  S   S105      1.0  0.41953  0.76652  0.14628  1.0000
  H   H412      1.0  0.49475  0.86230  0.30242  1.0000
  Fe  Fe56      1.0  0.44631  0.75085  0.16264  1.0000
  S   S106      1.0  0.44053  0.71398  0.13567  1.0000
  Fe  Fe57      1.0  0.45663  0.80543  0.14701  1.0000
  S   S107      1.0  0.46652  0.83256  0.10471  1.0000
  S   S108      1.0  0.44256  0.75650  0.21697  1.0000
  S   S109      1.0  0.45433  0.81649  0.20003  1.0000
  H   H413      1.0  0.37747  0.71478  0.18882  1.0000
  C   C346      1.0  0.39520  0.80581  0.05579  1.0000
  C   C347      1.0  0.41479  0.81185  0.08100  1.0000
  C   C348      1.0  0.44149  0.82391  0.07348  1.0000
  C   C349      1.0  0.44842  0.82942  0.04056  1.0000
  H   H414      1.0  0.48979  0.66394  0.14948  1.0000
  H   H415      1.0  0.49002  0.70893  0.08253  1.0000
  H   H416      1.0  0.40929  0.80766  0.10634  1.0000
  S   S110      1.0  0.35962  0.51950  0.17473  1.0000
  C   C350      1.0  0.37894  0.52580  0.31021  1.0000
  C   C351      1.0  0.44355  0.65379  0.20225  1.0000
  C   C352      1.0  0.43486  0.64718  0.16908  1.0000
  C   C353      1.0  0.43366  0.66569  0.14897  1.0000
  C   C354      1.0  0.44200  0.69126  0.16170  1.0000
  C   C355      1.0  0.45206  0.69844  0.19446  1.0000
  C   C356      1.0  0.45281  0.67965  0.21479  1.0000
  H   H417      1.0  0.42964  0.62796  0.15860  1.0000
  H   H418      1.0  0.42631  0.66015  0.12349  1.0000
  H   H419      1.0  0.45920  0.71838  0.20407  1.0000
  H   H420      1.0  0.45973  0.68486  0.24040  1.0000
  H   H421      1.0  0.42528  0.77200  0.05244  1.0000
  C   C357      1.0  0.42454  0.61274  0.05569  1.0000
  C   C358      1.0  0.41611  0.59287  0.07857  1.0000
  C   C359      1.0  0.41118  0.56753  0.06861  1.0000
  C   C360      1.0  0.41373  0.56199  0.03534  1.0000
  H   H422      1.0  0.42907  0.52348  0.49639  1.0000
  H   H423      1.0  0.43902  0.82024  0.29433  1.0000
  H   H424      1.0  0.41450  0.59749  0.10411  1.0000
  H   H425      1.0  0.40981  0.54241  0.02738  1.0000
  C   C361      1.0  0.60270  0.98351  0.46246  1.0000
  C   C362      1.0  0.49937  0.82115  0.36082  1.0000
  C   C363      1.0  0.52492  0.83346  0.34911  1.0000
  C   C364      1.0  0.52864  0.83141  0.31513  1.0000
  C   C365      1.0  0.50689  0.81707  0.29275  1.0000
  C   C366      1.0  0.48134  0.80491  0.30444  1.0000
  C   C367      1.0  0.47763  0.80698  0.33836  1.0000
  H   H426      1.0  0.54180  0.84442  0.36623  1.0000
  H   H427      1.0  0.54848  0.84085  0.30623  1.0000
  H   H428      1.0  0.46448  0.79365  0.28741  1.0000
  H   H429      1.0  0.45782  0.79728  0.34737  1.0000
  H   H430      1.0  0.38418  0.70729  0.24256  1.0000
  H   H431      1.0  0.35342  0.52400  0.04542  1.0000
  C   C368      1.0  0.49833  0.72974  0.48603  1.0000
  H   H432      1.0  0.41233  0.70079  0.28291  1.0000
  H   H433      1.0  0.47208  0.62001  0.17064  1.0000
  C   C369      1.0  0.59862  0.95765  0.46529  1.0000
  C   C370      1.0  0.61840  0.95348  0.47994  1.0000
  H   H434      1.0  0.41768  0.69546  0.04610  1.0000
  H   H435      1.0  0.65766  0.97256  0.50317  1.0000
  Fe  Fe58      1.0  0.35281  0.55279  0.19054  1.0000
  C   C371      1.0  0.40216  0.66200  0.26340  1.0000
  C   C372      1.0  0.46415  0.88643  0.30283  1.0000
  C   C373      1.0  0.51718  0.76788  0.35252  1.0000
  C   C374      1.0  0.41417  0.70986  0.03399  1.0000
  H   H436      1.0  0.45517  0.84163  0.33011  1.0000
  C   C375      1.0  0.48651  0.62971  0.07754  1.0000
  C   C376      1.0  0.50496  0.67970  0.04927  1.0000
  H   H437      1.0  0.51928  0.67311  0.04161  1.0000
  C   C377      1.0  0.47150  0.60129  0.12374  1.0000
  N   N24       1.0  0.50192  0.67890  0.08562  1.0000
  H   H438      1.0  0.44237  0.52020  0.36889  1.0000
  H   H439      1.0  0.35683  0.55124  0.07064  1.0000
  C   C378      1.0  0.43340  0.80821  0.51371  1.0000
  H   H440      1.0  0.49152  0.71460  0.43565  1.0000
  H   H441      1.0  0.51238  0.69993  0.04043  1.0000
  C   C379      1.0  0.41874  0.85421  0.18991  1.0000
  C   C380      1.0  0.53948  0.74098  0.38449  1.0000
  H   H442      1.0  0.54860  0.73095  0.39707  1.0000
  H   H443      1.0  0.44545  0.88700  0.30705  1.0000
  H   H444      1.0  0.47558  0.55759  0.49007  1.0000
  H   H445      1.0  0.54335  0.67994  0.50957  1.0000
  C   C381      1.0  0.52828  0.69661  0.10187  1.0000
  H   H446      1.0  0.58746  0.98648  0.45047  1.0000
  H   H447      1.0  0.48115  0.84470  0.26332  1.0000
  H   H448      1.0  0.52729  0.69878  0.12911  1.0000
  H   H449      1.0  0.55383  0.93438  0.50650  1.0000
  H   H450      1.0  0.37770  0.54671  0.35451  1.0000
  C   C382      1.0  0.49444  0.71094  0.46111  1.0000
  H   H451      1.0  0.38962  0.54349  0.29689  1.0000
  H   H452      1.0  0.35333  0.57318  0.02043  1.0000
  C   C383      1.0  0.64215  0.97552  0.49197  1.0000
  H   H453      1.0  0.38600  0.81976  0.20798  1.0000
  H   H454      1.0  0.38327  0.69410  0.16017  1.0000
  C   C384      1.0  0.44437  0.85909  0.25270  1.0000
  C   C385      1.0  0.36753  0.69620  0.17306  1.0000
  H   H455      1.0  0.42053  0.89624  0.01732  1.0000
  C   C386      1.0  0.44368  0.83957  0.30658  1.0000
  N   N25       1.0  0.45867  0.86159  0.28471  1.0000
  S   S111      1.0  0.56563  0.78672  0.49392  1.0000
  H   H456      1.0  0.52216  0.78829  0.39988  1.0000
  H   H457      1.0  0.42896  0.63241  0.06381  1.0000
  H   H458      1.0  0.49895  0.74809  0.47996  1.0000
  H   H459      1.0  0.44705  0.80885  0.49539  1.0000
  C   C387      1.0  0.49155  0.65213  0.09817  1.0000
  H   H460      1.0  0.45247  0.87744  0.49309  1.0000
  C   C388      1.0  0.62653  0.00558  0.47428  1.0000
  N   N26       1.0  0.51404  0.74483  0.29748  1.0000
  C   C389      1.0  0.48701  0.74104  0.29026  1.0000
  C   C390      1.0  0.53338  0.76853  0.28102  1.0000
  C   C391      1.0  0.51488  0.72162  0.28226  1.0000
  C   C392      1.0  0.52058  0.74881  0.33363  1.0000
  C   C393      1.0  0.53199  0.73538  0.35072  1.0000
  H   H461      1.0  0.48565  0.75919  0.29574  1.0000
  H   H462      1.0  0.48083  0.73601  0.26353  1.0000
  H   H463      1.0  0.47211  0.72505  0.30479  1.0000
  H   H464      1.0  0.52864  0.76724  0.25391  1.0000
  H   H465      1.0  0.55389  0.77170  0.28471  1.0000
  H   H466      1.0  0.53370  0.78674  0.29101  1.0000
  H   H467      1.0  0.53522  0.72409  0.28366  1.0000
  H   H468      1.0  0.50118  0.70318  0.29423  1.0000
  H   H469      1.0  0.50884  0.71858  0.25539  1.0000
  H   H470      1.0  0.53574  0.72081  0.33852  1.0000
  H   H471      1.0  0.40692  0.82339  0.26163  1.0000
  H   H472      1.0  0.46328  0.67584  0.08349  1.0000
  H   H473      1.0  0.54228  0.68887  0.09743  1.0000
  S   S112      1.0  0.38399  0.76807  0.22978  1.0000
  S   S113      1.0  0.37700  0.56277  0.23821  1.0000
  C   C394      1.0  0.38464  0.68887  0.24094  1.0000
  H   H474      1.0  0.46904  0.83858  0.03461  1.0000
  H   H475      1.0  0.46297  0.58171  0.13317  1.0000
  H   H476      1.0  0.36081  0.62954  0.19755  1.0000
  H   H477      1.0  0.47212  0.58775  0.07403  1.0000
  H   H478      1.0  0.49787  0.62301  0.49023  1.0000
  C   C395      1.0  0.47674  0.60477  0.09036  1.0000
  H   H479      1.0  0.50928  0.77931  0.34121  1.0000
  H   H480      1.0  0.54226  0.76463  0.42813  1.0000
  H   H481      1.0  0.45442  0.88873  0.17827  1.0000
  C   C396      1.0  0.41867  0.75352  0.03845  1.0000
  C   C397      1.0  0.64617  0.00141  0.48936  1.0000
  H   H482      1.0  0.53710  0.71682  0.09248  1.0000
  H   H483      1.0  0.49829  0.87992  0.26608  1.0000
  C   C398      1.0  0.61499  0.51448  0.51337  1.0000
  H   H484      1.0  0.40927  0.85185  0.16561  1.0000
  C   C399      1.0  0.35329  0.75041  0.20790  1.0000
  C   C400      1.0  0.38755  0.64228  0.23915  1.0000
  Fe  Fe59      1.0  0.55692  0.82132  0.49137  1.0000
  H   H485      1.0  0.36897  0.75934  0.15949  1.0000
  C   C401      1.0  0.37143  0.64565  0.21564  1.0000
  S   S114      1.0  0.51460  0.81270  0.48840  1.0000
  C   C402      1.0  0.52465  0.77328  0.38620  1.0000
  H   H486      1.0  0.52652  0.99365  0.50551  1.0000
  C   C403      1.0  0.36916  0.66897  0.21617  1.0000
  C   C404      1.0  0.41812  0.83853  0.24481  1.0000
  C   C405      1.0  0.53594  0.75996  0.40213  1.0000
  H   H487      1.0  0.38896  0.62432  0.23832  1.0000
  C   C406      1.0  0.42793  0.60738  0.02269  1.0000
  C   C407      1.0  0.40567  0.83620  0.21380  1.0000
  C   C408      1.0  0.44420  0.87494  0.19710  1.0000
  H   H488      1.0  0.47711  0.90409  0.28910  1.0000
  C   C409      1.0  0.48424  0.86222  0.27886  1.0000
  C   C410      1.0  0.45681  0.87755  0.22808  1.0000
  C   C411      1.0  0.37249  0.52762  0.34303  1.0000
  H   H489      1.0  0.47439  0.88872  0.32743  1.0000
  H   H490      1.0  0.42486  0.83876  0.31376  1.0000
  C   C412      1.0  0.55587  0.53853  0.51358  1.0000
  H   H491      1.0  0.41480  0.65921  0.28121  1.0000
  H   H492      1.0  0.43168  0.73698  0.07655  1.0000
  H   H493      1.0  0.51205  0.65001  0.46396  1.0000
  H   H494      1.0  0.48911  0.63062  0.05120  1.0000
  H   H495      1.0  0.48566  0.66706  0.03560  1.0000
  C   C413      1.0  0.47651  0.62285  0.14469  1.0000
  C   C414      1.0  0.40085  0.68535  0.26419  1.0000
  C   C415      1.0  0.48379  0.68951  0.09334  1.0000
  C   C416      1.0  0.49916  0.68284  0.50199  1.0000
  H   H496      1.0  0.61444  0.52035  0.48759  1.0000
  H   H497      1.0  0.64288  0.56700  0.50663  1.0000
  C   C417      1.0  0.49665  0.64064  0.48240  1.0000
  S   S115      1.0  0.61462  0.92132  0.48354  1.0000
  H   H498      1.0  0.35507  0.69923  0.15410  1.0000
  C   C418      1.0  0.41215  0.81195  0.50424  1.0000
  C   C419      1.0  0.46668  0.55581  0.51368  1.0000
  H   H499      1.0  0.57449  0.00829  0.50511  1.0000
  H   H500      1.0  0.40929  0.81545  0.47870  1.0000
  H   H501      1.0  0.48671  0.86398  0.50257  1.0000
  H   H502      1.0  0.57692  0.74384  0.49795  1.0000
  N   N27       1.0  0.50090  0.65918  0.51101  1.0000
  H   H503      1.0  0.47667  0.63309  0.47012  1.0000
  H   H504      1.0  0.57368  0.51669  0.49475  1.0000
  C   C420      1.0  0.40214  0.81110  0.02286  1.0000
  H   H505      1.0  0.53974  0.53001  0.49494  1.0000
  H   H506      1.0  0.39073  0.65508  0.02117  1.0000
  H   H507      1.0  0.67875  0.52054  0.73875  1.0000
  C   C421      1.0  0.51779  0.94088  0.54601  1.0000
  C   C422      1.0  0.36879  0.52756  0.69117  1.0000
  C   C423      1.0  0.56493  0.93044  0.58810  1.0000
  C   C424      1.0  0.39028  0.86488  0.94400  1.0000
  C   C425      1.0  0.40434  0.85456  0.73221  1.0000
  H   H508      1.0  0.42440  0.57743  0.98697  1.0000
  Fe  Fe60      1.0  0.38465  0.91809  0.63260  1.0000
  S   S116      1.0  0.41812  0.90874  0.63179  1.0000
  S   S117      1.0  0.38958  0.95827  0.64939  1.0000
  Fe  Fe61      1.0  0.39908  0.88746  0.58308  1.0000
  S   S118      1.0  0.42196  0.88988  0.53788  1.0000
  S   S119      1.0  0.50961  0.85633  0.56328  1.0000
  S   S120      1.0  0.68441  0.58485  0.60875  1.0000
  Fe  Fe62      1.0  0.57523  0.63346  0.63773  1.0000
  S   S121      1.0  0.53352  0.60040  0.62972  1.0000
  S   S122      1.0  0.60097  0.61803  0.66207  1.0000
  Fe  Fe63      1.0  0.55866  0.67483  0.61734  1.0000
  S   S123      1.0  0.51618  0.64381  0.60858  1.0000
  S   S124      1.0  0.56543  0.71705  0.61412  1.0000
  Fe  Fe64      1.0  0.52106  0.62703  0.65571  1.0000
  S   S125      1.0  0.48639  0.60933  0.68929  1.0000
  Fe  Fe65      1.0  0.53261  0.62023  0.58387  1.0000
  S   S126      1.0  0.51457  0.59651  0.53613  1.0000
  S   S127      1.0  0.56261  0.65925  0.66681  1.0000
  S   S128      1.0  0.57516  0.65197  0.58935  1.0000
  Fe  Fe66      1.0  0.45583  0.61640  0.87341  1.0000
  S   S129      1.0  0.45539  0.64996  0.90211  1.0000
  S   S130      1.0  0.49318  0.62766  0.84570  1.0000
  Fe  Fe67      1.0  0.39946  0.57801  0.89088  1.0000
  S   S131      1.0  0.39438  0.60881  0.91925  1.0000
  S   S132      1.0  0.40241  0.84898  0.68892  1.0000
  Fe  Fe68      1.0  0.41507  0.63444  0.87791  1.0000
  S   S133      1.0  0.39907  0.65756  0.85181  1.0000
  Fe  Fe69      1.0  0.43488  0.62102  0.94095  1.0000
  H   H509      1.0  0.45466  0.78883  0.60286  1.0000
  S   S134      1.0  0.41638  0.60251  0.84714  1.0000
  S   S135      1.0  0.43920  0.58863  0.91491  1.0000
  Fe  Fe70      1.0  0.41949  0.78900  0.89147  1.0000
  S   S136      1.0  0.38369  0.76310  0.91915  1.0000
  S   S137      1.0  0.45232  0.77893  0.89097  1.0000
  Fe  Fe71      1.0  0.39833  0.82521  0.87120  1.0000
  C   C426      1.0  0.54258  0.95244  0.56420  1.0000
  S   S138      1.0  0.40249  0.86086  0.84522  1.0000
  Fe  Fe72      1.0  0.38669  0.80087  0.93877  1.0000
  C   C427      1.0  0.45385  0.88396  0.97995  1.0000
  C   C428      1.0  0.58901  0.96726  0.55385  1.0000
  S   S139      1.0  0.42447  0.82686  0.91455  1.0000
  S   S140      1.0  0.36736  0.89924  0.58207  1.0000
  C   C429      1.0  0.43816  0.74533  0.87985  1.0000
  C   C430      1.0  0.45084  0.73104  0.88901  1.0000
  C   C431      1.0  0.43907  0.70401  0.88039  1.0000
  C   C432      1.0  0.41475  0.69137  0.86240  1.0000
  C   C433      1.0  0.40242  0.70582  0.85269  1.0000
  C   C434      1.0  0.41401  0.73271  0.86163  1.0000
  H   H510      1.0  0.46966  0.74086  0.90291  1.0000
  H   H511      1.0  0.44889  0.69314  0.88771  1.0000
  H   H512      1.0  0.38366  0.69616  0.83866  1.0000
  H   H513      1.0  0.40436  0.74375  0.85407  1.0000
  C   C435      1.0  0.48868  0.61579  0.73252  1.0000
  C   C436      1.0  0.51238  0.63403  0.74919  1.0000
  C   C437      1.0  0.51360  0.63756  0.78393  1.0000
  C   C438      1.0  0.49099  0.62332  0.80208  1.0000
  C   C439      1.0  0.46716  0.60562  0.78523  1.0000
  C   C440      1.0  0.46605  0.60182  0.75064  1.0000
  H   H514      1.0  0.52970  0.64532  0.73528  1.0000
  H   H515      1.0  0.53211  0.65131  0.79680  1.0000
  H   H516      1.0  0.44973  0.59424  0.79893  1.0000
  H   H517      1.0  0.44765  0.58766  0.73790  1.0000
  H   H518      1.0  0.40385  0.76509  0.99657  1.0000
  H   H519      1.0  0.41412  0.91573  0.93167  1.0000
  C   C441      1.0  0.57196  0.73177  0.54841  1.0000
  C   C442      1.0  0.56562  0.73618  0.58028  1.0000
  C   C443      1.0  0.55997  0.75698  0.58590  1.0000
  C   C444      1.0  0.56014  0.77282  0.55998  1.0000
  N   N28       1.0  0.41190  0.88631  0.96491  1.0000
  H   H520      1.0  0.57760  0.71674  0.54399  1.0000
  H   H521      1.0  0.55551  0.76095  0.61053  1.0000
  H   H522      1.0  0.55574  0.78870  0.56478  1.0000
  C   C445      1.0  0.44728  0.88190  0.54495  1.0000
  C   C446      1.0  0.45592  0.88091  0.57718  1.0000
  C   C447      1.0  0.47577  0.87394  0.58254  1.0000
  C   C448      1.0  0.48670  0.86748  0.55571  1.0000
  C   C449      1.0  0.54679  0.97172  0.58958  1.0000
  H   H523      1.0  0.57930  0.92301  0.58459  1.0000
  H   H524      1.0  0.44726  0.88546  0.59800  1.0000
  H   H525      1.0  0.48233  0.87315  0.60755  1.0000
  H   H526      1.0  0.39249  0.88449  0.73209  1.0000
  H   H527      1.0  0.39941  0.66742  0.93362  1.0000
  H   H528      1.0  0.46044  0.63846  0.52503  1.0000
  C   C450      1.0  0.40454  0.85934  0.80182  1.0000
  C   C451      1.0  0.50771  0.75216  0.83066  1.0000
  H   H529      1.0  0.36081  0.71775  0.87509  1.0000
  S   S141      1.0  0.44112  0.63329  0.99539  1.0000
  C   C452      1.0  0.45101  0.00296  0.71175  1.0000
  C   C453      1.0  0.42876  0.53393  0.54778  1.0000
  H   H530      1.0  0.39378  0.91127  0.96578  1.0000
  H   H531      1.0  0.62844  0.54272  0.59096  1.0000
  C   C454      1.0  0.48153  0.57268  0.54068  1.0000
  C   C455      1.0  0.46993  0.57034  0.57114  1.0000
  C   C456      1.0  0.44362  0.55094  0.57470  1.0000
  H   H532      1.0  0.50354  0.57256  0.75548  1.0000
  H   H533      1.0  0.48119  0.58332  0.59212  1.0000
  H   H534      1.0  0.43483  0.54907  0.59843  1.0000
  C   C457      1.0  0.39828  0.87521  0.78204  1.0000
  C   C458      1.0  0.66048  0.59314  0.62345  1.0000
  C   C459      1.0  0.65759  0.61318  0.60836  1.0000
  C   C460      1.0  0.63858  0.62018  0.61874  1.0000
  C   C461      1.0  0.62270  0.60766  0.64500  1.0000
  C   C462      1.0  0.62562  0.58763  0.66010  1.0000
  C   C463      1.0  0.64411  0.58013  0.64912  1.0000
  H   H535      1.0  0.39854  0.69752  0.93370  1.0000
  H   H536      1.0  0.63695  0.63594  0.60727  1.0000
  H   H537      1.0  0.61369  0.57800  0.68067  1.0000
  S   S142      1.0  0.37720  0.80391  0.99197  1.0000
  H   H538      1.0  0.40708  0.77029  0.64114  1.0000
  H   H539      1.0  0.51374  0.71907  0.82300  1.0000
  S   S143      1.0  0.39666  0.78944  0.84595  1.0000
  C   C464      1.0  0.41640  0.98925  0.64009  1.0000
  H   H540      1.0  0.38868  0.72354  0.96474  1.0000
  C   C465      1.0  0.43944  0.99144  0.62680  1.0000
  H   H541      1.0  0.54187  0.56324  0.53655  1.0000
  H   H542      1.0  0.44069  0.97380  0.62074  1.0000
  C   C466      1.0  0.57196  0.74747  0.52244  1.0000
  C   C467      1.0  0.36421  0.51570  0.63259  1.0000
  C   C468      1.0  0.52747  0.97895  0.59629  1.0000
  H   H543      1.0  0.53125  0.67901  0.55015  1.0000
  H   H544      1.0  0.43427  0.82651  0.98985  1.0000
  H   H545      1.0  0.37050  0.86236  0.94986  1.0000
  H   H546      1.0  0.43519  0.89676  0.90479  1.0000
  C   C469      1.0  0.48585  0.89060  0.93873  1.0000
  S   S144      1.0  0.36661  0.53613  0.88509  1.0000
  C   C470      1.0  0.42768  0.99877  0.72588  1.0000
  H   H547      1.0  0.57155  0.94350  0.61096  1.0000
  H   H548      1.0  0.39305  0.88902  0.79358  1.0000
  H   H549      1.0  0.39256  0.86828  0.91709  1.0000
  C   C471      1.0  0.45906  0.87660  0.51807  1.0000
  H   H550      1.0  0.45534  0.80311  0.55253  1.0000
  H   H551      1.0  0.48121  0.56387  0.80698  1.0000
  C   C472      1.0  0.36392  0.66674  0.97682  1.0000
  H   H552      1.0  0.41703  0.82997  0.80153  1.0000
  H   H553      1.0  0.42928  0.92834  0.97225  1.0000
  C   C473      1.0  0.40500  0.68585  0.94886  1.0000
  H   H554      1.0  0.56485  0.98090  0.60495  1.0000
  H   H555      1.0  0.57230  0.92044  0.52529  1.0000
  H   H556      1.0  0.50708  0.68990  0.78022  1.0000
  C   C474      1.0  0.45881  0.72238  0.79646  1.0000
  H   H557      1.0  0.40160  0.53837  0.65983  1.0000
  H   H558      1.0  0.50568  0.74020  0.53802  1.0000
  H   H559      1.0  0.35710  0.60720  0.80585  1.0000
  H   H560      1.0  0.45330  0.75616  0.80615  1.0000
  C   C475      1.0  0.59716  0.54227  0.53772  1.0000
  H   H561      1.0  0.63757  0.52084  0.57154  1.0000
  H   H562      1.0  0.40083  0.81654  0.62906  1.0000
  C   C476      1.0  0.39491  0.81170  0.52778  1.0000
  C   C477      1.0  0.62201  0.52691  0.57114  1.0000
  C   C478      1.0  0.50332  0.96705  0.57820  1.0000
  H   H563      1.0  0.38442  0.77104  0.61064  1.0000
  H   H564      1.0  0.48388  0.65606  0.55881  1.0000
  H   H565      1.0  0.47664  0.89878  0.89014  1.0000
  H   H566      1.0  0.50403  0.89103  0.93173  1.0000
  H   H567      1.0  0.61315  0.57040  0.58020  1.0000
  H   H568      1.0  0.56273  0.56308  0.74750  1.0000
  H   H569      1.0  0.45150  0.98666  0.69851  1.0000
  H   H570      1.0  0.49075  0.69622  0.74606  1.0000
  C   C479      1.0  0.45164  0.80447  0.61529  1.0000
  H   H571      1.0  0.51244  0.92573  0.52662  1.0000
  C   C480      1.0  0.43755  0.88815  0.95664  1.0000
  H   H572      1.0  0.45223  0.66890  0.83623  1.0000
  H   H573      1.0  0.39434  0.64362  0.98133  1.0000
  H   H574      1.0  0.53101  0.99348  0.61605  1.0000
  C   C481      1.0  0.49855  0.94813  0.55308  1.0000
  C   C482      1.0  0.44671  0.89388  0.92411  1.0000
  S   S145      1.0  0.36076  0.80237  0.89747  1.0000
  H   H575      1.0  0.53811  0.90672  0.53272  1.0000
  H   H576      1.0  0.60414  0.96123  0.54798  1.0000
  C   C483      1.0  0.46660  0.74800  0.80878  1.0000
  H   H577      1.0  0.49627  0.78224  0.83658  1.0000
  H   H578      1.0  0.57922  0.60943  0.81160  1.0000
  C   C484      1.0  0.46598  0.66797  0.81824  1.0000
  S   S146      1.0  0.37338  0.84850  0.60448  1.0000
  C   C485      1.0  0.42194  0.58181  0.01238  1.0000
  C   C486      1.0  0.55637  0.92569  0.52950  1.0000
  C   C487      1.0  0.39891  0.80782  0.56089  1.0000
  H   H579      1.0  0.37857  0.81495  0.52045  1.0000
  N   N29       1.0  0.55884  0.59809  0.74743  1.0000
  C   C488      1.0  0.57654  0.62698  0.74681  1.0000
  C   C489      1.0  0.57522  0.58479  0.74631  1.0000
  C   C490      1.0  0.54147  0.58958  0.71677  1.0000
  C   C491      1.0  0.54402  0.59184  0.77814  1.0000
  C   C492      1.0  0.51588  0.57855  0.77801  1.0000
  C   C493      1.0  0.55784  0.59930  0.80954  1.0000
  H   H580      1.0  0.59252  0.63458  0.76659  1.0000
  H   H581      1.0  0.58666  0.63264  0.72301  1.0000
  H   H582      1.0  0.56526  0.63783  0.74991  1.0000
  H   H583      1.0  0.59044  0.59171  0.76701  1.0000
  H   H584      1.0  0.58621  0.58867  0.72307  1.0000
  H   H585      1.0  0.54545  0.91300  0.59267  1.0000
  H   H586      1.0  0.52806  0.56792  0.71498  1.0000
  H   H587      1.0  0.52938  0.59974  0.71512  1.0000
  H   H588      1.0  0.55317  0.59432  0.69424  1.0000
  H   H589      1.0  0.52645  0.76363  0.84448  1.0000
  H   H590      1.0  0.59713  0.98090  0.57607  1.0000
  C   C494      1.0  0.50264  0.57334  0.80757  1.0000
  H   H591      1.0  0.35636  0.64759  0.96241  1.0000
  C   C495      1.0  0.57765  0.56831  0.56099  1.0000
  C   C496      1.0  0.54438  0.59423  0.83891  1.0000
  C   C497      1.0  0.47049  0.89505  0.91540  1.0000
  H   H592      1.0  0.45861  0.64688  0.81099  1.0000
  H   H593      1.0  0.41643  0.82539  0.74059  1.0000
  C   C498      1.0  0.51683  0.58138  0.83790  1.0000
  C   C499      1.0  0.48758  0.68327  0.76709  1.0000
  N   N30       1.0  0.46762  0.68353  0.78925  1.0000
  C   C500      1.0  0.43795  0.80496  0.54692  1.0000
  C   C501      1.0  0.41126  0.83929  0.75204  1.0000
  C   C502      1.0  0.52756  0.66749  0.52628  1.0000
  C   C503      1.0  0.56604  0.76809  0.52798  1.0000
  C   C504      1.0  0.40492  0.77424  0.61480  1.0000
  C   C505      1.0  0.42160  0.82034  0.62896  1.0000
  H   H594      1.0  0.50640  0.57814  0.86064  1.0000
  C   C506      1.0  0.50024  0.72664  0.81824  1.0000
  H   H595      1.0  0.38458  0.80714  0.57791  1.0000
  H   H596      1.0  0.55530  0.60060  0.86262  1.0000
  C   C507      1.0  0.39818  0.72574  0.98888  1.0000
  Fe  Fe73      1.0  0.38966  0.87065  0.65363  1.0000
  C   C508      1.0  0.39793  0.87266  0.74724  1.0000
  C   C509      1.0  0.47758  0.88512  0.97093  1.0000
  C   C510      1.0  0.41134  0.84164  0.78664  1.0000
  C   C511      1.0  0.40045  0.66179  0.99736  1.0000
  H   H597      1.0  0.48142  0.66305  0.75652  1.0000
  C   C512      1.0  0.49088  0.76277  0.82603  1.0000
  H   H598      1.0  0.42701  0.69709  0.95156  1.0000
  H   H599      1.0  0.43932  0.71181  0.78446  1.0000
  H   H600      1.0  0.48941  0.88131  0.98894  1.0000
  H   H601      1.0  0.43636  0.64947  0.76222  1.0000
  H   H602      1.0  0.48547  0.67496  0.83160  1.0000
  C   C513      1.0  0.50268  0.70229  0.52676  1.0000
  H   H603      1.0  0.44134  0.68047  0.74846  1.0000
  N   N31       1.0  0.56278  0.94410  0.55880  1.0000
  N   N32       1.0  0.39312  0.68031  0.98171  1.0000
  H   H604      1.0  0.67024  0.62349  0.58860  1.0000
  C   C514      1.0  0.47550  0.71090  0.80082  1.0000
  C   C515      1.0  0.44149  0.66989  0.77084  1.0000
  H   H605      1.0  0.42527  0.66788  0.78685  1.0000
  H   H606      1.0  0.53040  0.65037  0.53190  1.0000
  H   H607      1.0  0.43398  0.84087  0.62157  1.0000
  H   H608      1.0  0.48806  0.97214  0.58392  1.0000
  C   C516      1.0  0.40538  0.88060  0.00003  1.0000
  H   H609      1.0  0.64616  0.56476  0.66105  1.0000
  H   H610      1.0  0.64940  0.57597  0.54999  1.0000
  H   H611      1.0  0.42228  0.67092  0.00184  1.0000
  H   H612      1.0  0.41032  0.97938  0.72347  1.0000
  C   C517      1.0  0.59741  0.56099  0.56137  1.0000
  H   H613      1.0  0.38972  0.84577  0.94799  1.0000
  Fe  Fe74      1.0  0.36115  0.76677  0.87557  1.0000
  H   H614      1.0  0.45491  0.80336  0.64228  1.0000
  H   H615      1.0  0.47294  0.51888  0.56162  1.0000
  C   C518      1.0  0.42876  0.82259  0.01521  1.0000
  C   C519      1.0  0.42104  0.80516  0.57172  1.0000
  H   H616      1.0  0.35686  0.67856  0.96294  1.0000
  H   H617      1.0  0.44855  0.87923  0.00520  1.0000
  H   H618      1.0  0.66543  0.52207  0.79647  1.0000
  H   H619      1.0  0.35535  0.67796  0.90206  1.0000
  H   H620      1.0  0.57859  0.58293  0.57924  1.0000
  H   H621      1.0  0.46752  0.82398  0.60804  1.0000
  H   H622      1.0  0.39747  0.01091  0.65850  1.0000
  H   H623      1.0  0.38127  0.53719  0.71326  1.0000
  H   H624      1.0  0.48118  0.62611  0.54196  1.0000
  N   N33       1.0  0.61899  0.53574  0.53812  1.0000
  S   S147      1.0  0.35728  0.88124  0.65852  1.0000
  H   H625      1.0  0.35418  0.66267  0.00089  1.0000
  H   H626      1.0  0.40666  0.75921  0.59885  1.0000
  C   C520      1.0  0.41232  0.91151  0.95838  1.0000
  C   C521      1.0  0.55698  0.55721  0.53702  1.0000
  H   H627      1.0  0.58792  0.97862  0.53280  1.0000
  H   H628      1.0  0.40363  0.86126  0.00621  1.0000
  C   C522      1.0  0.64411  0.55955  0.53124  1.0000
  N   N34       1.0  0.42496  0.80124  0.60702  1.0000
  S   S148      1.0  0.57029  0.85756  0.52500  1.0000
  H   H629      1.0  0.37403  0.51658  0.61000  1.0000
  H   H630      1.0  0.47949  0.93852  0.53946  1.0000
  C   C523      1.0  0.40204  0.70526  0.00160  1.0000
  H   H631      1.0  0.66119  0.55561  0.53181  1.0000
  Fe  Fe75      1.0  0.52877  0.85068  0.51821  1.0000
  C   C524      1.0  0.48073  0.64438  0.53521  1.0000
  C   C525      1.0  0.47862  0.86920  0.52343  1.0000
  H   H632      1.0  0.42714  0.81975  0.65536  1.0000
  C   C526      1.0  0.44031  0.53647  0.51722  1.0000
  H   H633      1.0  0.50678  0.70033  0.55246  1.0000
  C   C527      1.0  0.38020  0.52820  0.66111  1.0000
  H   H634      1.0  0.38595  0.87918  0.00544  1.0000
  H   H635      1.0  0.36033  0.79238  0.76391  1.0000
  C   C528      1.0  0.50210  0.72526  0.51880  1.0000
  C   C529      1.0  0.40660  0.74955  0.00701  1.0000
  C   C530      1.0  0.41516  0.01241  0.64807  1.0000
  S   S149      1.0  0.75780  0.16199  0.49280  1.0000
  C   C531      1.0  0.92019  0.47187  0.25552  1.0000
  C   C532      1.0  0.70455  0.27255  0.11381  1.0000
  S   S150      1.0  0.69197  0.15657  0.50485  1.0000
  S   S151      1.0  0.73518  0.24464  0.17078  1.0000
  Fe  Fe76      1.0  0.80961  0.38922  0.21244  1.0000
  S   S152      1.0  0.79684  0.38569  0.15902  1.0000
  S   S153      1.0  0.79723  0.35595  0.24626  1.0000
  Fe  Fe77      1.0  0.84114  0.44850  0.21455  1.0000
  S   S154      1.0  0.83146  0.45078  0.16066  1.0000
  S   S155      1.0  0.86733  0.48432  0.24816  1.0000
  Fe  Fe78      1.0  0.79036  0.41986  0.17163  1.0000
  S   S156      1.0  0.75372  0.41679  0.14679  1.0000
  Fe  Fe79      1.0  0.83865  0.41649  0.15177  1.0000
  S   S157      1.0  0.86007  0.41039  0.10929  1.0000
  S   S158      1.0  0.79926  0.42067  0.22610  1.0000
  S   S159      1.0  0.85213  0.41692  0.20460  1.0000
  C   C533      1.0  0.77686  0.33477  0.03990  1.0000
  C   C534      1.0  0.90843  0.42763  0.27054  1.0000
  C   C535      1.0  0.84786  0.39887  0.04268  1.0000
  C   C536      1.0  0.85295  0.41715  0.06918  1.0000
  C   C537      1.0  0.85569  0.44184  0.06271  1.0000
  C   C538      1.0  0.85471  0.44868  0.02986  1.0000
  H   H636      1.0  0.90873  0.48904  0.15211  1.0000
  H   H637      1.0  0.84599  0.37984  0.04749  1.0000
  H   H638      1.0  0.85983  0.45614  0.08293  1.0000
  Fe  Fe80      1.0  0.89174  0.49630  0.44137  1.0000
  H   H639      1.0  0.73106  0.27190  0.01828  1.0000
  H   H640      1.0  0.74364  0.43195  0.33305  1.0000
  C   C539      1.0  0.72877  0.41133  0.17405  1.0000
  C   C540      1.0  0.73489  0.41847  0.20773  1.0000
  C   C541      1.0  0.71459  0.41279  0.22951  1.0000
  C   C542      1.0  0.91309  0.45294  0.27932  1.0000
  C   C543      1.0  0.70707  0.34271  0.16264  1.0000
  H   H641      1.0  0.75523  0.42865  0.21696  1.0000
  C   C544      1.0  0.78152  0.32501  0.22523  1.0000
  C   C545      1.0  0.76494  0.30296  0.24246  1.0000
  C   C546      1.0  0.75091  0.27824  0.22579  1.0000
  C   C547      1.0  0.75373  0.27537  0.19196  1.0000
  C   C548      1.0  0.77092  0.29731  0.17484  1.0000
  C   C549      1.0  0.78467  0.32220  0.19143  1.0000
  H   H642      1.0  0.76265  0.30506  0.26866  1.0000
  H   H643      1.0  0.73824  0.26141  0.23931  1.0000
  H   H644      1.0  0.77351  0.29512  0.14876  1.0000
  H   H645      1.0  0.79808  0.33906  0.17823  1.0000
  H   H646      1.0  0.71513  0.18803  0.41197  1.0000
  C   C550      1.0  0.94849  0.49761  0.37722  1.0000
  H   H647      1.0  0.90141  0.39995  0.04639  1.0000
  C   C551      1.0  0.85503  0.45321  0.30206  1.0000
  C   C552      1.0  0.86894  0.47861  0.29060  1.0000
  C   C553      1.0  0.88447  0.49979  0.31324  1.0000
  C   C554      1.0  0.88580  0.49564  0.34720  1.0000
  H   H648      1.0  0.84311  0.43670  0.28486  1.0000
  S   S160      1.0  0.87035  0.49123  0.48836  1.0000
  C   C555      1.0  0.85643  0.44906  0.33592  1.0000
  N   N35       1.0  0.93387  0.44186  0.43465  1.0000
  C   C556      1.0  0.90507  0.43258  0.43666  1.0000
  C   C557      1.0  0.93734  0.42260  0.41343  1.0000
  C   C558      1.0  0.94422  0.44189  0.46873  1.0000
  C   C559      1.0  0.94740  0.46798  0.41998  1.0000
  H   H649      1.0  0.85789  0.46818  0.02498  1.0000
  H   H650      1.0  0.91051  0.44551  0.03912  1.0000
  C   C560      1.0  0.90528  0.47536  0.17233  1.0000
  Fe  Fe81      1.0  0.90995  0.50579  0.51457  1.0000
  C   C561      1.0  0.77074  0.33627  0.07269  1.0000
  H   H651      1.0  0.90149  0.44746  0.45027  1.0000
  H   H652      1.0  0.89451  0.42836  0.41206  1.0000
  H   H653      1.0  0.89482  0.41381  0.44951  1.0000
  H   H654      1.0  0.92846  0.42049  0.38802  1.0000
  H   H655      1.0  0.92769  0.40267  0.42373  1.0000
  H   H656      1.0  0.95869  0.42884  0.41107  1.0000
  H   H657      1.0  0.94294  0.45682  0.48550  1.0000
  H   H658      1.0  0.93267  0.42247  0.47997  1.0000
  H   H659      1.0  0.96501  0.44569  0.46916  1.0000
  C   C562      1.0  0.70581  0.30674  0.23018  1.0000
  H   H660      1.0  0.73509  0.18457  0.44410  1.0000
  H   H661      1.0  0.90213  0.41280  0.28885  1.0000
  H   H662      1.0  0.91856  0.43349  0.18869  1.0000
  H   H663      1.0  0.72080  0.27798  0.13293  1.0000
  H   H664      1.0  0.77889  0.42993  0.02209  1.0000
  H   H665      1.0  0.77735  0.18411  0.42877  1.0000
  C   C563      1.0  0.76409  0.44748  0.33358  1.0000
  C   C564      1.0  0.73415  0.29066  0.06713  1.0000
  H   H666      1.0  0.77878  0.49588  0.41516  1.0000
  H   H667      1.0  0.73637  0.14743  0.41743  1.0000
  H   H668      1.0  0.71927  0.15844  0.33478  1.0000
  H   H669      1.0  0.70382  0.35061  0.11162  1.0000
  H   H670      1.0  0.74737  0.34731  0.20692  1.0000
  C   C565      1.0  0.80466  0.47174  0.30564  1.0000
  C   C566      1.0  0.74640  0.21778  0.30121  1.0000
  C   C567      1.0  0.71752  0.43513  0.05256  1.0000
  C   C568      1.0  0.70241  0.39927  0.16199  1.0000
  C   C569      1.0  0.92270  0.46584  0.22190  1.0000
  S   S161      1.0  0.69274  0.21627  0.25085  1.0000
  H   H671      1.0  0.69762  0.39366  0.13595  1.0000
  H   H672      1.0  0.73867  0.37236  0.21898  1.0000
  N   N36       1.0  0.92869  0.48488  0.19561  1.0000
  H   H673      1.0  0.98146  0.48743  0.45580  1.0000
  N   N37       1.0  0.81488  0.49961  0.39520  1.0000
  N   N38       1.0  0.70757  0.33245  0.22339  1.0000
  C   C570      1.0  0.97160  0.48914  0.43377  1.0000
  C   C571      1.0  0.76099  0.43815  0.06353  1.0000
  C   C572      1.0  0.77605  0.46290  0.36270  1.0000
  H   H674      1.0  0.93931  0.50108  0.35564  1.0000
  Fe  Fe82      1.0  0.71343  0.13386  0.49620  1.0000
  H   H675      1.0  0.92258  0.49076  0.26394  1.0000
  H   H676      1.0  0.76914  0.43989  0.28259  1.0000
  H   H677      1.0  0.74176  0.14681  0.37426  1.0000
  H   H678      1.0  0.96893  0.49243  0.19412  1.0000
  H   H679      1.0  0.71575  0.30745  0.25445  1.0000
  H   H680      1.0  0.89952  0.45568  0.16031  1.0000
  C   C573      1.0  0.73602  0.35260  0.22453  1.0000
  H   H681      1.0  0.79700  0.46653  0.42662  1.0000
  H   H682      1.0  0.71226  0.14683  0.38842  1.0000
  H   H683      1.0  0.88784  0.47349  0.18554  1.0000
  C   C574      1.0  0.74136  0.28968  0.03403  1.0000
  S   S162      1.0  0.87272  0.46384  0.40091  1.0000
  H   H684      1.0  0.71367  0.46664  0.10239  1.0000
  C   C575      1.0  0.77838  0.45191  0.30510  1.0000
  C   C576      1.0  0.81678  0.48735  0.33457  1.0000
  H   H685      1.0  0.90677  0.40123  0.23099  1.0000
  H   H686      1.0  0.84545  0.42932  0.34454  1.0000
  H   H687      1.0  0.71930  0.41811  0.25563  1.0000
  H   H688      1.0  0.70647  0.34422  0.27439  1.0000
  H   H689      1.0  0.74634  0.22626  0.27774  1.0000
  H   H690      1.0  0.78256  0.35431  0.08774  1.0000
  H   H691      1.0  0.81583  0.47493  0.28350  1.0000
  H   H692      1.0  0.79472  0.21738  0.48809  1.0000
  H   H693      1.0  0.70659  0.47356  0.04118  1.0000
  H   H694      1.0  0.74580  0.35462  0.24938  1.0000
  C   C577      1.0  0.74976  0.31460  0.08631  1.0000
  C   C578      1.0  0.87164  0.47022  0.35865  1.0000
  C   C579      1.0  0.76101  0.23397  0.32856  1.0000
  H   H695      1.0  0.73819  0.25366  0.09966  1.0000
  H   H696      1.0  0.71526  0.30058  0.21073  1.0000
  C   C580      1.0  0.81673  0.48265  0.42059  1.0000
  H   H697      1.0  0.91028  0.45774  0.30451  1.0000
  C   C581      1.0  0.73925  0.44015  0.07453  1.0000
  S   S163      1.0  0.93014  0.50649  0.46812  1.0000
  H   H698      1.0  0.77258  0.23646  0.37943  1.0000
  H   H699      1.0  0.70412  0.22879  0.09564  1.0000
  C   C582      1.0  0.91803  0.43989  0.21390  1.0000
  H   H700      1.0  0.77716  0.44176  0.08095  1.0000
  N   N39       1.0  0.71198  0.26720  0.08069  1.0000
  H   H701      1.0  0.88176  0.44756  0.50992  1.0000
  H   H702      1.0  0.73994  0.44546  0.10049  1.0000
  N   N40       1.0  0.74805  0.18435  0.39460  1.0000
  C   C583      1.0  0.77599  0.19329  0.40551  1.0000
  C   C584      1.0  0.73582  0.19350  0.41990  1.0000
  C   C585      1.0  0.73396  0.15509  0.39340  1.0000
  C   C586      1.0  0.74696  0.19543  0.36247  1.0000
  C   C587      1.0  0.76123  0.22306  0.35883  1.0000
  C   C588      1.0  0.73165  0.17953  0.33427  1.0000
  H   H703      1.0  0.82636  0.49415  0.44425  1.0000
  C   C589      1.0  0.73158  0.19067  0.30415  1.0000
  H   H704      1.0  0.77214  0.25512  0.32624  1.0000
  C   C590      1.0  0.91108  0.42116  0.23794  1.0000
  H   H705      1.0  0.78628  0.18802  0.38628  1.0000
  H   H706      1.0  0.78746  0.21488  0.41105  1.0000
  H   H707      1.0  0.74678  0.21521  0.42459  1.0000
  C   C591      1.0  0.71965  0.24639  0.08388  1.0000
  H   H708      1.0  0.74642  0.31704  0.11200  1.0000
  C   C592      1.0  0.76188  0.43128  0.03050  1.0000
  N   N41       1.0  0.69387  0.43637  0.06348  1.0000
  H   H709      1.0  0.72824  0.35548  0.16304  1.0000
  C   C593      1.0  0.93684  0.47273  0.39047  1.0000
  H   H710      1.0  0.69905  0.28845  0.11336  1.0000
  H   H711      1.0  0.91901  0.45752  0.37783  1.0000
  C   C594      1.0  0.80270  0.48356  0.36402  1.0000
  H   H712      1.0  0.71962  0.17816  0.28299  1.0000
  Fe  Fe83      1.0  0.69753  0.21998  0.19611  1.0000
  C   C595      1.0  0.95150  0.48726  0.17702  1.0000
  H   H713      1.0  0.82861  0.47336  0.41203  1.0000
  C   C596      1.0  0.69644  0.44649  0.09837  1.0000
  H   H714      1.0  0.86967  0.40065  0.49930  1.0000
  H   H715      1.0  0.95762  0.50274  0.15856  1.0000
  H   H716      1.0  0.72306  0.23944  0.05950  1.0000
  H   H717      1.0  0.76428  0.45841  0.38427  1.0000
  H   H718      1.0  0.94689  0.46877  0.16269  1.0000
  H   H719      1.0  0.83726  0.50212  0.33318  1.0000
  C   C597      1.0  0.76225  0.31151  0.02064  1.0000
  C   C598      1.0  0.91220  0.43421  0.01836  1.0000
  C   C599      1.0  0.90690  0.40843  0.02245  1.0000
  H   H720      1.0  0.69861  0.43332  0.11609  1.0000
  H   H721      1.0  0.79316  0.35160  0.02948  1.0000
  H   H722      1.0  0.91830  0.51187  0.22049  1.0000
  C   C600      1.0  0.93539  0.51177  0.20847  1.0000
  H   H723      1.0  0.69000  0.24800  0.03436  1.0000
  C   C601      1.0  0.69365  0.33002  0.19115  1.0000
  H   H724      1.0  0.69339  0.35763  0.24435  1.0000
  C   C602      1.0  0.69316  0.34001  0.13264  1.0000
  S   S164      1.0  0.68896  0.11207  0.44948  1.0000
  C   C603      1.0  0.69504  0.33986  0.25031  1.0000
  C   C604      1.0  0.68815  0.40011  0.21759  1.0000
  H   H725      1.0  0.89782  0.51207  0.36445  1.0000
  C   C605      1.0  0.79602  0.21249  0.51339  1.0000
  C   C606      1.0  0.71894  0.42787  0.01914  1.0000
  C   C607      1.0  0.68863  0.45396  0.04235  1.0000
  C   C608      1.0  0.68799  0.25693  0.05811  1.0000
  H   H726      1.0  0.68738  0.25472  0.12287  1.0000
  C   C609      1.0  0.79848  0.51107  0.40760  1.0000
  C   C610      1.0  0.91843  0.44505  0.98738  1.0000
  Fe  Fe84      1.0  0.89064  0.34715  0.57261  1.0000
  S   S165      1.0  0.90670  0.31867  0.57318  1.0000
  H   H727      1.0  0.74172  0.42100  0.98258  1.0000
  Fe  Fe85      1.0  0.87281  0.33789  0.64301  1.0000
  S   S166      1.0  0.88786  0.30933  0.64954  1.0000
  S   S167      1.0  0.84717  0.34520  0.67851  1.0000
  Fe  Fe86      1.0  0.92393  0.33808  0.62351  1.0000
  S   S168      1.0  0.96467  0.34888  0.64648  1.0000
  Fe  Fe87      1.0  0.86934  0.29214  0.59872  1.0000
  S   S169      1.0  0.84506  0.24712  0.59611  1.0000
  S   S170      1.0  0.91002  0.36816  0.62130  1.0000
  S   S171      1.0  0.85213  0.31919  0.59391  1.0000
  S   S172      1.0  0.71976  0.44030  0.93101  1.0000
  Fe  Fe88      1.0  0.85076  0.38680  0.85954  1.0000
  S   S173      1.0  0.84972  0.37853  0.91379  1.0000
  S   S174      1.0  0.88353  0.39021  0.82717  1.0000
  Fe  Fe89      1.0  0.80007  0.38983  0.85976  1.0000
  S   S175      1.0  0.79416  0.38195  0.91357  1.0000
  S   S176      1.0  0.77064  0.39584  0.82906  1.0000
  Fe  Fe90      1.0  0.83757  0.40965  0.92080  1.0000
  S   S177      1.0  0.85248  0.44103  0.96237  1.0000
  Fe  Fe91      1.0  0.80641  0.35155  0.90281  1.0000
  S   S178      1.0  0.78301  0.31286  0.92588  1.0000
  S   S179      1.0  0.84259  0.42061  0.86751  1.0000
  S   S180      1.0  0.80845  0.35665  0.84802  1.0000
  C   C611      1.0  0.73348  0.42838  0.90157  1.0000
  C   C612      1.0  0.75937  0.43310  0.90745  1.0000
  C   C613      1.0  0.77083  0.42343  0.88480  1.0000
  C   C614      1.0  0.75645  0.40899  0.85615  1.0000
  C   C615      1.0  0.73066  0.40464  0.84981  1.0000
  C   C616      1.0  0.71912  0.41427  0.87264  1.0000
  H   H728      1.0  0.77065  0.44422  0.92963  1.0000
  H   H729      1.0  0.79096  0.42736  0.88950  1.0000
  H   H730      1.0  0.71937  0.39321  0.82780  1.0000
  C   C617      1.0  0.71474  0.47671  0.85161  1.0000
  C   C618      1.0  0.75071  0.29846  0.90846  1.0000
  C   C619      1.0  0.73079  0.27482  0.91975  1.0000
  C   C620      1.0  0.90171  0.22709  0.59156  1.0000
  H   H731      1.0  0.71642  0.20909  0.55290  1.0000
  C   C621      1.0  0.72019  0.29756  0.86555  1.0000
  C   C622      1.0  0.74512  0.31007  0.88192  1.0000
  H   H732      1.0  0.73499  0.26577  0.94036  1.0000
  H   H733      1.0  0.91417  0.39113  0.94467  1.0000
  H   H734      1.0  0.71643  0.30627  0.84425  1.0000
  H   H735      1.0  0.76001  0.32859  0.87360  1.0000
  C   C623      1.0  0.99578  0.36469  0.62776  1.0000
  C   C624      1.0  0.94066  0.22576  0.61271  1.0000
  H   H736      1.0  0.75550  0.43223  0.79155  1.0000
  H   H737      1.0  0.96019  0.23428  0.62456  1.0000
  H   H738      1.0  0.98019  0.35506  0.57732  1.0000
  C   C625      1.0  0.85832  0.35844  0.71933  1.0000
  C   C626      1.0  0.88421  0.36666  0.73137  1.0000
  C   C627      1.0  0.89199  0.37678  0.76435  1.0000
  C   C628      1.0  0.87394  0.37868  0.78538  1.0000
  C   C629      1.0  0.84825  0.37081  0.77299  1.0000
  C   C630      1.0  0.84045  0.36053  0.74027  1.0000
  H   H739      1.0  0.89816  0.36504  0.71544  1.0000
  H   H740      1.0  0.91193  0.38283  0.77369  1.0000
  H   H741      1.0  0.83432  0.37266  0.78851  1.0000
  H   H742      1.0  0.82036  0.35401  0.73123  1.0000
  S   S181      1.0  0.88920  0.36847  0.52774  1.0000
  C   C631      1.0  0.78722  0.27322  0.63089  1.0000
  C   C632      1.0  0.80117  0.19964  0.57791  1.0000
  C   C633      1.0  0.81865  0.22511  0.56804  1.0000
  C   C634      1.0  0.81555  0.23163  0.53581  1.0000
  C   C635      1.0  0.73829  0.45014  0.76079  1.0000
  H   H743      1.0  0.80348  0.19426  0.60265  1.0000
  C   C636      1.0  0.85039  0.43069  0.00330  1.0000
  C   C637      1.0  0.76331  0.23450  0.59398  1.0000
  C   C638      1.0  0.91086  0.45443  0.54881  1.0000
  C   C639      1.0  0.92346  0.44329  0.56723  1.0000
  C   C640      1.0  0.91693  0.41689  0.56086  1.0000
  C   C641      1.0  0.70348  0.20317  0.57440  1.0000
  H   H744      1.0  0.72586  0.23562  0.65751  1.0000
  H   H745      1.0  0.90181  0.26789  0.62785  1.0000
  H   H746      1.0  0.93848  0.45517  0.58621  1.0000
  H   H747      1.0  0.92730  0.40866  0.57444  1.0000
  H   H748      1.0  0.75015  0.46362  0.84331  1.0000
  N   N42       1.0  0.87148  0.42055  0.64795  1.0000
  H   H749      1.0  0.76874  0.16095  0.56343  1.0000
  Fe  Fe92      1.0  0.69134  0.50679  0.65965  1.0000
  C   C642      1.0  0.74080  0.22474  0.61362  1.0000
  C   C643      1.0  0.75057  0.47905  0.66308  1.0000
  H   H750      1.0  0.90861  0.43336  0.67601  1.0000
  H   H751      1.0  0.73689  0.17741  0.61551  1.0000
  C   C644      1.0  0.01909  0.37665  0.64819  1.0000
  C   C645      1.0  0.85766  0.40180  0.61913  1.0000
  N   N43       1.0  0.93898  0.26881  0.61816  1.0000
  H   H752      1.0  0.90316  0.37313  0.99877  1.0000
  C   C646      1.0  0.78126  0.18074  0.55577  1.0000
  C   C647      1.0  0.92097  0.27249  0.64055  1.0000
  H   H753      1.0  0.71926  0.44048  0.77203  1.0000
  C   C648      1.0  0.78620  0.25822  0.60279  1.0000
  H   H754      1.0  0.76597  0.27679  0.67156  1.0000
  H   H755      1.0  0.71907  0.37139  0.90514  1.0000
  H   H756      1.0  0.93931  0.18805  0.60663  1.0000
  H   H757      1.0  0.76350  0.22393  0.57160  1.0000
  C   C649      1.0  0.76520  0.26471  0.65011  1.0000
  H   H758      1.0  0.98031  0.27912  0.62013  1.0000
  C   C650      1.0  0.89174  0.43914  0.52399  1.0000
  H   H759      1.0  0.73422  0.18176  0.57202  1.0000
  H   H760      1.0  0.88716  0.43516  0.91628  1.0000
  C   C651      1.0  0.74089  0.42615  0.00835  1.0000
  H   H761      1.0  0.75323  0.49027  0.64036  1.0000
  C   C652      1.0  0.99790  0.36421  0.59340  1.0000
  H   H762      1.0  0.71391  0.33881  0.89686  1.0000
  H   H763      1.0  0.70312  0.42361  0.00100  1.0000
  C   C653      1.0  0.90780  0.45160  0.91659  1.0000
  C   C654      1.0  0.84619  0.40547  0.00984  1.0000
  S   S182      1.0  0.68624  0.48033  0.70205  1.0000
  C   C655      1.0  0.92886  0.19906  0.60248  1.0000
  H   H764      1.0  0.71662  0.35087  0.93857  1.0000
  C   C656      1.0  0.91411  0.40403  0.96442  1.0000
  C   C657      1.0  0.78297  0.45768  0.75718  1.0000
  C   C658      1.0  0.92639  0.42430  0.90003  1.0000
  H   H765      1.0  0.96011  0.47475  0.90579  1.0000
  H   H766      1.0  0.96409  0.26946  0.65906  1.0000
  H   H767      1.0  0.95118  0.30586  0.59555  1.0000
  H   H768      1.0  0.89034  0.23703  0.58665  1.0000
  H   H769      1.0  0.84295  0.39148  0.98958  1.0000
  C   C659      1.0  0.96526  0.27989  0.63604  1.0000
  H   H770      1.0  0.95571  0.28208  0.57109  1.0000
  C   C660      1.0  0.89751  0.40145  0.53638  1.0000
  N   N44       1.0  0.92673  0.44251  0.92697  1.0000
  H   H771      1.0  0.70611  0.15877  0.59182  1.0000
  C   C661      1.0  0.90364  0.18642  0.58699  1.0000
  H   H772      1.0  0.91135  0.45938  0.89137  1.0000
  H   H773      1.0  0.82895  0.25104  0.52770  1.0000
  H   H774      1.0  0.93112  0.43373  0.87576  1.0000
  H   H775      1.0  0.87042  0.19062  0.56955  1.0000
  H   H776      1.0  0.85919  0.43804  0.75778  1.0000
  C   C662      1.0  0.76657  0.47928  0.71898  1.0000
  H   H777      1.0  0.92331  0.27845  0.57483  1.0000
  C   C663      1.0  0.89010  0.20043  0.58154  1.0000
  C   C664      1.0  0.77883  0.18687  0.52313  1.0000
  C   C665      1.0  0.79184  0.48553  0.84561  1.0000
  C   C666      1.0  0.82329  0.40887  0.73239  1.0000
  C   C667      1.0  0.72391  0.17861  0.59560  1.0000
  H   H778      1.0  0.86335  0.45048  0.62979  1.0000
  H   H779      1.0  0.88907  0.39845  0.66802  1.0000
  H   H780      1.0  0.92174  0.46492  0.98542  1.0000
  C   C668      1.0  0.70844  0.35088  0.91336  1.0000
  H   H781      1.0  0.96844  0.45963  0.93887  1.0000
  C   C669      1.0  0.75863  0.44548  0.77180  1.0000
  H   H782      1.0  0.94115  0.41761  0.90521  1.0000
  H   H783      1.0  0.95506  0.48121  0.94765  1.0000
  H   H784      1.0  0.89271  0.46296  0.65638  1.0000
  C   C670      1.0  0.88046  0.44757  0.63691  1.0000
  C   C671      1.0  0.95374  0.46552  0.92995  1.0000
  H   H785      1.0  0.72558  0.46926  0.72665  1.0000
  H   H786      1.0  0.89280  0.45172  0.61493  1.0000
  S   S183      1.0  0.91869  0.48721  0.55784  1.0000
  H   H787      1.0  0.88633  0.44541  0.70995  1.0000
  H   H788      1.0  0.72962  0.47158  0.66962  1.0000
  H   H789      1.0  0.81146  0.40563  0.75390  1.0000
  C   C672      1.0  0.69742  0.18966  0.63042  1.0000
  H   H790      1.0  0.92982  0.29321  0.65070  1.0000
  H   H791      1.0  0.85589  0.32153  0.77958  1.0000
  H   H792      1.0  0.73739  0.49900  0.91114  1.0000
  S   S184      1.0  0.70455  0.49117  0.61701  1.0000
  N   N45       1.0  0.77642  0.26474  0.82850  1.0000
  C   C673      1.0  0.76654  0.23601  0.83058  1.0000
  C   C674      1.0  0.78992  0.27751  0.86094  1.0000
  C   C675      1.0  0.75346  0.26931  0.82382  1.0000
  C   C676      1.0  0.79377  0.27485  0.80021  1.0000
  C   C677      1.0  0.78435  0.26338  0.76777  1.0000
  C   C678      1.0  0.82005  0.29633  0.80367  1.0000
  C   C679      1.0  0.80041  0.27242  0.74068  1.0000
  C   C680      1.0  0.83592  0.30510  0.77641  1.0000
  C   C681      1.0  0.82616  0.29322  0.74502  1.0000
  H   H793      1.0  0.75335  0.22433  0.80897  1.0000
  H   H794      1.0  0.78329  0.23163  0.83223  1.0000
  H   H795      1.0  0.75461  0.22818  0.85277  1.0000
  H   H796      1.0  0.77661  0.26909  0.88184  1.0000
  H   H797      1.0  0.79622  0.29894  0.86228  1.0000
  H   H798      1.0  0.80752  0.27495  0.86619  1.0000
  H   H799      1.0  0.76005  0.29071  0.82209  1.0000
  H   H800      1.0  0.74114  0.25897  0.80104  1.0000
  H   H801      1.0  0.74005  0.26220  0.84485  1.0000
  H   H802      1.0  0.76442  0.24740  0.76309  1.0000
  H   H803      1.0  0.82886  0.30689  0.82706  1.0000
  H   H804      1.0  0.79294  0.26335  0.71613  1.0000
  H   H805      1.0  0.01769  0.37691  0.67478  1.0000
  H   H806      1.0  0.71535  0.46264  0.86913  1.0000
  C   C682      1.0  0.70534  0.26284  0.90428  1.0000
  H   H807      1.0  0.81708  0.38504  0.65362  1.0000
  C   C683      1.0  0.85467  0.41602  0.67670  1.0000
  H   H808      1.0  0.69779  0.21869  0.57939  1.0000
  H   H809      1.0  0.90860  0.46745  0.93353  1.0000
  C   C684      1.0  0.90778  0.39336  0.99554  1.0000
  C   C685      1.0  0.94240  0.28443  0.58863  1.0000
  H   H810      1.0  0.84074  0.40386  0.60890  1.0000
  H   H811      1.0  0.87098  0.40526  0.59827  1.0000
  H   H812      1.0  0.79095  0.37974  0.70145  1.0000
  H   H813      1.0  0.71439  0.46941  0.82576  1.0000
  H   H814      1.0  0.80331  0.26496  0.58771  1.0000
  C   C686      1.0  0.70019  0.27412  0.87692  1.0000
  C   C687      1.0  0.89507  0.41791  0.65743  1.0000
  C   C688      1.0  0.78704  0.47436  0.73115  1.0000
  C   C689      1.0  0.82714  0.39757  0.67537  1.0000
  H   H815      1.0  0.80505  0.29160  0.63767  1.0000
  C   C690      1.0  0.81179  0.39427  0.70282  1.0000
  H   H816      1.0  0.76734  0.31031  0.99523  1.0000
  H   H817      1.0  0.85045  0.38103  0.62583  1.0000
  H   H818      1.0  0.90645  0.40670  0.89601  1.0000
  C   C691      1.0  0.86563  0.43089  0.70708  1.0000
  C   C692      1.0  0.92731  0.24058  0.60763  1.0000
  N   N46       1.0  0.76958  0.49567  0.69037  1.0000
  H   H819      1.0  0.90719  0.41952  0.63579  1.0000
  H   H820      1.0  0.91641  0.25963  0.66193  1.0000
  H   H821      1.0  0.69909  0.41046  0.86803  1.0000
  C   C693      1.0  0.85018  0.42711  0.73453  1.0000
  C   C694      1.0  0.74223  0.24089  0.64171  1.0000
  N   N47       1.0  0.71679  0.19947  0.60394  1.0000
  H   H822      1.0  0.97317  0.30112  0.64376  1.0000
  C   C695      1.0  0.74213  0.46673  0.73479  1.0000
  H   H823      1.0  0.83852  0.30040  0.72395  1.0000
  H   H824      1.0  0.79865  0.45385  0.76591  1.0000
  H   H825      1.0  0.89454  0.16573  0.57919  1.0000
  C   C696      1.0  0.91967  0.43034  0.95941  1.0000
  H   H826      1.0  0.75311  0.46172  0.65626  1.0000
  H   H827      1.0  0.00265  0.51136  0.58148  1.0000
  H   H828      1.0  0.79382  0.46811  0.84049  1.0000
  H   H829      1.0  0.69541  0.47609  0.85476  1.0000
  C   C697      1.0  0.76667  0.48321  0.84745  1.0000
  H   H830      1.0  0.68989  0.24459  0.91306  1.0000
  H   H831      1.0  0.80628  0.48290  0.72074  1.0000
  H   H832      1.0  0.70671  0.18772  0.65384  1.0000
  N   N48       1.0  0.73709  0.50369  0.85861  1.0000
  H   H833      1.0  0.80151  0.49289  0.66729  1.0000
  C   C698      1.0  0.79652  0.50796  0.67721  1.0000
  H   H834      1.0  0.68837  0.20250  0.63510  1.0000
  C   C699      1.0  0.76338  0.50552  0.85509  1.0000
  C   C700      1.0  0.88496  0.41264  0.51796  1.0000
  S   S185      1.0  0.68738  0.10059  0.52848  1.0000
  C   C701      1.0  0.81438  0.50998  0.85104  1.0000
  H   H835      1.0  0.74310  0.50993  0.70674  1.0000
  H   H836      1.0  0.83384  0.51159  0.85000  1.0000
  H   H837      1.0  0.71526  0.51051  0.89660  1.0000
  C   C702      1.0  0.73495  0.51186  0.89300  1.0000
  H   H838      1.0  0.79534  0.52277  0.38847  1.0000
  C   C703      1.0  0.01142  0.59372  0.46501  1.0000
  S   S186      1.0  0.90175  0.53827  0.43698  1.0000
  C   C704      1.0  0.97141  0.51824  0.39227  1.0000
  Fe  Fe93      1.0  0.93947  0.54867  0.46679  1.0000
  S   S187      1.0  0.97959  0.57455  0.44489  1.0000
  H   H839      1.0  0.95261  0.51997  0.22665  1.0000
  S   S188      1.0  0.84806  0.54351  0.48680  1.0000
  H   H840      1.0  0.99773  0.59314  0.51404  1.0000
  H   H841      1.0  0.00095  0.53023  0.43166  1.0000
  C   C705      1.0  0.84194  0.52184  0.39153  1.0000
  Fe  Fe94      1.0  0.88222  0.53406  0.48585  1.0000
  H   H842      1.0  0.84209  0.53524  0.37239  1.0000
  H   H843      1.0  0.79811  0.54306  0.48942  1.0000
  H   H844      1.0  0.99321  0.54146  0.48999  1.0000
  H   H845      1.0  0.89536  0.51950  0.30454  1.0000
  H   H846      1.0  0.97989  0.53780  0.38276  1.0000
  H   H847      1.0  0.80802  0.52442  0.43009  1.0000
  C   C706      1.0  0.00595  0.53893  0.50803  1.0000
  H   H848      1.0  0.94049  0.52581  0.18831  1.0000
  H   H849      1.0  0.85012  0.53414  0.41502  1.0000
  H   H850      1.0  0.85606  0.51467  0.38512  1.0000
  C   C707      1.0  0.80394  0.54137  0.51444  1.0000
  C   C708      1.0  0.01485  0.59994  0.49909  1.0000
  C   C709      1.0  0.98320  0.51390  0.42008  1.0000
  S   S189      1.0  0.72272  0.54871  0.65359  1.0000
  C   C710      1.0  0.82773  0.54071  0.52050  1.0000
  Fe  Fe95      1.0  0.73451  0.53290  0.60908  1.0000
  S   S190      1.0  0.77701  0.53971  0.60761  1.0000
  H   H851      1.0  0.76972  0.54114  0.53552  1.0000
  S   S191      1.0  0.70680  0.53831  0.57408  1.0000
  H   H852      1.0  0.75001  0.53255  0.89987  1.0000
  C   C711      1.0  0.79548  0.53909  0.57328  1.0000
  H   H853      1.0  0.76674  0.53035  0.67893  1.0000
  C   C712      1.0  0.83508  0.53879  0.55309  1.0000
  C   C713      1.0  0.99498  0.52461  0.53571  1.0000
  H   H854      1.0  0.82949  0.55127  0.86268  1.0000
  C   C714      1.0  0.78777  0.54029  0.54059  1.0000
  H   H855      1.0  0.74796  0.54231  0.84081  1.0000
  C   C715      1.0  0.81919  0.53826  0.57929  1.0000
  H   H856      1.0  0.81185  0.52111  0.69631  1.0000
  S   S192      1.0  0.92113  0.54877  0.51545  1.0000
  H   H857      1.0  0.82557  0.53761  0.60442  1.0000
  C   C716      1.0  0.78680  0.53016  0.86028  1.0000
  H   H858      1.0  0.78587  0.54793  0.86649  1.0000
  C   C717      1.0  0.73351  0.52119  0.83548  1.0000
  H   H859      1.0  0.85341  0.53851  0.55821  1.0000
  H   H860      1.0  0.97386  0.51586  0.53887  1.0000
  C   C718      1.0  0.81188  0.53228  0.85822  1.0000
  C   C719      1.0  0.76390  0.51729  0.69985  1.0000
  H   H861      1.0  0.77708  0.52977  0.72110  1.0000
  H   H862      1.0  0.79817  0.52052  0.65616  1.0000
  C   C720      1.0  0.01128  0.52219  0.55971  1.0000
  Fe  Fe96      1.0  0.69207  0.55051  0.61903  1.0000
  H   H863      1.0  0.71351  0.51956  0.83707  1.0000
  H   H864      1.0  0.73539  0.51594  0.80935  1.0000
