data_image0
_chemical_formula_structural       FeS2FeS2FeSFeS3FeS2FeS2FeSFeS3FeS2HCHSC2FeS2H6CHCHCH3C2H2SHC6H4C5H3SC5H5FeHCHC6H4C3H2NC9H15CH2NHNC9H13SH3C2HCHC2HNC2HNC2HC3SH2C3FeHSCH3FeC2H3CH2C2HFeHC3H2C2H2C2H2NH3CHCH2SHCH2CHCHC2SHCHCHCHFeS2FeS2FeHFeS3FeS2FeS2FeSFeS3CS2H2SH2C2HC2H3C3HCH4C6H5C2H4C3HCHNH6C2HC6H8CHCHCHCSCH2CHCNC9H13CNHC2HCHCH2CHCH6C3HC2H3C2HCH2SH2CH6C2HNC7H2C3HC2H2C3H4C5H2C4H2CH2FeCFeSCFeS2FeSFeS3HSCHSCFeS2FeS2FeSFeHS2FeS2FeS2FeSFeS3HCHC3H6C2HC3HC6H5C2HC2HC2H3CS2CSHCH2C6H5NC2HC2FeCHNHCHNC3H14CH7CHCHSCHC2HCHCH4CH2NC2H2FeH3C2HCFeCH9NC9H14NC9H6C3H6CHC2HCFeS2FeSHFeSFeS3FeCSFeS2FeS2FeS2FeSFeS3CHC3H4C3H2CHC4H2C6H4CHC3HC6H6CH3CNHC3H4CHC5H5CH4SH3CH2NCHC5HCHC3H2CH2CHNHCNC9H14CH2C2H5C5HCH3C5H3C2HC3HNH2CH5CHCHCSCH4CHCHC3H2C2NH2C2HC2FeS2FeS2FeSFeS3FeS2FeS2FeSFeCS2FeS2HCH2C2FeS2HCH2CH2CH4FeC2HCHCH4C6H4C2FeHFeH2CH2C5HCHC6H5CHNHC3H2CH4CH3SH2NCHC2SHC5HCSCHNH2CNC2H2C2H2CH2NC5HCHCH11FeNC6HCSH3CSCH2C2SHCH5SH3CHSCHC2H3C4HCH3C2HCH2CHCH2FeS2FeS2FeSFeS3FeS2FeS2FeSFeS3HSH2SCH3NC3H2C6H7C4HC2H2NH2CHC7H6C5HC3H4C5H4C2HC3HC3H3SCH2CH2CH2FeH2CH2NHFeH2NC7HCH11CH2CHCH3CH3C2HC2H2CHCHCH2NC8H10CH3CNCHCH2CH3C2H2SHC3HCHCH3CHCHCNHFeS2FeS2FeSFeS3FeS2H2CFeCH2FeS2H2C2SHFeS2FeS2FeHFeS3CH4C2HCHFeC6H4C2H4CH2CHCS2H2C4H2C5H4CHC7H4CNC9H13C2H2C6H2CH2SFeHC2H2C3H2C2HCHCHSHCNHCSH2C3SNH4FeH9CH5C2H3C2HSHSC5H3CN2HC3H3CH3C2H3C2HCHCHNCHCHCH2C3HCH2NC2H2FeS2FeS2FeSFeS3HNSCSFeS2FeS2FeSFeCS2CHCHC3H2C3H2C6H4CH2C4HCH3C6H4CHCHC2H3NC8H15NC4H14C2HCHFeHCH3C2H4CHCH9NCHC2SCH2C2H2SHCHC4H2CNHC3HCHC3H2CHCH4C2H2NCSCH2SCH4NH2CHC2HC2HC3FeH4C2HC2HFeS2FeS2FeSFeS3FeS2FeS2FeSFeS3HSCNSHFeS2FeS2HC2FeHCSH2CHCHCHCHFeC2HCH2CHCH2CH3C3HCH3C6H4C6H4C2H2C2H2C2H2C2HCHCSCHCNCHCH3C3H2C2H2CHNH2SCH2C5NC4NC3H15CH3CH5CH4CH2CHC3H3C2HCHCH2C2HCHCHFeCH7CH2CH2C3FeS2FeSCFeSFeS3FeS2FeS2FeSFeS3HSHSH2C3HNCNCHCH5C3H2C6H4C3H5C6H4C3HCH5C2H2CHCHC2H2CHCH5FeCH2NH2CH2NC6HCNH13CHC2H2SCHCHCHCHCHC2HCHN2H2CH2CSHC2H3CHSHCHC2H4C2HC2HCSHC3FeH5CH4CH6C2HCH4NCFeSHFeS2FeSFeS3HFeS2CHFeHCSHCHFeS2FeS2FeS2FeS2FeSFeS3HC4H2C2H3CHC6H4CH2C3H2C3HNCHCH2C6H4C2H5NC2SC2H4C2HCHCH3C2H3C2H2C2H5C2HCHCH2C2H3CNCH6CH6CH2NC2H2C2H3CHCH3CH3CH4CH2SNHCH2CHNC10H2CFeSHCH2CHCHFeS2HC2H3CHCH2CFeS2FeS2FeSFeS3HS2HSFeS2FeS2FeSFeS3H2C5H2C5HCHC8H7C3HC2HC6H4C5FeHC2H2CH5CNC9H15CH5C2HC2H2C2NCH6NHCH2CH2C3HCSC3HSNHC6H4CH5CH3NHCH4CH2C2H2C2HCH3NCH2CH2CHSH3C2SH2CHC2HCH3CFeCHC2H2CHC2H2FeC4HC2HCH2CH3FeS2FeS2FeSFeS3FeS2FeS2FeHFeS3FeS2CSHCHCFeS2H2C5H2NH3CHC2H2C2H2C6H4C3NC4H2CH2CHCH2C2HC6H4C3HSFeH5C4H9C2H2CHCH2CHCH3CHNC2HCHC2NC8H12CH2NHC2HC2H2SH10CHCHSC4H6CHC3HCH2CHCH2C2H2CHCHNCHFeS2FeS2FeSFeS3FeS2FeS2FeSFeS3FeS2CS2CHC2H2C2H3CHCHC7H4CH2CHC2HSCSHC6H2C6H4C5H4CFeHC2HC4HNH2CH6C2HCHSHC3FeNC9H15FeSH6CH2CH2CH4CHFeH2CH2CHNC9H9C5H5CH2C2HCHCSCHNHC3H3SC2SCFeHC3HCH2CHC3HCSHNHFeS2FeS2FeSFeS3FeS2H4CHFeS2CH5FeS2FeS2FeCFeHS2CHC3HC2HC6H5C3H3C6NCHNC3SCH2NC6H4C4H2CHCHC2H2CHC2H5CHCSH3CNC9H14C2HCHCHC6HCHCHCHCH4CH5CH2CHCH2C2HNC2H2C3H9C2H4CH3CH2CFeS2FeS2FeSFeS3FeHSHCSFeS2FeS2FeCFeS3HNHNHCH2C4SH2C6H4S2C2SC2H3C6H5C3H4C4HNHFeHNHFeC2HC4H4CHCSH2CH3SCHCHFeHC3HCHCH3C5H4NC4H2C2H10C2NH7CHCHCH2C2HSC4H3CFeCHCH2C2H3CH2C2H5C4H2SH3CH2
_chemical_formula_sum              "Fe192 S384 H1728 C1440 N96"
_cell_length_a       58.0204
_cell_length_b       57.9012
_cell_length_c       72.2266
_cell_angle_alpha    86.2529
_cell_angle_beta     86.75
_cell_angle_gamma    86.009

_space_group_name_H-M_alt    "P 1"
_space_group_IT_number       1

loop_
  _space_group_symop_operation_xyz
  'x, y, z'

loop_
  _atom_site_type_symbol
  _atom_site_label
  _atom_site_symmetry_multiplicity
  _atom_site_fract_x
  _atom_site_fract_y
  _atom_site_fract_z
  _atom_site_occupancy
  Fe  Fe1       1.0  0.40511  0.10413  0.17339  1.0000
  S   S1        1.0  0.41699  0.06799  0.16575  1.0000
  S   S2        1.0  0.39795  0.13577  0.15319  1.0000
  Fe  Fe2       1.0  0.41766  0.09353  0.21479  1.0000
  S   S3        1.0  0.43080  0.05705  0.20974  1.0000
  S   S4        1.0  0.42449  0.10915  0.24193  1.0000
  Fe  Fe3       1.0  0.44705  0.07185  0.18324  1.0000
  S   S5        1.0  0.48325  0.06060  0.17342  1.0000
  Fe  Fe4       1.0  0.39951  0.05621  0.19304  1.0000
  S   S6        1.0  0.38025  0.02360  0.19827  1.0000
  S   S7        1.0  0.43652  0.10855  0.18924  1.0000
  S   S8        1.0  0.38485  0.09218  0.19971  1.0000
  Fe  Fe5       1.0  0.13328  0.38478  0.17925  1.0000
  S   S9        1.0  0.09818  0.38308  0.16809  1.0000
  S   S10       1.0  0.16646  0.38130  0.16062  1.0000
  Fe  Fe6       1.0  0.11294  0.39186  0.21975  1.0000
  S   S11       1.0  0.07666  0.38979  0.21091  1.0000
  S   S12       1.0  0.11156  0.40504  0.24894  1.0000
  Fe  Fe7       1.0  0.09104  0.36071  0.19405  1.0000
  S   S13       1.0  0.07508  0.32688  0.19212  1.0000
  Fe  Fe8       1.0  0.08743  0.41240  0.18614  1.0000
  S   S14       1.0  0.06490  0.44422  0.17834  1.0000
  S   S15       1.0  0.12678  0.36050  0.20462  1.0000
  S   S16       1.0  0.12305  0.41615  0.19552  1.0000
  Fe  Fe9       1.0  0.20666  0.36945  0.05259  1.0000
  S   S17       1.0  0.24390  0.36764  0.05971  1.0000
  S   S18       1.0  0.17513  0.36769  0.07311  1.0000
  H   H1        1.0  0.35701  0.30629  0.03138  1.0000
  C   C1        1.0  0.46813  0.13050  0.11320  1.0000
  H   H2        1.0  0.32605  0.24191  0.02655  1.0000
  S   S19       1.0  0.26020  0.43199  0.04981  1.0000
  C   C2        1.0  0.17864  0.45980  0.13308  1.0000
  C   C3        1.0  0.49188  0.22420  0.08471  1.0000
  Fe  Fe10      1.0  0.39818  0.17420  0.04564  1.0000
  S   S20       1.0  0.41093  0.20832  0.05201  1.0000
  S   S21       1.0  0.38445  0.14578  0.06579  1.0000
  H   H3        1.0  0.46497  0.13517  0.16006  1.0000
  H   H4        1.0  0.22189  0.41727  0.07540  1.0000
  H   H5        1.0  0.14756  0.36872  0.25904  1.0000
  H   H6        1.0  0.49671  0.10569  0.15043  1.0000
  H   H7        1.0  0.20853  0.44837  0.05456  1.0000
  H   H8        1.0  0.11714  0.46211  0.21045  1.0000
  C   C4        1.0  0.50404  0.21408  0.09958  1.0000
  H   H9        1.0  0.43619  0.12559  0.07512  1.0000
  C   C5        1.0  0.09484  0.50498  0.18005  1.0000
  H   H10       1.0  0.41969  0.01729  0.17192  1.0000
  C   C6        1.0  0.46375  0.14102  0.14512  1.0000
  H   H11       1.0  0.47354  0.22201  0.08401  1.0000
  H   H12       1.0  0.16690  0.45219  0.22559  1.0000
  H   H13       1.0  0.04336  0.43867  0.14564  1.0000
  C   C7        1.0  0.25539  0.45995  0.03850  1.0000
  C   C8        1.0  0.26003  0.47965  0.04773  1.0000
  H   H14       1.0  0.44552  0.14776  0.14318  1.0000
  H   H15       1.0  0.26650  0.47751  0.06153  1.0000
  S   S22       1.0  0.42976  0.16466  0.02807  1.0000
  H   H16       1.0  0.18941  0.47178  0.06223  1.0000
  C   C9        1.0  0.16852  0.37838  0.13614  1.0000
  C   C10       1.0  0.14892  0.37852  0.12568  1.0000
  C   C11       1.0  0.15131  0.37533  0.10645  1.0000
  C   C12       1.0  0.17329  0.37229  0.09731  1.0000
  C   C13       1.0  0.19292  0.37264  0.10767  1.0000
  C   C14       1.0  0.19052  0.37558  0.12696  1.0000
  H   H17       1.0  0.13188  0.38102  0.13239  1.0000
  H   H18       1.0  0.13601  0.37518  0.09858  1.0000
  H   H19       1.0  0.20994  0.37017  0.10089  1.0000
  H   H20       1.0  0.20582  0.37547  0.13487  1.0000
  C   C15       1.0  0.12292  0.47730  0.16635  1.0000
  C   C16       1.0  0.10615  0.46107  0.16672  1.0000
  C   C17       1.0  0.08394  0.46639  0.17438  1.0000
  C   C18       1.0  0.07804  0.48853  0.18064  1.0000
  C   C19       1.0  0.48026  0.15644  0.08663  1.0000
  H   H21       1.0  0.03417  0.37571  0.15975  1.0000
  H   H22       1.0  0.11068  0.44412  0.16159  1.0000
  H   H23       1.0  0.01979  0.42607  0.17238  1.0000
  S   S23       1.0  0.37838  0.18842  0.02088  1.0000
  C   C20       1.0  0.19133  0.45861  0.10006  1.0000
  C   C21       1.0  0.03613  0.30848  0.18215  1.0000
  C   C22       1.0  0.04520  0.32793  0.18873  1.0000
  C   C23       1.0  0.03041  0.34747  0.19249  1.0000
  C   C24       1.0  0.31963  0.30859  0.03170  1.0000
  H   H24       1.0  0.04737  0.29325  0.17939  1.0000
  H   H25       1.0  0.03724  0.36243  0.19787  1.0000
  H   H26       1.0  0.40700  0.00854  0.24256  1.0000
  H   H27       1.0  0.49904  0.10149  0.24877  1.0000
  H   H28       1.0  0.37976  0.09448  0.03867  1.0000
  Fe  Fe11      1.0  0.39286  0.22252  0.02625  1.0000
  H   H29       1.0  0.50091  0.09985  0.12635  1.0000
  C   C25       1.0  0.06765  0.32922  0.26481  1.0000
  H   H30       1.0  0.47824  0.09219  0.20313  1.0000
  C   C26       1.0  0.39643  0.13711  0.12861  1.0000
  C   C27       1.0  0.38812  0.11915  0.11936  1.0000
  C   C28       1.0  0.38474  0.12201  0.10012  1.0000
  C   C29       1.0  0.39001  0.14264  0.08984  1.0000
  C   C30       1.0  0.39908  0.16028  0.09897  1.0000
  C   C31       1.0  0.40213  0.15755  0.11825  1.0000
  H   H31       1.0  0.38345  0.10341  0.12716  1.0000
  H   H32       1.0  0.37771  0.10824  0.09323  1.0000
  H   H33       1.0  0.40327  0.17623  0.09128  1.0000
  H   H34       1.0  0.40848  0.17160  0.12525  1.0000
  C   C32       1.0  0.15545  0.48768  0.25959  1.0000
  C   C33       1.0  0.46377  0.14826  0.07588  1.0000
  C   C34       1.0  0.49481  0.11348  0.13601  1.0000
  H   H35       1.0  0.17371  0.45068  0.14615  1.0000
  H   H36       1.0  0.45995  0.08729  0.12995  1.0000
  N   N1        1.0  0.13102  0.31113  0.14982  1.0000
  C   C35       1.0  0.13413  0.28834  0.16030  1.0000
  C   C36       1.0  0.13421  0.32965  0.16250  1.0000
  C   C37       1.0  0.10667  0.31399  0.14422  1.0000
  C   C38       1.0  0.14833  0.31242  0.13395  1.0000
  C   C39       1.0  0.17234  0.31103  0.13713  1.0000
  C   C40       1.0  0.14210  0.31509  0.11512  1.0000
  C   C41       1.0  0.18902  0.31251  0.12242  1.0000
  C   C42       1.0  0.15896  0.31644  0.10052  1.0000
  C   C43       1.0  0.18233  0.31521  0.10416  1.0000
  H   H37       1.0  0.15134  0.28574  0.16642  1.0000
  H   H38       1.0  0.12096  0.28662  0.17210  1.0000
  H   H39       1.0  0.13250  0.27387  0.15114  1.0000
  H   H40       1.0  0.15127  0.32788  0.16887  1.0000
  H   H41       1.0  0.12092  0.32970  0.17423  1.0000
  H   H42       1.0  0.13293  0.34699  0.15497  1.0000
  H   H43       1.0  0.10257  0.30001  0.13531  1.0000
  H   H44       1.0  0.09412  0.31315  0.15649  1.0000
  H   H45       1.0  0.10297  0.33119  0.13677  1.0000
  H   H46       1.0  0.17842  0.30922  0.15104  1.0000
  H   H47       1.0  0.12436  0.31668  0.11123  1.0000
  H   H48       1.0  0.20721  0.31214  0.12519  1.0000
  H   H49       1.0  0.15393  0.31936  0.08627  1.0000
  H   H50       1.0  0.19522  0.31715  0.09278  1.0000
  H   H51       1.0  0.10328  0.48277  0.24830  1.0000
  C   C44       1.0  0.45579  0.10242  0.13858  1.0000
  H   H52       1.0  0.36566  0.01552  0.24730  1.0000
  H   H53       1.0  0.18417  0.42863  0.11904  1.0000
  N   N2        1.0  0.13514  0.47079  0.23427  1.0000
  H   H54       1.0  0.19634  0.49343  0.08692  1.0000
  N   N3        1.0  0.34401  0.22151  0.08097  1.0000
  C   C45       1.0  0.34939  0.20810  0.06421  1.0000
  C   C46       1.0  0.32012  0.23224  0.08015  1.0000
  C   C47       1.0  0.36009  0.24053  0.08007  1.0000
  C   C48       1.0  0.34571  0.20599  0.09807  1.0000
  C   C49       1.0  0.33502  0.18455  0.09956  1.0000
  C   C50       1.0  0.35734  0.21179  0.11380  1.0000
  C   C51       1.0  0.33672  0.16947  0.11543  1.0000
  C   C52       1.0  0.35869  0.19666  0.12968  1.0000
  C   C53       1.0  0.34854  0.17550  0.13045  1.0000
  H   H55       1.0  0.33534  0.19699  0.06131  1.0000
  H   H56       1.0  0.35198  0.21959  0.05137  1.0000
  H   H57       1.0  0.36536  0.19652  0.06584  1.0000
  H   H58       1.0  0.30717  0.21899  0.07988  1.0000
  H   H59       1.0  0.31810  0.24416  0.06748  1.0000
  H   H60       1.0  0.31539  0.24256  0.09245  1.0000
  H   H61       1.0  0.37835  0.23354  0.08120  1.0000
  H   H62       1.0  0.35934  0.25123  0.06668  1.0000
  H   H63       1.0  0.35562  0.25297  0.09101  1.0000
  H   H64       1.0  0.32553  0.17908  0.08836  1.0000
  H   H65       1.0  0.36578  0.22777  0.11413  1.0000
  H   H66       1.0  0.32918  0.15280  0.11600  1.0000
  H   H67       1.0  0.31806  0.32713  0.03309  1.0000
  S   S24       1.0  0.20852  0.40200  0.03399  1.0000
  H   H68       1.0  0.04463  0.47131  0.12274  1.0000
  H   H69       1.0  0.47489  0.15583  0.14247  1.0000
  H   H70       1.0  0.23276  0.43703  0.09032  1.0000
  C   C54       1.0  0.39691  0.08319  0.26681  1.0000
  C   C55       1.0  0.50334  0.07566  0.18429  1.0000
  H   H71       1.0  0.21930  0.46894  0.06852  1.0000
  C   C56       1.0  0.17877  0.48391  0.13194  1.0000
  H   H72       1.0  0.06229  0.33015  0.25060  1.0000
  C   C57       1.0  0.11747  0.49905  0.17335  1.0000
  C   C58       1.0  0.24892  0.50512  0.02109  1.0000
  H   H73       1.0  0.00577  0.29349  0.17371  1.0000
  N   N4        1.0  0.19727  0.44491  0.08362  1.0000
  C   C59       1.0  0.44935  0.13149  0.08345  1.0000
  C   C60       1.0  0.03476  0.39176  0.15042  1.0000
  H   H74       1.0  0.01471  0.47795  0.09945  1.0000
  N   N5        1.0  0.01193  0.40508  0.15016  1.0000
  C   C61       1.0  0.19149  0.48323  0.09941  1.0000
  C   C62       1.0  0.18475  0.44729  0.11742  1.0000
  H   H75       1.0  0.14211  0.47793  0.20484  1.0000
  C   C63       1.0  0.14762  0.48964  0.24124  1.0000
  C   C64       1.0  0.03019  0.44056  0.13560  1.0000
  C   C65       1.0  0.12724  0.47607  0.21517  1.0000
  S   S25       1.0  0.47837  0.19615  0.04301  1.0000
  H   H76       1.0  0.21341  0.41567  0.09947  1.0000
  H   H77       1.0  0.41626  0.11369  0.02640  1.0000
  C   C66       1.0  0.01255  0.30859  0.17897  1.0000
  C   C67       1.0  0.03097  0.45945  0.12256  1.0000
  C   C68       1.0  0.16720  0.50531  0.26652  1.0000
  Fe  Fe12      1.0  0.44175  0.19964  0.03269  1.0000
  H   H78       1.0  0.45838  0.09605  0.15320  1.0000
  S   S26       1.0  0.37310  0.25848  0.02798  1.0000
  C   C69       1.0  0.29964  0.29653  0.03091  1.0000
  H   H79       1.0  0.36810  0.20105  0.14138  1.0000
  H   H80       1.0  0.04059  0.38649  0.13628  1.0000
  H   H81       1.0  0.43705  0.10776  0.13804  1.0000
  Fe  Fe13      1.0  0.24599  0.39952  0.03991  1.0000
  C   C70       1.0  0.37831  0.08855  0.02441  1.0000
  C   C71       1.0  0.34178  0.29665  0.03074  1.0000
  H   H82       1.0  0.03683  0.38061  0.25753  1.0000
  H   H83       1.0  0.04842  0.40178  0.15570  1.0000
  H   H84       1.0  0.18087  0.42147  0.06720  1.0000
  C   C72       1.0  0.20380  0.45925  0.06656  1.0000
  H   H85       1.0  0.38876  0.07780  0.25484  1.0000
  H   H86       1.0  0.14037  0.47266  0.16127  1.0000
  C   C73       1.0  0.01418  0.46319  0.10947  1.0000
  C   C74       1.0  0.32447  0.26040  0.02812  1.0000
  H   H87       1.0  0.38026  0.13422  0.02692  1.0000
  Fe  Fe14      1.0  0.25169  0.34683  0.03428  1.0000
  H   H88       1.0  0.35032  0.16353  0.14257  1.0000
  C   C75       1.0  0.11432  0.46647  0.24658  1.0000
  C   C76       1.0  0.01261  0.42464  0.13587  1.0000
  C   C77       1.0  0.17712  0.43205  0.07949  1.0000
  H   H89       1.0  0.17198  0.41971  0.09114  1.0000
  H   H90       1.0  0.47300  0.01505  0.19406  1.0000
  C   C78       1.0  0.45135  0.12270  0.10183  1.0000
  C   C79       1.0  0.15059  0.44929  0.23405  1.0000
  H   H91       1.0  0.06098  0.49251  0.18686  1.0000
  H   H92       1.0  0.16177  0.44412  0.07666  1.0000
  C   C80       1.0  0.21710  0.42801  0.08746  1.0000
  C   C81       1.0  0.41507  0.09795  0.26428  1.0000
  H   H93       1.0  0.00566  0.40036  0.17985  1.0000
  H   H94       1.0  0.14221  0.43501  0.22801  1.0000
  N   N6        1.0  0.47049  0.12189  0.13282  1.0000
  H   H95       1.0  0.43923  0.11010  0.10686  1.0000
  H   H96       1.0  0.09340  0.35407  0.25903  1.0000
  H   H97       1.0  0.35962  0.08691  0.02236  1.0000
  C   C82       1.0  0.50340  0.23687  0.07046  1.0000
  H   H98       1.0  0.10346  0.45378  0.24083  1.0000
  C   C83       1.0  0.30231  0.27234  0.02912  1.0000
  H   H99       1.0  0.49392  0.24440  0.05876  1.0000
  H   H100      1.0  0.28706  0.26275  0.02842  1.0000
  S   S27       1.0  0.21364  0.34653  0.02843  1.0000
  H   H101      1.0  0.49126  0.16968  0.08055  1.0000
  C   C84       1.0  0.25648  0.50214  0.03920  1.0000
  H   H102      1.0  0.11571  0.49225  0.21430  1.0000
  H   H103      1.0  0.49519  0.15494  0.11293  1.0000
  C   C85       1.0  0.34446  0.27249  0.02891  1.0000
  H   H104      1.0  0.46201  0.15509  0.06166  1.0000
  C   C86       1.0  0.00657  0.34742  0.18956  1.0000
  H   H105      1.0  0.15526  0.44259  0.24821  1.0000
  C   C87       1.0  0.00653  0.41445  0.16864  1.0000
  C   C88       1.0  0.24713  0.46297  0.02062  1.0000
  S   S28       1.0  0.27101  0.31053  0.03196  1.0000
  H   H106      1.0  0.38709  0.07089  0.02414  1.0000
  C   C89       1.0  0.49607  0.09085  0.19806  1.0000
  H   H107      1.0  0.49492  0.20432  0.11066  1.0000
  C   C90       1.0  0.48241  0.14781  0.10505  1.0000
  H   H108      1.0  0.11875  0.45889  0.26057  1.0000
  C   C91       1.0  0.18522  0.49557  0.11516  1.0000
  H   H109      1.0  0.17381  0.49363  0.14407  1.0000
  Fe  Fe15      1.0  0.39436  0.09683  0.38984  1.0000
  S   S29       1.0  0.42922  0.08250  0.39902  1.0000
  S   S30       1.0  0.36301  0.11096  0.40723  1.0000
  Fe  Fe16      1.0  0.40446  0.08139  0.34951  1.0000
  S   S31       1.0  0.43975  0.06575  0.35582  1.0000
  S   S32       1.0  0.38676  0.07567  0.32299  1.0000
  Fe  Fe17      1.0  0.42312  0.05207  0.38264  1.0000
  H   H110      1.0  0.38483  0.01826  0.38089  1.0000
  Fe  Fe18      1.0  0.44298  0.09757  0.37135  1.0000
  S   S33       1.0  0.47622  0.11568  0.36638  1.0000
  S   S34       1.0  0.38749  0.06510  0.37539  1.0000
  S   S35       1.0  0.40856  0.11462  0.36318  1.0000
  Fe  Fe19      1.0  0.08872  0.36642  0.37544  1.0000
  S   S36       1.0  0.12465  0.34974  0.37501  1.0000
  S   S37       1.0  0.05802  0.34505  0.37453  1.0000
  Fe  Fe20      1.0  0.10457  0.41509  0.37667  1.0000
  S   S38       1.0  0.14218  0.40240  0.37607  1.0000
  S   S39       1.0  0.08675  0.45115  0.37574  1.0000
  Fe  Fe21      1.0  0.13291  0.37904  0.35413  1.0000
  S   S40       1.0  0.15185  0.37007  0.32680  1.0000
  Fe  Fe22      1.0  0.13035  0.37412  0.39708  1.0000
  S   S41       1.0  0.14978  0.36333  0.42323  1.0000
  S   S42       1.0  0.09654  0.39400  0.35321  1.0000
  S   S43       1.0  0.09344  0.38864  0.39896  1.0000
  C   C92       1.0  0.33444  0.05408  0.48360  1.0000
  S   S44       1.0  0.35449  0.11223  0.49609  1.0000
  S   S45       1.0  0.28931  0.09487  0.50747  1.0000
  H   H111      1.0  0.39476  0.02623  0.30290  1.0000
  H   H112      1.0  0.05979  0.31325  0.33589  1.0000
  S   S46       1.0  0.11051  0.29687  0.49013  1.0000
  H   H113      1.0  0.00840  0.36261  0.33852  1.0000
  H   H114      1.0  0.40676  0.16522  0.29912  1.0000
  C   C93       1.0  0.14116  0.38031  0.30508  1.0000
  C   C94       1.0  0.12395  0.39838  0.30373  1.0000
  H   H115      1.0  0.17735  0.47307  0.31820  1.0000
  C   C95       1.0  0.23412  0.20667  0.47674  1.0000
  C   C96       1.0  0.14980  0.36985  0.28882  1.0000
  H   H116      1.0  0.11747  0.40688  0.31604  1.0000
  H   H117      1.0  0.39747  0.10505  0.43570  1.0000
  H   H118      1.0  0.16326  0.35597  0.28972  1.0000
  C   C97       1.0  0.10305  0.47525  0.37805  1.0000
  C   C98       1.0  0.12715  0.47308  0.37892  1.0000
  C   C99       1.0  0.13951  0.49292  0.38037  1.0000
  H   H119      1.0  0.00943  0.33781  0.38120  1.0000
  C   C100      1.0  0.01370  0.48625  0.40440  1.0000
  H   H120      1.0  0.13627  0.45619  0.37835  1.0000
  H   H121      1.0  0.15816  0.49120  0.38084  1.0000
  H   H122      1.0  0.10215  0.41988  0.28550  1.0000
  H   H123      1.0  0.08123  0.29035  0.32941  1.0000
  C   C101      1.0  0.13816  0.34570  0.44212  1.0000
  C   C102      1.0  0.11767  0.33466  0.44085  1.0000
  C   C103      1.0  0.10936  0.32015  0.45583  1.0000
  C   C104      1.0  0.12120  0.31669  0.47236  1.0000
  C   C105      1.0  0.14156  0.32795  0.47376  1.0000
  C   C106      1.0  0.15005  0.34225  0.45866  1.0000
  H   H124      1.0  0.10838  0.33709  0.42823  1.0000
  H   H125      1.0  0.09368  0.31145  0.45455  1.0000
  H   H126      1.0  0.15088  0.32548  0.48636  1.0000
  H   H127      1.0  0.16590  0.35074  0.45977  1.0000
  H   H128      1.0  0.15163  0.22880  0.49478  1.0000
  C   C107      1.0  0.03573  0.38773  0.36944  1.0000
  C   C108      1.0  0.03338  0.36416  0.37391  1.0000
  H   H129      1.0  0.11066  0.45231  0.33837  1.0000
  H   H130      1.0  0.07282  0.49907  0.37800  1.0000
  H   H131      1.0  0.05256  0.39437  0.36739  1.0000
  H   H132      1.0  0.10582  0.35213  0.29081  1.0000
  C   C109      1.0  0.39884  0.08343  0.30057  1.0000
  C   C110      1.0  0.38867  0.07619  0.28490  1.0000
  C   C111      1.0  0.50081  0.09974  0.37467  1.0000
  H   H133      1.0  0.18964  0.27738  0.49556  1.0000
  C   C112      1.0  0.41748  0.09758  0.29803  1.0000
  H   H134      1.0  0.37414  0.06538  0.28675  1.0000
  N   N7        1.0  0.35652  0.03969  0.48155  1.0000
  H   H135      1.0  0.42528  0.10345  0.30999  1.0000
  H   H136      1.0  0.15268  0.47238  0.26863  1.0000
  H   H137      1.0  0.02837  0.33634  0.41726  1.0000
  H   H138      1.0  0.03013  0.46610  0.37274  1.0000
  H   H139      1.0  0.02752  0.43959  0.39949  1.0000
  H   H140      1.0  0.15137  0.22885  0.46995  1.0000
  C   C113      1.0  0.01133  0.35599  0.37738  1.0000
  C   C114      1.0  0.15911  0.47747  0.32126  1.0000
  H   H141      1.0  0.01773  0.27079  0.50545  1.0000
  C   C115      1.0  0.36097  0.11093  0.43196  1.0000
  C   C116      1.0  0.33911  0.11461  0.44118  1.0000
  C   C117      1.0  0.33677  0.11502  0.46073  1.0000
  C   C118      1.0  0.35637  0.11220  0.47132  1.0000
  C   C119      1.0  0.37824  0.10875  0.46207  1.0000
  C   C120      1.0  0.38053  0.10777  0.44256  1.0000
  H   H142      1.0  0.32386  0.11719  0.43315  1.0000
  H   H143      1.0  0.31983  0.11781  0.46759  1.0000
  H   H144      1.0  0.39356  0.10670  0.47005  1.0000
  H   H145      1.0  0.34547  0.01763  0.50517  1.0000
  H   H146      1.0  0.11950  0.30132  0.31412  1.0000
  H   H147      1.0  0.13591  0.25164  0.48231  1.0000
  H   H148      1.0  0.18709  0.21887  0.50505  1.0000
  H   H149      1.0  0.33933  0.06238  0.44877  1.0000
  C   C121      1.0  0.04883  0.50073  0.41572  1.0000
  H   H150      1.0  0.00634  0.33966  0.32328  1.0000
  C   C122      1.0  0.36378  0.04943  0.42867  1.0000
  H   H151      1.0  0.03720  0.30637  0.44232  1.0000
  C   C123      1.0  0.35249  0.01642  0.49054  1.0000
  H   H152      1.0  0.00789  0.48862  0.36830  1.0000
  C   C124      1.0  0.08219  0.32638  0.30187  1.0000
  S   S47       1.0  0.29571  0.02751  0.51450  1.0000
  C   C125      1.0  0.07865  0.30834  0.33404  1.0000
  H   H153      1.0  0.33619  0.07219  0.47814  1.0000
  H   H154      1.0  0.24937  0.19473  0.47617  1.0000
  C   C126      1.0  0.50153  0.01408  0.37184  1.0000
  H   H155      1.0  0.33957  0.00771  0.48313  1.0000
  C   C127      1.0  0.12360  0.39500  0.27018  1.0000
  N   N8        1.0  0.33823  0.12531  0.34085  1.0000
  C   C128      1.0  0.32090  0.14351  0.34727  1.0000
  C   C129      1.0  0.32589  0.10843  0.33110  1.0000
  C   C130      1.0  0.34823  0.11263  0.35734  1.0000
  C   C131      1.0  0.35676  0.13624  0.32909  1.0000
  C   C132      1.0  0.37064  0.15223  0.33659  1.0000
  C   C133      1.0  0.36154  0.13162  0.31009  1.0000
  C   C134      1.0  0.38844  0.16255  0.32587  1.0000
  C   C135      1.0  0.37919  0.14227  0.29944  1.0000
  C   C136      1.0  0.39272  0.15754  0.30734  1.0000
  H   H156      1.0  0.31361  0.15406  0.33526  1.0000
  H   H157      1.0  0.30631  0.13588  0.35570  1.0000
  H   H158      1.0  0.32847  0.15558  0.35626  1.0000
  H   H159      1.0  0.31708  0.11689  0.31889  1.0000
  H   H160      1.0  0.31234  0.10024  0.34035  1.0000
  H   H161      1.0  0.33805  0.09396  0.32633  1.0000
  H   H162      1.0  0.35596  0.12421  0.36663  1.0000
  H   H163      1.0  0.33507  0.10332  0.36620  1.0000
  H   H164      1.0  0.36199  0.09951  0.35296  1.0000
  H   H165      1.0  0.36815  0.15653  0.35094  1.0000
  H   H166      1.0  0.35245  0.11929  0.30319  1.0000
  H   H167      1.0  0.39919  0.17423  0.33205  1.0000
  H   H168      1.0  0.38291  0.13801  0.28511  1.0000
  C   C137      1.0  0.09143  0.49723  0.37874  1.0000
  N   N9        1.0  0.09052  0.32511  0.32095  1.0000
  H   H169      1.0  0.20900  0.25179  0.45163  1.0000
  C   C138      1.0  0.11567  0.31820  0.32055  1.0000
  C   C139      1.0  0.08678  0.34819  0.32872  1.0000
  H   H170      1.0  0.49318  0.03145  0.37192  1.0000
  C   C140      1.0  0.49525  0.09235  0.27808  1.0000
  H   H171      1.0  0.32016  0.04670  0.47671  1.0000
  C   C141      1.0  0.37404  0.05041  0.49181  1.0000
  H   H172      1.0  0.36777  0.05355  0.50636  1.0000
  H   H173      1.0  0.16951  0.26094  0.45022  1.0000
  C   C142      1.0  0.38375  0.03546  0.42489  1.0000
  H   H174      1.0  0.17360  0.25661  0.50942  1.0000
  C   C143      1.0  0.01217  0.37875  0.30202  1.0000
  H   H175      1.0  0.32798  0.00789  0.44580  1.0000
  H   H176      1.0  0.12240  0.31658  0.33477  1.0000
  H   H177      1.0  0.12624  0.33120  0.31265  1.0000
  H   H178      1.0  0.04338  0.30426  0.27455  1.0000
  H   H179      1.0  0.09253  0.34760  0.34318  1.0000
  H   H180      1.0  0.09674  0.36156  0.32071  1.0000
  C   C144      1.0  0.49867  0.07990  0.38659  1.0000
  C   C145      1.0  0.15005  0.50041  0.31859  1.0000
  C   C146      1.0  0.11535  0.40577  0.28637  1.0000
  H   H181      1.0  0.18443  0.28232  0.46148  1.0000
  C   C147      1.0  0.21829  0.20516  0.49190  1.0000
  C   C148      1.0  0.08521  0.34259  0.26954  1.0000
  H   H182      1.0  0.39052  0.03952  0.49252  1.0000
  H   H183      1.0  0.15856  0.28038  0.49726  1.0000
  H   H184      1.0  0.32867  0.05549  0.49839  1.0000
  C   C149      1.0  0.39000  0.00639  0.27922  1.0000
  C   C150      1.0  0.09228  0.34132  0.28778  1.0000
  H   H185      1.0  0.22130  0.19205  0.50308  1.0000
  C   C151      1.0  0.36508  0.03779  0.46196  1.0000
  H   H186      1.0  0.47687  0.09004  0.27768  1.0000
  H   H187      1.0  0.49540  0.08423  0.30701  1.0000
  S   S48       1.0  0.43209  0.01528  0.39269  1.0000
  H   H188      1.0  0.05528  0.30139  0.30637  1.0000
  H   H189      1.0  0.15386  0.28128  0.46438  1.0000
  C   C152      1.0  0.01620  0.40295  0.36745  1.0000
  H   H190      1.0  0.08537  0.30797  0.34825  1.0000
  H   H191      1.0  0.06816  0.35431  0.32918  1.0000
  H   H192      1.0  0.37817  0.06756  0.48505  1.0000
  H   H193      1.0  0.09426  0.49169  0.33418  1.0000
  H   H194      1.0  0.35586  0.06001  0.41747  1.0000
  H   H195      1.0  0.04874  0.47005  0.40113  1.0000
  C   C153      1.0  0.35448  0.05067  0.44688  1.0000
  C   C154      1.0  0.01119  0.47064  0.37448  1.0000
  H   H196      1.0  0.00769  0.29617  0.46637  1.0000
  N   N10       1.0  0.17302  0.25372  0.47969  1.0000
  C   C155      1.0  0.17028  0.27020  0.46317  1.0000
  C   C156      1.0  0.15215  0.24013  0.48176  1.0000
  C   C157      1.0  0.17375  0.26758  0.49618  1.0000
  C   C158      1.0  0.19410  0.23782  0.47838  1.0000
  C   C159      1.0  0.21072  0.23903  0.46313  1.0000
  C   C160      1.0  0.19865  0.22054  0.49282  1.0000
  C   C161      1.0  0.23039  0.22360  0.46241  1.0000
  H   H197      1.0  0.48171  0.07413  0.39077  1.0000
  H   H198      1.0  0.39117  0.03503  0.41084  1.0000
  C   C162      1.0  0.38541  0.02364  0.45756  1.0000
  C   C163      1.0  0.03792  0.48421  0.40668  1.0000
  C   C164      1.0  0.03082  0.38774  0.31062  1.0000
  H   H199      1.0  0.01831  0.42096  0.36329  1.0000
  C   C165      1.0  0.06411  0.31314  0.29664  1.0000
  C   C166      1.0  0.05097  0.39370  0.30037  1.0000
  H   H200      1.0  0.24288  0.22479  0.45069  1.0000
  H   H201      1.0  0.06742  0.49889  0.41704  1.0000
  C   C167      1.0  0.39185  0.00928  0.29816  1.0000
  C   C168      1.0  0.39453  0.02253  0.43926  1.0000
  C   C169      1.0  0.42532  0.10506  0.27996  1.0000
  H   H202      1.0  0.17331  0.50334  0.28045  1.0000
  H   H203      1.0  0.00526  0.44388  0.41757  1.0000
  H   H204      1.0  0.15195  0.44241  0.33053  1.0000
  H   H205      1.0  0.43917  0.11670  0.27811  1.0000
  C   C170      1.0  0.14487  0.46016  0.32820  1.0000
  C   C171      1.0  0.05306  0.39112  0.28130  1.0000
  C   C172      1.0  0.11232  0.48865  0.33002  1.0000
  C   C173      1.0  0.02012  0.31527  0.44213  1.0000
  C   C174      1.0  0.12155  0.46575  0.33252  1.0000
  H   H206      1.0  0.02985  0.39045  0.32534  1.0000
  H   H207      1.0  0.06496  0.40055  0.30722  1.0000
  C   C175      1.0  0.14093  0.37702  0.27143  1.0000
  C   C176      1.0  0.01519  0.33215  0.42801  1.0000
  C   C177      1.0  0.00895  0.44511  0.40226  1.0000
  C   C178      1.0  0.05704  0.31463  0.27834  1.0000
  H   H208      1.0  0.06863  0.39586  0.27333  1.0000
  H   H209      1.0  0.39150  0.02158  0.26978  1.0000
  C   C179      1.0  0.01490  0.37635  0.28252  1.0000
  H   H210      1.0  0.39479  0.01388  0.46831  1.0000
  H   H211      1.0  0.41041  0.01213  0.43613  1.0000
  Fe  Fe23      1.0  0.32365  0.10445  0.51629  1.0000
  C   C180      1.0  0.03509  0.38248  0.27241  1.0000
  Fe  Fe24      1.0  0.39490  0.04568  0.69732  1.0000
  S   S49       1.0  0.37744  0.08154  0.69790  1.0000
  C   C181      1.0  0.46074  0.07140  0.75759  1.0000
  Fe  Fe25      1.0  0.44314  0.06237  0.69037  1.0000
  S   S50       1.0  0.42990  0.09962  0.68990  1.0000
  S   S51       1.0  0.47985  0.04651  0.68837  1.0000
  Fe  Fe26      1.0  0.40745  0.08847  0.71504  1.0000
  S   S52       1.0  0.40957  0.10785  0.74124  1.0000
  Fe  Fe27      1.0  0.40120  0.08923  0.67269  1.0000
  S   S53       1.0  0.39267  0.10851  0.64495  1.0000
  S   S54       1.0  0.42259  0.05184  0.71632  1.0000
  S   S55       1.0  0.41662  0.05287  0.67138  1.0000
  H   H212      1.0  0.47226  0.07214  0.62889  1.0000
  S   S56       1.0  0.30815  0.12529  0.54015  1.0000
  C   C182      1.0  0.50314  0.06448  0.68816  1.0000
  H   H213      1.0  0.40230  0.07206  0.60395  1.0000
  S   S57       1.0  0.32976  0.07207  0.53494  1.0000
  C   C183      1.0  0.01403  0.23940  0.55438  1.0000
  Fe  Fe28      1.0  0.31138  0.09162  0.55785  1.0000
  S   S58       1.0  0.31730  0.08396  0.58890  1.0000
  S   S59       1.0  0.27659  0.08031  0.55091  1.0000
  Fe  Fe29      1.0  0.12078  0.29536  0.56184  1.0000
  S   S60       1.0  0.12243  0.25733  0.57059  1.0000
  S   S61       1.0  0.11023  0.32444  0.58157  1.0000
  Fe  Fe30      1.0  0.14825  0.25238  0.54611  1.0000
  S   S62       1.0  0.37840  0.01190  0.69829  1.0000
  Fe  Fe31      1.0  0.09485  0.25486  0.55009  1.0000
  H   H214      1.0  0.45809  0.10983  0.73348  1.0000
  S   S63       1.0  0.14825  0.29118  0.53845  1.0000
  S   S64       1.0  0.09236  0.29274  0.54224  1.0000
  Fe  Fe32      1.0  0.12853  0.39056  0.72075  1.0000
  S   S65       1.0  0.09408  0.41028  0.71953  1.0000
  S   S66       1.0  0.14845  0.39516  0.74621  1.0000
  Fe  Fe33      1.0  0.12502  0.37210  0.68193  1.0000
  S   S67       1.0  0.09020  0.39059  0.67828  1.0000
  S   S68       1.0  0.14411  0.34967  0.66028  1.0000
  Fe  Fe34      1.0  0.10505  0.42081  0.69023  1.0000
  S   S69       1.0  0.09446  0.45661  0.67794  1.0000
  Fe  Fe35      1.0  0.08258  0.37832  0.70803  1.0000
  S   S70       1.0  0.04973  0.36503  0.72128  1.0000
  S   S71       1.0  0.14076  0.40341  0.69193  1.0000
  S   S72       1.0  0.11635  0.35761  0.71114  1.0000
  H   H215      1.0  0.32406  0.03379  0.57734  1.0000
  C   C184      1.0  0.01652  0.26230  0.51922  1.0000
  H   H216      1.0  0.12531  0.35309  0.75803  1.0000
  C   C185      1.0  0.10910  0.47997  0.68497  1.0000
  C   C186      1.0  0.12998  0.47608  0.69378  1.0000
  C   C187      1.0  0.40323  0.02073  0.62941  1.0000
  H   H217      1.0  0.48957  0.05682  0.64572  1.0000
  H   H218      1.0  0.01832  0.41438  0.69937  1.0000
  H   H219      1.0  0.37653  0.04149  0.61533  1.0000
  H   H220      1.0  0.13705  0.45854  0.69679  1.0000
  H   H221      1.0  0.15858  0.49183  0.70461  1.0000
  H   H222      1.0  0.04176  0.47837  0.67461  1.0000
  C   C188      1.0  0.17071  0.33550  0.72925  1.0000
  C   C189      1.0  0.02819  0.36603  0.70516  1.0000
  H   H223      1.0  0.16289  0.31874  0.73297  1.0000
  C   C190      1.0  0.01479  0.43070  0.69150  1.0000
  C   C191      1.0  0.03397  0.36763  0.68608  1.0000
  C   C192      1.0  0.02793  0.46674  0.67758  1.0000
  H   H224      1.0  0.05179  0.36607  0.68112  1.0000
  C   C193      1.0  0.11895  0.32932  0.60422  1.0000
  C   C194      1.0  0.10541  0.34511  0.61504  1.0000
  C   C195      1.0  0.11234  0.35074  0.63254  1.0000
  C   C196      1.0  0.13329  0.34115  0.63927  1.0000
  C   C197      1.0  0.14670  0.32518  0.62855  1.0000
  C   C198      1.0  0.13949  0.31910  0.61124  1.0000
  H   H225      1.0  0.08961  0.35330  0.60973  1.0000
  H   H226      1.0  0.10174  0.36285  0.64064  1.0000
  H   H227      1.0  0.16293  0.31762  0.63358  1.0000
  H   H228      1.0  0.15018  0.30704  0.60310  1.0000
  H   H229      1.0  0.49971  0.02911  0.61973  1.0000
  C   C199      1.0  0.03561  0.24594  0.54668  1.0000
  C   C200      1.0  0.48943  0.07579  0.73271  1.0000
  H   H230      1.0  0.26222  0.09813  0.58841  1.0000
  C   C201      1.0  0.22316  0.20217  0.54428  1.0000
  C   C202      1.0  0.19897  0.20523  0.54286  1.0000
  H   H231      1.0  0.49657  0.05757  0.73515  1.0000
  C   C203      1.0  0.04521  0.40129  0.76026  1.0000
  C   C204      1.0  0.22355  0.16146  0.53706  1.0000
  H   H232      1.0  0.20580  0.35900  0.71467  1.0000
  H   H233      1.0  0.01477  0.33286  0.74677  1.0000
  H   H234      1.0  0.00711  0.26543  0.62158  1.0000
  C   C205      1.0  0.46989  0.10959  0.74517  1.0000
  S   S73       1.0  0.12060  0.24652  0.52651  1.0000
  S   S74       1.0  0.23782  0.13348  0.53333  1.0000
  C   C206      1.0  0.01657  0.37098  0.67331  1.0000
  S   S75       1.0  0.18459  0.23308  0.54687  1.0000
  H   H235      1.0  0.42813  0.00800  0.69659  1.0000
  C   C207      1.0  0.49988  0.08859  0.68530  1.0000
  H   H236      1.0  0.07758  0.36731  0.75528  1.0000
  H   H237      1.0  0.48283  0.09656  0.68279  1.0000
  C   C208      1.0  0.33904  0.09061  0.60387  1.0000
  C   C209      1.0  0.35521  0.10703  0.59875  1.0000
  C   C210      1.0  0.37138  0.11236  0.61150  1.0000
  C   C211      1.0  0.37191  0.10110  0.62939  1.0000
  C   C212      1.0  0.35596  0.08444  0.63438  1.0000
  C   C213      1.0  0.33954  0.07941  0.62176  1.0000
  H   H238      1.0  0.35504  0.11590  0.58510  1.0000
  H   H239      1.0  0.38359  0.12531  0.60748  1.0000
  H   H240      1.0  0.35609  0.07564  0.64807  1.0000
  H   H241      1.0  0.32709  0.06675  0.62594  1.0000
  H   H242      1.0  0.47861  0.04396  0.60519  1.0000
  N   N11       1.0  0.47975  0.08580  0.75014  1.0000
  C   C214      1.0  0.01174  0.31892  0.57119  1.0000
  C   C215      1.0  0.44154  0.03665  0.62832  1.0000
  H   H243      1.0  0.28869  0.12729  0.57852  1.0000
  C   C216      1.0  0.03670  0.25774  0.52917  1.0000
  C   C217      1.0  0.10008  0.50282  0.68116  1.0000
  Fe  Fe36      1.0  0.29491  0.06300  0.52681  1.0000
  C   C218      1.0  0.23537  0.18053  0.54142  1.0000
  H   H244      1.0  0.20189  0.30034  0.73620  1.0000
  N   N12       1.0  0.46606  0.03547  0.63330  1.0000
  H   H245      1.0  0.32090  0.01314  0.54883  1.0000
  C   C219      1.0  0.00590  0.47272  0.67107  1.0000
  H   H246      1.0  0.39185  0.00737  0.63450  1.0000
  N   N13       1.0  0.03634  0.31887  0.57574  1.0000
  C   C220      1.0  0.03986  0.32883  0.59373  1.0000
  C   C221      1.0  0.04688  0.29476  0.57669  1.0000
  C   C222      1.0  0.04905  0.33268  0.56097  1.0000
  H   H247      1.0  0.05243  0.35586  0.76693  1.0000
  H   H248      1.0  0.48373  0.12145  0.74075  1.0000
  H   H249      1.0  0.20954  0.13383  0.58029  1.0000
  H   H250      1.0  0.03716  0.28334  0.58686  1.0000
  H   H251      1.0  0.25713  0.18017  0.60049  1.0000
  H   H252      1.0  0.40600  0.02831  0.76502  1.0000
  H   H253      1.0  0.44749  0.07032  0.74715  1.0000
  H   H254      1.0  0.05862  0.32827  0.59662  1.0000
  H   H255      1.0  0.03342  0.34739  0.59375  1.0000
  H   H256      1.0  0.45960  0.06371  0.65132  1.0000
  H   H257      1.0  0.06521  0.29393  0.58075  1.0000
  H   H258      1.0  0.44274  0.06948  0.61159  1.0000
  H   H259      1.0  0.04127  0.35077  0.55939  1.0000
  H   H260      1.0  0.06755  0.33360  0.56405  1.0000
  C   C223      1.0  0.40915  0.05712  0.61225  1.0000
  H   H261      1.0  0.03009  0.39122  0.75780  1.0000
  H   H262      1.0  0.23257  0.21667  0.54769  1.0000
  H   H263      1.0  0.47711  0.01352  0.61120  1.0000
  H   H264      1.0  0.45988  0.01975  0.66078  1.0000
  H   H265      1.0  0.01718  0.29625  0.64026  1.0000
  H   H266      1.0  0.16862  0.18808  0.53725  1.0000
  H   H267      1.0  0.33128  0.01170  0.60706  1.0000
  C   C224      1.0  0.00574  0.30960  0.55452  1.0000
  H   H268      1.0  0.05510  0.40276  0.74661  1.0000
  C   C225      1.0  0.20913  0.31741  0.73247  1.0000
  H   H269      1.0  0.18854  0.20471  0.58733  1.0000
  S   S76       1.0  0.06079  0.23911  0.55933  1.0000
  C   C226      1.0  0.19937  0.16455  0.53556  1.0000
  H   H270      1.0  0.45926  0.11720  0.75684  1.0000
  C   C227      1.0  0.18919  0.33620  0.75845  1.0000
  C   C228      1.0  0.43230  0.05556  0.61690  1.0000
  H   H271      1.0  0.03124  0.31892  0.60555  1.0000
  C   C229      1.0  0.47205  0.05797  0.63999  1.0000
  H   H272      1.0  0.26676  0.01364  0.54762  1.0000
  C   C230      1.0  0.40126  0.09601  0.76367  1.0000
  H   H273      1.0  0.22022  0.36100  0.73572  1.0000
  H   H274      1.0  0.48952  0.01771  0.65267  1.0000
  H   H275      1.0  0.18031  0.16568  0.57874  1.0000
  H   H276      1.0  0.37964  0.07091  0.75426  1.0000
  C   C231      1.0  0.18717  0.18620  0.53840  1.0000
  H   H277      1.0  0.46742  0.05344  0.76174  1.0000
  H   H278      1.0  0.15794  0.34951  0.73376  1.0000
  N   N14       1.0  0.19304  0.33714  0.73795  1.0000
  C   C232      1.0  0.42641  0.01889  0.63400  1.0000
  C   C233      1.0  0.20311  0.35882  0.73007  1.0000
  H   H279      1.0  0.28190  0.15733  0.58163  1.0000
  H   H280      1.0  0.04739  0.28682  0.56310  1.0000
  Fe  Fe37      1.0  0.27381  0.11339  0.53249  1.0000
  H   H281      1.0  0.04951  0.44114  0.69262  1.0000
  H   H282      1.0  0.47590  0.07524  0.72239  1.0000
  H   H283      1.0  0.26804  0.14356  0.56415  1.0000
  C   C234      1.0  0.48106  0.03032  0.61662  1.0000
  C   C235      1.0  0.47151  0.01724  0.64817  1.0000
  H   H284      1.0  0.22690  0.21164  0.59823  1.0000
  C   C236      1.0  0.03237  0.44577  0.68773  1.0000
  Fe  Fe38      1.0  0.11960  0.28520  0.51985  1.0000
  C   C237      1.0  0.38639  0.07794  0.76622  1.0000
  H   H285      1.0  0.17259  0.33725  0.71378  1.0000
  H   H286      1.0  0.04219  0.50161  0.70565  1.0000
  H   H287      1.0  0.02112  0.37275  0.65857  1.0000
  H   H288      1.0  0.04916  0.32510  0.54720  1.0000
  H   H289      1.0  0.21309  0.31805  0.71717  1.0000
  H   H290      1.0  0.25391  0.17867  0.54254  1.0000
  H   H291      1.0  0.22580  0.31749  0.73940  1.0000
  H   H292      1.0  0.01882  0.30169  0.54521  1.0000
  H   H293      1.0  0.17529  0.30195  0.76066  1.0000
  N   N15       1.0  0.12159  0.42440  0.62718  1.0000
  C   C238      1.0  0.12559  0.44899  0.62165  1.0000
  C   C239      1.0  0.09664  0.42255  0.63238  1.0000
  C   C240      1.0  0.13459  0.41787  0.64408  1.0000
  C   C241      1.0  0.12847  0.40967  0.61150  1.0000
  C   C242      1.0  0.14600  0.39124  0.61261  1.0000
  C   C243      1.0  0.11715  0.41327  0.59452  1.0000
  C   C244      1.0  0.15133  0.37711  0.59777  1.0000
  C   C245      1.0  0.12252  0.39890  0.57983  1.0000
  C   C246      1.0  0.13945  0.38074  0.58152  1.0000
  H   H294      1.0  0.11493  0.45598  0.61000  1.0000
  H   H295      1.0  0.12109  0.46042  0.63338  1.0000
  H   H296      1.0  0.14407  0.45103  0.61720  1.0000
  H   H297      1.0  0.08533  0.42958  0.62117  1.0000
  H   H298      1.0  0.09109  0.43241  0.64479  1.0000
  H   H299      1.0  0.09272  0.40415  0.63572  1.0000
  H   H300      1.0  0.15349  0.41961  0.64143  1.0000
  H   H301      1.0  0.12899  0.42925  0.65559  1.0000
  H   H302      1.0  0.13179  0.39972  0.64937  1.0000
  H   H303      1.0  0.15542  0.38680  0.62497  1.0000
  H   H304      1.0  0.10379  0.42703  0.59259  1.0000
  H   H305      1.0  0.16420  0.36266  0.59914  1.0000
  H   H306      1.0  0.11333  0.40159  0.56712  1.0000
  H   H307      1.0  0.14310  0.36914  0.57035  1.0000
  N   N16       1.0  0.25517  0.13479  0.59196  1.0000
  C   C247      1.0  0.26425  0.13184  0.61084  1.0000
  C   C248      1.0  0.24781  0.11187  0.58732  1.0000
  C   C249      1.0  0.27427  0.14105  0.57850  1.0000
  C   C250      1.0  0.23638  0.15347  0.59123  1.0000
  C   C251      1.0  0.21407  0.15015  0.58502  1.0000
  C   C252      1.0  0.24044  0.17616  0.59612  1.0000
  C   C253      1.0  0.19698  0.16840  0.58401  1.0000
  C   C254      1.0  0.22327  0.19431  0.59490  1.0000
  C   C255      1.0  0.20159  0.19043  0.58886  1.0000
  H   H308      1.0  0.25018  0.12816  0.62152  1.0000
  H   H309      1.0  0.27784  0.11723  0.61189  1.0000
  H   H310      1.0  0.27262  0.14739  0.61470  1.0000
  H   H311      1.0  0.24235  0.11230  0.57273  1.0000
  H   H312      1.0  0.23335  0.10606  0.59687  1.0000
  H   H313      1.0  0.19139  0.37438  0.73296  1.0000
  C   C256      1.0  0.39459  0.03987  0.61864  1.0000
  C   C257      1.0  0.32596  0.01496  0.57786  1.0000
  C   C258      1.0  0.14214  0.49496  0.69822  1.0000
  H   H314      1.0  0.50317  0.08631  0.72577  1.0000
  H   H315      1.0  0.34998  0.00996  0.76107  1.0000
  H   H316      1.0  0.18995  0.15003  0.53219  1.0000
  H   H317      1.0  0.05321  0.26278  0.52304  1.0000
  H   H318      1.0  0.01315  0.22993  0.56776  1.0000
  H   H319      1.0  0.03906  0.41922  0.76366  1.0000
  C   C259      1.0  0.00647  0.33178  0.76063  1.0000
  H   H320      1.0  0.20056  0.37065  0.76343  1.0000
  C   C260      1.0  0.49699  0.08673  0.76441  1.0000
  C   C261      1.0  0.00495  0.36651  0.71143  1.0000
  H   H321      1.0  0.08976  0.40563  0.76238  1.0000
  C   C262      1.0  0.17988  0.31645  0.76804  1.0000
  Fe  Fe39      1.0  0.44343  0.08771  0.86042  1.0000
  S   S77       1.0  0.41084  0.10961  0.85481  1.0000
  S   S78       1.0  0.47791  0.09739  0.84760  1.0000
  Fe  Fe40      1.0  0.41820  0.04964  0.88178  1.0000
  S   S79       1.0  0.38330  0.06795  0.87768  1.0000
  H   H322      1.0  0.01074  0.40839  0.89634  1.0000
  Fe  Fe41      1.0  0.39697  0.07596  0.84814  1.0000
  S   S80       1.0  0.37852  0.06795  0.82252  1.0000
  Fe  Fe42      1.0  0.40030  0.10003  0.88488  1.0000
  S   S81       1.0  0.38324  0.12692  0.90419  1.0000
  S   S82       1.0  0.43035  0.05490  0.85197  1.0000
  S   S83       1.0  0.43423  0.08101  0.89086  1.0000
  Fe  Fe43      1.0  0.21878  0.37915  0.01045  1.0000
  C   C263      1.0  0.40641  0.01155  0.77273  1.0000
  S   S84       1.0  0.20694  0.39112  0.98137  1.0000
  Fe  Fe44      1.0  0.41157  0.18134  0.00350  1.0000
  S   S85       1.0  0.42519  0.21631  0.00726  1.0000
  S   S86       1.0  0.42166  0.15795  0.97945  1.0000
  Fe  Fe45      1.0  0.14128  0.40965  0.86900  1.0000
  S   S87       1.0  0.16018  0.37493  0.86524  1.0000
  S   S88       1.0  0.15687  0.44350  0.86130  1.0000
  Fe  Fe46      1.0  0.09618  0.38927  0.88216  1.0000
  S   S89       1.0  0.11128  0.35284  0.87987  1.0000
  S   S90       1.0  0.06003  0.40123  0.89199  1.0000
  Fe  Fe47      1.0  0.14247  0.36490  0.89297  1.0000
  S   S91       1.0  0.15862  0.34390  0.91741  1.0000
  Fe  Fe48      1.0  0.12744  0.36644  0.85246  1.0000
  S   S92       1.0  0.12392  0.34769  0.82614  1.0000
  S   S93       1.0  0.12577  0.40023  0.89735  1.0000
  S   S94       1.0  0.11009  0.40204  0.85415  1.0000
  C   C264      1.0  0.14601  0.46496  0.87606  1.0000
  H   H323      1.0  0.17730  0.33274  0.81259  1.0000
  C   C265      1.0  0.39394  0.06757  0.96826  1.0000
  C   C266      1.0  0.13043  0.47646  0.90624  1.0000
  C   C267      1.0  0.14046  0.45939  0.89486  1.0000
  H   H324      1.0  0.37992  0.01178  0.88592  1.0000
  H   H325      1.0  0.14442  0.44208  0.90074  1.0000
  H   H326      1.0  0.40547  0.02140  0.82903  1.0000
  H   H327      1.0  0.16443  0.50279  0.92915  1.0000
  C   C268      1.0  0.03778  0.38415  0.88639  1.0000
  C   C269      1.0  0.04275  0.36284  0.87847  1.0000
  C   C270      1.0  0.02465  0.34952  0.87416  1.0000
  H   H328      1.0  0.42805  0.16215  0.90610  1.0000
  H   H329      1.0  0.06050  0.35656  0.87570  1.0000
  C   C271      1.0  0.24428  0.48541  0.01187  1.0000
  H   H330      1.0  0.05327  0.37721  0.94169  1.0000
  C   C272      1.0  0.13961  0.38322  0.80216  1.0000
  C   C273      1.0  0.12958  0.36187  0.80408  1.0000
  C   C274      1.0  0.12439  0.35115  0.78806  1.0000
  C   C275      1.0  0.17303  0.49591  0.94144  1.0000
  H   H331      1.0  0.14380  0.39159  0.81440  1.0000
  H   H332      1.0  0.11688  0.33450  0.78946  1.0000
  C   C276      1.0  0.19269  0.37758  0.96422  1.0000
  C   C277      1.0  0.18840  0.39021  0.94731  1.0000
  C   C278      1.0  0.17730  0.38039  0.93315  1.0000
  C   C279      1.0  0.17086  0.35753  0.93553  1.0000
  C   C280      1.0  0.17508  0.34484  0.95244  1.0000
  C   C281      1.0  0.18572  0.35487  0.96680  1.0000
  H   H333      1.0  0.19385  0.40769  0.94504  1.0000
  H   H334      1.0  0.17430  0.39032  0.92019  1.0000
  H   H335      1.0  0.17030  0.32709  0.95437  1.0000
  H   H336      1.0  0.18868  0.34496  0.97975  1.0000
  C   C282      1.0  0.10121  0.42655  0.93856  1.0000
  H   H337      1.0  0.42083  0.11943  0.77753  1.0000
  C   C283      1.0  0.02356  0.39509  0.79660  1.0000
  C   C284      1.0  0.38529  0.09683  0.99132  1.0000
  C   C285      1.0  0.13011  0.40673  0.95759  1.0000
  H   H338      1.0  0.08207  0.47430  0.90084  1.0000
  C   C286      1.0  0.39351  0.13476  0.92555  1.0000
  C   C287      1.0  0.41261  0.12287  0.93364  1.0000
  C   C288      1.0  0.42059  0.13003  0.95028  1.0000
  C   C289      1.0  0.40969  0.14915  0.95909  1.0000
  C   C290      1.0  0.39034  0.16082  0.95122  1.0000
  C   C291      1.0  0.38235  0.15367  0.93452  1.0000
  H   H339      1.0  0.42123  0.10811  0.92711  1.0000
  H   H340      1.0  0.43540  0.12067  0.95632  1.0000
  H   H341      1.0  0.38179  0.17560  0.95779  1.0000
  H   H342      1.0  0.36754  0.16298  0.92841  1.0000
  H   H343      1.0  0.46144  0.14868  0.86349  1.0000
  H   H344      1.0  0.07858  0.35630  0.77893  1.0000
  C   C292      1.0  0.02882  0.45606  0.87173  1.0000
  H   H345      1.0  0.45820  0.18677  0.87605  1.0000
  H   H346      1.0  0.06339  0.45202  0.89695  1.0000
  H   H347      1.0  0.12955  0.44299  0.94901  1.0000
  C   C293      1.0  0.50003  0.08914  0.86269  1.0000
  N   N17       1.0  0.05959  0.38960  0.77496  1.0000
  H   H348      1.0  0.09442  0.44229  0.93124  1.0000
  C   C294      1.0  0.37939  0.06967  0.78431  1.0000
  C   C295      1.0  0.38784  0.07879  0.80000  1.0000
  C   C296      1.0  0.40323  0.09641  0.79742  1.0000
  H   H349      1.0  0.39927  0.02670  0.79845  1.0000
  H   H350      1.0  0.36722  0.05628  0.78617  1.0000
  H   H351      1.0  0.40970  0.10371  0.80937  1.0000
  H   H352      1.0  0.14570  0.40702  0.96518  1.0000
  C   C297      1.0  0.14216  0.48780  0.86881  1.0000
  H   H353      1.0  0.50032  0.10294  0.80913  1.0000
  C   C298      1.0  0.04722  0.38740  0.79346  1.0000
  C   C299      1.0  0.14502  0.39340  0.78433  1.0000
  C   C300      1.0  0.09906  0.38486  0.94690  1.0000
  C   C301      1.0  0.11944  0.38593  0.95674  1.0000
  C   C302      1.0  0.12105  0.42698  0.94848  1.0000
  H   H354      1.0  0.09647  0.32849  0.93646  1.0000
  H   H355      1.0  0.12022  0.34138  0.94545  1.0000
  H   H356      1.0  0.16826  0.30022  0.79439  1.0000
  H   H357      1.0  0.45809  0.19020  0.90047  1.0000
  H   H358      1.0  0.40709  0.06477  0.99525  1.0000
  C   C303      1.0  0.46596  0.15458  0.92733  1.0000
  H   H359      1.0  0.09288  0.39476  0.78569  1.0000
  H   H360      1.0  0.12752  0.37062  0.96368  1.0000
  H   H361      1.0  0.42776  0.15751  0.88205  1.0000
  H   H362      1.0  0.05839  0.34758  0.93611  1.0000
  S   S95       1.0  0.25695  0.37880  0.01517  1.0000
  H   H363      1.0  0.46814  0.12355  0.87824  1.0000
  H   H364      1.0  0.04116  0.44128  0.87289  1.0000
  H   H365      1.0  0.37870  0.07463  0.94178  1.0000
  C   C304      1.0  0.09024  0.40588  0.93775  1.0000
  H   H366      1.0  0.45178  0.16765  0.92848  1.0000
  H   H367      1.0  0.09706  0.34962  0.97407  1.0000
  N   N18       1.0  0.05949  0.48269  0.87831  1.0000
  C   C305      1.0  0.08013  0.40328  0.77609  1.0000
  H   H368      1.0  0.48946  0.14464  0.87268  1.0000
  C   C306      1.0  0.49021  0.09561  0.78191  1.0000
  C   C307      1.0  0.17630  0.47176  0.94411  1.0000
  C   C308      1.0  0.13206  0.50485  0.88016  1.0000
  C   C309      1.0  0.18749  0.46182  0.95955  1.0000
  C   C310      1.0  0.18110  0.33345  0.79768  1.0000
  H   H369      1.0  0.17034  0.46074  0.93403  1.0000
  C   C311      1.0  0.46595  0.17960  0.88915  1.0000
  H   H370      1.0  0.47249  0.10177  0.78517  1.0000
  C   C312      1.0  0.12611  0.49915  0.89885  1.0000
  C   C313      1.0  0.02494  0.38424  0.82952  1.0000
  C   C314      1.0  0.49223  0.12859  0.90997  1.0000
  H   H371      1.0  0.02857  0.33301  0.86810  1.0000
  H   H372      1.0  0.07016  0.36687  0.97308  1.0000
  C   C315      1.0  0.00604  0.45179  0.86839  1.0000
  H   H373      1.0  0.10995  0.35175  0.92335  1.0000
  H   H374      1.0  0.38764  0.00730  0.84637  1.0000
  C   C316      1.0  0.41339  0.10595  0.01306  1.0000
  H   H375      1.0  0.40294  0.05147  0.96423  1.0000
  N   N19       1.0  0.46205  0.15466  0.89278  1.0000
  H   H376      1.0  0.20463  0.46811  0.98413  1.0000
  C   C317      1.0  0.01776  0.49711  0.87243  1.0000
  N   N20       1.0  0.26015  0.33457  0.96942  1.0000
  C   C318      1.0  0.27953  0.31641  0.97010  1.0000
  C   C319      1.0  0.27024  0.35734  0.97034  1.0000
  C   C320      1.0  0.24456  0.33104  0.98617  1.0000
  C   C321      1.0  0.24694  0.33294  0.95264  1.0000
  C   C322      1.0  0.23762  0.31173  0.94903  1.0000
  C   C323      1.0  0.24214  0.35223  0.93988  1.0000
  C   C324      1.0  0.22469  0.30986  0.93349  1.0000
  C   C325      1.0  0.22932  0.35011  0.92433  1.0000
  C   C326      1.0  0.22062  0.32900  0.92114  1.0000
  H   H377      1.0  0.29109  0.31769  0.95729  1.0000
  H   H378      1.0  0.29026  0.31790  0.98228  1.0000
  H   H379      1.0  0.27347  0.29859  0.97171  1.0000
  H   H380      1.0  0.28176  0.36137  0.95787  1.0000
  H   H381      1.0  0.28092  0.35767  0.98265  1.0000
  H   H382      1.0  0.25651  0.37170  0.97171  1.0000
  H   H383      1.0  0.23734  0.31370  0.98724  1.0000
  H   H384      1.0  0.25377  0.33235  0.99910  1.0000
  H   H385      1.0  0.22976  0.34431  0.98621  1.0000
  H   H386      1.0  0.23984  0.29654  0.95843  1.0000
  H   H387      1.0  0.24754  0.36934  0.94182  1.0000
  H   H388      1.0  0.21736  0.29365  0.93117  1.0000
  H   H389      1.0  0.22537  0.36515  0.91501  1.0000
  H   H390      1.0  0.21001  0.32772  0.90940  1.0000
  C   C327      1.0  0.19263  0.50012  0.96968  1.0000
  H   H391      1.0  0.38402  0.14153  0.00257  1.0000
  H   H392      1.0  0.12613  0.47215  0.92075  1.0000
  C   C328      1.0  0.47339  0.14573  0.90995  1.0000
  C   C329      1.0  0.47077  0.14240  0.87612  1.0000
  H   H393      1.0  0.36235  0.12605  0.98072  1.0000
  H   H394      1.0  0.19010  0.44311  0.96166  1.0000
  H   H395      1.0  0.48480  0.18238  0.88790  1.0000
  H   H396      1.0  0.14652  0.49221  0.85429  1.0000
  H   H397      1.0  0.07230  0.47967  0.84994  1.0000
  C   C330      1.0  0.07618  0.47256  0.86419  1.0000
  C   C331      1.0  0.39634  0.07546  0.98591  1.0000
  C   C332      1.0  0.37712  0.12834  0.01294  1.0000
  C   C333      1.0  0.19030  0.35304  0.78874  1.0000
  C   C334      1.0  0.49561  0.07544  0.87902  1.0000
  H   H398      1.0  0.37544  0.01789  0.82507  1.0000
  C   C335      1.0  0.43679  0.15190  0.89495  1.0000
  H   H399      1.0  0.09433  0.47626  0.86663  1.0000
  H   H400      1.0  0.42197  0.11673  0.00171  1.0000
  H   H401      1.0  0.24360  0.44798  0.01332  1.0000
  C   C336      1.0  0.37120  0.10946  0.97812  1.0000
  C   C337      1.0  0.01469  0.39206  0.88998  1.0000
  C   C338      1.0  0.36868  0.10123  0.96061  1.0000
  C   C339      1.0  0.40242  0.01035  0.79204  1.0000
  C   C340      1.0  0.06656  0.36445  0.93592  1.0000
  H   H402      1.0  0.15341  0.40959  0.78298  1.0000
  H   H403      1.0  0.46993  0.15319  0.95687  1.0000
  H   H404      1.0  0.35832  0.11138  0.95056  1.0000
  C   C341      1.0  0.47637  0.14648  0.94372  1.0000
  C   C342      1.0  0.06438  0.47118  0.89675  1.0000
  H   H405      1.0  0.23870  0.48752  0.99780  1.0000
  C   C343      1.0  0.10430  0.34531  0.93764  1.0000
  C   C344      1.0  0.05898  0.37755  0.80913  1.0000
  C   C345      1.0  0.04797  0.37610  0.82685  1.0000
  H   H406      1.0  0.07509  0.42078  0.78110  1.0000
  N   N21       1.0  0.08793  0.36262  0.94648  1.0000
  H   H407      1.0  0.07515  0.40677  0.92958  1.0000
  H   H408      1.0  0.35802  0.12866  0.01211  1.0000
  C   C346      1.0  0.03543  0.47884  0.87393  1.0000
  H   H409      1.0  0.47917  0.06800  0.88160  1.0000
  H   H410      1.0  0.07239  0.33755  0.96593  1.0000
  H   H411      1.0  0.01655  0.38335  0.84333  1.0000
  H   H412      1.0  0.07693  0.37105  0.80790  1.0000
  H   H413      1.0  0.05749  0.36880  0.83862  1.0000
  C   C347      1.0  0.08163  0.35380  0.96572  1.0000
  H   H414      1.0  0.43329  0.13340  0.89827  1.0000
  C   C348      1.0  0.40957  0.10525  0.77935  1.0000
  H   H415      1.0  0.07041  0.36954  0.92101  1.0000
  C   C349      1.0  0.38019  0.08049  0.95562  1.0000
  S   S96       1.0  0.42701  0.01473  0.89625  1.0000
  C   C350      1.0  0.19566  0.47596  0.97226  1.0000
  H   H416      1.0  0.05182  0.47775  0.90772  1.0000
  H   H417      1.0  0.07621  0.45333  0.86442  1.0000
  H   H418      1.0  0.45118  0.07863  0.76989  1.0000
  H   H419      1.0  0.19363  0.36749  0.79682  1.0000
  C   C351      1.0  0.49457  0.12947  0.94328  1.0000
  H   H420      1.0  0.01303  0.40248  0.78557  1.0000
  C   C352      1.0  0.00800  0.32008  0.79342  1.0000
  H   H421      1.0  0.01851  0.31228  0.80432  1.0000
  C   C353      1.0  0.12920  0.36164  0.77024  1.0000
  C   C354      1.0  0.39133  0.00927  0.83108  1.0000
  C   C355      1.0  0.01275  0.39363  0.81443  1.0000
  H   H422      1.0  0.50240  0.12306  0.95604  1.0000
  H   H423      1.0  0.49931  0.12089  0.89749  1.0000
  C   C356      1.0  0.19422  0.35458  0.76942  1.0000
  C   C357      1.0  0.01871  0.32193  0.77556  1.0000
  N   N22       1.0  0.38838  0.10493  0.01003  1.0000
  H   H424      1.0  0.03653  0.31538  0.77321  1.0000
  H   H425      1.0  0.48867  0.23586  0.01718  1.0000
  C   C358      1.0  0.17588  0.31520  0.78735  1.0000
  C   C359      1.0  0.50254  0.12062  0.92644  1.0000
  H   H426      1.0  0.42281  0.08860  0.01361  1.0000
  C   C360      1.0  0.06741  0.36626  0.76885  1.0000
  C   C361      1.0  0.13989  0.38266  0.76831  1.0000
  Fe  Fe49      1.0  0.39881  0.87912  0.21482  1.0000
  S   S97       1.0  0.43066  0.89850  0.20914  1.0000
  S   S98       1.0  0.38053  0.89098  0.24153  1.0000
  Fe  Fe50      1.0  0.40870  0.85113  0.17983  1.0000
  S   S99       1.0  0.44166  0.86837  0.17269  1.0000
  S   S100      1.0  0.40205  0.82092  0.16224  1.0000
  Fe  Fe51      1.0  0.44783  0.86407  0.20299  1.0000
  S   S101      1.0  0.48239  0.85465  0.21477  1.0000
  Fe  Fe52      1.0  0.42125  0.90123  0.17959  1.0000
  S   S102      1.0  0.42816  0.93405  0.16241  1.0000
  S   S103      1.0  0.41666  0.84408  0.21016  1.0000
  S   S104      1.0  0.38749  0.88462  0.18518  1.0000
  Fe  Fe53      1.0  0.13502  0.58470  0.21670  1.0000
  S   S105      1.0  0.10894  0.55866  0.21334  1.0000
  S   S106      1.0  0.15112  0.58635  0.24465  1.0000
  Fe  Fe54      1.0  0.13457  0.60180  0.17501  1.0000
  S   S107      1.0  0.10753  0.57770  0.16915  1.0000
  S   S108      1.0  0.14763  0.62631  0.15133  1.0000
  Fe  Fe55      1.0  0.09038  0.58743  0.19646  1.0000
  S   S109      1.0  0.05284  0.59673  0.20436  1.0000
  Fe  Fe56      1.0  0.12867  0.55168  0.18645  1.0000
  C   C362      1.0  0.16427  0.52762  0.23730  1.0000
  S   S110      1.0  0.11555  0.61401  0.20115  1.0000
  S   S111      1.0  0.15670  0.57511  0.19100  1.0000
  Fe  Fe57      1.0  0.22137  0.59508  0.05512  1.0000
  S   S112      1.0  0.25802  0.58360  0.04569  1.0000
  S   S113      1.0  0.21190  0.58415  0.08542  1.0000
  H   H427      1.0  0.34748  0.99216  0.25406  1.0000
  C   C363      1.0  0.25422  0.63287  0.07780  1.0000
  H   H428      1.0  0.04674  0.64785  0.13273  1.0000
  H   H429      1.0  0.09337  0.66000  0.18486  1.0000
  C   C364      1.0  0.45992  0.89549  0.10094  1.0000
  C   C365      1.0  0.34374  0.81153  0.14241  1.0000
  Fe  Fe58      1.0  0.39548  0.78909  0.05357  1.0000
  S   S114      1.0  0.40051  0.75024  0.05699  1.0000
  S   S115      1.0  0.39104  0.81687  0.07496  1.0000
  H   H430      1.0  0.35729  0.74654  0.07928  1.0000
  C   C366      1.0  0.48748  0.74676  0.02593  1.0000
  H   H431      1.0  0.06931  0.69059  0.15410  1.0000
  H   H432      1.0  0.21706  0.66563  0.13515  1.0000
  C   C367      1.0  0.30594  0.69777  0.04810  1.0000
  H   H433      1.0  0.46322  0.91069  0.10890  1.0000
  H   H434      1.0  0.26032  0.51712  0.04639  1.0000
  C   C368      1.0  0.48899  0.83787  0.14908  1.0000
  H   H435      1.0  0.29596  0.63067  0.10908  1.0000
  H   H436      1.0  0.27830  0.67413  0.05116  1.0000
  H   H437      1.0  0.06637  0.67654  0.18794  1.0000
  H   H438      1.0  0.09712  0.67454  0.15351  1.0000
  Fe  Fe59      1.0  0.42599  0.75333  0.03235  1.0000
  C   C369      1.0  0.25043  0.62491  0.11112  1.0000
  C   C370      1.0  0.50271  0.87033  0.20129  1.0000
  H   H439      1.0  0.49678  0.89490  0.24258  1.0000
  C   C371      1.0  0.01062  0.52319  0.17148  1.0000
  H   H440      1.0  0.23806  0.62391  0.07656  1.0000
  C   C372      1.0  0.11055  0.59858  0.26494  1.0000
  H   H441      1.0  0.36974  0.97571  0.20181  1.0000
  H   H442      1.0  0.36227  0.74462  0.10341  1.0000
  H   H443      1.0  0.03107  0.65946  0.19119  1.0000
  H   H444      1.0  0.29915  0.70785  0.05951  1.0000
  C   C373      1.0  0.16400  0.61426  0.13231  1.0000
  C   C374      1.0  0.17020  0.62856  0.11654  1.0000
  C   C375      1.0  0.18413  0.61953  0.10165  1.0000
  C   C376      1.0  0.19218  0.59614  0.10253  1.0000
  C   C377      1.0  0.18577  0.58187  0.11822  1.0000
  C   C378      1.0  0.17164  0.59079  0.13294  1.0000
  H   H445      1.0  0.16443  0.64674  0.11593  1.0000
  H   H446      1.0  0.18905  0.63076  0.08975  1.0000
  H   H447      1.0  0.19198  0.56380  0.11910  1.0000
  H   H448      1.0  0.16704  0.57956  0.14495  1.0000
  C   C379      1.0  0.03426  0.59020  0.17073  1.0000
  C   C380      1.0  0.03024  0.59602  0.18919  1.0000
  Fe  Fe60      1.0  0.24156  0.56753  0.02253  1.0000
  H   H449      1.0  0.05162  0.58538  0.16546  1.0000
  Fe  Fe61      1.0  0.37319  0.74896  0.03590  1.0000
  H   H450      1.0  0.48649  0.82295  0.15870  1.0000
  H   H451      1.0  0.24949  0.58763  0.11915  1.0000
  C   C381      1.0  0.48172  0.79896  0.09779  1.0000
  H   H452      1.0  0.20585  0.63053  0.15383  1.0000
  H   H453      1.0  0.28196  0.65568  0.09736  1.0000
  C   C382      1.0  0.41470  0.95890  0.17227  1.0000
  C   C383      1.0  0.42307  0.98073  0.16739  1.0000
  C   C384      1.0  0.15264  0.51011  0.23019  1.0000
  C   C385      1.0  0.38489  0.97714  0.19251  1.0000
  C   C386      1.0  0.39572  0.95711  0.18500  1.0000
  H   H454      1.0  0.43777  0.98221  0.15759  1.0000
  C   C387      1.0  0.00756  0.60170  0.19594  1.0000
  H   H455      1.0  0.38901  0.94036  0.18871  1.0000
  C   C388      1.0  0.40057  0.82049  0.13773  1.0000
  C   C389      1.0  0.40554  0.79942  0.12917  1.0000
  C   C390      1.0  0.40318  0.79797  0.10993  1.0000
  C   C391      1.0  0.39548  0.81758  0.09907  1.0000
  C   C392      1.0  0.39068  0.83868  0.10761  1.0000
  C   C393      1.0  0.39317  0.84014  0.12680  1.0000
  H   H456      1.0  0.41097  0.78403  0.13754  1.0000
  H   H457      1.0  0.40700  0.78162  0.10363  1.0000
  H   H458      1.0  0.38445  0.85390  0.09939  1.0000
  H   H459      1.0  0.38847  0.85625  0.13328  1.0000
  H   H460      1.0  0.07679  0.66991  0.13686  1.0000
  C   C394      1.0  0.28676  0.63688  0.09639  1.0000
  H   H461      1.0  0.47712  0.89166  0.18636  1.0000
  N   N23       1.0  0.45438  0.87509  0.11356  1.0000
  H   H462      1.0  0.43377  0.86307  0.09250  1.0000
  C   C395      1.0  0.43414  0.88229  0.12580  1.0000
  C   C396      1.0  0.47472  0.97824  0.19123  1.0000
  C   C397      1.0  0.47372  0.86616  0.12518  1.0000
  H   H463      1.0  0.44305  0.92735  0.26184  1.0000
  H   H464      1.0  0.45599  0.83654  0.13802  1.0000
  C   C398      1.0  0.41281  0.00063  0.17549  1.0000
  H   H465      1.0  0.40442  0.98688  0.22679  1.0000
  H   H466      1.0  0.18021  0.53924  0.26078  1.0000
  H   H467      1.0  0.46282  0.85004  0.09304  1.0000
  H   H468      1.0  0.48131  0.94207  0.18663  1.0000
  C   C399      1.0  0.47829  0.78146  0.06877  1.0000
  H   H469      1.0  0.42803  0.86762  0.13503  1.0000
  H   H470      1.0  0.41913  0.88929  0.11774  1.0000
  H   H471      1.0  0.43840  0.89602  0.13497  1.0000
  S   S116      1.0  0.36715  0.78810  0.03364  1.0000
  H   H472      1.0  0.48072  0.92304  0.24215  1.0000
  H   H473      1.0  0.00433  0.60620  0.21020  1.0000
  N   N24       1.0  0.46724  0.89740  0.26223  1.0000
  C   C400      1.0  0.49450  0.87775  0.12575  1.0000
  H   H474      1.0  0.43433  0.90359  0.24950  1.0000
  C   C401      1.0  0.47927  0.90397  0.24412  1.0000
  C   C402      1.0  0.40498  0.98966  0.24188  1.0000
  S   S117      1.0  0.22148  0.62962  0.03853  1.0000
  H   H475      1.0  0.41008  0.84957  0.25041  1.0000
  C   C403      1.0  0.13443  0.59329  0.26512  1.0000
  C   C404      1.0  0.49618  0.81415  0.26342  1.0000
  C   C405      1.0  0.50212  0.78233  0.06488  1.0000
  C   C406      1.0  0.33478  0.69087  0.02337  1.0000
  C   C407      1.0  0.22815  0.60733  0.13773  1.0000
  H   H476      1.0  0.09921  0.63200  0.16171  1.0000
  C   C408      1.0  0.21864  0.62908  0.14233  1.0000
  S   S118      1.0  0.20532  0.57722  0.03285  1.0000
  C   C409      1.0  0.29403  0.67855  0.04340  1.0000
  H   H477      1.0  0.09062  0.52176  0.18559  1.0000
  N   N25       1.0  0.38390  0.98197  0.25250  1.0000
  H   H478      1.0  0.06863  0.64558  0.19395  1.0000
  H   H479      1.0  0.22263  0.59198  0.14571  1.0000
  C   C410      1.0  0.34329  0.77452  0.12874  1.0000
  N   N26       1.0  0.26638  0.62328  0.09440  1.0000
  C   C411      1.0  0.27515  0.59915  0.09086  1.0000
  C   C412      1.0  0.34608  0.78741  0.14408  1.0000
  H   H480      1.0  0.34657  0.82146  0.15422  1.0000
  H   H481      1.0  0.28711  0.59848  0.07825  1.0000
  C   C413      1.0  0.24371  0.60512  0.12233  1.0000
  C   C414      1.0  0.46808  0.78985  0.08514  1.0000
  H   H482      1.0  0.10192  0.59853  0.25204  1.0000
  H   H483      1.0  0.18532  0.51436  0.11435  1.0000
  C   C415      1.0  0.46629  0.87186  0.26355  1.0000
  H   H484      1.0  0.02715  0.56082  0.22715  1.0000
  H   H485      1.0  0.26075  0.58815  0.08834  1.0000
  N   N27       1.0  0.33630  0.77142  0.09493  1.0000
  C   C416      1.0  0.33163  0.78547  0.07741  1.0000
  C   C417      1.0  0.35813  0.75710  0.09156  1.0000
  C   C418      1.0  0.31717  0.75578  0.09873  1.0000
  C   C419      1.0  0.33842  0.78551  0.11109  1.0000
  C   C420      1.0  0.33613  0.81018  0.10987  1.0000
  H   H486      1.0  0.35057  0.77875  0.15729  1.0000
  C   C421      1.0  0.33861  0.82286  0.12539  1.0000
  H   H487      1.0  0.34544  0.75587  0.13075  1.0000
  C   C422      1.0  0.01134  0.64987  0.14213  1.0000
  H   H488      1.0  0.34584  0.79707  0.07334  1.0000
  H   H489      1.0  0.33037  0.77430  0.06553  1.0000
  H   H490      1.0  0.31500  0.79618  0.07862  1.0000
  H   H491      1.0  0.37296  0.76832  0.08898  1.0000
  H   H492      1.0  0.30053  0.76587  0.10191  1.0000
  H   H493      1.0  0.31480  0.74541  0.08654  1.0000
  H   H494      1.0  0.32038  0.74307  0.11065  1.0000
  H   H495      1.0  0.33303  0.82016  0.09700  1.0000
  H   H496      1.0  0.42084  0.98010  0.24709  1.0000
  H   H497      1.0  0.33736  0.84166  0.12409  1.0000
  H   H498      1.0  0.45733  0.86568  0.25171  1.0000
  Fe  Fe62      1.0  0.25734  0.61739  0.02799  1.0000
  N   N28       1.0  0.06851  0.65499  0.16452  1.0000
  C   C423      1.0  0.08022  0.63234  0.16006  1.0000
  C   C424      1.0  0.07827  0.67333  0.15170  1.0000
  C   C425      1.0  0.07434  0.65955  0.18366  1.0000
  C   C426      1.0  0.04333  0.65449  0.16223  1.0000
  C   C427      1.0  0.03499  0.65069  0.14463  1.0000
  C   C428      1.0  0.02649  0.65733  0.17715  1.0000
  H   H499      1.0  0.46771  0.77393  0.05910  1.0000
  C   C429      1.0  0.32644  0.70416  0.03816  1.0000
  S   S119      1.0  0.42287  0.79204  0.03048  1.0000
  H   H500      1.0  0.07335  0.61817  0.16944  1.0000
  H   H501      1.0  0.07805  0.62795  0.14555  1.0000
  H   H502      1.0  0.01885  0.58688  0.14457  1.0000
  C   C430      1.0  0.38077  0.95777  0.24781  1.0000
  S   S120      1.0  0.46132  0.73373  0.03279  1.0000
  C   C431      1.0  0.48887  0.95866  0.18704  1.0000
  H   H503      1.0  0.26515  0.63079  0.06473  1.0000
  H   H504      1.0  0.16774  0.54319  0.22866  1.0000
  C   C432      1.0  0.36364  0.99673  0.24602  1.0000
  C   C433      1.0  0.24060  0.64685  0.11635  1.0000
  S   S121      1.0  0.13998  0.51700  0.17587  1.0000
  H   H505      1.0  0.46986  0.89875  0.23222  1.0000
  C   C434      1.0  0.47163  0.84581  0.13709  1.0000
  H   H506      1.0  0.29936  0.63548  0.08419  1.0000
  H   H507      1.0  0.44526  0.90134  0.09207  1.0000
  H   H508      1.0  0.24917  0.65167  0.07832  1.0000
  H   H509      1.0  0.24458  0.66262  0.10836  1.0000
  H   H510      1.0  0.02667  0.54280  0.19801  1.0000
  S   S122      1.0  0.34066  0.72879  0.04489  1.0000
  H   H511      1.0  0.44960  0.78900  0.08808  1.0000
  H   H512      1.0  0.37964  0.95636  0.23258  1.0000
  H   H513      1.0  0.28487  0.59091  0.10268  1.0000
  C   C435      1.0  0.22489  0.64881  0.13169  1.0000
  H   H514      1.0  0.49762  0.89357  0.11753  1.0000
  S   S123      1.0  0.28816  0.64073  0.02179  1.0000
  C   C436      1.0  0.30241  0.66526  0.02861  1.0000
  H   H515      1.0  0.48399  0.86315  0.26329  1.0000
  C   C437      1.0  0.01568  0.59087  0.15896  1.0000
  C   C438      1.0  0.01094  0.54277  0.20675  1.0000
  H   H516      1.0  0.45634  0.97684  0.19422  1.0000
  H   H517      1.0  0.39549  0.94563  0.25211  1.0000
  H   H518      1.0  0.36443  0.95123  0.25436  1.0000
  C   C439      1.0  0.32287  0.67166  0.01867  1.0000
  C   C440      1.0  0.44324  0.90812  0.26191  1.0000
  C   C441      1.0  0.17137  0.52536  0.25545  1.0000
  C   C442      1.0  0.01149  0.55324  0.22361  1.0000
  H   H519      1.0  0.44087  0.84167  0.11024  1.0000
  C   C443      1.0  0.39105  0.87845  0.26269  1.0000
  H   H520      1.0  0.49481  0.80916  0.24931  1.0000
  H   H521      1.0  0.01536  0.54133  0.16790  1.0000
  H   H522      1.0  0.47379  0.80493  0.11073  1.0000
  C   C444      1.0  0.40555  0.85811  0.26309  1.0000
  C   C445      1.0  0.49531  0.88737  0.18790  1.0000
  H   H523      1.0  0.47523  0.89142  0.09143  1.0000
  C   C446      1.0  0.44778  0.85668  0.10187  1.0000
  H   H524      1.0  0.36101  0.99488  0.23103  1.0000
  H   H525      1.0  0.14780  0.51314  0.21596  1.0000
  C   C447      1.0  0.39354  0.99893  0.18794  1.0000
  H   H526      1.0  0.00535  0.64618  0.12875  1.0000
  C   C448      1.0  0.48416  0.99970  0.19121  1.0000
  H   H527      1.0  0.00884  0.51518  0.15807  1.0000
  H   H528      1.0  0.02531  0.51334  0.17829  1.0000
  Fe  Fe63      1.0  0.40472  0.86472  0.38661  1.0000
  S   S124      1.0  0.41554  0.90095  0.38768  1.0000
  S   S125      1.0  0.39548  0.84543  0.41432  1.0000
  Fe  Fe64      1.0  0.41360  0.86519  0.34416  1.0000
  S   S126      1.0  0.42410  0.90158  0.34227  1.0000
  S   S127      1.0  0.41925  0.84644  0.31749  1.0000
  Fe  Fe65      1.0  0.44449  0.89115  0.36720  1.0000
  S   S128      1.0  0.47890  0.90738  0.36555  1.0000
  Fe  Fe66      1.0  0.39451  0.90835  0.36263  1.0000
  S   S129      1.0  0.37330  0.94203  0.35956  1.0000
  S   S130      1.0  0.43599  0.85391  0.36808  1.0000
  S   S131      1.0  0.38155  0.87269  0.36262  1.0000
  Fe  Fe67      1.0  0.07544  0.59854  0.38563  1.0000
  S   S132      1.0  0.08561  0.63119  0.37013  1.0000
  S   S133      1.0  0.04085  0.59891  0.40083  1.0000
  Fe  Fe68      1.0  0.12189  0.57343  0.37801  1.0000
  S   S134      1.0  0.13644  0.60439  0.36219  1.0000
  S   S135      1.0  0.14340  0.53980  0.38250  1.0000
  Fe  Fe69      1.0  0.11841  0.62466  0.38531  1.0000
  S   S136      1.0  0.13218  0.65425  0.39975  1.0000
  Fe  Fe70      1.0  0.10227  0.60802  0.34852  1.0000
  S   S137      1.0  0.09179  0.61189  0.31850  1.0000
  S   S138      1.0  0.10697  0.59322  0.40201  1.0000
  S   S139      1.0  0.08901  0.57588  0.36304  1.0000
  H   H529      1.0  0.09437  0.53343  0.38207  1.0000
  S   S140      1.0  0.31631  0.88050  0.47300  1.0000
  H   H530      1.0  0.04841  0.67753  0.41181  1.0000
  H   H531      1.0  0.25341  0.81925  0.44299  1.0000
  S   S141      1.0  0.12845  0.66056  0.48769  1.0000
  C   C449      1.0  0.47885  0.84337  0.32824  1.0000
  H   H532      1.0  0.08935  0.53051  0.34069  1.0000
  H   H533      1.0  0.08118  0.52484  0.31761  1.0000
  H   H534      1.0  0.16785  0.58167  0.39488  1.0000
  N   N29       1.0  0.17492  0.58476  0.42372  1.0000
  C   C450      1.0  0.10881  0.60473  0.29824  1.0000
  C   C451      1.0  0.09786  0.60434  0.28139  1.0000
  C   C452      1.0  0.13266  0.59918  0.29850  1.0000
  H   H535      1.0  0.07945  0.60869  0.28099  1.0000
  H   H536      1.0  0.14138  0.59973  0.31129  1.0000
  C   C453      1.0  0.12746  0.66045  0.46319  1.0000
  C   C454      1.0  0.12233  0.63979  0.45555  1.0000
  C   C455      1.0  0.12287  0.63802  0.43619  1.0000
  C   C456      1.0  0.12893  0.65677  0.42416  1.0000
  C   C457      1.0  0.13363  0.67762  0.43175  1.0000
  C   C458      1.0  0.13273  0.67954  0.45119  1.0000
  H   H537      1.0  0.11841  0.62489  0.46473  1.0000
  H   H538      1.0  0.11934  0.62190  0.43064  1.0000
  H   H539      1.0  0.13838  0.69225  0.42258  1.0000
  H   H540      1.0  0.13680  0.69551  0.45687  1.0000
  H   H541      1.0  0.44410  0.96952  0.38100  1.0000
  H   H542      1.0  0.12290  0.56495  0.32883  1.0000
  H   H543      1.0  0.46765  0.82865  0.33161  1.0000
  C   C459      1.0  0.02359  0.57857  0.39282  1.0000
  C   C460      1.0  0.03359  0.55890  0.38444  1.0000
  C   C461      1.0  0.01953  0.54385  0.37657  1.0000
  C   C462      1.0  0.19590  0.56868  0.42274  1.0000
  H   H544      1.0  0.05207  0.55516  0.38417  1.0000
  C   C463      1.0  0.40792  0.85910  0.29668  1.0000
  C   C464      1.0  0.18216  0.63523  0.46418  1.0000
  H   H545      1.0  0.48930  0.85860  0.37672  1.0000
  H   H546      1.0  0.04459  0.53294  0.42919  1.0000
  N   N30       1.0  0.01771  0.60981  0.32937  1.0000
  H   H547      1.0  0.30557  0.98176  0.50259  1.0000
  H   H548      1.0  0.48866  0.95863  0.36672  1.0000
  C   C465      1.0  0.29450  0.98034  0.51509  1.0000
  H   H549      1.0  0.15596  0.60791  0.40458  1.0000
  C   C466      1.0  0.11975  0.53803  0.29947  1.0000
  C   C467      1.0  0.37352  0.85547  0.43057  1.0000
  C   C468      1.0  0.35460  0.87001  0.42496  1.0000
  C   C469      1.0  0.33706  0.87703  0.43813  1.0000
  C   C470      1.0  0.33843  0.87004  0.45708  1.0000
  C   C471      1.0  0.35728  0.85539  0.46270  1.0000
  C   C472      1.0  0.37460  0.84797  0.44945  1.0000
  H   H550      1.0  0.35327  0.87546  0.41042  1.0000
  H   H551      1.0  0.32232  0.88801  0.43360  1.0000
  H   H552      1.0  0.35856  0.84981  0.47721  1.0000
  H   H553      1.0  0.38906  0.83653  0.45389  1.0000
  H   H554      1.0  0.48082  0.85092  0.34180  1.0000
  H   H555      1.0  0.18350  0.66047  0.44110  1.0000
  C   C473      1.0  0.42633  0.97418  0.37779  1.0000
  C   C474      1.0  0.41356  0.95822  0.36972  1.0000
  C   C475      1.0  0.39023  0.96355  0.36636  1.0000
  C   C476      1.0  0.38010  0.98554  0.36988  1.0000
  C   C477      1.0  0.18043  0.62610  0.43205  1.0000
  H   H556      1.0  0.42185  0.94171  0.36630  1.0000
  C   C478      1.0  0.49943  0.82848  0.30004  1.0000
  C   C479      1.0  0.27782  0.82319  0.42008  1.0000
  C   C480      1.0  0.41362  0.84832  0.28004  1.0000
  H   H557      1.0  0.08024  0.66999  0.44476  1.0000
  H   H558      1.0  0.46915  0.85673  0.31943  1.0000
  H   H559      1.0  0.17729  0.57774  0.46167  1.0000
  H   H560      1.0  0.30579  0.82721  0.39945  1.0000
  C   C481      1.0  0.33110  0.98920  0.44731  1.0000
  C   C482      1.0  0.32049  0.95221  0.46123  1.0000
  C   C483      1.0  0.47686  0.81434  0.27579  1.0000
  C   C484      1.0  0.39308  0.00177  0.37752  1.0000
  C   C485      1.0  0.38582  0.96879  0.30516  1.0000
  H   H561      1.0  0.16388  0.58959  0.28224  1.0000
  H   H562      1.0  0.30294  0.98485  0.46774  1.0000
  H   H563      1.0  0.05638  0.69103  0.44315  1.0000
  H   H564      1.0  0.04903  0.61913  0.43581  1.0000
  C   C486      1.0  0.13030  0.54667  0.33001  1.0000
  C   C487      1.0  0.06116  0.67261  0.44752  1.0000
  H   H565      1.0  0.01814  0.57894  0.31407  1.0000
  C   C488      1.0  0.05629  0.63244  0.44383  1.0000
  C   C489      1.0  0.47875  0.90460  0.27852  1.0000
  C   C490      1.0  0.30098  0.82455  0.41412  1.0000
  H   H566      1.0  0.02724  0.52873  0.36997  1.0000
  C   C491      1.0  0.39373  0.87968  0.29629  1.0000
  C   C492      1.0  0.38397  0.96567  0.28624  1.0000
  C   C493      1.0  0.10369  0.51687  0.38066  1.0000
  H   H567      1.0  0.38068  0.94840  0.28271  1.0000
  H   H568      1.0  0.26093  0.83357  0.49334  1.0000
  H   H569      1.0  0.42427  0.83224  0.28026  1.0000
  S   S142      1.0  0.27194  0.87447  0.51333  1.0000
  C   C494      1.0  0.18033  0.61195  0.46978  1.0000
  H   H570      1.0  0.47038  0.90596  0.32600  1.0000
  H   H571      1.0  0.35887  0.98920  0.42706  1.0000
  C   C495      1.0  0.38977  0.99051  0.31109  1.0000
  H   H572      1.0  0.29335  0.94316  0.51456  1.0000
  H   H573      1.0  0.18004  0.63301  0.41781  1.0000
  C   C496      1.0  0.09235  0.53506  0.32554  1.0000
  H   H574      1.0  0.07543  0.62955  0.44219  1.0000
  H   H575      1.0  0.13817  0.53860  0.29439  1.0000
  Fe  Fe71      1.0  0.13021  0.68817  0.50884  1.0000
  H   H576      1.0  0.17984  0.60670  0.48449  1.0000
  H   H577      1.0  0.19913  0.55928  0.43637  1.0000
  C   C497      1.0  0.31694  0.97627  0.45963  1.0000
  H   H578      1.0  0.46268  0.82099  0.30271  1.0000
  H   H579      1.0  0.04803  0.64701  0.40888  1.0000
  N   N31       1.0  0.11719  0.53112  0.31960  1.0000
  H   H580      1.0  0.07411  0.65864  0.41464  1.0000
  Fe  Fe72      1.0  0.30987  0.87310  0.50432  1.0000
  H   H581      1.0  0.16178  0.51327  0.31331  1.0000
  H   H582      1.0  0.14870  0.54718  0.32495  1.0000
  N   N32       1.0  0.28138  0.81486  0.47262  1.0000
  C   C498      1.0  0.30120  0.81247  0.48489  1.0000
  C   C499      1.0  0.26625  0.83518  0.47825  1.0000
  C   C500      1.0  0.26834  0.79370  0.47616  1.0000
  C   C501      1.0  0.28849  0.81800  0.45263  1.0000
  C   C502      1.0  0.31197  0.81951  0.44604  1.0000
  C   C503      1.0  0.27160  0.81996  0.43903  1.0000
  C   C504      1.0  0.31799  0.82266  0.42707  1.0000
  H   H583      1.0  0.08614  0.55364  0.32317  1.0000
  C   C505      1.0  0.05494  0.66005  0.41735  1.0000
  H   H584      1.0  0.31104  0.82842  0.48374  1.0000
  H   H585      1.0  0.29533  0.80977  0.49978  1.0000
  H   H586      1.0  0.31321  0.79728  0.48165  1.0000
  H   H587      1.0  0.36206  0.98975  0.36729  1.0000
  H   H588      1.0  0.18652  0.60389  0.39856  1.0000
  H   H589      1.0  0.25001  0.83730  0.47072  1.0000
  H   H590      1.0  0.05809  0.67004  0.46286  1.0000
  H   H591      1.0  0.27874  0.77812  0.47139  1.0000
  H   H592      1.0  0.47035  0.99861  0.36596  1.0000
  H   H593      1.0  0.32609  0.81865  0.45523  1.0000
  H   H594      1.0  0.11158  0.55569  0.29619  1.0000
  C   C506      1.0  0.17116  0.59507  0.40465  1.0000
  H   H595      1.0  0.04970  0.58864  0.33175  1.0000
  H   H596      1.0  0.45684  0.86552  0.27649  1.0000
  C   C507      1.0  0.17788  0.60226  0.43734  1.0000
  H   H597      1.0  0.38396  0.95433  0.31541  1.0000
  C   C508      1.0  0.12780  0.51489  0.38121  1.0000
  H   H598      1.0  0.03114  0.58828  0.35231  1.0000
  H   H599      1.0  0.02096  0.70659  0.48988  1.0000
  H   H600      1.0  0.13905  0.58282  0.43259  1.0000
  C   C509      1.0  0.41613  0.99599  0.38174  1.0000
  H   H601      1.0  0.33602  0.82394  0.42240  1.0000
  H   H602      1.0  0.37371  0.90476  0.27922  1.0000
  H   H603      1.0  0.19436  0.55529  0.41253  1.0000
  C   C510      1.0  0.15466  0.57114  0.42957  1.0000
  C   C511      1.0  0.47834  0.82132  0.29385  1.0000
  H   H604      1.0  0.25174  0.79503  0.46909  1.0000
  C   C512      1.0  0.17853  0.59560  0.45660  1.0000
  C   C513      1.0  0.14538  0.59348  0.28200  1.0000
  H   H605      1.0  0.15040  0.55957  0.41865  1.0000
  H   H606      1.0  0.45198  0.89335  0.29911  1.0000
  C   C514      1.0  0.02763  0.62373  0.31324  1.0000
  H   H607      1.0  0.26363  0.79045  0.49127  1.0000
  C   C515      1.0  0.03822  0.71310  0.51451  1.0000
  H   H608      1.0  0.30925  0.94203  0.47061  1.0000
  C   C516      1.0  0.01182  0.67592  0.45253  1.0000
  H   H609      1.0  0.05112  0.62877  0.45876  1.0000
  H   H610      1.0  0.38905  0.88804  0.30907  1.0000
  N   N33       1.0  0.37080  0.94131  0.42588  1.0000
  C   C517      1.0  0.38858  0.95661  0.41740  1.0000
  C   C518      1.0  0.38333  0.92187  0.43644  1.0000
  C   C519      1.0  0.35899  0.93185  0.41066  1.0000
  C   C520      1.0  0.35313  0.95359  0.43797  1.0000
  C   C521      1.0  0.34893  0.97815  0.43659  1.0000
  C   C522      1.0  0.33809  0.94098  0.45047  1.0000
  C   C523      1.0  0.12636  0.50674  0.32288  1.0000
  C   C524      1.0  0.01223  0.52242  0.42059  1.0000
  H   H611      1.0  0.11149  0.52583  0.29101  1.0000
  H   H612      1.0  0.40248  0.94674  0.40933  1.0000
  H   H613      1.0  0.38120  0.96983  0.40717  1.0000
  H   H614      1.0  0.39701  0.96556  0.42811  1.0000
  H   H615      1.0  0.39775  0.91350  0.42785  1.0000
  H   H616      1.0  0.37223  0.90753  0.44099  1.0000
  H   H617      1.0  0.39075  0.92796  0.44899  1.0000
  H   H618      1.0  0.34557  0.91999  0.41606  1.0000
  H   H619      1.0  0.35026  0.94593  0.40180  1.0000
  H   H620      1.0  0.37132  0.92191  0.40130  1.0000
  C   C525      1.0  0.38606  0.98447  0.27263  1.0000
  H   H621      1.0  0.33932  0.92226  0.45181  1.0000
  H   H622      1.0  0.46055  0.80914  0.27129  1.0000
  H   H623      1.0  0.39105  0.99282  0.32580  1.0000
  C   C526      1.0  0.38510  0.88915  0.27937  1.0000
  N   N34       1.0  0.04834  0.65639  0.43744  1.0000
  C   C527      1.0  0.46831  0.90135  0.29671  1.0000
  H   H624      1.0  0.13007  0.54101  0.34503  1.0000
  C   C528      1.0  0.02284  0.65951  0.44050  1.0000
  H   H625      1.0  0.26460  0.82480  0.40996  1.0000
  H   H626      1.0  0.03573  0.63912  0.31788  1.0000
  C   C529      1.0  0.49895  0.97309  0.36896  1.0000
  H   H627      1.0  0.05540  0.70918  0.50841  1.0000
  H   H628      1.0  0.18270  0.64800  0.47447  1.0000
  H   H629      1.0  0.27530  0.85154  0.47555  1.0000
  C   C530      1.0  0.01866  0.71157  0.50406  1.0000
  C   C531      1.0  0.18254  0.64222  0.44536  1.0000
  H   H630      1.0  0.15757  0.55952  0.44217  1.0000
  H   H631      1.0  0.21154  0.57824  0.41846  1.0000
  S   S143      1.0  0.11615  0.72556  0.50916  1.0000
  H   H632      1.0  0.04740  0.61334  0.34539  1.0000
  C   C532      1.0  0.47869  0.90835  0.31225  1.0000
  C   C533      1.0  0.49983  0.91843  0.31025  1.0000
  C   C534      1.0  0.03728  0.59961  0.34027  1.0000
  H   H633      1.0  0.04141  0.61352  0.30532  1.0000
  C   C535      1.0  0.48858  0.99555  0.36855  1.0000
  H   H634      1.0  0.43212  0.90200  0.27401  1.0000
  C   C536      1.0  0.00601  0.59029  0.32249  1.0000
  H   H635      1.0  0.01443  0.63001  0.30321  1.0000
  H   H636      1.0  0.01524  0.63257  0.42235  1.0000
  H   H637      1.0  0.02133  0.68745  0.45990  1.0000
  C   C537      1.0  0.03602  0.51983  0.42262  1.0000
  H   H638      1.0  0.01716  0.62039  0.36711  1.0000
  C   C538      1.0  0.50061  0.91453  0.27701  1.0000
  H   H639      1.0  0.50120  0.80105  0.33128  1.0000
  C   C539      1.0  0.00818  0.64548  0.43162  1.0000
  N   N35       1.0  0.50154  0.83593  0.31908  1.0000
  H   H640      1.0  0.36850  0.00482  0.49113  1.0000
  Fe  Fe73      1.0  0.40144  0.87516  0.66235  1.0000
  S   S144      1.0  0.43462  0.88000  0.64546  1.0000
  S   S145      1.0  0.36796  0.86839  0.64898  1.0000
  Fe  Fe74      1.0  0.42359  0.88302  0.69976  1.0000
  S   S146      1.0  0.45809  0.88746  0.68490  1.0000
  S   S147      1.0  0.42526  0.89576  0.72884  1.0000
  Fe  Fe75      1.0  0.43847  0.90925  0.66370  1.0000
  S   S148      1.0  0.45084  0.94470  0.65658  1.0000
  Fe  Fe76      1.0  0.45082  0.85783  0.66856  1.0000
  S   S149      1.0  0.47634  0.82791  0.66273  1.0000
  S   S150      1.0  0.40413  0.90629  0.67905  1.0000
  S   S151      1.0  0.41746  0.85107  0.68482  1.0000
  Fe  Fe77      1.0  0.32434  0.86474  0.54498  1.0000
  S   S152      1.0  0.28753  0.86443  0.55631  1.0000
  S   S153      1.0  0.35682  0.86397  0.56163  1.0000
  H   H641      1.0  0.40322  0.94210  0.73329  1.0000
  H   H642      1.0  0.18674  0.69448  0.59755  1.0000
  C   C540      1.0  0.35134  0.99114  0.76143  1.0000
  Fe  Fe78      1.0  0.28080  0.84293  0.53218  1.0000
  C   C541      1.0  0.26566  0.97635  0.54717  1.0000
  H   H643      1.0  0.16527  0.76355  0.56459  1.0000
  H   H644      1.0  0.31939  0.93331  0.60779  1.0000
  Fe  Fe79      1.0  0.13937  0.68565  0.55067  1.0000
  S   S154      1.0  0.12578  0.72246  0.55385  1.0000
  S   S155      1.0  0.15309  0.65899  0.57272  1.0000
  H   H645      1.0  0.03571  0.64005  0.63671  1.0000
  H   H646      1.0  0.31241  0.91174  0.57294  1.0000
  C   C542      1.0  0.35353  0.93261  0.56812  1.0000
  C   C543      1.0  0.13331  0.51780  0.69421  1.0000
  S   S156      1.0  0.10940  0.67713  0.53476  1.0000
  H   H647      1.0  0.47004  0.99942  0.64359  1.0000
  Fe  Fe80      1.0  0.13286  0.62733  0.68219  1.0000
  S   S157      1.0  0.11294  0.59692  0.67641  1.0000
  S   S158      1.0  0.13960  0.65744  0.66095  1.0000
  Fe  Fe81      1.0  0.12796  0.61606  0.72531  1.0000
  S   S159      1.0  0.10674  0.58581  0.72222  1.0000
  S   S160      1.0  0.13658  0.62819  0.75338  1.0000
  Fe  Fe82      1.0  0.13276  0.57730  0.69898  1.0000
  H   H648      1.0  0.07392  0.66564  0.66904  1.0000
  Fe  Fe83      1.0  0.08919  0.60850  0.70008  1.0000
  S   S161      1.0  0.05159  0.61766  0.69650  1.0000
  S   S162      1.0  0.15514  0.60680  0.70300  1.0000
  S   S163      1.0  0.10806  0.63950  0.70507  1.0000
  C   C544      1.0  0.48346  0.86453  0.75478  1.0000
  H   H649      1.0  0.34800  0.91324  0.73332  1.0000
  H   H650      1.0  0.10512  0.53929  0.68277  1.0000
  H   H651      1.0  0.00727  0.67082  0.53339  1.0000
  H   H652      1.0  0.49858  0.96317  0.68265  1.0000
  C   C545      1.0  0.03855  0.59697  0.68492  1.0000
  C   C546      1.0  0.04844  0.57429  0.68427  1.0000
  H   H653      1.0  0.32926  0.85927  0.62786  1.0000
  C   C547      1.0  0.35983  0.95530  0.74512  1.0000
  H   H654      1.0  0.06515  0.56974  0.68992  1.0000
  Fe  Fe84      1.0  0.28186  0.89575  0.53630  1.0000
  C   C548      1.0  0.14724  0.65849  0.59710  1.0000
  C   C549      1.0  0.15203  0.63776  0.60786  1.0000
  C   C550      1.0  0.14884  0.63688  0.62738  1.0000
  C   C551      1.0  0.14147  0.65696  0.63637  1.0000
  C   C552      1.0  0.13639  0.67764  0.62559  1.0000
  C   C553      1.0  0.13890  0.67833  0.60604  1.0000
  H   H655      1.0  0.15850  0.62232  0.60106  1.0000
  H   H656      1.0  0.15295  0.62090  0.63550  1.0000
  H   H657      1.0  0.13056  0.69322  0.63242  1.0000
  H   H658      1.0  0.13476  0.69425  0.59787  1.0000
  C   C554      1.0  0.07844  0.68110  0.58462  1.0000
  C   C555      1.0  0.03554  0.72032  0.53266  1.0000
  H   H659      1.0  0.03171  0.57178  0.74177  1.0000
  H   H660      1.0  0.20510  0.53389  0.74496  1.0000
  H   H661      1.0  0.20202  0.70713  0.55848  1.0000
  H   H662      1.0  0.08138  0.68784  0.57040  1.0000
  C   C556      1.0  0.19947  0.70807  0.59483  1.0000
  H   H663      1.0  0.03906  0.64560  0.66059  1.0000
  H   H664      1.0  0.49973  0.92064  0.67691  1.0000
  C   C557      1.0  0.18725  0.52827  0.74407  1.0000
  H   H665      1.0  0.29566  0.93795  0.57855  1.0000
  C   C558      1.0  0.18629  0.71684  0.56425  1.0000
  S   S164      1.0  0.31882  0.89678  0.52596  1.0000
  S   S165      1.0  0.16559  0.76483  0.52450  1.0000
  H   H666      1.0  0.21557  0.69907  0.58896  1.0000
  H   H667      1.0  0.09633  0.63574  0.61305  1.0000
  C   C559      1.0  0.14666  0.53576  0.75228  1.0000
  C   C560      1.0  0.35509  0.94270  0.76236  1.0000
  C   C561      1.0  0.33472  0.92858  0.59849  1.0000
  C   C562      1.0  0.06020  0.68502  0.61532  1.0000
  H   H668      1.0  0.09898  0.63360  0.64473  1.0000
  H   H669      1.0  0.04300  0.53932  0.67773  1.0000
  C   C563      1.0  0.43070  0.96396  0.66750  1.0000
  C   C564      1.0  0.40699  0.96233  0.66570  1.0000
  C   C565      1.0  0.39084  0.97695  0.67526  1.0000
  C   C566      1.0  0.01359  0.56271  0.67144  1.0000
  C   C567      1.0  0.43828  0.98050  0.67860  1.0000
  H   H670      1.0  0.40111  0.94993  0.65674  1.0000
  H   H671      1.0  0.37253  0.97577  0.67372  1.0000
  H   H672      1.0  0.45657  0.98175  0.68012  1.0000
  H   H673      1.0  0.21295  0.74333  0.52932  1.0000
  C   C568      1.0  0.41821  0.89421  0.76655  1.0000
  H   H674      1.0  0.16492  0.71996  0.61609  1.0000
  C   C569      1.0  0.41594  0.88245  0.75042  1.0000
  C   C570      1.0  0.36488  0.86792  0.62460  1.0000
  C   C571      1.0  0.38319  0.87230  0.61168  1.0000
  C   C572      1.0  0.38027  0.87126  0.59252  1.0000
  C   C573      1.0  0.35901  0.86599  0.58593  1.0000
  C   C574      1.0  0.34059  0.86179  0.59881  1.0000
  C   C575      1.0  0.34356  0.86273  0.61802  1.0000
  H   H675      1.0  0.39969  0.87634  0.61642  1.0000
  H   H676      1.0  0.39470  0.87432  0.58271  1.0000
  H   H677      1.0  0.32417  0.85754  0.59399  1.0000
  H   H678      1.0  0.37149  0.91019  0.71621  1.0000
  C   C576      1.0  0.03591  0.55710  0.67744  1.0000
  N   N36       1.0  0.41697  0.80265  0.62989  1.0000
  C   C577      1.0  0.44204  0.80273  0.63307  1.0000
  C   C578      1.0  0.40461  0.81985  0.64184  1.0000
  C   C579      1.0  0.40951  0.77922  0.63601  1.0000
  C   C580      1.0  0.41133  0.80834  0.61030  1.0000
  C   C581      1.0  0.38820  0.80790  0.60492  1.0000
  C   C582      1.0  0.42821  0.81470  0.59616  1.0000
  C   C583      1.0  0.38245  0.81292  0.58650  1.0000
  C   C584      1.0  0.42218  0.81993  0.57779  1.0000
  C   C585      1.0  0.39938  0.81899  0.57298  1.0000
  H   H679      1.0  0.44859  0.82030  0.63006  1.0000
  H   H680      1.0  0.44575  0.79790  0.64785  1.0000
  H   H681      1.0  0.45255  0.79011  0.62456  1.0000
  H   H682      1.0  0.40881  0.81659  0.65667  1.0000
  H   H683      1.0  0.38548  0.81984  0.64141  1.0000
  H   H684      1.0  0.40932  0.83774  0.63737  1.0000
  H   H685      1.0  0.41749  0.76596  0.62669  1.0000
  H   H686      1.0  0.41452  0.77397  0.65043  1.0000
  H   H687      1.0  0.39043  0.77834  0.63614  1.0000
  H   H688      1.0  0.37425  0.80415  0.61498  1.0000
  H   H689      1.0  0.44614  0.81605  0.59893  1.0000
  H   H690      1.0  0.46803  0.93846  0.69331  1.0000
  H   H691      1.0  0.43519  0.82506  0.56724  1.0000
  C   C586      1.0  0.47691  0.93495  0.70658  1.0000
  C   C587      1.0  0.36590  0.91826  0.72947  1.0000
  H   H692      1.0  0.46994  0.94865  0.71586  1.0000
  H   H693      1.0  0.18690  0.51022  0.75027  1.0000
  C   C588      1.0  0.33021  0.96565  0.57930  1.0000
  C   C589      1.0  0.32629  0.97902  0.56244  1.0000
  C   C590      1.0  0.33219  0.97815  0.59543  1.0000
  C   C591      1.0  0.17032  0.56717  0.74255  1.0000
  C   C592      1.0  0.19334  0.77618  0.52653  1.0000
  C   C593      1.0  0.40625  0.86095  0.75192  1.0000
  H   H694      1.0  0.48600  0.87026  0.72496  1.0000
  H   H695      1.0  0.21205  0.75245  0.59118  1.0000
  C   C594      1.0  0.35213  0.95282  0.71253  1.0000
  H   H696      1.0  0.07578  0.51794  0.71828  1.0000
  H   H697      1.0  0.32455  0.97082  0.54961  1.0000
  S   S166      1.0  0.05964  0.72311  0.54619  1.0000
  Fe  Fe85      1.0  0.14638  0.73082  0.52699  1.0000
  H   H698      1.0  0.11075  0.77203  0.60618  1.0000
  C   C595      1.0  0.28768  0.95840  0.52191  1.0000
  C   C596      1.0  0.13731  0.74540  0.61279  1.0000
  H   H699      1.0  0.20406  0.75784  0.56764  1.0000
  H   H700      1.0  0.10159  0.65098  0.58121  1.0000
  C   C597      1.0  0.01716  0.60292  0.67733  1.0000
  C   C598      1.0  0.00479  0.58579  0.67041  1.0000
  C   C599      1.0  0.13733  0.76954  0.58430  1.0000
  H   H701      1.0  0.33355  0.95064  0.71650  1.0000
  H   H702      1.0  0.35395  0.97150  0.70863  1.0000
  C   C600      1.0  0.15804  0.75804  0.57816  1.0000
  C   C601      1.0  0.16890  0.73953  0.58906  1.0000
  H   H703      1.0  0.12916  0.74046  0.62621  1.0000
  C   C602      1.0  0.03321  0.55643  0.73392  1.0000
  H   H704      1.0  0.18398  0.52742  0.72905  1.0000
  C   C603      1.0  0.28694  0.00042  0.52423  1.0000
  H   H705      1.0  0.17244  0.70442  0.56639  1.0000
  S   S167      1.0  0.26382  0.92895  0.54666  1.0000
  H   H706      1.0  0.22541  0.73523  0.57308  1.0000
  C   C604      1.0  0.05853  0.52595  0.72087  1.0000
  N   N37       1.0  0.19049  0.72720  0.58190  1.0000
  H   H707      1.0  0.18091  0.73008  0.55323  1.0000
  C   C605      1.0  0.11204  0.52172  0.68594  1.0000
  S   S168      1.0  0.16159  0.69403  0.52475  1.0000
  H   H708      1.0  0.39757  0.94091  0.70924  1.0000
  H   H709      1.0  0.40432  0.85178  0.73958  1.0000
  C   C606      1.0  0.39134  0.94894  0.72237  1.0000
  C   C607      1.0  0.12693  0.76319  0.60156  1.0000
  C   C608      1.0  0.07138  0.66376  0.62206  1.0000
  S   S169      1.0  0.31869  0.84092  0.52230  1.0000
  N   N38       1.0  0.36710  0.94387  0.72777  1.0000
  H   H710      1.0  0.18753  0.57456  0.74239  1.0000
  H   H711      1.0  0.14125  0.53628  0.73772  1.0000
  H   H712      1.0  0.35658  0.94374  0.69954  1.0000
  H   H713      1.0  0.39343  0.96785  0.72004  1.0000
  Fe  Fe86      1.0  0.09704  0.71446  0.53595  1.0000
  H   H714      1.0  0.42561  0.91090  0.76548  1.0000
  H   H715      1.0  0.25047  0.76065  0.53267  1.0000
  H   H716      1.0  0.00960  0.62052  0.67762  1.0000
  H   H717      1.0  0.09383  0.67546  0.65084  1.0000
  H   H718      1.0  0.36936  0.93909  0.57343  1.0000
  H   H719      1.0  0.37770  0.91001  0.73992  1.0000
  H   H720      1.0  0.20376  0.71457  0.60829  1.0000
  H   H721      1.0  0.21702  0.82901  0.52695  1.0000
  H   H722      1.0  0.03178  0.66907  0.64439  1.0000
  C   C609      1.0  0.08971  0.66024  0.59075  1.0000
  H   H723      1.0  0.04886  0.69540  0.62435  1.0000
  H   H724      1.0  0.39460  0.82363  0.55884  1.0000
  H   H725      1.0  0.01088  0.73147  0.55425  1.0000
  H   H726      1.0  0.07602  0.62641  0.66105  1.0000
  H   H727      1.0  0.07466  0.61874  0.63767  1.0000
  C   C610      1.0  0.07534  0.67214  0.65415  1.0000
  C   C611      1.0  0.08643  0.65165  0.60919  1.0000
  H   H728      1.0  0.06519  0.68909  0.65306  1.0000
  H   H729      1.0  0.16660  0.56559  0.72776  1.0000
  H   H730      1.0  0.35076  0.93292  0.60488  1.0000
  C   C612      1.0  0.33000  0.00243  0.59461  1.0000
  C   C613      1.0  0.23499  0.77189  0.53078  1.0000
  H   H731      1.0  0.47150  0.91783  0.71254  1.0000
  S   S170      1.0  0.26422  0.80752  0.53249  1.0000
  H   H732      1.0  0.35245  0.93903  0.55333  1.0000
  S   S171      1.0  0.14968  0.54092  0.69927  1.0000
  C   C614      1.0  0.23655  0.79616  0.53012  1.0000
  C   C615      1.0  0.21364  0.76197  0.52896  1.0000
  C   C616      1.0  0.19495  0.80043  0.52575  1.0000
  C   C617      1.0  0.15803  0.73372  0.60675  1.0000
  C   C618      1.0  0.04240  0.65244  0.64595  1.0000
  H   H733      1.0  0.31119  0.93574  0.55653  1.0000
  H   H734      1.0  0.36458  0.81305  0.58275  1.0000
  H   H735      1.0  0.25434  0.97488  0.55957  1.0000
  C   C619      1.0  0.31214  0.93105  0.57163  1.0000
  N   N39       1.0  0.06743  0.65523  0.64170  1.0000
  N   N40       1.0  0.33259  0.93996  0.57956  1.0000
  H   H736      1.0  0.33528  0.96960  0.60887  1.0000
  C   C620      1.0  0.42215  0.99531  0.68796  1.0000
  C   C621      1.0  0.06371  0.69348  0.59685  1.0000
  C   C622      1.0  0.07987  0.63249  0.64634  1.0000
  H   H737      1.0  0.35605  0.91335  0.56812  1.0000
  H   H738      1.0  0.33581  0.90936  0.59822  1.0000
  H   H739      1.0  0.05522  0.70984  0.59189  1.0000
  C   C623      1.0  0.27299  0.95632  0.53787  1.0000
  H   H740      1.0  0.50307  0.97189  0.70562  1.0000
  H   H741      1.0  0.01815  0.65002  0.55094  1.0000
  H   H742      1.0  0.14581  0.51747  0.75781  1.0000
  C   C624      1.0  0.20878  0.74386  0.57833  1.0000
  C   C625      1.0  0.21631  0.81036  0.52751  1.0000
  H   H743      1.0  0.12919  0.78326  0.57545  1.0000
  H   H744      1.0  0.01002  0.67939  0.55622  1.0000
  H   H745      1.0  0.35628  0.92397  0.76378  1.0000
  C   C626      1.0  0.01309  0.72555  0.54032  1.0000
  C   C627      1.0  0.05534  0.54570  0.73097  1.0000
  H   H746      1.0  0.15698  0.58002  0.74808  1.0000
  C   C628      1.0  0.35804  0.97988  0.74527  1.0000
  H   H747      1.0  0.36190  0.99066  0.73284  1.0000
  C   C629      1.0  0.27269  0.99833  0.54045  1.0000
  H   H748      1.0  0.07016  0.55296  0.73631  1.0000
  N   N41       1.0  0.17001  0.54443  0.75334  1.0000
  C   C630      1.0  0.39842  0.99349  0.68635  1.0000
  H   H749      1.0  0.13345  0.54641  0.76030  1.0000
  C   C631      1.0  0.01733  0.52745  0.71650  1.0000
  H   H750      1.0  0.46483  0.86723  0.75497  1.0000
  C   C632      1.0  0.49547  0.86659  0.73747  1.0000
  H   H751      1.0  0.17948  0.81169  0.52384  1.0000
  H   H752      1.0  0.43188  0.00358  0.64233  1.0000
  C   C633      1.0  0.32421  0.00328  0.56181  1.0000
  C   C634      1.0  0.03955  0.51674  0.71380  1.0000
  C   C635      1.0  0.41078  0.99135  0.76329  1.0000
  H   H753      1.0  0.41470  0.95412  0.76580  1.0000
  C   C636      1.0  0.01350  0.54780  0.72662  1.0000
  H   H754      1.0  0.48497  0.92596  0.74054  1.0000
  H   H755      1.0  0.11625  0.58431  0.76411  1.0000
  N   N42       1.0  0.50246  0.93498  0.70356  1.0000
  C   C637      1.0  0.50357  0.92547  0.73857  1.0000
  C   C638      1.0  0.00518  0.66478  0.54833  1.0000
  H   H756      1.0  0.41365  0.99244  0.74829  1.0000
  H   H757      1.0  0.08392  0.50595  0.67435  1.0000
  Fe  Fe87      1.0  0.40278  0.86293  0.83482  1.0000
  S   S172      1.0  0.41668  0.89765  0.83680  1.0000
  S   S173      1.0  0.39280  0.84987  0.80758  1.0000
  Fe  Fe88      1.0  0.40919  0.84921  0.87677  1.0000
  S   S174      1.0  0.42466  0.88282  0.88148  1.0000
  S   S175      1.0  0.40275  0.81932  0.89837  1.0000
  Fe  Fe89      1.0  0.39626  0.89910  0.86397  1.0000
  S   S176      1.0  0.37414  0.93137  0.87062  1.0000
  Fe  Fe90      1.0  0.44364  0.87822  0.85374  1.0000
  S   S177      1.0  0.47959  0.88338  0.84224  1.0000
  S   S178      1.0  0.37952  0.86582  0.86069  1.0000
  S   S179      1.0  0.43092  0.84318  0.85042  1.0000
  H   H758      1.0  0.34690  0.82938  0.96156  1.0000
  N   N43       1.0  0.48201  0.85626  0.78953  1.0000
  S   S180      1.0  0.17966  0.62388  0.99690  1.0000
  C   C639      1.0  0.01908  0.56698  0.88645  1.0000
  S   S181      1.0  0.39626  0.81667  0.98703  1.0000
  Fe  Fe91      1.0  0.14328  0.59763  0.89658  1.0000
  S   S182      1.0  0.11073  0.58801  0.91270  1.0000
  S   S183      1.0  0.17451  0.60910  0.91058  1.0000
  Fe  Fe92      1.0  0.12813  0.57934  0.85999  1.0000
  S   S184      1.0  0.09527  0.56753  0.87412  1.0000
  S   S185      1.0  0.12963  0.56828  0.83026  1.0000
  Fe  Fe93      1.0  0.09269  0.60167  0.88702  1.0000
  S   S186      1.0  0.05837  0.62228  0.88493  1.0000
  Fe  Fe94      1.0  0.11631  0.55501  0.89804  1.0000
  C   C640      1.0  0.13977  0.62123  0.79122  1.0000
  S   S187      1.0  0.12470  0.61450  0.87177  1.0000
  S   S188      1.0  0.14973  0.56357  0.88316  1.0000
  C   C641      1.0  0.17528  0.54564  0.77307  1.0000
  H   H759      1.0  0.17608  0.54448  0.97974  1.0000
  C   C642      1.0  0.18527  0.54942  0.96626  1.0000
  H   H760      1.0  0.02032  0.54909  0.89180  1.0000
  C   C643      1.0  0.22254  0.66703  0.92476  1.0000
  C   C644      1.0  0.03556  0.60446  0.88227  1.0000
  C   C645      1.0  0.03720  0.58116  0.88875  1.0000
  H   H761      1.0  0.45398  0.83673  0.80209  1.0000
  H   H762      1.0  0.05218  0.57419  0.89601  1.0000
  C   C646      1.0  0.13807  0.60842  0.80847  1.0000
  C   C647      1.0  0.12937  0.58642  0.80957  1.0000
  C   C648      1.0  0.12142  0.57786  0.79349  1.0000
  H   H763      1.0  0.14439  0.61514  0.82073  1.0000
  H   H764      1.0  0.11464  0.56087  0.79425  1.0000
  C   C649      1.0  0.17839  0.61722  0.97335  1.0000
  C   C650      1.0  0.19842  0.61185  0.96231  1.0000
  C   C651      1.0  0.19695  0.60921  0.94314  1.0000
  C   C652      1.0  0.17541  0.61111  0.93494  1.0000
  C   C653      1.0  0.15533  0.61553  0.94614  1.0000
  C   C654      1.0  0.15687  0.61891  0.96517  1.0000
  H   H765      1.0  0.21508  0.61057  0.96837  1.0000
  H   H766      1.0  0.21259  0.60593  0.93458  1.0000
  H   H767      1.0  0.13867  0.61724  0.94000  1.0000
  H   H768      1.0  0.14130  0.62318  0.97357  1.0000
  C   C655      1.0  0.41115  0.88445  0.78413  1.0000
  H   H769      1.0  0.38340  0.95294  0.82486  1.0000
  H   H770      1.0  0.42584  0.77470  0.97960  1.0000
  C   C656      1.0  0.38885  0.95416  0.87838  1.0000
  C   C657      1.0  0.41212  0.95095  0.88259  1.0000
  C   C658      1.0  0.19869  0.66758  0.92846  1.0000
  C   C659      1.0  0.37719  0.97604  0.87987  1.0000
  H   H771      1.0  0.42133  0.93420  0.88139  1.0000
  C   C660      1.0  0.25813  0.68637  0.97260  1.0000
  H   H772      1.0  0.47063  0.82303  0.78353  1.0000
  H   H773      1.0  0.47491  0.90350  0.87853  1.0000
  H   H774      1.0  0.44163  0.96704  0.89168  1.0000
  C   C661      1.0  0.40230  0.81846  0.92302  1.0000
  C   C662      1.0  0.39513  0.79849  0.93331  1.0000
  C   C663      1.0  0.39372  0.79735  0.95291  1.0000
  C   C664      1.0  0.39943  0.81626  0.96244  1.0000
  C   C665      1.0  0.40708  0.83602  0.95214  1.0000
  C   C666      1.0  0.40866  0.83707  0.93255  1.0000
  H   H775      1.0  0.39020  0.78398  0.92604  1.0000
  H   H776      1.0  0.38757  0.78213  0.96061  1.0000
  H   H777      1.0  0.41150  0.85075  0.95938  1.0000
  H   H778      1.0  0.41468  0.85227  0.92481  1.0000
  C   C667      1.0  0.40158  0.86287  0.78571  1.0000
  H   H779      1.0  0.27043  0.68569  0.98400  1.0000
  C   C668      1.0  0.00758  0.63190  0.91792  1.0000
  H   H780      1.0  0.22177  0.67801  0.99534  1.0000
  C   C669      1.0  0.23746  0.66689  0.93932  1.0000
  C   C670      1.0  0.40250  0.98866  0.80251  1.0000
  H   H781      1.0  0.49716  0.73655  0.98202  1.0000
  H   H782      1.0  0.45637  0.74380  0.94042  1.0000
  H   H783      1.0  0.41305  0.89363  0.79644  1.0000
  N   N44       1.0  0.36218  0.89523  0.92230  1.0000
  C   C671      1.0  0.38524  0.90501  0.92113  1.0000
  C   C672      1.0  0.36138  0.88027  0.90644  1.0000
  C   C673      1.0  0.34420  0.91454  0.91986  1.0000
  C   C674      1.0  0.35823  0.88274  0.94064  1.0000
  C   C675      1.0  0.35940  0.89443  0.95722  1.0000
  C   C676      1.0  0.35318  0.85897  0.94269  1.0000
  C   C677      1.0  0.35633  0.88290  0.97472  1.0000
  C   C678      1.0  0.34990  0.84772  0.96027  1.0000
  H   H784      1.0  0.34108  0.98718  0.79043  1.0000
  H   H785      1.0  0.39916  0.89126  0.92400  1.0000
  H   H786      1.0  0.38934  0.91330  0.90708  1.0000
  H   H787      1.0  0.38649  0.91871  0.93102  1.0000
  H   H788      1.0  0.37503  0.86572  0.90699  1.0000
  H   H789      1.0  0.36427  0.89023  0.89293  1.0000
  H   H790      1.0  0.34421  0.87296  0.90591  1.0000
  H   H791      1.0  0.34485  0.92769  0.93031  1.0000
  H   H792      1.0  0.34636  0.92401  0.90597  1.0000
  H   H793      1.0  0.32656  0.90798  0.92102  1.0000
  H   H794      1.0  0.36300  0.91252  0.95676  1.0000
  H   H795      1.0  0.35237  0.84840  0.93099  1.0000
  H   H796      1.0  0.40809  0.95136  0.79956  1.0000
  H   H797      1.0  0.48588  0.84425  0.81827  1.0000
  H   H798      1.0  0.44494  0.77351  0.94026  1.0000
  N   N45       1.0  0.06047  0.61819  0.82321  1.0000
  C   C679      1.0  0.07559  0.60229  0.83494  1.0000
  C   C680      1.0  0.07265  0.62133  0.80467  1.0000
  C   C681      1.0  0.05792  0.64081  0.83190  1.0000
  C   C682      1.0  0.03729  0.60964  0.82124  1.0000
  H   H799      1.0  0.50374  0.92243  0.89582  1.0000
  H   H800      1.0  0.14731  0.63788  0.79033  1.0000
  H   H801      1.0  0.35008  0.85040  0.98978  1.0000
  H   H802      1.0  0.18931  0.56288  0.93078  1.0000
  H   H803      1.0  0.45975  0.73823  0.99263  1.0000
  H   H804      1.0  0.07875  0.58494  0.82912  1.0000
  H   H805      1.0  0.09296  0.60904  0.83603  1.0000
  H   H806      1.0  0.06810  0.60012  0.84941  1.0000
  H   H807      1.0  0.07443  0.60479  0.79751  1.0000
  H   H808      1.0  0.46321  0.72202  0.97194  1.0000
  H   H809      1.0  0.06368  0.63465  0.79538  1.0000
  H   H810      1.0  0.04834  0.63921  0.84569  1.0000
  H   H811      1.0  0.07504  0.64738  0.83430  1.0000
  H   H812      1.0  0.04847  0.65447  0.82322  1.0000
  C   C683      1.0  0.34845  0.95416  0.77849  1.0000
  C   C684      1.0  0.12254  0.59095  0.77637  1.0000
  H   H813      1.0  0.18717  0.66682  0.91722  1.0000
  C   C685      1.0  0.49649  0.84706  0.80505  1.0000
  H   H814      1.0  0.43524  0.73327  0.98017  1.0000
  Fe  Fe95      1.0  0.39504  0.78828  0.01063  1.0000
  H   H815      1.0  0.02518  0.63888  0.80282  1.0000
  C   C686      1.0  0.42365  0.96958  0.88831  1.0000
  H   H816      1.0  0.18156  0.56842  0.96377  1.0000
  H   H817      1.0  0.09043  0.62710  0.80574  1.0000
  H   H818      1.0  0.24616  0.70212  0.97398  1.0000
  C   C687      1.0  0.19101  0.54372  0.93365  1.0000
  C   C688      1.0  0.18967  0.66852  0.94668  1.0000
  H   H819      1.0  0.25581  0.66638  0.93574  1.0000
  H   H820      1.0  0.44985  0.84688  0.77887  1.0000
  H   H821      1.0  0.03606  0.61020  0.92845  1.0000
  H   H822      1.0  0.17847  0.51063  0.81333  1.0000
  C   C689      1.0  0.17526  0.52536  0.78527  1.0000
  H   H823      1.0  0.18499  0.53608  0.92118  1.0000
  C   C690      1.0  0.45379  0.73717  0.97833  1.0000
  H   H824      1.0  0.41646  0.97568  0.84736  1.0000
  H   H825      1.0  0.48455  0.89128  0.79711  1.0000
  H   H826      1.0  0.14962  0.56263  0.94693  1.0000
  H   H827      1.0  0.20975  0.53847  0.93464  1.0000
  H   H828      1.0  0.27420  0.64693  0.95907  1.0000
  H   H829      1.0  0.18680  0.58354  0.80553  1.0000
  H   H830      1.0  0.43399  0.98718  0.82820  1.0000
  H   H831      1.0  0.45970  0.87757  0.80730  1.0000
  H   H832      1.0  0.22308  0.64700  0.99355  1.0000
  N   N46       1.0  0.24513  0.66515  0.97337  1.0000
  C   C691      1.0  0.26190  0.64476  0.97129  1.0000
  H   H833      1.0  0.20428  0.54675  0.96787  1.0000
  C   C692      1.0  0.23344  0.66255  0.99217  1.0000
  C   C693      1.0  0.22889  0.66684  0.95814  1.0000
  S   S189      1.0  0.24634  0.53285  0.00903  1.0000
  C   C694      1.0  0.15279  0.54340  0.94855  1.0000
  H   H834      1.0  0.22945  0.66625  0.91053  1.0000
  H   H835      1.0  0.39155  0.83456  0.77063  1.0000
  C   C695      1.0  0.41895  0.97653  0.83193  1.0000
  C   C696      1.0  0.35171  0.85955  0.97623  1.0000
  H   H836      1.0  0.25276  0.62878  0.96972  1.0000
  H   H837      1.0  0.35787  0.89196  0.98721  1.0000
  S   S190      1.0  0.24438  0.59995  0.00376  1.0000
  H   H838      1.0  0.46050  0.88740  0.78330  1.0000
  C   C697      1.0  0.37867  0.97136  0.82768  1.0000
  H   H839      1.0  0.26855  0.68879  0.95930  1.0000
  C   C698      1.0  0.34646  0.97832  0.77799  1.0000
  C   C699      1.0  0.49997  0.75115  0.97226  1.0000
  C   C700      1.0  0.38893  0.99486  0.88497  1.0000
  C   C701      1.0  0.41217  0.99164  0.88926  1.0000
  H   H840      1.0  0.12850  0.52226  0.87426  1.0000
  H   H841      1.0  0.17111  0.66848  0.94954  1.0000
  C   C702      1.0  0.20442  0.66823  0.96137  1.0000
  N   N47       1.0  0.45701  0.75903  0.96678  1.0000
  H   H842      1.0  0.04079  0.57792  0.83968  1.0000
  C   C703      1.0  0.44432  0.77817  0.97650  1.0000
  C   C704      1.0  0.44628  0.75684  0.94883  1.0000
  C   C705      1.0  0.48157  0.76434  0.96347  1.0000
  H   H843      1.0  0.32969  0.66160  0.00725  1.0000
  C   C706      1.0  0.13237  0.61240  0.77503  1.0000
  H   H844      1.0  0.24608  0.66039  0.00331  1.0000
  C   C707      1.0  0.46343  0.84004  0.78838  1.0000
  C   C708      1.0  0.01554  0.61359  0.87368  1.0000
  C   C709      1.0  0.02996  0.58872  0.83047  1.0000
  H   H845      1.0  0.01843  0.64593  0.91334  1.0000
  H   H846      1.0  0.44449  0.79501  0.96819  1.0000
  C   C710      1.0  0.01761  0.61170  0.92644  1.0000
  H   H847      1.0  0.37331  0.97114  0.84269  1.0000
  C   C711      1.0  0.18404  0.56720  0.79973  1.0000
  H   H848      1.0  0.34467  0.94419  0.79142  1.0000
  H   H849      1.0  0.42821  0.75144  0.95094  1.0000
  H   H850      1.0  0.42383  0.95852  0.82800  1.0000
  H   H851      1.0  0.14185  0.53698  0.96071  1.0000
  C   C712      1.0  0.40736  0.96843  0.79248  1.0000
  C   C713      1.0  0.47121  0.87914  0.79445  1.0000
  H   H852      1.0  0.17177  0.50878  0.78038  1.0000
  H   H853      1.0  0.36313  0.97733  0.81992  1.0000
  N   N48       1.0  0.17763  0.53639  0.95089  1.0000
  C   C714      1.0  0.49521  0.85895  0.77141  1.0000
  S   S191      1.0  0.11267  0.52017  0.91290  1.0000
  C   C715      1.0  0.00780  0.58138  0.82844  1.0000
  H   H854      1.0  0.19612  0.66816  0.97515  1.0000
  H   H855      1.0  0.35912  0.97859  0.87677  1.0000
  S   S192      1.0  0.39943  0.74912  0.01126  1.0000
  C   C716      1.0  0.49191  0.90631  0.87221  1.0000
  H   H856      1.0  0.18574  0.54783  0.82610  1.0000
  H   H857      1.0  0.45191  0.78068  0.98993  1.0000
  H   H858      1.0  0.14621  0.53675  0.93591  1.0000
  H   H859      1.0  0.47454  0.79485  0.94470  1.0000
  N   N49       1.0  0.39791  0.98668  0.82293  1.0000
  H   H860      1.0  0.01211  0.57732  0.93799  1.0000
  H   H861      1.0  0.02090  0.51503  0.87389  1.0000
  C   C717      1.0  0.02100  0.62266  0.81006  1.0000
  H   H862      1.0  0.27282  0.64144  0.98353  1.0000
  C   C718      1.0  0.18346  0.54708  0.81135  1.0000
  C   C719      1.0  0.17918  0.52618  0.80413  1.0000
  H   H863      1.0  0.01408  0.63166  0.86879  1.0000
  C   C720      1.0  0.48748  0.76949  0.01812  1.0000
  C   C721      1.0  0.18095  0.51087  0.95421  1.0000
  H   H864      1.0  0.47137  0.77978  0.01684  1.0000
  C   C722      1.0  0.17994  0.56666  0.78087  1.0000
  C   C723      1.0  0.48763  0.78373  0.95155  1.0000
  C   C724      1.0  0.49808  0.89861  0.85450  1.0000
  Fe  Fe96      1.0  0.20887  0.61023  0.01523  1.0000
  H   H865      1.0  0.35047  0.69533  0.01555  1.0000
  H   H866      1.0  0.19979  0.50994  0.97996  1.0000
  H   H867      1.0  0.06055  0.51739  0.86545  1.0000
  H   H868      1.0  0.17985  0.58311  0.77288  1.0000
  C   C725      1.0  0.41131  0.96982  0.77316  1.0000
  C   C726      1.0  0.00411  0.59318  0.93171  1.0000
  H   H869      1.0  0.05336  0.51601  0.89027  1.0000
  C   C727      1.0  0.39902  0.85125  0.76952  1.0000
  C   C728      1.0  0.06394  0.50762  0.87891  1.0000
  H   H870      1.0  0.08227  0.50999  0.88176  1.0000
  Fe  Fe97      1.0  0.63631  0.11526  0.17831  1.0000
  S   S193      1.0  0.60310  0.10255  0.17006  1.0000
  S   S194      1.0  0.65906  0.13758  0.15874  1.0000
  Fe  Fe98      1.0  0.63497  0.08578  0.21556  1.0000
  S   S195      1.0  0.60219  0.07005  0.20957  1.0000
  S   S196      1.0  0.65327  0.07435  0.24197  1.0000
  Fe  Fe99      1.0  0.61748  0.06744  0.18055  1.0000
  S   S197      1.0  0.61352  0.03790  0.16246  1.0000
  Fe  Fe100     1.0  0.59089  0.10632  0.19975  1.0000
  S   S198      1.0  0.55512  0.11945  0.20857  1.0000
  S   S199      1.0  0.65165  0.07971  0.18711  1.0000
  S   S200      1.0  0.62274  0.12256  0.20747  1.0000
  Fe  Fe101     1.0  0.89445  0.37637  0.16872  1.0000
  S   S201      1.0  0.92902  0.37504  0.15327  1.0000
  S   S202      1.0  0.86096  0.37205  0.15455  1.0000
  Fe  Fe102     1.0  0.91496  0.39071  0.20494  1.0000
  S   S203      1.0  0.95093  0.39088  0.19157  1.0000
  S   S204      1.0  0.91002  0.40663  0.23309  1.0000
  Fe  Fe103     1.0  0.93398  0.40781  0.16670  1.0000
  S   S205      1.0  0.94685  0.43882  0.15035  1.0000
  Fe  Fe104     1.0  0.94265  0.35793  0.17968  1.0000
  S   S206      1.0  0.96833  0.32709  0.17771  1.0000
  S   S207      1.0  0.89861  0.41054  0.18064  1.0000
  S   S208      1.0  0.90743  0.35625  0.19452  1.0000
  H   H871      1.0  0.63227  0.10305  0.13100  1.0000
  S   S209      1.0  0.66889  0.19187  0.03382  1.0000
  C   C729      1.0  0.52675  0.07314  0.17860  1.0000
  N   N50       1.0  0.56548  0.23113  0.08540  1.0000
  S   S210      1.0  0.83248  0.39429  0.01849  1.0000
  H   H872      1.0  0.65235  0.06432  0.05668  1.0000
  Fe  Fe105     1.0  0.63685  0.19721  0.05288  1.0000
  S   S211      1.0  0.62335  0.18227  0.08139  1.0000
  S   S212      1.0  0.63082  0.23530  0.04384  1.0000
  Fe  Fe106     1.0  0.82128  0.38004  0.04704  1.0000
  S   S213      1.0  0.78387  0.39216  0.04353  1.0000
  S   S214      1.0  0.84630  0.39131  0.06774  1.0000
  H   H873      1.0  0.99702  0.38119  0.13321  1.0000
  C   C730      1.0  0.99767  0.32802  0.18254  1.0000
  C   C731      1.0  0.73393  0.31178  0.03340  1.0000
  Fe  Fe107     1.0  0.78035  0.35720  0.03132  1.0000
  H   H874      1.0  0.67543  0.04333  0.11626  1.0000
  C   C732      1.0  0.67744  0.13161  0.25344  1.0000
  S   S215      1.0  0.81737  0.34472  0.03669  1.0000
  H   H875      1.0  0.89368  0.44860  0.12424  1.0000
  H   H876      1.0  0.72002  0.13301  0.23482  1.0000
  C   C733      1.0  0.90847  0.36716  0.25696  1.0000
  H   H877      1.0  0.82234  0.47938  0.02513  1.0000
  C   C734      1.0  0.82673  0.50401  0.05485  1.0000
  H   H878      1.0  0.57482  0.20033  0.10257  1.0000
  C   C735      1.0  0.77405  0.46757  0.02526  1.0000
  H   H879      1.0  0.72000  0.30205  0.06089  1.0000
  C   C736      1.0  0.64891  0.10019  0.06288  1.0000
  H   H880      1.0  0.85286  0.47537  0.02072  1.0000
  Fe  Fe108     1.0  0.66161  0.22957  0.02363  1.0000
  C   C737      1.0  0.57037  0.25600  0.08471  1.0000
  C   C738      1.0  0.65942  0.05048  0.12365  1.0000
  H   H881      1.0  0.56966  0.22671  0.11500  1.0000
  C   C739      1.0  0.77934  0.27050  0.02403  1.0000
  H   H882      1.0  0.81748  0.43560  0.05100  1.0000
  H   H883      1.0  0.55294  0.01313  0.19343  1.0000
  C   C740      1.0  0.52556  0.19532  0.03798  1.0000
  H   H884      1.0  0.87847  0.47961  0.16358  1.0000
  C   C741      1.0  0.64104  0.08253  0.26384  1.0000
  H   H885      1.0  0.87774  0.47643  0.06832  1.0000
  H   H886      1.0  0.71310  0.16248  0.22667  1.0000
  C   C742      1.0  0.76217  0.25519  0.02911  1.0000
  H   H887      1.0  0.75298  0.25598  0.04258  1.0000
  H   H888      1.0  0.76930  0.45192  0.03315  1.0000
  H   H889      1.0  0.53539  0.24856  0.05908  1.0000
  C   C743      1.0  0.93769  0.46203  0.16372  1.0000
  C   C744      1.0  0.93174  0.45784  0.18260  1.0000
  C   C745      1.0  0.92214  0.47587  0.19310  1.0000
  H   H890      1.0  0.63623  0.07790  0.14622  1.0000
  C   C746      1.0  0.93474  0.48442  0.15542  1.0000
  H   H891      1.0  0.93434  0.44065  0.18919  1.0000
  H   H892      1.0  0.91731  0.47242  0.20767  1.0000
  H   H893      1.0  0.93916  0.48764  0.14076  1.0000
  C   C747      1.0  0.85786  0.37529  0.13012  1.0000
  C   C748      1.0  0.83653  0.37130  0.12293  1.0000
  C   C749      1.0  0.83290  0.37521  0.10377  1.0000
  C   C750      1.0  0.85049  0.38356  0.09162  1.0000
  C   C751      1.0  0.87182  0.38754  0.09881  1.0000
  C   C752      1.0  0.87562  0.38310  0.11787  1.0000
  H   H894      1.0  0.82266  0.36526  0.13226  1.0000
  H   H895      1.0  0.81635  0.37222  0.09850  1.0000
  H   H896      1.0  0.88557  0.39391  0.08954  1.0000
  H   H897      1.0  0.89221  0.38599  0.12309  1.0000
  C   C753      1.0  0.64905  0.15065  0.13744  1.0000
  C   C754      1.0  0.66488  0.16015  0.12404  1.0000
  C   C755      1.0  0.65749  0.16995  0.10675  1.0000
  C   C756      1.0  0.63411  0.17050  0.10280  1.0000
  C   C757      1.0  0.61831  0.16117  0.11628  1.0000
  C   C758      1.0  0.62570  0.15131  0.13346  1.0000
  H   H898      1.0  0.68298  0.15983  0.12697  1.0000
  H   H899      1.0  0.66984  0.17712  0.09654  1.0000
  H   H900      1.0  0.60021  0.16144  0.11338  1.0000
  H   H901      1.0  0.61326  0.14429  0.14364  1.0000
  C   C759      1.0  0.54279  0.08612  0.18643  1.0000
  C   C760      1.0  0.53535  0.10214  0.19958  1.0000
  H   H902      1.0  0.81829  0.29335  0.02861  1.0000
  H   H903      1.0  0.56082  0.08394  0.18206  1.0000
  C   C761      1.0  0.55601  0.00708  0.17913  1.0000
  C   C762      1.0  0.67636  0.08638  0.12752  1.0000
  H   H904      1.0  0.64300  0.02429  0.19304  1.0000
  H   H905      1.0  0.78253  0.28300  0.03393  1.0000
  C   C763      1.0  0.53121  0.10219  0.26213  1.0000
  C   C764      1.0  0.54715  0.22516  0.02096  1.0000
  H   H906      1.0  0.64889  0.16912  0.22250  1.0000
  H   H907      1.0  0.53624  0.20790  0.11198  1.0000
  C   C765      1.0  0.91873  0.49818  0.18477  1.0000
  C   C766      1.0  0.99427  0.38848  0.14710  1.0000
  H   H908      1.0  0.98323  0.45120  0.09943  1.0000
  C   C767      1.0  0.86389  0.48957  0.06608  1.0000
  H   H909      1.0  0.59573  0.22139  0.10109  1.0000
  C   C768      1.0  0.84395  0.48541  0.05649  1.0000
  S   S216      1.0  0.75207  0.33240  0.04173  1.0000
  C   C769      1.0  0.57669  0.21940  0.10182  1.0000
  H   H910      1.0  0.57492  0.00759  0.17569  1.0000
  C   C770      1.0  0.83766  0.46743  0.02796  1.0000
  N   N51       1.0  0.84096  0.46315  0.04815  1.0000
  C   C771      1.0  0.52718  0.23912  0.07080  1.0000
  H   H911      1.0  0.97642  0.39673  0.14842  1.0000
  C   C772      1.0  0.67327  0.14333  0.23593  1.0000
  H   H912      1.0  0.67903  0.08039  0.14227  1.0000
  H   H913      1.0  0.64582  0.13438  0.07312  1.0000
  H   H914      1.0  0.50695  0.12754  0.13431  1.0000
  C   C773      1.0  0.68214  0.15203  0.20221  1.0000
  C   C774      1.0  0.71274  0.14408  0.22311  1.0000
  C   C775      1.0  0.92517  0.50251  0.16597  1.0000
  H   H915      1.0  0.69970  0.10931  0.20302  1.0000
  H   H916      1.0  0.57145  0.23033  0.05555  1.0000
  C   C776      1.0  0.91261  0.39070  0.25472  1.0000
  C   C777      1.0  0.63509  0.08387  0.13134  1.0000
  H   H917      1.0  0.56149  0.26476  0.09667  1.0000
  H   H918      1.0  0.84159  0.48450  0.11241  1.0000
  C   C778      1.0  0.86982  0.48914  0.15229  1.0000
  H   H919      1.0  0.69398  0.14778  0.19003  1.0000
  N   N52       1.0  0.65617  0.07609  0.12032  1.0000
  H   H920      1.0  0.54076  0.10749  0.24934  1.0000
  H   H921      1.0  0.72486  0.14144  0.21079  1.0000
  S   S217      1.0  0.61375  0.18563  0.03178  1.0000
  C   C779      1.0  0.86101  0.44592  0.05013  1.0000
  H   H922      1.0  0.69155  0.11856  0.25504  1.0000
  H   H923      1.0  0.85837  0.42975  0.04314  1.0000
  C   C780      1.0  0.62196  0.09860  0.26522  1.0000
  C   C781      1.0  0.82028  0.45240  0.05701  1.0000
  C   C782      1.0  0.62515  0.01081  0.17115  1.0000
  C   C783      1.0  0.63111  0.01098  0.25958  1.0000
  C   C784      1.0  0.70592  0.27707  0.02180  1.0000
  N   N53       1.0  0.86053  0.45180  0.13923  1.0000
  C   C785      1.0  0.85001  0.44289  0.15729  1.0000
  C   C786      1.0  0.84794  0.44236  0.12434  1.0000
  C   C787      1.0  0.88494  0.44239  0.13756  1.0000
  C   C788      1.0  0.85977  0.47749  0.13834  1.0000
  N   N54       1.0  0.68891  0.13847  0.21948  1.0000
  C   C789      1.0  0.50770  0.09885  0.26174  1.0000
  C   C790      1.0  0.65430  0.06829  0.08606  1.0000
  C   C791      1.0  0.54679  0.20430  0.03184  1.0000
  H   H924      1.0  0.57250  0.20233  0.06809  1.0000
  H   H925      1.0  0.83192  0.45030  0.15951  1.0000
  H   H926      1.0  0.84957  0.42359  0.15809  1.0000
  H   H927      1.0  0.85984  0.44694  0.16930  1.0000
  H   H928      1.0  0.82939  0.44878  0.12479  1.0000
  H   H929      1.0  0.84804  0.42310  0.12589  1.0000
  H   H930      1.0  0.85602  0.44659  0.11030  1.0000
  H   H931      1.0  0.89527  0.44757  0.14892  1.0000
  H   H932      1.0  0.88626  0.42306  0.13827  1.0000
  H   H933      1.0  0.52547  0.17969  0.04705  1.0000
  H   H934      1.0  0.66096  0.04529  0.13872  1.0000
  H   H935      1.0  0.59570  0.22092  0.06858  1.0000
  H   H936      1.0  0.82210  0.44864  0.07218  1.0000
  H   H937      1.0  0.90486  0.35789  0.24502  1.0000
  H   H938      1.0  0.65648  0.04972  0.08868  1.0000
  C   C792      1.0  0.63899  0.00889  0.18648  1.0000
  H   H939      1.0  0.64425  0.04167  0.11942  1.0000
  H   H940      1.0  0.56282  0.19532  0.03590  1.0000
  H   H941      1.0  0.69564  0.27193  0.05077  1.0000
  C   C793      1.0  0.76917  0.48936  0.03274  1.0000
  H   H942      1.0  0.98955  0.42471  0.16899  1.0000
  H   H943      1.0  0.53247  0.06142  0.16796  1.0000
  H   H944      1.0  0.96663  0.49627  0.19484  1.0000
  H   H945      1.0  0.54746  0.02000  0.16920  1.0000
  H   H946      1.0  0.64706  0.10650  0.04852  1.0000
  C   C794      1.0  0.65375  0.15961  0.23520  1.0000
  H   H947      1.0  0.86357  0.44030  0.06496  1.0000
  H   H948      1.0  0.68244  0.17104  0.20361  1.0000
  H   H949      1.0  0.76066  0.49037  0.04642  1.0000
  H   H950      1.0  0.65000  0.12077  0.10545  1.0000
  C   C795      1.0  0.64826  0.11588  0.07673  1.0000
  H   H951      1.0  0.69251  0.08179  0.11913  1.0000
  H   H952      1.0  0.61935  0.07684  0.12631  1.0000
  C   C796      1.0  0.65377  0.08390  0.10053  1.0000
  H   H953      1.0  0.98124  0.41835  0.12176  1.0000
  C   C797      1.0  0.51198  0.10440  0.20545  1.0000
  C   C798      1.0  0.64421  0.15210  0.26804  1.0000
  C   C799      1.0  0.68915  0.11352  0.21587  1.0000
  H   H954      1.0  0.67134  0.10841  0.21418  1.0000
  H   H955      1.0  0.58928  0.25824  0.08503  1.0000
  H   H956      1.0  0.56467  0.26561  0.07174  1.0000
  C   C800      1.0  0.71994  0.29889  0.04629  1.0000
  C   C801      1.0  0.52786  0.21631  0.10014  1.0000
  H   H957      1.0  0.50618  0.11662  0.21571  1.0000
  C   C802      1.0  0.54020  0.22887  0.08563  1.0000
  H   H958      1.0  0.80415  0.46361  0.05517  1.0000
  C   C803      1.0  0.65191  0.07646  0.06753  1.0000
  H   H959      1.0  0.99505  0.36220  0.19285  1.0000
  H   H960      1.0  0.66460  0.14818  0.19829  1.0000
  C   C804      1.0  0.65067  0.10791  0.09524  1.0000
  C   C805      1.0  0.84946  0.49165  0.12376  1.0000
  H   H961      1.0  0.69615  0.10196  0.22741  1.0000
  C   C806      1.0  0.70601  0.28175  0.04058  1.0000
  H   H962      1.0  0.67419  0.10563  0.12737  1.0000
  C   C807      1.0  0.57662  0.22076  0.06866  1.0000
  H   H963      1.0  0.99463  0.37349  0.15757  1.0000
  Fe  Fe109     1.0  0.60918  0.22281  0.02200  1.0000
  C   C808      1.0  0.63947  0.16378  0.25107  1.0000
  H   H964      1.0  0.87723  0.45271  0.04366  1.0000
  H   H965      1.0  0.61408  0.10595  0.25274  1.0000
  H   H966      1.0  0.63041  0.02975  0.25730  1.0000
  H   H967      1.0  0.51376  0.01901  0.18701  1.0000
  H   H968      1.0  0.83478  0.45112  0.02126  1.0000
  H   H969      1.0  0.81086  0.50215  0.04810  1.0000
  H   H970      1.0  0.98214  0.48943  0.17373  1.0000
  C   C809      1.0  0.98347  0.49808  0.18694  1.0000
  H   H971      1.0  0.74148  0.22903  0.02020  1.0000
  H   H972      1.0  0.99699  0.48808  0.19506  1.0000
  C   C810      1.0  0.99569  0.42903  0.12235  1.0000
  H   H973      1.0  0.62446  0.17597  0.25017  1.0000
  H   H974      1.0  0.89654  0.46294  0.26352  1.0000
  C   C811      1.0  0.99655  0.44805  0.10940  1.0000
  C   C812      1.0  0.50445  0.20659  0.03276  1.0000
  C   C813      1.0  0.50480  0.22686  0.02113  1.0000
  Fe  Fe110     1.0  0.59924  0.06945  0.38313  1.0000
  S   S218      1.0  0.60908  0.10565  0.37517  1.0000
  S   S219      1.0  0.56513  0.05894  0.39633  1.0000
  Fe  Fe111     1.0  0.64592  0.04859  0.36951  1.0000
  S   S220      1.0  0.65949  0.08301  0.36022  1.0000
  C   C814      1.0  0.99714  0.35557  0.32863  1.0000
  Fe  Fe112     1.0  0.64313  0.09407  0.38771  1.0000
  S   S221      1.0  0.66054  0.11596  0.40736  1.0000
  Fe  Fe113     1.0  0.62425  0.09077  0.34862  1.0000
  S   S222      1.0  0.61328  0.10736  0.32069  1.0000
  S   S223      1.0  0.63196  0.05892  0.39745  1.0000
  S   S224      1.0  0.61196  0.05538  0.35613  1.0000
  Fe  Fe114     1.0  0.93740  0.39615  0.36584  1.0000
  S   S225      1.0  0.93622  0.35860  0.36062  1.0000
  S   S226      1.0  0.97009  0.41427  0.36728  1.0000
  Fe  Fe115     1.0  0.88610  0.40485  0.36623  1.0000
  S   S227      1.0  0.88037  0.36752  0.36161  1.0000
  S   S228      1.0  0.85555  0.43116  0.36681  1.0000
  Fe  Fe116     1.0  0.90723  0.35854  0.38278  1.0000
  S   S229      1.0  0.90978  0.32627  0.40284  1.0000
  Fe  Fe117     1.0  0.90977  0.37052  0.34009  1.0000
  S   S230      1.0  0.90999  0.35308  0.31278  1.0000
  S   S231      1.0  0.91035  0.39572  0.38925  1.0000
  S   S232      1.0  0.91353  0.40827  0.34333  1.0000
  H   H975      1.0  0.69555  0.03947  0.43961  1.0000
  S   S233      1.0  0.87294  0.31098  0.48739  1.0000
  H   H976      1.0  0.87151  0.43141  0.26967  1.0000
  S   S234      1.0  0.69647  0.07939  0.48696  1.0000
  H   H977      1.0  0.86151  0.40728  0.33303  1.0000
  H   H978      1.0  0.90814  0.48552  0.28909  1.0000
  C   C815      1.0  0.86727  0.43454  0.29993  1.0000
  C   C816      1.0  0.99170  0.37149  0.37610  1.0000
  C   C817      1.0  0.91195  0.36778  0.29053  1.0000
  H   H979      1.0  0.55809  0.00900  0.40157  1.0000
  N   N55       1.0  0.54266  0.08817  0.31325  1.0000
  C   C818      1.0  0.89003  0.45896  0.27767  1.0000
  N   N56       1.0  0.96307  0.31511  0.47103  1.0000
  C   C819      1.0  0.91688  0.39113  0.28821  1.0000
  H   H980      1.0  0.90452  0.33764  0.27646  1.0000
  C   C820      1.0  0.56344  0.07195  0.31073  1.0000
  H   H981      1.0  0.97097  0.48861  0.38748  1.0000
  H   H982      1.0  0.92014  0.40054  0.30013  1.0000
  H   H983      1.0  0.53820  0.07474  0.34180  1.0000
  H   H984      1.0  0.55935  0.10880  0.33174  1.0000
  H   H985      1.0  0.97478  0.36532  0.37948  1.0000
  C   C821      1.0  0.85897  0.46132  0.36395  1.0000
  C   C822      1.0  0.83895  0.47617  0.36309  1.0000
  C   C823      1.0  0.88070  0.47077  0.36204  1.0000
  H   H986      1.0  0.82214  0.46905  0.36452  1.0000
  H   H987      1.0  0.89629  0.45940  0.36264  1.0000
  C   C824      1.0  0.89990  0.32278  0.42649  1.0000
  C   C825      1.0  0.90612  0.30196  0.43672  1.0000
  C   C826      1.0  0.89823  0.29815  0.45543  1.0000
  C   C827      1.0  0.88389  0.31513  0.46407  1.0000
  C   C828      1.0  0.87761  0.33590  0.45384  1.0000
  C   C829      1.0  0.88569  0.33980  0.43519  1.0000
  H   H988      1.0  0.91690  0.28860  0.43003  1.0000
  H   H989      1.0  0.90286  0.28192  0.46302  1.0000
  H   H990      1.0  0.86640  0.34907  0.46037  1.0000
  H   H991      1.0  0.88065  0.35584  0.42747  1.0000
  C   C830      1.0  0.62389  0.09689  0.29907  1.0000
  C   C831      1.0  0.61359  0.10589  0.28273  1.0000
  C   C832      1.0  0.64251  0.08027  0.29775  1.0000
  H   H992      1.0  0.59934  0.11891  0.28357  1.0000
  H   H993      1.0  0.65061  0.07321  0.31021  1.0000
  H   H994      1.0  0.95823  0.35757  0.31140  1.0000
  H   H995      1.0  0.85977  0.26336  0.49269  1.0000
  H   H996      1.0  0.84366  0.24332  0.50736  1.0000
  C   C833      1.0  0.67064  0.10562  0.42944  1.0000
  C   C834      1.0  0.66419  0.08456  0.43810  1.0000
  C   C835      1.0  0.67184  0.07726  0.45585  1.0000
  C   C836      1.0  0.68652  0.09055  0.46505  1.0000
  C   C837      1.0  0.69294  0.11167  0.45646  1.0000
  C   C838      1.0  0.68487  0.11923  0.43882  1.0000
  H   H997      1.0  0.65319  0.07393  0.43120  1.0000
  H   H998      1.0  0.66644  0.06112  0.46250  1.0000
  H   H999      1.0  0.70415  0.12216  0.46335  1.0000
  H   H1000     1.0  0.68989  0.13562  0.43232  1.0000
  C   C839      1.0  0.54273  0.09461  0.37587  1.0000
  C   C840      1.0  0.54057  0.07492  0.38796  1.0000
  C   C841      1.0  0.51850  0.06770  0.39341  1.0000
  H   H1001     1.0  0.55964  0.10040  0.37168  1.0000
  C   C842      1.0  0.99415  0.39487  0.37069  1.0000
  H   H1002     1.0  0.99102  0.40194  0.33043  1.0000
  H   H1003     1.0  0.64030  0.02158  0.33526  1.0000
  H   H1004     1.0  0.63293  0.15508  0.28027  1.0000
  H   H1005     1.0  0.97866  0.33425  0.49106  1.0000
  H   H1006     1.0  0.98153  0.35019  0.33710  1.0000
  C   C843      1.0  0.52135  0.13657  0.40652  1.0000
  C   C844      1.0  0.97362  0.36241  0.30241  1.0000
  H   H1007     1.0  0.67629  0.01877  0.46665  1.0000
  H   H1008     1.0  0.81349  0.22151  0.49061  1.0000
  C   C845      1.0  0.52289  0.11770  0.41945  1.0000
  H   H1009     1.0  0.99903  0.43186  0.39628  1.0000
  C   C846      1.0  0.54073  0.14904  0.40176  1.0000
  H   H1010     1.0  0.83294  0.30718  0.43881  1.0000
  C   C847      1.0  0.83606  0.27613  0.45695  1.0000
  C   C848      1.0  0.65114  0.07327  0.28019  1.0000
  H   H1011     1.0  0.88019  0.25306  0.41912  1.0000
  H   H1012     1.0  0.66588  0.06080  0.27927  1.0000
  C   C849      1.0  0.86185  0.39927  0.31946  1.0000
  H   H1013     1.0  0.96367  0.39001  0.32973  1.0000
  C   C850      1.0  0.95695  0.29095  0.46927  1.0000
  H   H1014     1.0  0.55875  0.05518  0.30580  1.0000
  H   H1015     1.0  0.95904  0.31339  0.50099  1.0000
  H   H1016     1.0  0.96684  0.37484  0.29127  1.0000
  H   H1017     1.0  0.82108  0.43737  0.30085  1.0000
  H   H1018     1.0  0.69290  0.01341  0.41825  1.0000
  Fe  Fe118     1.0  0.88816  0.28546  0.50948  1.0000
  C   C851      1.0  0.91729  0.40245  0.27036  1.0000
  H   H1019     1.0  0.74066  0.01304  0.46886  1.0000
  H   H1020     1.0  0.52457  0.12258  0.36029  1.0000
  N   N57       1.0  0.85202  0.41524  0.30457  1.0000
  H   H1021     1.0  0.86801  0.44479  0.32840  1.0000
  H   H1022     1.0  0.88008  0.39360  0.31575  1.0000
  C   C852      1.0  0.71244  0.03134  0.44405  1.0000
  H   H1023     1.0  0.89363  0.47614  0.32140  1.0000
  H   H1024     1.0  0.86567  0.39358  0.28278  1.0000
  N   N58       1.0  0.58558  0.11683  0.43271  1.0000
  C   C853      1.0  0.59320  0.09264  0.42861  1.0000
  C   C854      1.0  0.60492  0.13162  0.42669  1.0000
  C   C855      1.0  0.58171  0.11806  0.45312  1.0000
  C   C856      1.0  0.56378  0.12383  0.42348  1.0000
  C   C857      1.0  0.56170  0.14286  0.41003  1.0000
  C   C858      1.0  0.54375  0.11134  0.42781  1.0000
  H   H1025     1.0  0.94476  0.34883  0.47181  1.0000
  C   C859      1.0  0.99322  0.34347  0.42761  1.0000
  N   N59       1.0  0.70978  0.00854  0.45440  1.0000
  H   H1026     1.0  0.59471  0.09078  0.41338  1.0000
  H   H1027     1.0  0.61036  0.08719  0.43422  1.0000
  H   H1028     1.0  0.58089  0.07987  0.43447  1.0000
  H   H1029     1.0  0.60965  0.13067  0.41158  1.0000
  H   H1030     1.0  0.62102  0.12598  0.43394  1.0000
  H   H1031     1.0  0.60072  0.15007  0.42975  1.0000
  H   H1032     1.0  0.56895  0.10582  0.45910  1.0000
  H   H1033     1.0  0.59799  0.11359  0.46045  1.0000
  H   H1034     1.0  0.57518  0.13584  0.45672  1.0000
  H   H1035     1.0  0.57605  0.15312  0.40551  1.0000
  H   H1036     1.0  0.54413  0.09629  0.43747  1.0000
  H   H1037     1.0  0.57666  0.07912  0.30063  1.0000
  H   H1038     1.0  0.51332  0.09060  0.33310  1.0000
  C   C860      1.0  0.86303  0.24556  0.44596  1.0000
  H   H1039     1.0  0.66636  0.12650  0.28236  1.0000
  C   C861      1.0  0.88859  0.46622  0.31021  1.0000
  C   C862      1.0  0.52819  0.07834  0.32911  1.0000
  H   H1040     1.0  0.73598  0.02865  0.51479  1.0000
  H   H1041     1.0  0.71951  0.04408  0.45283  1.0000
  S   S235      1.0  0.97039  0.26089  0.51326  1.0000
  C   C863      1.0  0.90818  0.35576  0.27481  1.0000
  H   H1042     1.0  0.81609  0.22150  0.46568  1.0000
  C   C864      1.0  0.52287  0.10712  0.36938  1.0000
  H   H1043     1.0  0.97196  0.27817  0.47135  1.0000
  C   C865      1.0  0.97704  0.47198  0.39482  1.0000
  H   H1044     1.0  0.82376  0.28352  0.46708  1.0000
  C   C866      1.0  0.85678  0.28140  0.42711  1.0000
  H   H1045     1.0  0.86100  0.29227  0.41473  1.0000
  C   C867      1.0  0.88218  0.49509  0.35947  1.0000
  H   H1046     1.0  0.85422  0.20913  0.49409  1.0000
  C   C868      1.0  0.84721  0.25373  0.46025  1.0000
  C   C869      1.0  0.87547  0.44075  0.28145  1.0000
  H   H1047     1.0  0.83983  0.41151  0.27723  1.0000
  C   C870      1.0  0.85788  0.21871  0.48046  1.0000
  H   H1048     1.0  0.53416  0.02510  0.37830  1.0000
  N   N60       1.0  0.84196  0.23978  0.47775  1.0000
  N   N61       1.0  0.99099  0.37268  0.31320  1.0000
  H   H1049     1.0  0.70011  0.02598  0.47954  1.0000
  H   H1050     1.0  0.95946  0.34744  0.43999  1.0000
  C   C871      1.0  0.86770  0.25932  0.42970  1.0000
  H   H1051     1.0  0.56256  0.11835  0.30786  1.0000
  H   H1052     1.0  0.89891  0.50237  0.35810  1.0000
  C   C872      1.0  0.84876  0.40115  0.28854  1.0000
  S   S236      1.0  0.75779  0.08958  0.50871  1.0000
  H   H1053     1.0  0.53517  0.12353  0.32034  1.0000
  C   C873      1.0  0.82897  0.42484  0.31141  1.0000
  C   C874      1.0  0.55020  0.11069  0.31850  1.0000
  H   H1054     1.0  0.00225  0.45894  0.36602  1.0000
  H   H1055     1.0  0.57100  0.01776  0.36919  1.0000
  H   H1056     1.0  0.95054  0.28876  0.45529  1.0000
  C   C875      1.0  0.53036  0.09176  0.29574  1.0000
  H   H1057     1.0  0.94323  0.28579  0.47987  1.0000
  S   S237      1.0  0.66602  0.01429  0.36829  1.0000
  H   H1058     1.0  0.72446  0.02969  0.43157  1.0000
  C   C876      1.0  0.98070  0.32126  0.45619  1.0000
  H   H1059     1.0  0.93264  0.32914  0.45723  1.0000
  C   C877      1.0  0.84041  0.50021  0.36049  1.0000
  C   C878      1.0  0.89673  0.47154  0.29203  1.0000
  H   H1060     1.0  0.84438  0.49525  0.29371  1.0000
  H   H1061     1.0  0.96957  0.47140  0.40936  1.0000
  H   H1062     1.0  0.85219  0.38332  0.32207  1.0000
  H   H1063     1.0  0.96927  0.45815  0.38764  1.0000
  C   C879      1.0  0.54240  0.09886  0.27886  1.0000
  C   C880      1.0  0.84363  0.25400  0.49397  1.0000
  H   H1064     1.0  0.80504  0.24716  0.47669  1.0000
  C   C881      1.0  0.97613  0.33817  0.44139  1.0000
  C   C882      1.0  0.81810  0.23219  0.47769  1.0000
  H   H1065     1.0  0.82904  0.26734  0.49545  1.0000
  C   C883      1.0  0.97969  0.39385  0.32115  1.0000
  S   S238      1.0  0.90479  0.24991  0.50542  1.0000
  H   H1066     1.0  0.83800  0.38625  0.29258  1.0000
  C   C884      1.0  0.84099  0.28977  0.44070  1.0000
  C   C885      1.0  0.97238  0.31677  0.48960  1.0000
  C   C886      1.0  0.87395  0.44815  0.31411  1.0000
  Fe  Fe119     1.0  0.71870  0.09241  0.50905  1.0000
  H   H1067     1.0  0.98688  0.30366  0.49239  1.0000
  H   H1068     1.0  0.62084  0.01177  0.28851  1.0000
  H   H1069     1.0  0.81685  0.41089  0.31483  1.0000
  H   H1070     1.0  0.85605  0.20602  0.46980  1.0000
  H   H1071     1.0  0.87225  0.22874  0.44708  1.0000
  C   C887      1.0  0.50625  0.08894  0.29489  1.0000
  H   H1072     1.0  0.87623  0.22324  0.48027  1.0000
  H   H1073     1.0  0.53951  0.16342  0.39138  1.0000
  H   H1074     1.0  0.52143  0.06162  0.32588  1.0000
  H   H1075     1.0  0.92849  0.32541  0.48174  1.0000
  C   C888      1.0  0.94140  0.33037  0.47039  1.0000
  H   H1076     1.0  0.00162  0.36995  0.27469  1.0000
  H   H1077     1.0  0.51669  0.05259  0.40288  1.0000
  H   H1078     1.0  0.57257  0.06832  0.32389  1.0000
  H   H1079     1.0  0.82999  0.43411  0.32437  1.0000
  H   H1080     1.0  0.97475  0.40720  0.31002  1.0000
  H   H1081     1.0  0.98077  0.34623  0.29610  1.0000
  C   C889      1.0  0.69393  0.01260  0.47087  1.0000
  C   C890      1.0  0.52496  0.01024  0.37547  1.0000
  H   H1082     1.0  0.98936  0.35638  0.41645  1.0000
  C   C891      1.0  0.00314  0.30973  0.45594  1.0000
  H   H1083     1.0  0.50794  0.10761  0.42265  1.0000
  H   H1084     1.0  0.56056  0.10205  0.27844  1.0000
  H   H1085     1.0  0.92102  0.42052  0.26865  1.0000
  H   H1086     1.0  0.50525  0.14111  0.39979  1.0000
  N   N62       1.0  0.00273  0.46887  0.39424  1.0000
  C   C892      1.0  0.66316  0.13606  0.26922  1.0000
  Fe  Fe120     1.0  0.62005  0.04491  0.71106  1.0000
  S   S239      1.0  0.65516  0.05845  0.71060  1.0000
  H   H1087     1.0  0.94950  0.33002  0.63584  1.0000
  Fe  Fe121     1.0  0.59849  0.09015  0.69518  1.0000
  S   S240      1.0  0.63220  0.10760  0.69374  1.0000
  S   S241      1.0  0.56460  0.10984  0.68885  1.0000
  Fe  Fe122     1.0  0.64758  0.07431  0.68201  1.0000
  S   S242      1.0  0.67653  0.06725  0.65967  1.0000
  Fe  Fe123     1.0  0.63661  0.08993  0.72229  1.0000
  S   S243      1.0  0.65034  0.10554  0.74722  1.0000
  S   S244      1.0  0.61343  0.05807  0.68173  1.0000
  S   S245      1.0  0.60191  0.07524  0.72435  1.0000
  H   H1088     1.0  0.97454  0.27665  0.58007  1.0000
  Fe  Fe124     1.0  0.89768  0.28250  0.55145  1.0000
  S   S246      1.0  0.91465  0.24634  0.55006  1.0000
  S   S247      1.0  0.90317  0.30861  0.57295  1.0000
  C   C893      1.0  0.68019  0.02419  0.59232  1.0000
  H   H1089     1.0  0.94741  0.32135  0.55655  1.0000
  Fe  Fe125     1.0  0.88481  0.23944  0.53219  1.0000
  H   H1090     1.0  0.60702  0.12560  0.73302  1.0000
  C   C894      1.0  0.96518  0.32063  0.56064  1.0000
  S   S248      1.0  0.86687  0.27501  0.53543  1.0000
  H   H1091     1.0  0.92944  0.47014  0.67907  1.0000
  C   C895      1.0  0.81987  0.15562  0.52967  1.0000
  H   H1092     1.0  0.59054  0.13507  0.71341  1.0000
  Fe  Fe126     1.0  0.75285  0.06707  0.53515  1.0000
  S   S249      1.0  0.71437  0.06870  0.53483  1.0000
  S   S250      1.0  0.77005  0.03140  0.54221  1.0000
  Fe  Fe127     1.0  0.71483  0.09955  0.55177  1.0000
  S   S251      1.0  0.68771  0.10739  0.57515  1.0000
  S   S252      1.0  0.75334  0.09662  0.55404  1.0000
  Fe  Fe128     1.0  0.89528  0.34515  0.67565  1.0000
  S   S253      1.0  0.90516  0.37987  0.66324  1.0000
  S   S254      1.0  0.87860  0.31907  0.65922  1.0000
  Fe  Fe129     1.0  0.91240  0.35406  0.71428  1.0000
  S   S255      1.0  0.92419  0.38910  0.70450  1.0000
  S   S256      1.0  0.91535  0.33792  0.74371  1.0000
  Fe  Fe130     1.0  0.89085  0.39371  0.69015  1.0000
  S   S257      1.0  0.86930  0.42702  0.69380  1.0000
  Fe  Fe131     1.0  0.93743  0.37184  0.67868  1.0000
  S   S258      1.0  0.97165  0.37733  0.66374  1.0000
  S   S259      1.0  0.87788  0.35973  0.70154  1.0000
  S   S260      1.0  0.92873  0.33620  0.68945  1.0000
  H   H1093     1.0  0.95184  0.47914  0.69257  1.0000
  C   C896      1.0  0.87517  0.47326  0.68658  1.0000
  C   C897      1.0  0.87861  0.45101  0.67993  1.0000
  C   C898      1.0  0.88874  0.44824  0.66210  1.0000
  C   C899      1.0  0.89462  0.46777  0.65075  1.0000
  H   H1094     1.0  0.86705  0.47556  0.70024  1.0000
  H   H1095     1.0  0.89145  0.43117  0.65685  1.0000
  C   C900      1.0  0.84048  0.16691  0.53148  1.0000
  C   C901      1.0  0.98281  0.31046  0.54938  1.0000
  H   H1096     1.0  0.85732  0.40788  0.65859  1.0000
  H   H1097     1.0  0.96968  0.36936  0.70363  1.0000
  H   H1098     1.0  0.87601  0.40153  0.59593  1.0000
  C   C902      1.0  0.89151  0.48998  0.65751  1.0000
  H   H1099     1.0  0.55545  0.15985  0.71714  1.0000
  C   C903      1.0  0.89602  0.31075  0.59695  1.0000
  C   C904      1.0  0.88342  0.29436  0.60749  1.0000
  C   C905      1.0  0.87828  0.29705  0.62659  1.0000
  C   C906      1.0  0.88592  0.31594  0.63532  1.0000
  C   C907      1.0  0.89871  0.33217  0.62478  1.0000
  C   C908      1.0  0.90360  0.32964  0.60569  1.0000
  H   H1100     1.0  0.87743  0.27977  0.60092  1.0000
  H   H1101     1.0  0.86829  0.28446  0.63465  1.0000
  H   H1102     1.0  0.90447  0.34691  0.63126  1.0000
  H   H1103     1.0  0.91321  0.34251  0.59762  1.0000
  C   C909      1.0  0.91226  0.35492  0.76329  1.0000
  H   H1104     1.0  0.60500  0.15576  0.72480  1.0000
  H   H1105     1.0  0.82749  0.34625  0.63275  1.0000
  C   C910      1.0  0.84042  0.19128  0.53153  1.0000
  C   C911      1.0  0.91668  0.37842  0.76188  1.0000
  C   C912      1.0  0.98754  0.36917  0.69866  1.0000
  H   H1106     1.0  0.57099  0.10800  0.74858  1.0000
  H   H1107     1.0  0.78238  0.20315  0.52680  1.0000
  C   C913      1.0  0.71644  0.02413  0.57466  1.0000
  C   C914      1.0  0.96200  0.31591  0.63235  1.0000
  C   C915      1.0  0.86515  0.38973  0.60408  1.0000
  H   H1108     1.0  0.55861  0.11686  0.72686  1.0000
  N   N63       1.0  0.83129  0.38582  0.65118  1.0000
  C   C916      1.0  0.95764  0.44396  0.65649  1.0000
  H   H1109     1.0  0.82303  0.18829  0.57605  1.0000
  C   C917      1.0  0.88271  0.45707  0.74171  1.0000
  H   H1110     1.0  0.51631  0.12107  0.68306  1.0000
  H   H1111     1.0  0.85746  0.36443  0.66500  1.0000
  C   C918      1.0  0.67919  0.07846  0.63615  1.0000
  C   C919      1.0  0.66215  0.09361  0.62819  1.0000
  C   C920      1.0  0.66505  0.10212  0.60950  1.0000
  C   C921      1.0  0.68494  0.09560  0.59850  1.0000
  C   C922      1.0  0.70201  0.08043  0.60643  1.0000
  C   C923      1.0  0.69908  0.07184  0.62511  1.0000
  H   H1112     1.0  0.64677  0.09886  0.63646  1.0000
  H   H1113     1.0  0.65175  0.11390  0.60355  1.0000
  H   H1114     1.0  0.71756  0.07549  0.59825  1.0000
  H   H1115     1.0  0.71245  0.06026  0.63116  1.0000
  C   C924      1.0  0.54105  0.09226  0.68859  1.0000
  C   C925      1.0  0.54421  0.06819  0.69165  1.0000
  H   H1116     1.0  0.94506  0.28434  0.58751  1.0000
  H   H1117     1.0  0.56124  0.06022  0.69412  1.0000
  H   H1118     1.0  0.67931  0.04350  0.59239  1.0000
  H   H1119     1.0  0.00370  0.48932  0.66340  1.0000
  H   H1120     1.0  0.79900  0.37065  0.64741  1.0000
  N   N64       1.0  0.96416  0.46300  0.66758  1.0000
  C   C926      1.0  0.99324  0.32863  0.58262  1.0000
  C   C927      1.0  0.99334  0.37198  0.67962  1.0000
  S   S261      1.0  0.86731  0.20444  0.53370  1.0000
  C   C928      1.0  0.94243  0.25108  0.61541  1.0000
  C   C929      1.0  0.80573  0.38738  0.65064  1.0000
  H   H1121     1.0  0.93835  0.29955  0.61697  1.0000
  H   H1122     1.0  0.83246  0.42320  0.64827  1.0000
  H   H1123     1.0  0.52799  0.03569  0.69354  1.0000
  H   H1124     1.0  0.97375  0.34738  0.75187  1.0000
  C   C930      1.0  0.55978  0.16335  0.73152  1.0000
  C   C931      1.0  0.57993  0.14940  0.75893  1.0000
  H   H1125     1.0  0.98578  0.23250  0.61853  1.0000
  C   C932      1.0  0.68056  0.02674  0.55909  1.0000
  H   H1126     1.0  0.92725  0.26393  0.61489  1.0000
  C   C933      1.0  0.97034  0.32946  0.57730  1.0000
  H   H1127     1.0  0.97105  0.44016  0.64526  1.0000
  H   H1128     1.0  0.58397  0.02223  0.69611  1.0000
  H   H1129     1.0  0.52754  0.07199  0.74867  1.0000
  C   C934      1.0  0.81920  0.20419  0.52981  1.0000
  C   C935      1.0  0.83768  0.35895  0.62508  1.0000
  H   H1130     1.0  0.72244  0.18293  0.60538  1.0000
  H   H1131     1.0  0.99756  0.24621  0.59708  1.0000
  H   H1132     1.0  0.68894  0.01751  0.60507  1.0000
  C   C936      1.0  0.88212  0.49268  0.67555  1.0000
  C   C937      1.0  0.51883  0.10244  0.68548  1.0000
  H   H1133     1.0  0.86834  0.36404  0.58364  1.0000
  H   H1134     1.0  0.54314  0.16654  0.73963  1.0000
  C   C938      1.0  0.99395  0.27915  0.62410  1.0000
  C   C939      1.0  0.95881  0.26995  0.58747  1.0000
  H   H1135     1.0  0.56887  0.17974  0.73066  1.0000
  H   H1136     1.0  0.97414  0.48421  0.64310  1.0000
  H   H1137     1.0  0.70029  0.17251  0.59240  1.0000
  H   H1138     1.0  0.75169  0.20527  0.58961  1.0000
  H   H1139     1.0  0.65394  0.02384  0.66543  1.0000
  C   C940      1.0  0.98349  0.34002  0.76351  1.0000
  C   C941      1.0  0.00007  0.29688  0.63482  1.0000
  H   H1140     1.0  0.69031  0.02360  0.54567  1.0000
  C   C942      1.0  0.83833  0.36727  0.66528  1.0000
  H   H1141     1.0  0.66319  0.01989  0.55838  1.0000
  C   C943      1.0  0.98142  0.24071  0.60468  1.0000
  H   H1142     1.0  0.97516  0.22686  0.59657  1.0000
  H   H1143     1.0  0.71027  0.15234  0.56417  1.0000
  C   C944      1.0  0.95572  0.29831  0.62165  1.0000
  C   C945      1.0  0.98410  0.31516  0.63900  1.0000
  H   H1144     1.0  0.73969  0.14474  0.55730  1.0000
  H   H1145     1.0  0.81854  0.22285  0.53016  1.0000
  H   H1146     1.0  0.72921  0.17422  0.55473  1.0000
  C   C946      1.0  0.52534  0.05433  0.69130  1.0000
  N   N65       1.0  0.96382  0.26048  0.60648  1.0000
  C   C947      1.0  0.98763  0.45751  0.67443  1.0000
  H   H1147     1.0  0.94479  0.24558  0.63029  1.0000
  H   H1148     1.0  0.90180  0.46571  0.63675  1.0000
  H   H1149     1.0  0.79980  0.40076  0.63984  1.0000
  H   H1150     1.0  0.79727  0.39209  0.66424  1.0000
  H   H1151     1.0  0.72290  0.00811  0.63128  1.0000
  H   H1152     1.0  0.77503  0.13663  0.57211  1.0000
  C   C948      1.0  0.83824  0.40809  0.65758  1.0000
  H   H1153     1.0  0.95643  0.33701  0.58612  1.0000
  H   H1154     1.0  0.88104  0.42235  0.75386  1.0000
  H   H1155     1.0  0.54393  0.12497  0.74787  1.0000
  H   H1156     1.0  0.69210  0.01730  0.65418  1.0000
  H   H1157     1.0  0.96558  0.50021  0.66330  1.0000
  H   H1158     1.0  0.81454  0.14850  0.56964  1.0000
  C   C949      1.0  0.84708  0.35335  0.60756  1.0000
  H   H1159     1.0  0.60508  0.09081  0.76082  1.0000
  H   H1160     1.0  0.74092  0.14130  0.60844  1.0000
  N   N66       1.0  0.57436  0.14390  0.74000  1.0000
  C   C950      1.0  0.97133  0.27920  0.61738  1.0000
  C   C951      1.0  0.99498  0.25554  0.52680  1.0000
  H   H1161     1.0  0.94432  0.48847  0.65057  1.0000
  H   H1162     1.0  0.93723  0.23585  0.60837  1.0000
  C   C952      1.0  0.99275  0.43639  0.68499  1.0000
  C   C953      1.0  0.60275  0.15321  0.76374  1.0000
  H   H1163     1.0  0.95538  0.42750  0.66503  1.0000
  H   H1164     1.0  0.71651  0.19551  0.58228  1.0000
  H   H1165     1.0  0.66197  0.01917  0.59339  1.0000
  C   C954      1.0  0.65799  0.01108  0.67719  1.0000
  H   H1166     1.0  0.00032  0.36536  0.72614  1.0000
  C   C955      1.0  0.99374  0.24439  0.54458  1.0000
  H   H1167     1.0  0.74335  0.12494  0.58802  1.0000
  H   H1168     1.0  0.95261  0.25653  0.57890  1.0000
  H   H1169     1.0  0.83155  0.35026  0.66298  1.0000
  C   C956      1.0  0.84174  0.38023  0.63267  1.0000
  H   H1170     1.0  0.79136  0.21627  0.58609  1.0000
  H   H1171     1.0  0.61753  0.15198  0.75396  1.0000
  H   H1172     1.0  0.97866  0.30310  0.53663  1.0000
  C   C957      1.0  0.96210  0.48487  0.65563  1.0000
  H   H1173     1.0  0.86007  0.41204  0.62619  1.0000
  H   H1174     1.0  0.98869  0.32868  0.64762  1.0000
  H   H1175     1.0  0.83066  0.41156  0.67175  1.0000
  H   H1176     1.0  0.72639  0.02055  0.56144  1.0000
  C   C958      1.0  0.75986  0.00765  0.53154  1.0000
  H   H1177     1.0  0.92130  0.38672  0.74846  1.0000
  H   H1178     1.0  0.97732  0.23881  0.55043  1.0000
  S   S262      1.0  0.71590  0.12389  0.52611  1.0000
  N   N67       1.0  0.69277  0.01582  0.57528  1.0000
  H   H1179     1.0  0.84426  0.33672  0.60226  1.0000
  C   C959      1.0  0.79860  0.19290  0.52798  1.0000
  H   H1180     1.0  0.64387  0.01362  0.68813  1.0000
  H   H1181     1.0  0.94090  0.44831  0.64989  1.0000
  C   C960      1.0  0.85583  0.39554  0.62160  1.0000
  H   H1182     1.0  0.83230  0.37157  0.67964  1.0000
  N   N68       1.0  0.73520  0.16191  0.58297  1.0000
  C   C961      1.0  0.73384  0.13985  0.59459  1.0000
  C   C962      1.0  0.71798  0.17908  0.59116  1.0000
  C   C963      1.0  0.72820  0.15817  0.56404  1.0000
  C   C964      1.0  0.75920  0.16935  0.58176  1.0000
  C   C965      1.0  0.77790  0.15386  0.57600  1.0000
  C   C966      1.0  0.76470  0.19213  0.58545  1.0000
  C   C967      1.0  0.80064  0.16056  0.57438  1.0000
  C   C968      1.0  0.78752  0.19874  0.58351  1.0000
  C   C969      1.0  0.80543  0.18300  0.57796  1.0000
  C   C970      1.0  0.86075  0.36871  0.59707  1.0000
  H   H1183     1.0  0.71615  0.04326  0.57575  1.0000
  H   H1184     1.0  0.71569  0.13473  0.59695  1.0000
  C   C971      1.0  0.94725  0.46536  0.68364  1.0000
  Fe  Fe132     1.0  0.93259  0.25976  0.52348  1.0000
  S   S263      1.0  0.61612  0.00960  0.72495  1.0000
  H   H1185     1.0  0.88145  0.45187  0.72765  1.0000
  C   C972      1.0  0.56140  0.12257  0.74094  1.0000
  H   H1186     1.0  0.63296  0.00895  0.76439  1.0000
  H   H1187     1.0  0.82042  0.13690  0.52964  1.0000
  C   C973      1.0  0.59516  0.13993  0.72734  1.0000
  H   H1188     1.0  0.94624  0.44896  0.69248  1.0000
  C   C974      1.0  0.88406  0.48036  0.74505  1.0000
  H   H1189     1.0  0.85665  0.15660  0.53279  1.0000
  Fe  Fe133     1.0  0.75504  0.11981  0.52758  1.0000
  S   S264      1.0  0.77178  0.15535  0.52584  1.0000
  S   S265      1.0  0.91696  0.29585  0.52556  1.0000
  H   H1190     1.0  0.67806  0.04595  0.55974  1.0000
  C   C975      1.0  0.88251  0.44043  0.75652  1.0000
  C   C976      1.0  0.79866  0.16851  0.52794  1.0000
  H   H1191     1.0  0.97978  0.42396  0.68816  1.0000
  H   H1192     1.0  0.72664  0.01563  0.58611  1.0000
  H   H1193     1.0  0.99597  0.33585  0.59568  1.0000
  C   C977      1.0  0.88549  0.48704  0.76321  1.0000
  H   H1194     1.0  0.67413  0.01576  0.68328  1.0000
  C   C978      1.0  0.52071  0.07906  0.76150  1.0000
  H   H1195     1.0  0.88373  0.49338  0.73351  1.0000
  H   H1196     1.0  0.88574  0.50540  0.76499  1.0000
  C   C979      1.0  0.74282  0.01124  0.51858  1.0000
  Fe  Fe134     1.0  0.61097  0.10338  0.85513  1.0000
  S   S266      1.0  0.60552  0.06771  0.86792  1.0000
  S   S267      1.0  0.59696  0.10829  0.82623  1.0000
  Fe  Fe135     1.0  0.62652  0.12000  0.89236  1.0000
  S   S268      1.0  0.62170  0.08542  0.90733  1.0000
  S   S269      1.0  0.63755  0.15069  0.90728  1.0000
  Fe  Fe136     1.0  0.63860  0.07073  0.88152  1.0000
  S   S270      1.0  0.66762  0.04303  0.88319  1.0000
  Fe  Fe137     1.0  0.58914  0.08609  0.89206  1.0000
  S   S271      1.0  0.55540  0.07501  0.90501  1.0000
  S   S272      1.0  0.64576  0.10535  0.86712  1.0000
  S   S273      1.0  0.59244  0.12182  0.87883  1.0000
  H   H1197     1.0  0.83432  0.29695  0.97947  1.0000
  S   S274      1.0  0.64798  0.15165  0.99480  1.0000
  S   S275      1.0  0.63907  0.22041  0.00081  1.0000
  H   H1198     1.0  0.64537  0.11470  0.81455  1.0000
  S   S276      1.0  0.85336  0.34244  0.98918  1.0000
  Fe  Fe138     1.0  0.89307  0.36411  0.88412  1.0000
  S   S277      1.0  0.92455  0.37335  0.89797  1.0000
  S   S278      1.0  0.86102  0.35219  0.90066  1.0000
  Fe  Fe139     1.0  0.91047  0.38417  0.84531  1.0000
  S   S279      1.0  0.94261  0.39545  0.85693  1.0000
  S   S280      1.0  0.90794  0.39757  0.81506  1.0000
  Fe  Fe140     1.0  0.94423  0.36083  0.87246  1.0000
  S   S281      1.0  0.97911  0.34118  0.87131  1.0000
  Fe  Fe141     1.0  0.91986  0.40692  0.88104  1.0000
  S   S282      1.0  0.92388  0.44064  0.89366  1.0000
  S   S283      1.0  0.91317  0.34838  0.85959  1.0000
  S   S284      1.0  0.88739  0.39869  0.86844  1.0000
  H   H1199     1.0  0.52564  0.10765  0.84614  1.0000
  H   H1200     1.0  0.86503  0.47822  0.85374  1.0000
  C   C980      1.0  0.78464  0.46615  0.00746  1.0000
  C   C981      1.0  0.92242  0.48449  0.87746  1.0000
  C   C982      1.0  0.91156  0.46365  0.87983  1.0000
  C   C983      1.0  0.89096  0.46137  0.87113  1.0000
  C   C984      1.0  0.88118  0.47992  0.86014  1.0000
  H   H1201     1.0  0.93830  0.48638  0.88422  1.0000
  H   H1202     1.0  0.88220  0.44556  0.87319  1.0000
  C   C985      1.0  0.98912  0.47000  0.86721  1.0000
  C   C986      1.0  0.88332  0.45238  0.94501  1.0000
  C   C987      1.0  0.90537  0.35705  0.79693  1.0000
  C   C988      1.0  0.90983  0.38054  0.79548  1.0000
  C   C989      1.0  0.56217  0.15117  0.77325  1.0000
  H   H1203     1.0  0.84487  0.44961  0.91267  1.0000
  C   C990      1.0  0.52196  0.09737  0.85889  1.0000
  H   H1204     1.0  0.90062  0.34881  0.81035  1.0000
  C   C991      1.0  0.88169  0.40605  0.92944  1.0000
  C   C992      1.0  0.88397  0.44690  0.77472  1.0000
  C   C993      1.0  0.85507  0.34637  0.96463  1.0000
  C   C994      1.0  0.87690  0.34490  0.95516  1.0000
  C   C995      1.0  0.87898  0.34680  0.93560  1.0000
  C   C996      1.0  0.85918  0.34957  0.92530  1.0000
  C   C997      1.0  0.83730  0.35051  0.93478  1.0000
  C   C998      1.0  0.83524  0.34932  0.95436  1.0000
  H   H1205     1.0  0.89232  0.34223  0.96299  1.0000
  H   H1206     1.0  0.89591  0.34568  0.92852  1.0000
  H   H1207     1.0  0.82187  0.35246  0.92692  1.0000
  H   H1208     1.0  0.81831  0.35015  0.96147  1.0000
  H   H1209     1.0  0.62511  0.15963  0.78541  1.0000
  H   H1210     1.0  0.85075  0.47451  0.80358  1.0000
  H   H1211     1.0  0.66561  0.11412  0.78325  1.0000
  C   C999      1.0  0.86374  0.43888  0.94538  1.0000
  C   C1000     1.0  0.53432  0.08005  0.88854  1.0000
  C   C1001     1.0  0.97267  0.33829  0.78128  1.0000
  H   H1212     1.0  0.58441  0.09275  0.79173  1.0000
  C   C1002     1.0  0.53914  0.09262  0.87171  1.0000
  C   C1003     1.0  0.57026  0.05025  0.83558  1.0000
  H   H1213     1.0  0.55608  0.09871  0.86846  1.0000
  C   C1004     1.0  0.63893  0.15100  0.93180  1.0000
  C   C1005     1.0  0.64387  0.17159  0.93965  1.0000
  C   C1006     1.0  0.64607  0.17224  0.95897  1.0000
  C   C1007     1.0  0.64366  0.15218  0.97061  1.0000
  C   C1008     1.0  0.63843  0.13168  0.96279  1.0000
  C   C1009     1.0  0.63580  0.13115  0.94354  1.0000
  H   H1214     1.0  0.64636  0.18705  0.93071  1.0000
  H   H1215     1.0  0.65032  0.18808  0.96476  1.0000
  H   H1216     1.0  0.63649  0.11609  0.97167  1.0000
  H   H1217     1.0  0.63161  0.11533  0.93779  1.0000
  C   C1010     1.0  0.82086  0.28417  0.98265  1.0000
  C   C1011     1.0  0.61394  0.09589  0.77243  1.0000
  C   C1012     1.0  0.63664  0.10914  0.80293  1.0000
  C   C1013     1.0  0.61350  0.10371  0.80529  1.0000
  C   C1014     1.0  0.60232  0.09680  0.79002  1.0000
  Fe  Fe142     1.0  0.82560  0.36024  0.00787  1.0000
  H   H1218     1.0  0.71977  0.28687  0.99430  1.0000
  C   C1015     1.0  0.98439  0.32782  0.79673  1.0000
  C   C1016     1.0  0.84684  0.44201  0.96024  1.0000
  H   H1219     1.0  0.55353  0.15584  0.80232  1.0000
  H   H1220     1.0  0.90091  0.47812  0.95802  1.0000
  C   C1017     1.0  0.60744  0.15772  0.78188  1.0000
  H   H1221     1.0  0.00122  0.32299  0.83269  1.0000
  H   H1222     1.0  0.83915  0.39751  0.92191  1.0000
  H   H1223     1.0  0.83138  0.43248  0.96190  1.0000
  H   H1224     1.0  0.91054  0.44884  0.80635  1.0000
  H   H1225     1.0  0.97906  0.35912  0.82263  1.0000
  C   C1018     1.0  0.91561  0.39109  0.77792  1.0000
  N   N69       1.0  0.69267  0.08738  0.92288  1.0000
  C   C1019     1.0  0.67468  0.07157  0.93008  1.0000
  C   C1020     1.0  0.68490  0.09884  0.90509  1.0000
  C   C1021     1.0  0.71443  0.07330  0.91868  1.0000
  C   C1022     1.0  0.69653  0.10395  0.93701  1.0000
  C   C1023     1.0  0.69479  0.12843  0.93327  1.0000
  C   C1024     1.0  0.70203  0.09571  0.95530  1.0000
  C   C1025     1.0  0.69771  0.14353  0.94718  1.0000
  C   C1026     1.0  0.70455  0.11099  0.96916  1.0000
  C   C1027     1.0  0.70220  0.13485  0.96513  1.0000
  H   H1226     1.0  0.68044  0.05963  0.94182  1.0000
  H   H1227     1.0  0.65868  0.08158  0.93498  1.0000
  H   H1228     1.0  0.66983  0.06021  0.91925  1.0000
  H   H1229     1.0  0.68175  0.08598  0.89487  1.0000
  H   H1230     1.0  0.69809  0.11007  0.89824  1.0000
  H   H1231     1.0  0.66840  0.10953  0.90725  1.0000
  H   H1232     1.0  0.72066  0.06291  0.93111  1.0000
  H   H1233     1.0  0.71208  0.06077  0.90792  1.0000
  H   H1234     1.0  0.72846  0.08455  0.91335  1.0000
  H   H1235     1.0  0.69043  0.13649  0.91990  1.0000
  H   H1236     1.0  0.70401  0.07736  0.95910  1.0000
  H   H1237     1.0  0.69557  0.16213  0.94418  1.0000
  H   H1238     1.0  0.70792  0.10437  0.98320  1.0000
  H   H1239     1.0  0.70340  0.14669  0.97603  1.0000
  H   H1240     1.0  0.55185  0.02868  0.88933  1.0000
  C   C1028     1.0  0.56501  0.01397  0.85456  1.0000
  H   H1241     1.0  0.54842  0.11554  0.96072  1.0000
  H   H1242     1.0  0.78242  0.31223  0.98908  1.0000
  H   H1243     1.0  0.79157  0.25390  0.97971  1.0000
  H   H1244     1.0  0.70148  0.01032  0.86894  1.0000
  H   H1245     1.0  0.63444  0.04851  0.77375  1.0000
  C   C1029     1.0  0.90664  0.34430  0.78088  1.0000
  C   C1030     1.0  0.76665  0.23971  0.99886  1.0000
  H   H1246     1.0  0.58755  0.14962  0.91628  1.0000
  C   C1031     1.0  0.58975  0.15857  0.79571  1.0000
  C   C1032     1.0  0.59064  0.01485  0.82627  1.0000
  H   H1247     1.0  0.80914  0.28664  0.97090  1.0000
  H   H1248     1.0  0.80824  0.32482  0.99496  1.0000
  C   C1033     1.0  0.57946  0.14964  0.93020  1.0000
  C   C1034     1.0  0.88581  0.46800  0.95863  1.0000
  N   N70       1.0  0.86127  0.42293  0.93050  1.0000
  C   C1035     1.0  0.56755  0.13066  0.93725  1.0000
  H   H1249     1.0  0.91951  0.40912  0.77669  1.0000
  H   H1250     1.0  0.88328  0.43312  0.78554  1.0000
  H   H1251     1.0  0.86374  0.49307  0.81847  1.0000
  H   H1252     1.0  0.65665  0.02307  0.82739  1.0000
  H   H1253     1.0  0.55110  0.14838  0.98002  1.0000
  H   H1254     1.0  0.59370  0.16105  0.80992  1.0000
  N   N71       1.0  0.88718  0.47776  0.79781  1.0000
  H   H1255     1.0  0.60120  0.17085  0.98615  1.0000
  C   C1036     1.0  0.99498  0.49261  0.86915  1.0000
  H   H1256     1.0  0.58661  0.19453  0.99781  1.0000
  H   H1257     1.0  0.52613  0.25232  0.00693  1.0000
  C   C1037     1.0  0.64547  0.03828  0.80115  1.0000
  H   H1258     1.0  0.86742  0.49426  0.90139  1.0000
  H   H1259     1.0  0.56669  0.06886  0.83347  1.0000
  C   C1038     1.0  0.91309  0.50275  0.86596  1.0000
  C   C1039     1.0  0.71967  0.29019  0.00887  1.0000
  C   C1040     1.0  0.55748  0.13046  0.95523  1.0000
  H   H1260     1.0  0.58842  0.22141  0.97220  1.0000
  C   C1041     1.0  0.64300  0.00747  0.87150  1.0000
  S   S285      1.0  0.78868  0.37086  0.00181  1.0000
  C   C1042     1.0  0.63827  0.01127  0.77824  1.0000
  C   C1043     1.0  0.79038  0.48667  0.99726  1.0000
  C   C1044     1.0  0.88612  0.47042  0.77860  1.0000
  H   H1261     1.0  0.82987  0.26658  0.98259  1.0000
  S   S286      1.0  0.79168  0.43917  0.99766  1.0000
  N   N72       1.0  0.57319  0.18841  0.97144  1.0000
  H   H1262     1.0  0.60533  0.20051  0.95928  1.0000
  C   C1045     1.0  0.54966  0.19893  0.97596  1.0000
  C   C1046     1.0  0.58397  0.17999  0.98899  1.0000
  C   C1047     1.0  0.57156  0.16877  0.95952  1.0000
  C   C1048     1.0  0.58160  0.16842  0.94110  1.0000
  C   C1049     1.0  0.55927  0.14926  0.96619  1.0000
  C   C1050     1.0  0.86880  0.47083  0.97287  1.0000
  H   H1263     1.0  0.93874  0.32023  0.80436  1.0000
  H   H1264     1.0  0.89805  0.41442  0.92544  1.0000
  H   H1265     1.0  0.95162  0.35785  0.81246  1.0000
  H   H1266     1.0  0.59422  0.04830  0.81186  1.0000
  C   C1051     1.0  0.53643  0.08013  0.77540  1.0000
  H   H1267     1.0  0.53891  0.18704  0.98490  1.0000
  H   H1268     1.0  0.54032  0.20396  0.96312  1.0000
  H   H1269     1.0  0.55032  0.21488  0.98370  1.0000
  H   H1270     1.0  0.97625  0.31033  0.84316  1.0000
  H   H1271     1.0  0.57328  0.16787  0.99770  1.0000
  C   C1052     1.0  0.63886  0.03404  0.78351  1.0000
  H   H1272     1.0  0.59156  0.18222  0.93480  1.0000
  H   H1273     1.0  0.74355  0.31744  0.00436  1.0000
  H   H1274     1.0  0.64598  0.05598  0.80515  1.0000
  N   N73       1.0  0.97203  0.32507  0.81518  1.0000
  H   H1275     1.0  0.97138  0.46654  0.86496  1.0000
  C   C1053     1.0  0.96419  0.34823  0.82168  1.0000
  H   H1276     1.0  0.99287  0.29523  0.82573  1.0000
  H   H1277     1.0  0.95484  0.34492  0.78275  1.0000
  H   H1278     1.0  0.83955  0.29970  0.01083  1.0000
  H   H1279     1.0  0.51672  0.10733  0.92606  1.0000
  C   C1054     1.0  0.85978  0.43644  0.91241  1.0000
  H   H1280     1.0  0.90313  0.32614  0.78206  1.0000
  H   H1281     1.0  0.56632  0.11600  0.92879  1.0000
  C   C1055     1.0  0.73340  0.30748  0.01456  1.0000
  C   C1056     1.0  0.58581  0.03868  0.82342  1.0000
  H   H1282     1.0  0.83614  0.45996  0.98475  1.0000
  H   H1283     1.0  0.55437  0.07391  0.77301  1.0000
  C   C1057     1.0  0.58723  0.20712  0.96270  1.0000
  C   C1058     1.0  0.55987  0.03816  0.85087  1.0000
  H   H1284     1.0  0.76111  0.22819  0.98899  1.0000
  C   C1059     1.0  0.66461  0.01641  0.87330  1.0000
  H   H1285     1.0  0.87994  0.39336  0.91874  1.0000
  H   H1286     1.0  0.97882  0.38528  0.88811  1.0000
  H   H1287     1.0  0.92116  0.49021  0.79217  1.0000
  N   N74       1.0  0.80819  0.28795  0.00080  1.0000
  C   C1060     1.0  0.99660  0.37897  0.88536  1.0000
  H   H1288     1.0  0.52566  0.02479  0.87766  1.0000
  H   H1289     1.0  0.82414  0.42088  0.93337  1.0000
  C   C1061     1.0  0.84941  0.45783  0.97367  1.0000
  H   H1290     1.0  0.50890  0.06105  0.90489  1.0000
  H   H1291     1.0  0.88393  0.39603  0.94300  1.0000
  C   C1062     1.0  0.52606  0.23622  0.01543  1.0000
  H   H1292     1.0  0.89709  0.46433  0.82519  1.0000
  S   S287      1.0  0.69013  0.25438  0.01372  1.0000
  H   H1293     1.0  0.57957  0.21519  0.94985  1.0000
  H   H1294     1.0  0.00137  0.43418  0.86701  1.0000
  H   H1295     1.0  0.79835  0.48578  0.98340  1.0000
  C   C1063     1.0  0.79606  0.31128  0.99939  1.0000
  C   C1064     1.0  0.65153  0.01975  0.81362  1.0000
  S   S288      1.0  0.57343  0.23810  0.01415  1.0000
  H   H1296     1.0  0.87568  0.44569  0.90864  1.0000
  H   H1297     1.0  0.85766  0.42499  0.90088  1.0000
  C   C1065     1.0  0.84036  0.40943  0.93329  1.0000
  H   H1298     1.0  0.84066  0.39839  0.94652  1.0000
  C   C1066     1.0  0.78413  0.25473  0.99369  1.0000
  C   C1067     1.0  0.86396  0.48750  0.80399  1.0000
  H   H1299     1.0  0.89682  0.45104  0.93407  1.0000
  C   C1068     1.0  0.64804  0.10889  0.78516  1.0000
  H   H1300     1.0  0.95544  0.34686  0.83577  1.0000
  H   H1301     1.0  0.90673  0.49981  0.81329  1.0000
  H   H1302     1.0  0.99481  0.39997  0.81662  1.0000
  C   C1069     1.0  0.51259  0.07123  0.89209  1.0000
  Fe  Fe143     1.0  0.64482  0.18361  0.01195  1.0000
  C   C1070     1.0  0.89233  0.50058  0.85748  1.0000
  H   H1303     1.0  0.54815  0.04827  0.85976  1.0000
  C   C1071     1.0  0.95149  0.31147  0.81380  1.0000
  C   C1072     1.0  0.79099  0.27067  0.00619  1.0000
  H   H1304     1.0  0.85678  0.49608  0.93506  1.0000
  H   H1305     1.0  0.95656  0.29414  0.80846  1.0000
  C   C1073     1.0  0.89418  0.45828  0.81125  1.0000
  H   H1306     1.0  0.62736  0.01731  0.87590  1.0000
  C   C1074     1.0  0.82576  0.28761  0.01503  1.0000
  C   C1075     1.0  0.90403  0.49584  0.79869  1.0000
  H   H1307     1.0  0.88068  0.44552  0.81378  1.0000
  H   H1308     1.0  0.94194  0.30877  0.82753  1.0000
  Fe  Fe144     1.0  0.79519  0.40446  0.01435  1.0000
  C   C1076     1.0  0.63661  0.10267  0.76976  1.0000
  C   C1077     1.0  0.98638  0.31286  0.82968  1.0000
  C   C1078     1.0  0.56714  0.15541  0.79140  1.0000
  C   C1079     1.0  0.75566  0.24000  0.01650  1.0000
  H   H1309     1.0  0.85825  0.50297  0.79501  1.0000
  C   C1080     1.0  0.00154  0.35762  0.87750  1.0000
  C   C1081     1.0  0.52912  0.08883  0.79246  1.0000
  H   H1310     1.0  0.54129  0.08946  0.80327  1.0000
  C   C1082     1.0  0.54102  0.01559  0.88407  1.0000
  H   H1311     1.0  0.87059  0.48319  0.98326  1.0000
  H   H1312     1.0  0.78740  0.31612  0.01288  1.0000
  C   C1083     1.0  0.50606  0.09651  0.79571  1.0000
  H   H1313     1.0  0.54435  0.14899  0.77061  1.0000
  H   H1314     1.0  0.60260  0.00586  0.81671  1.0000
  H   H1315     1.0  0.83423  0.26992  0.01742  1.0000
  Fe  Fe145     1.0  0.61657  0.86520  0.20024  1.0000
  S   S289      1.0  0.60239  0.90209  0.19864  1.0000
  S   S290      1.0  0.60988  0.84414  0.22727  1.0000
  Fe  Fe146     1.0  0.63534  0.86758  0.15956  1.0000
  S   S291      1.0  0.62315  0.90525  0.15498  1.0000
  S   S292      1.0  0.65581  0.84694  0.13744  1.0000
  Fe  Fe147     1.0  0.63582  0.90968  0.18334  1.0000
  S   S293      1.0  0.65305  0.93953  0.19402  1.0000
  Fe  Fe148     1.0  0.59085  0.89454  0.17083  1.0000
  S   S294      1.0  0.55523  0.90792  0.16332  1.0000
  S   S295      1.0  0.65114  0.87306  0.18682  1.0000
  S   S296      1.0  0.60193  0.85666  0.17347  1.0000
  Fe  Fe149     1.0  0.89983  0.60433  0.19670  1.0000
  S   S297      1.0  0.93094  0.57949  0.19453  1.0000
  S   S298      1.0  0.88921  0.62046  0.22401  1.0000
  Fe  Fe150     1.0  0.88337  0.59306  0.15827  1.0000
  S   S299      1.0  0.91332  0.56703  0.15382  1.0000
  S   S300      1.0  0.85233  0.59619  0.13995  1.0000
  Fe  Fe151     1.0  0.90699  0.55567  0.18381  1.0000
  H   H1316     1.0  0.58066  0.96886  0.18738  1.0000
  Fe  Fe152     1.0  0.93465  0.59351  0.16493  1.0000
  S   S301      1.0  0.96998  0.59782  0.15078  1.0000
  S   S302      1.0  0.87548  0.57938  0.18768  1.0000
  S   S303      1.0  0.90503  0.62076  0.16756  1.0000
  Fe  Fe153     1.0  0.82485  0.59814  0.03229  1.0000
  S   S304      1.0  0.78689  0.59896  0.04022  1.0000
  S   S305      1.0  0.85469  0.60039  0.05131  1.0000
  C   C1084     1.0  0.86908  0.51337  0.15192  1.0000
  S   S306      1.0  0.65660  0.78003  0.02449  1.0000
  H   H1317     1.0  0.89876  0.55820  0.22704  1.0000
  C   C1085     1.0  0.84895  0.51590  0.12350  1.0000
  H   H1318     1.0  0.76326  0.65903  0.08075  1.0000
  C   C1086     1.0  0.62024  0.99082  0.16261  1.0000
  Fe  Fe154     1.0  0.62376  0.78596  0.04264  1.0000
  S   S307      1.0  0.60970  0.75190  0.03676  1.0000
  S   S308      1.0  0.61230  0.79934  0.07118  1.0000
  H   H1319     1.0  0.74516  0.70564  0.02470  1.0000
  H   H1320     1.0  0.92242  0.51962  0.15941  1.0000
  C   C1087     1.0  0.97034  0.53524  0.17281  1.0000
  C   C1088     1.0  0.51149  0.89889  0.17626  1.0000
  C   C1089     1.0  0.86228  0.53347  0.23281  1.0000
  C   C1090     1.0  0.92756  0.60282  0.24283  1.0000
  C   C1091     1.0  0.90491  0.61278  0.24410  1.0000
  H   H1321     1.0  0.67538  0.86957  0.25919  1.0000
  H   H1322     1.0  0.54868  0.95876  0.15647  1.0000
  N   N75       1.0  0.79783  0.66073  0.06811  1.0000
  H   H1323     1.0  0.83955  0.57054  0.24790  1.0000
  H   H1324     1.0  0.86431  0.66873  0.10012  1.0000
  H   H1325     1.0  0.95621  0.54718  0.24009  1.0000
  C   C1092     1.0  0.66086  0.92853  0.26618  1.0000
  H   H1326     1.0  0.58056  0.80057  0.18849  1.0000
  C   C1093     1.0  0.50557  0.80003  0.09397  1.0000
  C   C1094     1.0  0.50782  0.00172  0.18706  1.0000
  H   H1327     1.0  0.70613  0.72629  0.02382  1.0000
  H   H1328     1.0  0.85819  0.54552  0.13732  1.0000
  C   C1095     1.0  0.52281  0.98204  0.18280  1.0000
  C   C1096     1.0  0.97085  0.53495  0.21410  1.0000
  H   H1329     1.0  0.90596  0.53387  0.24284  1.0000
  H   H1330     1.0  0.97166  0.60661  0.18964  1.0000
  C   C1097     1.0  0.85366  0.59574  0.11534  1.0000
  C   C1098     1.0  0.87420  0.59894  0.10469  1.0000
  C   C1099     1.0  0.87418  0.60015  0.08513  1.0000
  C   C1100     1.0  0.85372  0.59806  0.07599  1.0000
  C   C1101     1.0  0.83327  0.59430  0.08664  1.0000
  C   C1102     1.0  0.83328  0.59315  0.10621  1.0000
  H   H1331     1.0  0.89000  0.60101  0.11150  1.0000
  H   H1332     1.0  0.89011  0.60298  0.07701  1.0000
  H   H1333     1.0  0.81743  0.59248  0.07982  1.0000
  H   H1334     1.0  0.81731  0.59064  0.11433  1.0000
  C   C1103     1.0  0.81092  0.65841  0.08524  1.0000
  C   C1104     1.0  0.65786  0.86418  0.26074  1.0000
  C   C1105     1.0  0.52979  0.74358  0.02220  1.0000
  N   N76       1.0  0.87095  0.54843  0.24649  1.0000
  C   C1106     1.0  0.52635  0.86560  0.20363  1.0000
  C   C1107     1.0  0.64247  0.96688  0.18495  1.0000
  C   C1108     1.0  0.64796  0.98694  0.19316  1.0000
  C   C1109     1.0  0.81146  0.64903  0.05301  1.0000
  H   H1335     1.0  0.66808  0.93236  0.25178  1.0000
  H   H1336     1.0  0.54891  0.75998  0.08843  1.0000
  C   C1110     1.0  0.62853  0.96887  0.16969  1.0000
  H   H1337     1.0  0.65916  0.98546  0.20470  1.0000
  H   H1338     1.0  0.53216  0.85259  0.21408  1.0000
  C   C1111     1.0  0.56172  0.96724  0.19017  1.0000
  H   H1339     1.0  0.62446  0.95353  0.16315  1.0000
  C   C1112     1.0  0.53514  0.89383  0.17829  1.0000
  H   H1340     1.0  0.51013  0.91727  0.26386  1.0000
  H   H1341     1.0  0.80850  0.63688  0.13081  1.0000
  C   C1113     1.0  0.54256  0.87745  0.19218  1.0000
  C   C1114     1.0  0.81520  0.64556  0.11806  1.0000
  H   H1342     1.0  0.56078  0.87367  0.19406  1.0000
  C   C1115     1.0  0.64346  0.83477  0.11860  1.0000
  C   C1116     1.0  0.65810  0.82490  0.10459  1.0000
  C   C1117     1.0  0.64897  0.81445  0.08971  1.0000
  C   C1118     1.0  0.62504  0.81344  0.08885  1.0000
  C   C1119     1.0  0.61041  0.82321  0.10293  1.0000
  C   C1120     1.0  0.61952  0.83402  0.11760  1.0000
  H   H1343     1.0  0.67665  0.82538  0.10521  1.0000
  H   H1344     1.0  0.66045  0.80693  0.07906  1.0000
  H   H1345     1.0  0.59189  0.82250  0.10246  1.0000
  H   H1346     1.0  0.60806  0.84146  0.12830  1.0000
  C   C1121     1.0  0.77536  0.50984  0.02271  1.0000
  C   C1122     1.0  0.51650  0.79186  0.07730  1.0000
  C   C1123     1.0  0.79355  0.68558  0.06217  1.0000
  H   H1347     1.0  0.84803  0.65001  0.12925  1.0000
  S   S309      1.0  0.90670  0.52035  0.19827  1.0000
  Fe  Fe155     1.0  0.78613  0.56952  0.02131  1.0000
  H   H1348     1.0  0.54758  0.76617  0.05403  1.0000
  H   H1349     1.0  0.80990  0.69420  0.05867  1.0000
  H   H1350     1.0  0.84335  0.53164  0.23499  1.0000
  H   H1351     1.0  0.95704  0.58916  0.25792  1.0000
  H   H1352     1.0  0.54208  0.98840  0.14857  1.0000
  C   C1124     1.0  0.83757  0.65296  0.11722  1.0000
  C   C1125     1.0  0.77505  0.65029  0.07030  1.0000
  C   C1126     1.0  0.63764  0.99705  0.24493  1.0000
  C   C1127     1.0  0.59715  0.79362  0.16188  1.0000
  H   H1353     1.0  0.81654  0.53977  0.05944  1.0000
  H   H1354     1.0  0.80183  0.64967  0.04008  1.0000
  H   H1355     1.0  0.97336  0.55398  0.17066  1.0000
  H   H1356     1.0  0.96916  0.52840  0.15887  1.0000
  H   H1357     1.0  0.97705  0.65155  0.15513  1.0000
  H   H1358     1.0  0.76587  0.65191  0.05707  1.0000
  H   H1359     1.0  0.57118  0.97827  0.15386  1.0000
  H   H1360     1.0  0.81574  0.63053  0.05727  1.0000
  H   H1361     1.0  0.56942  0.78636  0.05284  1.0000
  C   C1128     1.0  0.99301  0.59665  0.16576  1.0000
  C   C1129     1.0  0.99183  0.55485  0.23556  1.0000
  H   H1362     1.0  0.84085  0.52647  0.11240  1.0000
  H   H1363     1.0  0.78502  0.64146  0.10392  1.0000
  C   C1130     1.0  0.55403  0.77820  0.08809  1.0000
  H   H1364     1.0  0.87691  0.62441  0.26288  1.0000
  C   C1131     1.0  0.83360  0.66627  0.08504  1.0000
  H   H1365     1.0  0.95467  0.52819  0.21102  1.0000
  H   H1366     1.0  0.84158  0.67423  0.07257  1.0000
  C   C1132     1.0  0.62321  0.92518  0.25443  1.0000
  H   H1367     1.0  0.85222  0.54646  0.07499  1.0000
  C   C1133     1.0  0.63349  0.96184  0.26550  1.0000
  H   H1368     1.0  0.55050  0.78456  0.10221  1.0000
  H   H1369     1.0  0.52205  0.84413  0.15924  1.0000
  H   H1370     1.0  0.77709  0.63138  0.07429  1.0000
  C   C1134     1.0  0.84976  0.52943  0.07025  1.0000
  H   H1371     1.0  0.87665  0.52189  0.16284  1.0000
  N   N77       1.0  0.54782  0.98351  0.17776  1.0000
  C   C1135     1.0  0.89429  0.61636  0.26177  1.0000
  C   C1136     1.0  0.50900  0.84977  0.14944  1.0000
  H   H1372     1.0  0.78329  0.68780  0.04947  1.0000
  C   C1137     1.0  0.84673  0.66337  0.10077  1.0000
  H   H1373     1.0  0.65483  0.86189  0.23125  1.0000
  C   C1138     1.0  0.64625  0.85981  0.24489  1.0000
  C   C1139     1.0  0.98898  0.60175  0.18434  1.0000
  N   N78       1.0  0.66176  0.79817  0.18804  1.0000
  C   C1140     1.0  0.67308  0.77447  0.18991  1.0000
  C   C1141     1.0  0.67735  0.81323  0.17643  1.0000
  C   C1142     1.0  0.65916  0.80749  0.20681  1.0000
  C   C1143     1.0  0.63943  0.79709  0.17922  1.0000
  C   C1144     1.0  0.61767  0.79963  0.18927  1.0000
  C   C1145     1.0  0.63898  0.79215  0.16023  1.0000
  C   C1146     1.0  0.59692  0.79795  0.18063  1.0000
  C   C1147     1.0  0.61815  0.79061  0.15173  1.0000
  H   H1374     1.0  0.95304  0.53403  0.18000  1.0000
  H   H1375     1.0  0.66187  0.76256  0.19846  1.0000
  H   H1376     1.0  0.67667  0.76697  0.17615  1.0000
  H   H1377     1.0  0.68990  0.77433  0.19664  1.0000
  H   H1378     1.0  0.68321  0.80597  0.16297  1.0000
  H   H1379     1.0  0.69337  0.81616  0.18347  1.0000
  H   H1380     1.0  0.66850  0.83047  0.17307  1.0000
  H   H1381     1.0  0.64962  0.79594  0.21702  1.0000
  H   H1382     1.0  0.67616  0.80943  0.21275  1.0000
  H   H1383     1.0  0.64983  0.82497  0.20631  1.0000
  H   H1384     1.0  0.61609  0.80339  0.20376  1.0000
  H   H1385     1.0  0.65470  0.78976  0.15163  1.0000
  C   C1148     1.0  0.99532  0.65296  0.15699  1.0000
  H   H1386     1.0  0.63073  0.92804  0.24000  1.0000
  H   H1387     1.0  0.60992  0.99231  0.15053  1.0000
  N   N79       1.0  0.54182  0.79295  0.07367  1.0000
  H   H1388     1.0  0.64471  0.96287  0.23601  1.0000
  C   C1149     1.0  0.55041  0.78481  0.05526  1.0000
  C   C1150     1.0  0.54827  0.81724  0.07434  1.0000
  H   H1389     1.0  0.82806  0.65691  0.04904  1.0000
  C   C1151     1.0  0.50874  0.73391  0.02806  1.0000
  C   C1152     1.0  0.89589  0.55092  0.24159  1.0000
  H   H1390     1.0  0.54602  0.73338  0.02363  1.0000
  H   H1391     1.0  0.60477  0.93190  0.25461  1.0000
  S   S310      1.0  0.76979  0.53673  0.03303  1.0000
  H   H1392     1.0  0.78378  0.69517  0.07330  1.0000
  H   H1393     1.0  0.86021  0.57910  0.22961  1.0000
  H   H1394     1.0  0.57315  0.77766  0.08541  1.0000
  H   H1395     1.0  0.93619  0.60051  0.22937  1.0000
  H   H1396     1.0  0.86489  0.58439  0.25294  1.0000
  H   H1397     1.0  0.55753  0.97055  0.20502  1.0000
  H   H1398     1.0  0.54540  0.82389  0.08841  1.0000
  H   H1399     1.0  0.56697  0.81896  0.07048  1.0000
  H   H1400     1.0  0.53834  0.82904  0.06443  1.0000
  H   H1401     1.0  0.55886  0.94874  0.18827  1.0000
  C   C1153     1.0  0.63900  0.97286  0.24779  1.0000
  H   H1402     1.0  0.62356  0.90597  0.25707  1.0000
  C   C1154     1.0  0.80196  0.64816  0.10236  1.0000
  H   H1403     1.0  0.50892  0.71631  0.03413  1.0000
  S   S311      1.0  0.60520  0.80546  0.01943  1.0000
  C   C1155     1.0  0.62396  0.85189  0.24678  1.0000
  C   C1156     1.0  0.61313  0.84906  0.26459  1.0000
  C   C1157     1.0  0.82973  0.52568  0.06146  1.0000
  C   C1158     1.0  0.85834  0.57153  0.24417  1.0000
  H   H1404     1.0  0.52281  0.94490  0.17951  1.0000
  H   H1405     1.0  0.51547  0.80703  0.10427  1.0000
  H   H1406     1.0  0.99033  0.65830  0.18608  1.0000
  H   H1407     1.0  0.61836  0.78746  0.13707  1.0000
  H   H1408     1.0  0.53239  0.81979  0.25965  1.0000
  H   H1409     1.0  0.58104  0.79279  0.15516  1.0000
  C   C1159     1.0  0.85869  0.52672  0.13756  1.0000
  H   H1410     1.0  0.54211  0.79524  0.04364  1.0000
  C   C1160     1.0  0.55262  0.97699  0.15833  1.0000
  C   C1161     1.0  0.00286  0.65672  0.17443  1.0000
  C   C1162     1.0  0.51184  0.86950  0.13767  1.0000
  H   H1411     1.0  0.85003  0.50805  0.26119  1.0000
  C   C1163     1.0  0.51256  0.96047  0.18293  1.0000
  H   H1412     1.0  0.50890  0.77521  0.05211  1.0000
  H   H1413     1.0  0.88216  0.51440  0.07972  1.0000
  C   C1164     1.0  0.70845  0.70834  0.02041  1.0000
  H   H1414     1.0  0.52729  0.87896  0.13832  1.0000
  C   C1165     1.0  0.97155  0.54568  0.23083  1.0000
  H   H1415     1.0  0.86511  0.54090  0.21829  1.0000
  H   H1416     1.0  0.90365  0.56285  0.25051  1.0000
  C   C1166     1.0  0.93937  0.59640  0.25905  1.0000
  C   C1167     1.0  0.86665  0.51134  0.07278  1.0000
  H   H1417     1.0  0.50562  0.91152  0.16554  1.0000
  H   H1418     1.0  0.64190  0.00517  0.23132  1.0000
  C   C1168     1.0  0.73065  0.69651  0.02093  1.0000
  H   H1419     1.0  0.87161  0.51597  0.23327  1.0000
  C   C1169     1.0  0.99045  0.53341  0.20140  1.0000
  H   H1420     1.0  0.59596  0.84275  0.26617  1.0000
  N   N80       1.0  0.98896  0.52269  0.18346  1.0000
  C   C1170     1.0  0.86780  0.53927  0.26605  1.0000
  H   H1421     1.0  0.99228  0.56343  0.24842  1.0000
  Fe  Fe156     1.0  0.60328  0.86592  0.35460  1.0000
  S   S312      1.0  0.64096  0.85265  0.35295  1.0000
  S   S313      1.0  0.57270  0.84473  0.36258  1.0000
  Fe  Fe157     1.0  0.61331  0.91427  0.34139  1.0000
  S   S314      1.0  0.65128  0.90549  0.33896  1.0000
  S   S315      1.0  0.60111  0.95018  0.33146  1.0000
  Fe  Fe158     1.0  0.64207  0.87384  0.32553  1.0000
  S   S316      1.0  0.66199  0.86779  0.29809  1.0000
  Fe  Fe159     1.0  0.64704  0.88558  0.36670  1.0000
  S   S317      1.0  0.67431  0.89382  0.38680  1.0000
  S   S318      1.0  0.60422  0.88417  0.32623  1.0000
  S   S319      1.0  0.60922  0.89732  0.37006  1.0000
  Fe  Fe160     1.0  0.94651  0.55354  0.35881  1.0000
  S   S320      1.0  0.95118  0.59031  0.34881  1.0000
  S   S321      1.0  0.97795  0.53100  0.36616  1.0000
  Fe  Fe161     1.0  0.89589  0.55770  0.35287  1.0000
  S   S322      1.0  0.89632  0.59506  0.34182  1.0000
  S   S323      1.0  0.86222  0.54034  0.35545  1.0000
  Fe  Fe162     1.0  0.92887  0.58329  0.32570  1.0000
  S   S324      1.0  0.94444  0.59131  0.29658  1.0000
  Fe  Fe163     1.0  0.91864  0.59902  0.36596  1.0000
  S   S325      1.0  0.91521  0.63217  0.38178  1.0000
  S   S326      1.0  0.92635  0.54566  0.33479  1.0000
  S   S327      1.0  0.91586  0.56245  0.37796  1.0000
  Fe  Fe164     1.0  0.90375  0.67392  0.48883  1.0000
  S   S328      1.0  0.90684  0.71263  0.48575  1.0000
  S   S329      1.0  0.89980  0.64535  0.46883  1.0000
  C   C1171     1.0  0.85649  0.51860  0.27127  1.0000
  S   S330      1.0  0.75077  0.88193  0.48900  1.0000
  S   S331      1.0  0.69647  0.85301  0.46894  1.0000
  C   C1172     1.0  0.90593  0.60940  0.27803  1.0000
  H   H1422     1.0  0.71988  0.90142  0.36433  1.0000
  C   C1173     1.0  0.57039  0.95967  0.37896  1.0000
  C   C1174     1.0  0.71489  0.88175  0.34132  1.0000
  H   H1423     1.0  0.71867  0.83964  0.41791  1.0000
  H   H1424     1.0  0.58910  0.95764  0.38186  1.0000
  C   C1175     1.0  0.92857  0.59942  0.27671  1.0000
  C   C1176     1.0  0.97392  0.66369  0.44668  1.0000
  H   H1425     1.0  0.94928  0.65694  0.33517  1.0000
  H   H1426     1.0  0.70354  0.96264  0.46482  1.0000
  H   H1427     1.0  0.72134  0.99534  0.50059  1.0000
  C   C1177     1.0  0.68267  0.97957  0.41547  1.0000
  H   H1428     1.0  0.89758  0.61220  0.29155  1.0000
  C   C1178     1.0  0.68868  0.95131  0.44105  1.0000
  H   H1429     1.0  0.96700  0.57144  0.38660  1.0000
  C   C1179     1.0  0.50472  0.88964  0.36550  1.0000
  C   C1180     1.0  0.91364  0.63517  0.40621  1.0000
  C   C1181     1.0  0.91343  0.65750  0.41290  1.0000
  C   C1182     1.0  0.91034  0.66090  0.43210  1.0000
  C   C1183     1.0  0.90708  0.64198  0.44483  1.0000
  C   C1184     1.0  0.90787  0.61960  0.43815  1.0000
  C   C1185     1.0  0.91136  0.61616  0.41900  1.0000
  H   H1430     1.0  0.91518  0.67234  0.40315  1.0000
  H   H1431     1.0  0.90961  0.67823  0.43697  1.0000
  H   H1432     1.0  0.90529  0.60486  0.44785  1.0000
  H   H1433     1.0  0.91166  0.59890  0.41411  1.0000
  C   C1186     1.0  0.52238  0.96906  0.37261  1.0000
  H   H1434     1.0  0.69472  0.96121  0.37462  1.0000
  H   H1435     1.0  0.75861  0.77587  0.40897  1.0000
  C   C1187     1.0  0.86100  0.52344  0.30393  1.0000
  H   H1436     1.0  0.68211  0.96404  0.33568  1.0000
  C   C1188     1.0  0.73474  0.99231  0.51029  1.0000
  C   C1189     1.0  0.56330  0.99039  0.39972  1.0000
  H   H1437     1.0  0.95357  0.66166  0.36852  1.0000
  S   S332      1.0  0.70091  0.89396  0.51084  1.0000
  C   C1190     1.0  0.62442  0.85428  0.28041  1.0000
  S   S333      1.0  0.73389  0.94697  0.50217  1.0000
  H   H1438     1.0  0.61595  0.85195  0.29407  1.0000
  C   C1191     1.0  0.54670  0.86219  0.36419  1.0000
  C   C1192     1.0  0.52611  0.85245  0.37085  1.0000
  C   C1193     1.0  0.99554  0.54859  0.37709  1.0000
  C   C1194     1.0  0.52534  0.89940  0.35908  1.0000
  C   C1195     1.0  0.54625  0.88572  0.35835  1.0000
  C   C1196     1.0  0.68093  0.95708  0.42333  1.0000
  H   H1439     1.0  0.52513  0.91755  0.35446  1.0000
  H   H1440     1.0  0.56200  0.89338  0.35319  1.0000
  C   C1197     1.0  0.68957  0.86562  0.44659  1.0000
  C   C1198     1.0  0.70077  0.88455  0.43818  1.0000
  C   C1199     1.0  0.69581  0.89294  0.41993  1.0000
  C   C1200     1.0  0.67937  0.88279  0.40994  1.0000
  C   C1201     1.0  0.66805  0.86401  0.41841  1.0000
  C   C1202     1.0  0.67327  0.85540  0.43655  1.0000
  H   H1441     1.0  0.71354  0.89244  0.44563  1.0000
  H   H1442     1.0  0.70485  0.90734  0.41351  1.0000
  H   H1443     1.0  0.65546  0.85591  0.41093  1.0000
  H   H1444     1.0  0.66461  0.84065  0.44285  1.0000
  C   C1203     1.0  0.64475  0.97435  0.36572  1.0000
  C   C1204     1.0  0.63051  0.96002  0.35739  1.0000
  C   C1205     1.0  0.61918  0.96813  0.34143  1.0000
  C   C1206     1.0  0.62235  0.99047  0.33361  1.0000
  C   C1207     1.0  0.99957  0.58276  0.39396  1.0000
  H   H1445     1.0  0.62790  0.94289  0.36364  1.0000
  H   H1446     1.0  0.74536  0.95196  0.34000  1.0000
  H   H1447     1.0  0.85835  0.51751  0.31842  1.0000
  H   H1448     1.0  0.53595  0.83098  0.29128  1.0000
  C   C1208     1.0  0.64836  0.99648  0.35771  1.0000
  Fe  Fe165     1.0  0.88317  0.71548  0.51183  1.0000
  H   H1449     1.0  0.71061  0.97098  0.32610  1.0000
  C   C1209     1.0  0.87234  0.54357  0.29930  1.0000
  C   C1210     1.0  0.70019  0.96674  0.33911  1.0000
  H   H1450     1.0  0.70146  0.93947  0.31266  1.0000
  C   C1211     1.0  0.69715  0.94429  0.36804  1.0000
  C   C1212     1.0  0.73296  0.00006  0.46072  1.0000
  C   C1213     1.0  0.62727  0.92739  0.28710  1.0000
  C   C1214     1.0  0.98411  0.64759  0.43469  1.0000
  H   H1451     1.0  0.71802  0.86536  0.34922  1.0000
  N   N81       1.0  0.56082  0.98402  0.38042  1.0000
  H   H1452     1.0  0.56157  0.94750  0.38915  1.0000
  H   H1453     1.0  0.95526  0.66515  0.44921  1.0000
  C   C1215     1.0  0.70946  0.88190  0.32279  1.0000
  H   H1454     1.0  0.61346  0.99681  0.32135  1.0000
  H   H1455     1.0  0.70830  0.86568  0.31628  1.0000
  H   H1456     1.0  0.59395  0.99602  0.37032  1.0000
  H   H1457     1.0  0.67630  0.98421  0.40181  1.0000
  H   H1458     1.0  0.97818  0.63376  0.31727  1.0000
  H   H1459     1.0  0.80513  0.79577  0.45470  1.0000
  C   C1216     1.0  0.51203  0.81626  0.33055  1.0000
  C   C1217     1.0  0.71029  0.92433  0.34029  1.0000
  H   H1460     1.0  0.67974  0.93799  0.36631  1.0000
  C   C1218     1.0  0.96686  0.65182  0.36061  1.0000
  H   H1461     1.0  0.88430  0.56736  0.27786  1.0000
  S   S334      1.0  0.93345  0.66727  0.50739  1.0000
  H   H1462     1.0  0.73565  0.96690  0.36043  1.0000
  C   C1219     1.0  0.51903  0.82705  0.28733  1.0000
  C   C1220     1.0  0.98118  0.63582  0.33170  1.0000
  C   C1221     1.0  0.85308  0.51099  0.28997  1.0000
  Fe  Fe166     1.0  0.93574  0.70579  0.50577  1.0000
  N   N82       1.0  0.84901  0.58795  0.40100  1.0000
  C   C1222     1.0  0.85844  0.59773  0.38283  1.0000
  C   C1223     1.0  0.86391  0.56691  0.40624  1.0000
  C   C1224     1.0  0.82542  0.58093  0.39825  1.0000
  C   C1225     1.0  0.84810  0.60443  0.41593  1.0000
  C   C1226     1.0  0.85446  0.62773  0.41278  1.0000
  C   C1227     1.0  0.84085  0.59724  0.43440  1.0000
  C   C1228     1.0  0.85402  0.64254  0.42735  1.0000
  C   C1229     1.0  0.84079  0.61214  0.44889  1.0000
  C   C1230     1.0  0.84751  0.63469  0.44539  1.0000
  H   H1463     1.0  0.87642  0.60295  0.38385  1.0000
  H   H1464     1.0  0.85914  0.58489  0.37196  1.0000
  H   H1465     1.0  0.84756  0.61303  0.37749  1.0000
  H   H1466     1.0  0.86626  0.55481  0.39477  1.0000
  H   H1467     1.0  0.85659  0.55668  0.41844  1.0000
  H   H1468     1.0  0.88137  0.57165  0.40971  1.0000
  H   H1469     1.0  0.81358  0.59631  0.39457  1.0000
  H   H1470     1.0  0.82551  0.56878  0.38685  1.0000
  H   H1471     1.0  0.81773  0.57184  0.41090  1.0000
  H   H1472     1.0  0.86065  0.63480  0.39934  1.0000
  H   H1473     1.0  0.83557  0.57990  0.43784  1.0000
  H   H1474     1.0  0.85979  0.65994  0.42480  1.0000
  H   H1475     1.0  0.83597  0.60610  0.46302  1.0000
  H   H1476     1.0  0.84828  0.64596  0.45674  1.0000
  H   H1477     1.0  0.60875  0.93312  0.28993  1.0000
  Fe  Fe167     1.0  0.71607  0.86692  0.49210  1.0000
  S   S335      1.0  0.87823  0.67693  0.51332  1.0000
  H   H1478     1.0  0.74518  0.99616  0.44873  1.0000
  H   H1479     1.0  0.72816  0.80559  0.39929  1.0000
  H   H1480     1.0  0.55233  0.97995  0.40976  1.0000
  H   H1481     1.0  0.70573  0.93210  0.37843  1.0000
  H   H1482     1.0  0.97966  0.69045  0.46476  1.0000
  H   H1483     1.0  0.70050  0.90274  0.29835  1.0000
  C   C1231     1.0  0.00287  0.62804  0.35938  1.0000
  H   H1484     1.0  0.73892  0.84433  0.44589  1.0000
  H   H1485     1.0  0.52745  0.92903  0.29127  1.0000
  C   C1232     1.0  0.98603  0.64135  0.36936  1.0000
  H   H1486     1.0  0.87844  0.55323  0.31025  1.0000
  H   H1487     1.0  0.50768  0.92384  0.32241  1.0000
  C   C1233     1.0  0.71566  0.90260  0.34990  1.0000
  H   H1488     1.0  0.99179  0.59789  0.40052  1.0000
  H   H1489     1.0  0.62253  0.96992  0.29417  1.0000
  H   H1490     1.0  0.51185  0.86928  0.30787  1.0000
  H   H1491     1.0  0.63751  0.93304  0.29838  1.0000
  C   C1234     1.0  0.84605  0.78457  0.51017  1.0000
  H   H1492     1.0  0.52957  0.81046  0.32487  1.0000
  Fe  Fe168     1.0  0.73623  0.90784  0.50941  1.0000
  H   H1493     1.0  0.68711  0.93384  0.44725  1.0000
  H   H1494     1.0  0.53531  0.85041  0.31674  1.0000
  C   C1235     1.0  0.96449  0.64916  0.34181  1.0000
  H   H1495     1.0  0.77934  0.77951  0.43674  1.0000
  H   H1496     1.0  0.69208  0.99656  0.48003  1.0000
  C   C1236     1.0  0.70544  0.92391  0.32121  1.0000
  H   H1497     1.0  0.65255  0.96841  0.37855  1.0000
  N   N83       1.0  0.77315  0.81553  0.46151  1.0000
  C   C1237     1.0  0.78453  0.83780  0.45992  1.0000
  C   C1238     1.0  0.75582  0.81590  0.47741  1.0000
  C   C1239     1.0  0.79121  0.79679  0.46591  1.0000
  C   C1240     1.0  0.76139  0.81257  0.44423  1.0000
  C   C1241     1.0  0.76645  0.79319  0.43319  1.0000
  C   C1242     1.0  0.74394  0.82929  0.43811  1.0000
  C   C1243     1.0  0.75462  0.79085  0.41712  1.0000
  C   C1244     1.0  0.73220  0.82676  0.42207  1.0000
  C   C1245     1.0  0.73750  0.80756  0.41161  1.0000
  H   H1498     1.0  0.77193  0.85306  0.45844  1.0000
  H   H1499     1.0  0.79408  0.84032  0.47253  1.0000
  H   H1500     1.0  0.79713  0.83857  0.44774  1.0000
  H   H1501     1.0  0.74287  0.83091  0.47613  1.0000
  H   H1502     1.0  0.76406  0.81719  0.49083  1.0000
  H   H1503     1.0  0.67337  0.94412  0.41578  1.0000
  H   H1504     1.0  0.52911  0.95119  0.37300  1.0000
  H   H1505     1.0  0.79990  0.79985  0.47881  1.0000
  H   H1506     1.0  0.78371  0.77961  0.46844  1.0000
  C   C1246     1.0  0.98556  0.56788  0.38595  1.0000
  C   C1247     1.0  0.74372  0.96957  0.51453  1.0000
  C   C1248     1.0  0.73469  0.95054  0.35328  1.0000
  C   C1249     1.0  0.87566  0.55146  0.28068  1.0000
  C   C1250     1.0  0.53617  0.98762  0.37590  1.0000
  H   H1507     1.0  0.62849  0.90807  0.28860  1.0000
  H   H1508     1.0  0.74605  0.79995  0.47860  1.0000
  H   H1509     1.0  0.56897  0.95377  0.36471  1.0000
  H   H1510     1.0  0.69928  0.98268  0.34708  1.0000
  H   H1511     1.0  0.86440  0.78263  0.50657  1.0000
  C   C1251     1.0  0.64695  0.86160  0.27856  1.0000
  H   H1512     1.0  0.97324  0.63659  0.42786  1.0000
  H   H1513     1.0  0.74299  0.93626  0.36219  1.0000
  C   C1252     1.0  0.70500  0.90291  0.31271  1.0000
  C   C1253     1.0  0.62683  0.97660  0.28018  1.0000
  H   H1514     1.0  0.52648  0.83435  0.37567  1.0000
  C   C1254     1.0  0.51661  0.85576  0.31886  1.0000
  H   H1515     1.0  0.73251  0.98397  0.46999  1.0000
  C   C1255     1.0  0.70036  0.99103  0.44333  1.0000
  S   S336      1.0  0.97235  0.71590  0.49751  1.0000
  C   C1256     1.0  0.98773  0.67787  0.45549  1.0000
  H   H1516     1.0  0.84390  0.82186  0.50489  1.0000
  N   N84       1.0  0.71048  0.94617  0.34989  1.0000
  H   H1517     1.0  0.51401  0.82103  0.34505  1.0000
  C   C1257     1.0  0.51086  0.92135  0.29270  1.0000
  C   C1258     1.0  0.83431  0.80690  0.50926  1.0000
  C   C1259     1.0  0.69817  0.96797  0.45097  1.0000
  H   H1518     1.0  0.58155  0.98758  0.40383  1.0000
  H   H1519     1.0  0.98762  0.64322  0.38406  1.0000
  H   H1520     1.0  0.98285  0.50960  0.40983  1.0000
  S   S337      1.0  0.79657  0.83889  0.51200  1.0000
  C   C1260     1.0  0.69227  0.99635  0.42521  1.0000
  C   C1261     1.0  0.57523  0.99894  0.36763  1.0000
  S   S338      1.0  0.72601  0.84201  0.51618  1.0000
  C   C1262     1.0  0.81041  0.81011  0.51398  1.0000
  Fe  Fe169     1.0  0.76023  0.85838  0.51415  1.0000
  H   H1521     1.0  0.51535  0.86423  0.33229  1.0000
  C   C1263     1.0  0.99621  0.71679  0.51170  1.0000
  C   C1264     1.0  0.00078  0.62460  0.34022  1.0000
  C   C1265     1.0  0.83410  0.76493  0.51595  1.0000
  H   H1522     1.0  0.99863  0.57924  0.33428  1.0000
  C   C1266     1.0  0.62573  0.00079  0.27715  1.0000
  H   H1523     1.0  0.82471  0.51141  0.35991  1.0000
  H   H1524     1.0  0.57317  0.99531  0.35288  1.0000
  C   C1267     1.0  0.51727  0.82033  0.26923  1.0000
  H   H1525     1.0  0.99152  0.59626  0.31351  1.0000
  C   C1268     1.0  0.63727  0.00453  0.34160  1.0000
  C   C1269     1.0  0.86193  0.50983  0.35876  1.0000
  C   C1270     1.0  0.50510  0.86614  0.37144  1.0000
  H   H1526     1.0  0.00243  0.53770  0.42543  1.0000
  C   C1271     1.0  0.00114  0.50599  0.41156  1.0000
  S   S339      1.0  0.84799  0.73614  0.51794  1.0000
  H   H1527     1.0  0.67125  0.93725  0.27582  1.0000
  N   N85       1.0  0.63601  0.93622  0.26839  1.0000
  H   H1528     1.0  0.66378  0.90951  0.26927  1.0000
  Fe  Fe170     1.0  0.59979  0.86445  0.67573  1.0000
  S   S340      1.0  0.63710  0.86422  0.68295  1.0000
  S   S341      1.0  0.58427  0.83084  0.67162  1.0000
  Fe  Fe171     1.0  0.59322  0.91589  0.67399  1.0000
  S   S342      1.0  0.62994  0.91997  0.68035  1.0000
  S   S343      1.0  0.56971  0.94817  0.67147  1.0000
  Fe  Fe172     1.0  0.63940  0.89263  0.66019  1.0000
  S   S344      1.0  0.67194  0.89675  0.64123  1.0000
  Fe  Fe173     1.0  0.62433  0.89162  0.70250  1.0000
  S   S345      1.0  0.63923  0.89729  0.73022  1.0000
  S   S346      1.0  0.60287  0.89106  0.65180  1.0000
  S   S347      1.0  0.58683  0.88915  0.69724  1.0000
  Fe  Fe174     1.0  0.90836  0.67277  0.53168  1.0000
  S   S348      1.0  0.91259  0.71119  0.53160  1.0000
  S   S349      1.0  0.90833  0.64377  0.55474  1.0000
  H   H1529     1.0  0.97785  0.64749  0.52555  1.0000
  H   H1530     1.0  0.99535  0.58602  0.70834  1.0000
  H   H1531     1.0  0.65022  0.97421  0.69921  1.0000
  H   H1532     1.0  0.96352  0.60296  0.60210  1.0000
  C   C1272     1.0  0.62457  0.89298  0.75225  1.0000
  H   H1533     1.0  0.97254  0.62893  0.62600  1.0000
  Fe  Fe175     1.0  0.71339  0.87071  0.53484  1.0000
  S   S350      1.0  0.74826  0.88591  0.53450  1.0000
  S   S351      1.0  0.68556  0.86521  0.55824  1.0000
  C   C1273     1.0  0.68529  0.95109  0.58685  1.0000
  H   H1534     1.0  0.95760  0.63578  0.54247  1.0000
  H   H1535     1.0  0.94689  0.67418  0.55473  1.0000
  H   H1536     1.0  0.63660  0.96418  0.66025  1.0000
  H   H1537     1.0  0.96666  0.61517  0.56941  1.0000
  H   H1538     1.0  0.52829  0.91876  0.68473  1.0000
  Fe  Fe176     1.0  0.92233  0.59369  0.65774  1.0000
  S   S352      1.0  0.93934  0.56337  0.64333  1.0000
  S   S353      1.0  0.91909  0.62951  0.64241  1.0000
  Fe  Fe177     1.0  0.91646  0.56567  0.69538  1.0000
  S   S354      1.0  0.93284  0.53328  0.68334  1.0000
  S   S355      1.0  0.90529  0.55893  0.72602  1.0000
  Fe  Fe178     1.0  0.95873  0.55595  0.66908  1.0000
  C   C1274     1.0  0.81017  0.76812  0.52059  1.0000
  Fe  Fe179     1.0  0.91206  0.54289  0.65862  1.0000
  H   H1539     1.0  0.68089  0.97422  0.69385  1.0000
  S   S356      1.0  0.94425  0.58795  0.68290  1.0000
  S   S357      1.0  0.89306  0.57369  0.67136  1.0000
  C   C1275     1.0  0.51501  0.92943  0.72078  1.0000
  H   H1540     1.0  0.92913  0.60146  0.72970  1.0000
  C   C1276     1.0  0.96996  0.61976  0.59787  1.0000
  C   C1277     1.0  0.90757  0.56393  0.76339  1.0000
  C   C1278     1.0  0.62889  0.82803  0.61279  1.0000
  H   H1541     1.0  0.50717  0.91738  0.76792  1.0000
  C   C1279     1.0  0.91323  0.57339  0.74542  1.0000
  C   C1280     1.0  0.68255  0.96020  0.64971  1.0000
  H   H1542     1.0  0.98806  0.59035  0.66489  1.0000
  C   C1281     1.0  0.91162  0.64067  0.57911  1.0000
  C   C1282     1.0  0.91015  0.61848  0.58808  1.0000
  C   C1283     1.0  0.91252  0.61483  0.60737  1.0000
  C   C1284     1.0  0.91636  0.63340  0.61799  1.0000
  C   C1285     1.0  0.91784  0.65565  0.60904  1.0000
  C   C1286     1.0  0.91556  0.65930  0.58969  1.0000
  H   H1543     1.0  0.90709  0.60396  0.58005  1.0000
  H   H1544     1.0  0.91122  0.59765  0.61404  1.0000
  H   H1545     1.0  0.92076  0.67012  0.61716  1.0000
  H   H1546     1.0  0.91679  0.67646  0.58305  1.0000
  H   H1547     1.0  0.52885  0.86509  0.72276  1.0000
  C   C1287     1.0  0.68420  0.97513  0.58854  1.0000
  C   C1288     1.0  0.98480  0.66375  0.58735  1.0000
  C   C1289     1.0  0.70631  0.95579  0.55723  1.0000
  H   H1548     1.0  0.96902  0.69324  0.55853  1.0000
  H   H1549     1.0  0.98761  0.62461  0.54167  1.0000
  H   H1550     1.0  0.97640  0.72861  0.53574  1.0000
  C   C1290     1.0  0.66403  0.97134  0.68805  1.0000
  C   C1291     1.0  0.54023  0.91940  0.75328  1.0000
  C   C1292     1.0  0.71146  0.99477  0.63632  1.0000
  C   C1293     1.0  0.51550  0.85096  0.66909  1.0000
  C   C1294     1.0  0.99351  0.72375  0.52993  1.0000
  C   C1295     1.0  0.69413  0.99025  0.57440  1.0000
  N   N86       1.0  0.65995  0.98692  0.67124  1.0000
  C   C1296     1.0  0.71474  0.97265  0.62965  1.0000
  H   H1551     1.0  0.72862  0.96877  0.61939  1.0000
  N   N87       1.0  0.64650  0.82140  0.62659  1.0000
  C   C1297     1.0  0.57871  0.96564  0.68821  1.0000
  C   C1298     1.0  0.59111  0.95534  0.70298  1.0000
  C   C1299     1.0  0.60149  0.96902  0.71491  1.0000
  S   S358      1.0  0.99546  0.54079  0.66772  1.0000
  C   C1300     1.0  0.57535  0.98980  0.68614  1.0000
  H   H1552     1.0  0.59328  0.93672  0.70502  1.0000
  H   H1553     1.0  0.61186  0.96083  0.72582  1.0000
  N   N88       1.0  0.99023  0.55952  0.72999  1.0000
  C   C1301     1.0  0.67538  0.89005  0.61755  1.0000
  C   C1302     1.0  0.65641  0.88742  0.60695  1.0000
  C   C1303     1.0  0.65991  0.88096  0.58849  1.0000
  C   C1304     1.0  0.68232  0.87699  0.58038  1.0000
  C   C1305     1.0  0.70131  0.88046  0.59075  1.0000
  C   C1306     1.0  0.69781  0.88708  0.60921  1.0000
  H   H1554     1.0  0.63902  0.89013  0.61300  1.0000
  H   H1555     1.0  0.64512  0.87874  0.58047  1.0000
  H   H1556     1.0  0.71867  0.87737  0.58473  1.0000
  H   H1557     1.0  0.71262  0.88924  0.61724  1.0000
  C   C1307     1.0  0.53956  0.85160  0.67100  1.0000
  C   C1308     1.0  0.55412  0.83133  0.66941  1.0000
  C   C1309     1.0  0.54461  0.81064  0.66587  1.0000
  C   C1310     1.0  0.52081  0.81002  0.66389  1.0000
  H   H1558     1.0  0.54684  0.86770  0.67360  1.0000
  H   H1559     1.0  0.55572  0.79494  0.66466  1.0000
  C   C1311     1.0  0.97508  0.63440  0.61140  1.0000
  H   H1560     1.0  0.52661  0.95945  0.69165  1.0000
  C   C1312     1.0  0.60508  0.83053  0.61854  1.0000
  H   H1561     1.0  0.98598  0.66786  0.61675  1.0000
  C   C1313     1.0  0.97179  0.54921  0.72039  1.0000
  C   C1314     1.0  0.50983  0.91777  0.68965  1.0000
  H   H1562     1.0  0.57069  0.92230  0.73513  1.0000
  H   H1563     1.0  0.54937  0.93078  0.70708  1.0000
  C   C1315     1.0  0.70026  0.95543  0.63630  1.0000
  H   H1564     1.0  0.65588  0.79192  0.64511  1.0000
  C   C1316     1.0  0.92501  0.59378  0.74344  1.0000
  C   C1317     1.0  0.64431  0.83779  0.64164  1.0000
  H   H1565     1.0  0.65847  0.83461  0.65146  1.0000
  H   H1566     1.0  0.99561  0.56758  0.75818  1.0000
  H   H1567     1.0  0.96510  0.68501  0.53562  1.0000
  H   H1568     1.0  0.51375  0.79386  0.66114  1.0000
  H   H1569     1.0  0.71484  0.94820  0.54506  1.0000
  C   C1318     1.0  0.69619  0.94150  0.57117  1.0000
  H   H1570     1.0  0.62236  0.84137  0.56623  1.0000
  C   C1319     1.0  0.99023  0.58432  0.72336  1.0000
  S   S359      1.0  0.89961  0.51401  0.64321  1.0000
  H   H1571     1.0  0.65218  0.83041  0.58763  1.0000
  H   H1572     1.0  0.99028  0.68106  0.58397  1.0000
  H   H1573     1.0  0.64486  0.85601  0.63591  1.0000
  C   C1320     1.0  0.76849  0.98484  0.53630  1.0000
  N   N89       1.0  0.84732  0.69813  0.57353  1.0000
  C   C1321     1.0  0.84712  0.72369  0.57476  1.0000
  C   C1322     1.0  0.86573  0.69149  0.55946  1.0000
  C   C1323     1.0  0.82469  0.69290  0.56679  1.0000
  C   C1324     1.0  0.85157  0.68470  0.59132  1.0000
  C   C1325     1.0  0.85505  0.69535  0.60807  1.0000
  C   C1326     1.0  0.85300  0.66006  0.59212  1.0000
  C   C1327     1.0  0.85997  0.68201  0.62441  1.0000
  C   C1328     1.0  0.85784  0.64694  0.60855  1.0000
  C   C1329     1.0  0.86144  0.65789  0.62464  1.0000
  H   H1574     1.0  0.86406  0.72897  0.57897  1.0000
  H   H1575     1.0  0.84401  0.73315  0.56104  1.0000
  H   H1576     1.0  0.83310  0.73016  0.58463  1.0000
  H   H1577     1.0  0.88319  0.69339  0.56457  1.0000
  H   H1578     1.0  0.86407  0.70238  0.54627  1.0000
  H   H1579     1.0  0.86522  0.67322  0.55573  1.0000
  H   H1580     1.0  0.82095  0.70305  0.55348  1.0000
  H   H1581     1.0  0.82412  0.67433  0.56392  1.0000
  H   H1582     1.0  0.81036  0.69713  0.57717  1.0000
  H   H1583     1.0  0.85443  0.71393  0.60886  1.0000
  H   H1584     1.0  0.85108  0.65069  0.57989  1.0000
  H   H1585     1.0  0.86312  0.69037  0.63695  1.0000
  H   H1586     1.0  0.85965  0.62816  0.60867  1.0000
  H   H1587     1.0  0.86602  0.64761  0.63717  1.0000
  C   C1330     1.0  0.97190  0.62707  0.57903  1.0000
  C   C1331     1.0  0.65936  0.96531  0.76727  1.0000
  H   H1588     1.0  0.93977  0.62050  0.75768  1.0000
  C   C1332     1.0  0.98387  0.55811  0.75019  1.0000
  H   H1589     1.0  0.98444  0.53976  0.75589  1.0000
  C   C1333     1.0  0.63458  0.83176  0.59345  1.0000
  H   H1590     1.0  0.96604  0.56588  0.75323  1.0000
  C   C1334     1.0  0.79840  0.79043  0.51956  1.0000
  C   C1335     1.0  0.59431  0.84079  0.58703  1.0000
  C   C1336     1.0  0.61747  0.83814  0.58086  1.0000
  C   C1337     1.0  0.58594  0.00358  0.69804  1.0000
  C   C1338     1.0  0.53954  0.92802  0.72008  1.0000
  C   C1339     1.0  0.69365  0.99979  0.64965  1.0000
  H   H1591     1.0  0.76754  0.94838  0.53126  1.0000
  C   C1340     1.0  0.97950  0.64935  0.57318  1.0000
  H   H1592     1.0  0.97558  0.54982  0.70509  1.0000
  C   C1341     1.0  0.70540  0.97976  0.55880  1.0000
  H   H1593     1.0  0.55044  0.85688  0.75121  1.0000
  C   C1342     1.0  0.63738  0.98238  0.66399  1.0000
  H   H1594     1.0  0.64344  0.78498  0.62399  1.0000
  C   C1343     1.0  0.59959  0.99311  0.71204  1.0000
  H   H1595     1.0  0.68353  0.81707  0.62937  1.0000
  H   H1596     1.0  0.62551  0.79700  0.64256  1.0000
  H   H1597     1.0  0.66433  0.95272  0.68520  1.0000
  H   H1598     1.0  0.87955  0.50983  0.68077  1.0000
  C   C1344     1.0  0.58812  0.83692  0.60584  1.0000
  H   H1599     1.0  0.59301  0.88268  0.74195  1.0000
  H   H1600     1.0  0.78163  0.98189  0.54639  1.0000
  H   H1601     1.0  0.67543  0.98136  0.60100  1.0000
  H   H1602     1.0  0.69679  0.92295  0.56974  1.0000
  H   H1603     1.0  0.58116  0.84592  0.57723  1.0000
  C   C1345     1.0  0.55191  0.92314  0.73609  1.0000
  H   H1604     1.0  0.70285  0.93812  0.63123  1.0000
  H   H1605     1.0  0.57009  0.83896  0.61070  1.0000
  C   C1346     1.0  0.96491  0.67849  0.55049  1.0000
  H   H1606     1.0  0.67457  0.83880  0.61215  1.0000
  C   C1347     1.0  0.64269  0.79778  0.63490  1.0000
  H   H1607     1.0  0.67414  0.80838  0.60792  1.0000
  H   H1608     1.0  0.56559  0.99786  0.67483  1.0000
  C   C1348     1.0  0.67068  0.82139  0.61859  1.0000
  C   C1349     1.0  0.67870  0.98251  0.65687  1.0000
  H   H1609     1.0  0.62789  0.83652  0.65022  1.0000
  N   N90       1.0  0.98132  0.65795  0.55340  1.0000
  C   C1350     1.0  0.97588  0.64059  0.54029  1.0000
  C   C1351     1.0  0.50789  0.95837  0.69558  1.0000
  H   H1610     1.0  0.63366  0.99380  0.65137  1.0000
  H   H1611     1.0  0.59934  0.82762  0.63296  1.0000
  C   C1352     1.0  0.60190  0.88601  0.75416  1.0000
  C   C1353     1.0  0.76046  0.96581  0.52781  1.0000
  C   C1354     1.0  0.51954  0.86369  0.73621  1.0000
  H   H1612     1.0  0.67200  0.94608  0.65454  1.0000
  H   H1613     1.0  0.65374  0.90174  0.76695  1.0000
  H   H1614     1.0  0.71353  0.99005  0.54759  1.0000
  H   H1615     1.0  0.66017  0.94720  0.76275  1.0000
  H   H1616     1.0  0.95470  0.55886  0.72262  1.0000
  H   H1617     1.0  0.65302  0.97653  0.75526  1.0000
  H   H1618     1.0  0.54991  0.91560  0.76565  1.0000
  H   H1619     1.0  0.67753  0.93974  0.59767  1.0000
  H   H1620     1.0  0.97280  0.59347  0.72525  1.0000
  C   C1355     1.0  0.53167  0.85898  0.75228  1.0000
  C   C1356     1.0  0.98251  0.65635  0.60616  1.0000
  H   H1621     1.0  0.62290  0.98549  0.67446  1.0000
  H   H1622     1.0  0.96940  0.53099  0.72557  1.0000
  H   H1623     1.0  0.89831  0.54830  0.76505  1.0000
  H   H1624     1.0  0.78007  0.79241  0.52324  1.0000
  C   C1357     1.0  0.51613  0.92050  0.75451  1.0000
  H   H1625     1.0  0.00227  0.59419  0.73068  1.0000
  H   H1626     1.0  0.00360  0.51982  0.71005  1.0000
  H   H1627     1.0  0.80061  0.75319  0.52507  1.0000
  C   C1358     1.0  0.93095  0.60457  0.75933  1.0000
  H   H1628     1.0  0.50754  0.89974  0.69544  1.0000
  H   H1629     1.0  0.50433  0.86658  0.67012  1.0000
  C   C1359     1.0  0.50613  0.83006  0.66553  1.0000
  Fe  Fe180     1.0  0.60288  0.89259  0.83687  1.0000
  S   S360      1.0  0.59948  0.92970  0.84446  1.0000
  S   S361      1.0  0.58763  0.88347  0.81006  1.0000
  Fe  Fe181     1.0  0.62102  0.87519  0.87577  1.0000
  S   S362      1.0  0.61939  0.91133  0.88567  1.0000
  S   S363      1.0  0.62617  0.84143  0.89389  1.0000
  Fe  Fe182     1.0  0.58535  0.91597  0.87223  1.0000
  S   S364      1.0  0.55231  0.92962  0.88658  1.0000
  Fe  Fe183     1.0  0.63378  0.92156  0.85687  1.0000
  S   S365      1.0  0.66201  0.94564  0.84892  1.0000
  S   S366      1.0  0.58594  0.87947  0.86388  1.0000
  S   S367      1.0  0.63837  0.88489  0.84769  1.0000
  Fe  Fe184     1.0  0.81690  0.59248  0.99070  1.0000
  H   H1630     1.0  0.97501  0.58907  0.81607  1.0000
  S   S368      1.0  0.83742  0.57993  0.96468  1.0000
  H   H1631     1.0  0.57212  0.84495  0.89281  1.0000
  C   C1360     1.0  0.69267  0.76059  0.98367  1.0000
  S   S369      1.0  0.64906  0.82449  0.97949  1.0000
  Fe  Fe185     1.0  0.89979  0.59966  0.86564  1.0000
  S   S370      1.0  0.91120  0.56331  0.87472  1.0000
  S   S371      1.0  0.87906  0.62167  0.88677  1.0000
  Fe  Fe186     1.0  0.92280  0.59434  0.82609  1.0000
  S   S372      1.0  0.93591  0.55768  0.83311  1.0000
  S   S373      1.0  0.93268  0.60926  0.79702  1.0000
  Fe  Fe187     1.0  0.90073  0.55436  0.84690  1.0000
  C   C1361     1.0  0.68935  0.78582  0.94652  1.0000
  Fe  Fe188     1.0  0.94521  0.57082  0.86008  1.0000
  S   S374      1.0  0.97754  0.55707  0.87417  1.0000
  S   S375      1.0  0.88667  0.59022  0.83843  1.0000
  S   S376      1.0  0.93470  0.60804  0.85238  1.0000
  H   H1632     1.0  0.80829  0.59852  0.88442  1.0000
  N   N91       1.0  0.64427  0.96800  0.78441  1.0000
  H   H1633     1.0  0.98241  0.60633  0.86412  1.0000
  N   N92       1.0  0.55463  0.00071  0.87081  1.0000
  H   H1634     1.0  0.68768  0.74886  0.99586  1.0000
  C   C1362     1.0  0.65241  0.94989  0.79855  1.0000
  H   H1635     1.0  0.67952  0.77553  0.98366  1.0000
  H   H1636     1.0  0.85894  0.57751  0.88213  1.0000
  C   C1363     1.0  0.84803  0.52623  0.89379  1.0000
  C   C1364     1.0  0.92511  0.59516  0.77731  1.0000
  C   C1365     1.0  0.91349  0.57469  0.77925  1.0000
  C   C1366     1.0  0.56779  0.83813  0.94875  1.0000
  S   S377      1.0  0.55521  0.77834  0.00443  1.0000
  H   H1637     1.0  0.90880  0.56732  0.79298  1.0000
  H   H1638     1.0  0.58256  0.83011  0.91314  1.0000
  C   C1367     1.0  0.85028  0.59314  0.94409  1.0000
  C   C1368     1.0  0.86598  0.57943  0.93323  1.0000
  C   C1369     1.0  0.87518  0.58805  0.91592  1.0000
  C   C1370     1.0  0.86893  0.61067  0.90916  1.0000
  C   C1371     1.0  0.85384  0.62475  0.92028  1.0000
  C   C1372     1.0  0.84449  0.61603  0.93765  1.0000
  H   H1639     1.0  0.87072  0.56177  0.93812  1.0000
  H   H1640     1.0  0.88681  0.57691  0.90779  1.0000
  H   H1641     1.0  0.84892  0.64233  0.91528  1.0000
  H   H1642     1.0  0.83242  0.62681  0.94585  1.0000
  S   S378      1.0  0.82431  0.56735  0.01516  1.0000
  S   S379      1.0  0.66110  0.71122  0.01327  1.0000
  C   C1373     1.0  0.66217  0.97265  0.85882  1.0000
  C   C1374     1.0  0.73426  0.67304  0.01667  1.0000
  S   S380      1.0  0.82043  0.62341  0.00744  1.0000
  C   C1375     1.0  0.82819  0.54604  0.91923  1.0000
  C   C1376     1.0  0.68352  0.98203  0.86014  1.0000
  H   H1643     1.0  0.50570  0.83012  0.80200  1.0000
  H   H1644     1.0  0.60827  0.96562  0.79267  1.0000
  H   H1645     1.0  0.69928  0.97239  0.85565  1.0000
  C   C1377     1.0  0.63179  0.83757  0.91790  1.0000
  C   C1378     1.0  0.64041  0.85499  0.92757  1.0000
  C   C1379     1.0  0.64519  0.85086  0.94649  1.0000
  C   C1380     1.0  0.64081  0.82956  0.95613  1.0000
  C   C1381     1.0  0.63152  0.81239  0.94659  1.0000
  C   C1382     1.0  0.62749  0.81623  0.92752  1.0000
  H   H1646     1.0  0.64394  0.87144  0.92037  1.0000
  H   H1647     1.0  0.65252  0.86420  0.95368  1.0000
  H   H1648     1.0  0.62816  0.79588  0.95375  1.0000
  H   H1649     1.0  0.62097  0.80257  0.92016  1.0000
  H   H1650     1.0  0.58214  0.97343  0.87335  1.0000
  C   C1383     1.0  0.69580  0.80082  0.93147  1.0000
  C   C1384     1.0  0.53041  0.91995  0.87386  1.0000
  C   C1385     1.0  0.53598  0.91315  0.85589  1.0000
  H   H1651     1.0  0.52991  0.97458  0.87608  1.0000
  H   H1652     1.0  0.72708  0.73106  0.97216  1.0000
  H   H1653     1.0  0.55289  0.91564  0.84939  1.0000
  H   H1654     1.0  0.81680  0.53971  0.86658  1.0000
  C   C1386     1.0  0.60228  0.88710  0.78799  1.0000
  C   C1387     1.0  0.62498  0.89386  0.78608  1.0000
  C   C1388     1.0  0.83397  0.54567  0.89983  1.0000
  C   C1389     1.0  0.99230  0.59460  0.81738  1.0000
  H   H1655     1.0  0.63410  0.89636  0.79838  1.0000
  N   N93       1.0  0.55759  0.85886  0.91831  1.0000
  H   H1656     1.0  0.71992  0.80660  0.90823  1.0000
  Fe  Fe189     1.0  0.63613  0.79672  0.00069  1.0000
  H   H1657     1.0  0.67857  0.66439  0.00721  1.0000
  N   N94       1.0  0.69397  0.74847  0.96611  1.0000
  H   H1658     1.0  0.70961  0.76734  0.98630  1.0000
  Fe  Fe190     1.0  0.59255  0.77147  0.01277  1.0000
  C   C1390     1.0  0.51995  0.90242  0.84628  1.0000
  C   C1391     1.0  0.58037  0.00259  0.84154  1.0000
  H   H1659     1.0  0.64096  0.94976  0.81147  1.0000
  C   C1392     1.0  0.71503  0.79492  0.91992  1.0000
  C   C1393     1.0  0.78613  0.50839  0.00497  1.0000
  C   C1394     1.0  0.53892  0.98421  0.86425  1.0000
  C   C1395     1.0  0.67061  0.74128  0.96271  1.0000
  H   H1660     1.0  0.52542  0.99338  0.85561  1.0000
  H   H1661     1.0  0.97083  0.57983  0.93250  1.0000
  H   H1662     1.0  0.67075  0.73226  0.94956  1.0000
  H   H1663     1.0  0.85233  0.55922  0.86437  1.0000
  C   C1396     1.0  0.68476  0.00356  0.86762  1.0000
  H   H1664     1.0  0.81776  0.56008  0.92531  1.0000
  C   C1397     1.0  0.98050  0.59480  0.92846  1.0000
  S   S381      1.0  0.77797  0.59308  0.99598  1.0000
  H   H1665     1.0  0.54837  0.97081  0.85580  1.0000
  H   H1666     1.0  0.53492  0.82438  0.98782  1.0000
  C   C1398     1.0  0.70186  0.76429  0.95044  1.0000
  H   H1667     1.0  0.98652  0.62548  0.79978  1.0000
  H   H1668     1.0  0.79391  0.54730  0.88330  1.0000
  H   H1669     1.0  0.73221  0.74290  0.94032  1.0000
  S   S382      1.0  0.88007  0.52378  0.84386  1.0000
  C   C1399     1.0  0.51982  0.85675  0.76968  1.0000
  H   H1670     1.0  0.61929  0.94525  0.77610  1.0000
  C   C1400     1.0  0.72791  0.77400  0.92343  1.0000
  H   H1671     1.0  0.65624  0.98346  0.81881  1.0000
  Fe  Fe191     1.0  0.78176  0.62278  0.01447  1.0000
  H   H1672     1.0  0.97757  0.64969  0.90754  1.0000
  C   C1401     1.0  0.72151  0.75881  0.93844  1.0000
  C   C1402     1.0  0.56196  0.82899  0.96666  1.0000
  C   C1403     1.0  0.50815  0.91708  0.88192  1.0000
  H   H1673     1.0  0.83214  0.52931  0.94648  1.0000
  C   C1404     1.0  0.50842  0.77894  0.01186  1.0000
  H   H1674     1.0  0.66403  0.72925  0.97420  1.0000
  C   C1405     1.0  0.57575  0.87560  0.91885  1.0000
  H   H1675     1.0  0.56975  0.89029  0.92750  1.0000
  H   H1676     1.0  0.58067  0.88312  0.90474  1.0000
  H   H1677     1.0  0.80141  0.56752  0.86422  1.0000
  C   C1406     1.0  0.80862  0.55422  0.87456  1.0000
  C   C1407     1.0  0.83640  0.52829  0.93169  1.0000
  C   C1408     1.0  0.84478  0.57243  0.87386  1.0000
  C   C1409     1.0  0.51065  0.78936  0.94846  1.0000
  C   C1410     1.0  0.85629  0.50865  0.90638  1.0000
  H   H1678     1.0  0.55379  0.82607  0.90672  1.0000
  H   H1679     1.0  0.59198  0.86748  0.92449  1.0000
  H   H1680     1.0  0.74290  0.76951  0.91439  1.0000
  H   H1681     1.0  0.58568  0.83578  0.94381  1.0000
  N   N95       1.0  0.94477  0.61610  0.91607  1.0000
  C   C1411     1.0  0.93080  0.61259  0.93377  1.0000
  C   C1412     1.0  0.93612  0.63848  0.90683  1.0000
  C   C1413     1.0  0.94056  0.59748  0.90379  1.0000
  C   C1414     1.0  0.96969  0.61512  0.91976  1.0000
  H   H1682     1.0  0.70276  0.71556  0.98071  1.0000
  H   H1683     1.0  0.89808  0.51280  0.79188  1.0000
  C   C1415     1.0  0.85042  0.50966  0.92529  1.0000
  C   C1416     1.0  0.64466  0.99195  0.79047  1.0000
  H   H1684     1.0  0.67436  0.79120  0.95508  1.0000
  H   H1685     1.0  0.93423  0.62567  0.94373  1.0000
  H   H1686     1.0  0.91187  0.61413  0.93152  1.0000
  H   H1687     1.0  0.93441  0.59512  0.94070  1.0000
  H   H1688     1.0  0.93832  0.65333  0.91545  1.0000
  H   H1689     1.0  0.91727  0.63873  0.90445  1.0000
  H   H1690     1.0  0.94493  0.64160  0.89287  1.0000
  H   H1691     1.0  0.94412  0.57980  0.91038  1.0000
  H   H1692     1.0  0.92230  0.59854  0.89978  1.0000
  H   H1693     1.0  0.95178  0.59870  0.89081  1.0000
  C   C1417     1.0  0.70933  0.72703  0.96888  1.0000
  C   C1418     1.0  0.53929  0.83164  0.97394  1.0000
  N   N96       1.0  0.82534  0.56401  0.88616  1.0000
  H   H1694     1.0  0.65266  0.93218  0.79344  1.0000
  H   H1695     1.0  0.50813  0.79632  0.00537  1.0000
  H   H1696     1.0  0.51488  0.80422  0.93933  1.0000
  H   H1697     1.0  0.52480  0.89655  0.83258  1.0000
  H   H1698     1.0  0.67039  0.95230  0.80238  1.0000
  H   H1699     1.0  0.54388  0.87693  0.89379  1.0000
  H   H1700     1.0  0.71032  0.71640  0.95654  1.0000
  C   C1419     1.0  0.53815  0.87090  0.90819  1.0000
  H   H1701     1.0  0.83938  0.58789  0.86474  1.0000
  C   C1420     1.0  0.52236  0.84359  0.96340  1.0000
  H   H1702     1.0  0.57513  0.81978  0.97498  1.0000
  C   C1421     1.0  0.55097  0.85008  0.93746  1.0000
  H   H1703     1.0  0.56591  0.97845  0.89426  1.0000
  H   H1704     1.0  0.79086  0.52406  0.99708  1.0000
  C   C1422     1.0  0.57306  0.98745  0.88130  1.0000
  C   C1423     1.0  0.98400  0.63371  0.91456  1.0000
  H   H1705     1.0  0.54603  0.78072  0.95526  1.0000
  S   S383      1.0  0.62277  0.76371  0.99263  1.0000
  C   C1424     1.0  0.81354  0.58449  0.89493  1.0000
  C   C1425     1.0  0.52800  0.85275  0.94540  1.0000
  C   C1426     1.0  0.56682  0.83915  0.90734  1.0000
  C   C1427     1.0  0.52824  0.77607  0.95728  1.0000
  H   H1706     1.0  0.82516  0.59218  0.90427  1.0000
  H   H1707     1.0  0.68571  0.81710  0.92877  1.0000
  H   H1708     1.0  0.79746  0.57998  0.90311  1.0000
  C   C1428     1.0  0.65121  0.99689  0.80844  1.0000
  Fe  Fe192     1.0  0.64160  0.74696  0.01727  1.0000
  C   C1429     1.0  0.52967  0.76605  0.01383  1.0000
  H   H1709     1.0  0.65763  0.75629  0.96161  1.0000
  C   C1430     1.0  0.99749  0.59929  0.87117  1.0000
  H   H1710     1.0  0.62523  0.97836  0.86320  1.0000
  H   H1711     1.0  0.51411  0.86185  0.93800  1.0000
  C   C1431     1.0  0.69304  0.67349  0.01113  1.0000
  C   C1432     1.0  0.64179  0.98540  0.86446  1.0000
  H   H1712     1.0  0.53109  0.88674  0.91506  1.0000
  H   H1713     1.0  0.85276  0.52448  0.87924  1.0000
  H   H1714     1.0  0.50939  0.85944  0.80824  1.0000
  C   C1433     1.0  0.62032  0.96334  0.78029  1.0000
  H   H1715     1.0  0.52398  0.85928  0.90671  1.0000
  H   H1716     1.0  0.50476  0.84569  0.96922  1.0000
  C   C1434     1.0  0.52291  0.75697  0.96905  1.0000
  C   C1435     1.0  0.99931  0.57590  0.87747  1.0000
  H   H1717     1.0  0.53037  0.85318  0.78153  1.0000
  H   H1718     1.0  0.57340  0.87750  0.77340  1.0000
  H   H1719     1.0  0.92216  0.51838  0.86357  1.0000
  H   H1720     1.0  0.58463  0.98412  0.84314  1.0000
  H   H1721     1.0  0.53664  0.74699  0.97620  1.0000
  C   C1436     1.0  0.59084  0.88308  0.77197  1.0000
  C   C1437     1.0  0.68941  0.69692  0.01542  1.0000
  C   C1438     1.0  0.99887  0.61519  0.80821  1.0000
  C   C1439     1.0  0.71520  0.66161  0.01181  1.0000
  H   H1722     1.0  0.71751  0.64362  0.00847  1.0000
  H   H1723     1.0  0.58625  0.99908  0.88525  1.0000
  S   S384      1.0  0.76294  0.65924  0.01743  1.0000
  H   H1724     1.0  0.67733  0.96972  0.76949  1.0000
  H   H1725     1.0  0.00236  0.56563  0.83591  1.0000
  H   H1726     1.0  0.61362  0.97497  0.76863  1.0000
  C   C1440     1.0  0.63605  0.89681  0.76829  1.0000
  H   H1727     1.0  0.98171  0.50677  0.86833  1.0000
  H   H1728     1.0  0.53415  0.00527  0.89647  1.0000
