data_image0
_chemical_formula_structural       FeS2FeS2FeSFeS3FeS2FeS2FeSFeS3HCH5C2HC4H3C6H4CH7CH2C2H2C4H3CH5C2H3NC3H3NHCHC3H3CH2C2H2NC9H4C2HCH3C2H2C2H2CH3NCH2CH5C7H2C2H2CHC5H2NH2C2HFeS2FeS2FeSFeS3FeHSFeSH3S2FeS2FeS2FeSFeS3H3C2H4CH4C8H4C3H2C6H5C2HC2HC2NH4CH5CH2CHCH2CH4CHCNCH4CH3C2NCHC3HC2HC2H2CHCHCHNC2H2CH2C2H3CHC2HC2H4CHCH3N2CHC2FeSCH2C2H6CNHCH5CH4CHFeS2FeS2FeSFeS3FeHSHSCH2CSHFeS2FeS2FeHFeS3C4H3CH2C7H4C3HNCH3C3H2C6H4C3H2C3H4CNC9H14NC2HC2HSC3HCHCSHCHFeHCH2CH4CH2CHC2NHC2HCHCHCH3CHC2H3CH2CHC3HC2HCH3C3H2CH3C2H3NH2CH2CH3FeS2FeS2FeSFeS3NFeS2FeS2FeSFeCS2C3HC2H2C4HCHCH4C6H7C10HCH3C2H2NHCH5CHCHCHCHC3HC2H2CHCHCH2CH9NH2CHC2H4SHC2HCHC2HC2H2CHNCHCHC2SHC2H2N2H2C3HCH2C3H3CH3C2H3CFeS2FeS2FeHFeS3FeSCFeS2FeSFeS3C6H4CHC2HCHC2HCHC3HCHC3HSH4C2HC4H2C6HC2H5C2H3C2H3CH3CHSNH3C2NHCH6NH4CHC4HCH2C2HCH3C3HNH2NSH2CH2CH4CH5CHCH2CH5C4HCFeS2FeS2FeSFeS5FeSFeSFeS2FeSFeSFeS3C6H4C6H10C3H4C6H5C3H6C4HC8HCH2FeH3NC4H3SCH8C3H2C5H6CHCH3CHCHFeHCSHCH2C3H2C2HC2H2C2H4CHCHCHNCH5C2HC5H5CNHC2NCH2CH5CNHCH3SCHCH4CH2CSHCSH3FeS2FeS2FeSFeCS2FeSH2S2FeS2FeSFeSFeS3C6H4C6H4CHC2HC2HCHCH5C2HC4H3C7H3CH4CH2CHC2NC5H5CH2C2H7C4HCH7C5H3CHNHC3H2NCH3C2HCH2NH2CH2C4HCH5C2HC3HC2H4CH4SNC6HCFeC3HNSHCSNHCHC2HCH2CHCFeCH2CH2CH2CHCHCH3CH2C2H3FeS2FeSFeSFeCS2FeS2FeSCFeHFeS3H2NCH2C6H13C4HCHC2HCHCHC4H6CHSHSC2HCH2C3HSC3H3CH2C2H2C4H2CH3CH2NHNC8H16CHNHCHCSHCH4CHCH2CHC5HCHFeS2C2HCSCSHFeSHFe2S2FeS2FeSHFeNFeS3FeS2FeS2FeSFeCS2C6H5CHC3HCHC2HC6H4C8H7S2CHC2HCHNC4HCH9CH4C2HNC9H17C2NH4C7SHCFeHCH2CHCHNC2HSHC2HC2HCHCFeH2FeCH2NCH3CHNH3CH3C4HCHCH2CHSHCHSH5C2HCHCSCH5C2H6CH3SHC5H3S2HSHCHFeSCH2NFeS2FeSCFeSFeS3C4HC3H2CH5C7H4CH2FeC2HCHCHCH2C2HCHCH2CFeCHSHCSCHCH3C2S2C3HCHCHC2H2CHCSNHCH2CHCHC4H3CH7CH2CH3FeH3CH5CHCHCSHC4H2CSHFeSCSHNCFeS2FeSCFeSFeS3C4HC3H3NH2C6H4C3HFeCNH3CH3CHSH4CHCH2CSCH3CH2C2H3SH2CHCSCHC3HSNHCH5CFeCH2CH2CHC3HC2FeHSH4CH2C6NH2SH2C3H2CH4CH5FeS2H2CH2CHS2FeSCHSC2HFeSNSFeS2FeSCFeSFeS3FeSFeS2FeHFeS3CHC7H5SHC4H2C6H4CHFeH2C7H4CHC2HC2H2SC2SH7CH2C2H2CSCH3NC5H2CHCHC3HFeC3HC2HCH6SH3NHCNH3CHCHCH2C2H2C2FeH3CHCH2NC3HC2H8CFeH4CHSH3CH3CH3C2H3C2HC2H2SH3C2HC4HCH2CHCHCH4CFeS2FeS3FeS2FeS2FeSFeHS2FeS2FeS2FeSFeS3C6H6CHFeH3FeHSHC3HC2HSC4SH4C7H4C6H5SH4NC3H2CH3NCHC2HNC6H10CH2C2HCHC2HCH4FeCH2SCH2CFeHC3H3SH4CNC2HCH3CHCHCH6C2FeHC2HCH2C2H5C5HCHC3HC2H2NHCHC2HCH2SCH2C2SHNCH3CH4C4FeS4HC4FeS2CSCFeSFeHSH3CNCHCH2C2SCHC3H3CH2C3H4CFeC6H9CHCHC2HSC3H2SC3FeHC3HC2SHC2H3C2HFeHCSHCHC2H2SCHCNH2FeH2CH2C2HC2NH3SCH3CH4CNCH2CH2CHC2HCHC2HCHCSH4CSCHCH6CFeS3FeS2FeS2FeSFeS3C2H2CHCHC5HCHFeC3HCH2C4NH4FeC6H4SHSHCHC5HNCH2SCH2FeC2SCHSHC3HCH2CHC2HCHC2HSCHC2HCHC2HCH3CH5FeCH2SNH3NCHC7H4CH12SHC3HCNCHC2HCSH4C2H4C2H2FeS2HSCFeSHSFeS3FeS2FeS2FeSFeS3CFeS2FeS2FeSFeS3C6H4C3FeHCH2SC5NH2CH7C6H4C6H4C2H4FeH5CH3FeC2HCNH2CH2CHCH2NC7H12C2S2H2CHCHC2FeH2CNHCH2CHCH2SHC3HC2H3C5HCHCH2C8HNC9H13CH2CHC2H3NH2SHCHNH3NC4HCHC3H4C4H2CH2CH4CHCH3FeS2FeS2FeSFeCS2CH4FeS2FeSHFeSFeS3CH2CH2C3HCH2C2H4NHC2H3C6H4C6H6C2HNH3NC9H17CSH2C3H2CHCFeCH3CH4CSCHC3H3CHCH2C2H2SC2H2SHCH2CHC5HNC2HC2H2CH3C3SCSH3C3NHCH2CHCHCHC2H2C2FeS2FeSCFeSFeS3FeS2FeS2FeSFeS3FeS2FeS2FeHFeS3CH2C3HCHCH2C3HC7H4CH4CHC2H3C6H4CHCHSC3H2CHC2H2C2H2C3SCNC4HC2H8CHCHC2NCHC4H2C2H3FeHC2H4C2H3C4H3NC2HCHCH3CSH4CH4SH2C2HCH3C2H2CHNC9H6C2H4CH3CHC2FeS2FeS2FeHFeS3FeS2FeS2FeHFeS3FeS2FeS2FeSFeCS2C2H2SCH2CH3CHC3H2C6H6CHCHCH3FeHC4HCHC6H5CHC2HCH3CH2C2HC2H2NHCHNC9H13CH2CHCSNCSHCSCH2CH6CH5C2HC2HNCH7CHC2HC2NH2FeH2CHC2H2C2H2CH5CFeS2FeS2FeSFeS3FeS2FeS2FeSFeS3C2H3C3H2C4H3NC6H4C2HC2H2CHC6H5CHNHC2NHCHC2H2CH2CHCH5CH2C2HC2H2CSHC3HC3HCH2CH7CH3CH3CH3C3HC2NCHNC9H10CH3SH2C2HSCHCH2C2H3SHNH4C3H2CH4C3H2CH5C6H2CH3CH2Fe2S2FeS2FeSFeS3CHSHFeSHFeSHFeSFeSHSH3C3HCHCH4CHC6H4C6H5CH4SCHSCHCH3CH6CHC3HCH2CH2C2H2CHCH5CH5SCH2C2HCHC4H4NCNH4C3HC3FeCH3C2HNHCHC2H2C2HNHC2H2CH3S2CH2CH2CNC2NHC2HC2H2C2HCFeS2FeSFeSFeS3FeS2FeS2FeSFeCS2FeSCFeS2FeSFeS3H3CSC2HNC2HC2H4CH4C6H4CHC7H5NH4CH4CHNH3CH2CH2CH2CHCH7NH3C2HC3H2CH2C2H2CHCH2C2HC2HCHC5H2NHC2H2C2H2C2H2CHCHCH2CHC2H2C5H4CH6CH4CHC2HCNHC2HC2FeS2FeSFeSFeS3FeS2FeS2FeCFeS3FeSHFeSHFeSFeS3CHCH2C2HCHCHC4H6C2HCH4C7H4C2HC7H7CHC3H2C2H2NC9H14NHCHC2H2NC3SCH4SH2C4H4CH6NCHCH3CH6C2HCHC2H2C2NHCH4CSC3SH2CH4CH3SCSHFeS2FeS2FeSFeS3H2CSHC2HFeS2FeS2FeHFeS3H2C2HCHC2H2C6H4CH3C8H4C2HCH2CH4CH3CH2CHCHCH3C3H4N2H2CH2C4H2C2H2SH3CHCHC2H2CH3NCHNC4HCHCH2CH4C2H4C2NC9HC2H3CHFeC3HCHSCHC2
_chemical_formula_sum              "Fe256 S512 H2304 C1920 N128"
_cell_length_a       54.1836
_cell_length_b       54.2033
_cell_length_c       92.134
_cell_angle_alpha    81.8512
_cell_angle_beta     81.738
_cell_angle_gamma    80.8854

_space_group_name_H-M_alt    "P 1"
_space_group_IT_number       1

loop_
  _space_group_symop_operation_xyz
  'x, y, z'

loop_
  _atom_site_type_symbol
  _atom_site_label
  _atom_site_symmetry_multiplicity
  _atom_site_fract_x
  _atom_site_fract_y
  _atom_site_fract_z
  _atom_site_occupancy
  Fe  Fe1       1.0  0.24911  0.42123  0.19642  1.0000
  S   S1        1.0  0.21232  0.40958  0.19371  1.0000
  S   S2        1.0  0.24881  0.45682  0.20701  1.0000
  Fe  Fe2       1.0  0.27903  0.37418  0.18457  1.0000
  S   S3        1.0  0.24452  0.35909  0.18048  1.0000
  S   S4        1.0  0.32051  0.35781  0.18094  1.0000
  Fe  Fe3       1.0  0.23090  0.39907  0.17160  1.0000
  S   S5        1.0  0.20563  0.41484  0.15377  1.0000
  Fe  Fe4       1.0  0.22799  0.37062  0.20286  1.0000
  S   S6        1.0  0.20151  0.34596  0.21728  1.0000
  S   S7        1.0  0.26683  0.41352  0.17370  1.0000
  S   S8        1.0  0.26338  0.38291  0.20758  1.0000
  Fe  Fe5       1.0  0.09919  0.37729  0.07879  1.0000
  S   S9        1.0  0.13881  0.36507  0.06875  1.0000
  S   S10       1.0  0.06716  0.35454  0.08183  1.0000
  Fe  Fe6       1.0  0.11019  0.42786  0.08394  1.0000
  S   S11       1.0  0.15087  0.41994  0.07457  1.0000
  S   S12       1.0  0.09313  0.46556  0.09083  1.0000
  Fe  Fe7       1.0  0.13604  0.40437  0.05670  1.0000
  S   S13       1.0  0.14764  0.41872  0.03273  1.0000
  Fe  Fe8       1.0  0.14987  0.38193  0.08756  1.0000
  S   S14       1.0  0.18251  0.36402  0.10016  1.0000
  S   S15       1.0  0.09552  0.41516  0.06530  1.0000
  S   S16       1.0  0.11029  0.39107  0.09848  1.0000
  H   H1        1.0  0.28903  0.42460  0.22132  1.0000
  C   C1        1.0  0.12607  0.47933  0.06714  1.0000
  H   H2        1.0  0.13102  0.47374  0.02927  1.0000
  H   H3        1.0  0.19143  0.48246  0.07309  1.0000
  H   H4        1.0  0.32770  0.42521  0.18464  1.0000
  H   H5        1.0  0.20337  0.42286  0.09669  1.0000
  H   H6        1.0  0.12297  0.46281  0.06274  1.0000
  C   C2        1.0  0.15998  0.49632  0.99814  1.0000
  C   C3        1.0  0.04436  0.38312  0.04231  1.0000
  H   H7        1.0  0.03903  0.50014  0.09424  1.0000
  C   C4        1.0  0.26062  0.48450  0.19802  1.0000
  C   C5        1.0  0.27611  0.48484  0.18449  1.0000
  C   C6        1.0  0.11169  0.48651  0.08008  1.0000
  C   C7        1.0  0.06040  0.50112  0.03287  1.0000
  H   H8        1.0  0.28016  0.46826  0.17881  1.0000
  H   H9        1.0  0.04504  0.45153  0.05685  1.0000
  H   H10       1.0  0.07476  0.37436  0.00349  1.0000
  C   C8        1.0  0.19864  0.39903  0.13971  1.0000
  C   C9        1.0  0.17716  0.40871  0.13271  1.0000
  C   C10       1.0  0.17185  0.39794  0.12069  1.0000
  C   C11       1.0  0.18815  0.37750  0.11552  1.0000
  C   C12       1.0  0.20940  0.36752  0.12269  1.0000
  C   C13       1.0  0.21461  0.37818  0.13480  1.0000
  H   H11       1.0  0.16466  0.42478  0.13651  1.0000
  H   H12       1.0  0.15526  0.40555  0.11537  1.0000
  H   H13       1.0  0.22202  0.35163  0.11876  1.0000
  H   H14       1.0  0.23130  0.37070  0.14006  1.0000
  C   C14       1.0  0.17225  0.46534  0.10039  1.0000
  H   H15       1.0  0.15442  0.35031  0.20366  1.0000
  H   H16       1.0  0.16650  0.33551  0.13060  1.0000
  H   H17       1.0  0.01004  0.42932  0.00313  1.0000
  H   H18       1.0  0.29486  0.31515  0.17891  1.0000
  H   H19       1.0  0.11122  0.35553  0.17636  1.0000
  H   H20       1.0  0.13230  0.33542  0.19657  1.0000
  H   H21       1.0  0.09323  0.35492  0.15378  1.0000
  C   C15       1.0  0.19581  0.37826  0.99528  1.0000
  H   H22       1.0  0.15062  0.48902  0.99035  1.0000
  H   H23       1.0  0.16670  0.38559  0.17441  1.0000
  C   C16       1.0  0.19734  0.40378  0.99134  1.0000
  C   C17       1.0  0.05665  0.37609  0.99877  1.0000
  H   H24       1.0  0.18693  0.36893  0.18752  1.0000
  H   H25       1.0  0.16356  0.44952  0.09769  1.0000
  C   C18       1.0  0.13789  0.41486  0.00480  1.0000
  C   C19       1.0  0.13931  0.40264  0.01922  1.0000
  C   C20       1.0  0.13553  0.37743  0.02242  1.0000
  C   C21       1.0  0.13164  0.36416  0.01109  1.0000
  H   H26       1.0  0.13267  0.36919  0.19251  1.0000
  H   H27       1.0  0.14066  0.43440  0.00226  1.0000
  H   H28       1.0  0.13652  0.36789  0.03350  1.0000
  C   C22       1.0  0.21372  0.47584  0.16648  1.0000
  H   H29       1.0  0.32674  0.23777  0.13392  1.0000
  H   H30       1.0  0.18594  0.33687  0.15272  1.0000
  H   H31       1.0  0.19382  0.36439  0.16845  1.0000
  H   H32       1.0  0.16882  0.30598  0.18503  1.0000
  H   H33       1.0  0.25486  0.49782  0.11855  1.0000
  C   C23       1.0  0.04914  0.36256  0.06707  1.0000
  C   C24       1.0  0.05946  0.37441  0.05360  1.0000
  H   H34       1.0  0.02818  0.43324  0.04803  1.0000
  H   H35       1.0  0.07914  0.37679  0.05187  1.0000
  H   H36       1.0  0.12047  0.34507  0.13079  1.0000
  N   N1        1.0  0.04904  0.35111  0.99847  1.0000
  C   C25       1.0  0.09407  0.46847  0.02583  1.0000
  C   C26       1.0  0.11139  0.48185  0.02987  1.0000
  C   C27       1.0  0.21178  0.43822  0.10022  1.0000
  H   H37       1.0  0.31339  0.40024  0.19550  1.0000
  H   H38       1.0  0.15668  0.48687  0.05033  1.0000
  H   H39       1.0  0.23219  0.43527  0.09599  1.0000
  N   N2        1.0  0.19940  0.46354  0.09460  1.0000
  H   H40       1.0  0.16114  0.48291  0.09567  1.0000
  C   C28       1.0  0.13359  0.40169  0.99351  1.0000
  H   H41       1.0  0.17119  0.45982  0.00977  1.0000
  C   C29       1.0  0.13107  0.37614  0.99659  1.0000
  C   C30       1.0  0.22972  0.48076  0.10811  1.0000
  C   C31       1.0  0.02519  0.35453  0.99183  1.0000
  H   H42       1.0  0.19177  0.37108  0.00685  1.0000
  H   H43       1.0  0.05521  0.46795  0.02383  1.0000
  H   H44       1.0  0.19474  0.41619  0.99986  1.0000
  C   C32       1.0  0.23974  0.50113  0.11166  1.0000
  H   H45       1.0  0.02048  0.46694  0.04611  1.0000
  H   H46       1.0  0.05243  0.39258  0.03200  1.0000
  C   C33       1.0  0.02389  0.35850  0.06899  1.0000
  C   C34       1.0  0.04713  0.33808  0.01383  1.0000
  H   H47       1.0  0.29940  0.46106  0.22670  1.0000
  H   H48       1.0  0.22215  0.46469  0.07341  1.0000
  N   N3        1.0  0.16275  0.34638  0.18034  1.0000
  C   C35       1.0  0.17941  0.32232  0.18375  1.0000
  C   C36       1.0  0.17820  0.36718  0.17756  1.0000
  C   C37       1.0  0.14457  0.35049  0.19378  1.0000
  C   C38       1.0  0.15066  0.34565  0.16700  1.0000
  C   C39       1.0  0.16561  0.34025  0.15355  1.0000
  C   C40       1.0  0.12413  0.35091  0.16675  1.0000
  C   C41       1.0  0.15471  0.33968  0.14076  1.0000
  C   C42       1.0  0.11346  0.35062  0.15381  1.0000
  C   C43       1.0  0.12872  0.34503  0.14085  1.0000
  H   H49       1.0  0.19573  0.31925  0.17510  1.0000
  H   H50       1.0  0.18773  0.32182  0.19420  1.0000
  H   H51       1.0  0.19478  0.44912  0.07459  1.0000
  H   H52       1.0  0.21536  0.45580  0.16605  1.0000
  C   C44       1.0  0.31471  0.30845  0.17912  1.0000
  C   C45       1.0  0.00863  0.36755  0.05773  1.0000
  H   H53       1.0  0.06548  0.33518  0.01840  1.0000
  C   C46       1.0  0.20207  0.46503  0.07824  1.0000
  H   H54       1.0  0.04255  0.46311  0.08156  1.0000
  H   H55       1.0  0.20700  0.47207  0.19014  1.0000
  H   H56       1.0  0.19205  0.47656  0.02764  1.0000
  C   C47       1.0  0.20897  0.48508  0.18008  1.0000
  C   C48       1.0  0.01885  0.38017  0.04448  1.0000
  H   H57       1.0  0.03375  0.34931  0.02152  1.0000
  H   H58       1.0  0.31548  0.41845  0.23196  1.0000
  C   C49       1.0  0.10348  0.50517  0.03509  1.0000
  C   C50       1.0  0.31542  0.42042  0.19507  1.0000
  H   H59       1.0  0.31114  0.27014  0.17690  1.0000
  H   H60       1.0  0.19638  0.34269  0.98803  1.0000
  C   C51       1.0  0.21013  0.48456  0.09891  1.0000
  H   H61       1.0  0.10041  0.45033  0.02189  1.0000
  H   H62       1.0  0.12957  0.34442  0.01354  1.0000
  H   H63       1.0  0.04206  0.38789  0.00558  1.0000
  N   N4        1.0  0.32550  0.42528  0.20833  1.0000
  C   C52       1.0  0.33119  0.32529  0.18026  1.0000
  H   H64       1.0  0.16939  0.46489  0.11264  1.0000
  H   H65       1.0  0.20963  0.43520  0.11251  1.0000
  C   C53       1.0  0.02340  0.49741  0.08874  1.0000
  H   H66       1.0  0.33023  0.23143  0.15307  1.0000
  H   H67       1.0  0.23772  0.46225  0.11268  1.0000
  H   H68       1.0  0.03505  0.42472  0.07973  1.0000
  H   H69       1.0  0.31549  0.21051  0.14463  1.0000
  H   H70       1.0  0.29651  0.43151  0.19415  1.0000
  C   C54       1.0  0.32401  0.28293  0.17797  1.0000
  C   C55       1.0  0.14482  0.49323  0.05995  1.0000
  C   C56       1.0  0.31419  0.49385  0.21639  1.0000
  C   C57       1.0  0.17169  0.47990  0.00895  1.0000
  C   C58       1.0  0.32696  0.45253  0.20745  1.0000
  C   C59       1.0  0.02610  0.45010  0.05398  1.0000
  C   C60       1.0  0.18346  0.48937  0.01902  1.0000
  H   H71       1.0  0.22003  0.48488  0.14299  1.0000
  H   H72       1.0  0.04100  0.31929  0.01439  1.0000
  C   C61       1.0  0.33099  0.22227  0.14286  1.0000
  C   C62       1.0  0.06865  0.47831  0.02708  1.0000
  H   H73       1.0  0.04067  0.45504  0.98800  1.0000
  H   H74       1.0  0.01593  0.34916  0.07938  1.0000
  C   C63       1.0  0.31261  0.46810  0.21775  1.0000
  H   H75       1.0  0.30855  0.39492  0.22193  1.0000
  C   C64       1.0  0.00948  0.43395  0.99132  1.0000
  C   C65       1.0  0.02514  0.47604  0.08155  1.0000
  C   C66       1.0  0.30896  0.41551  0.22150  1.0000
  C   C67       1.0  0.01529  0.42580  0.07744  1.0000
  C   C68       1.0  0.21650  0.49233  0.15352  1.0000
  H   H76       1.0  0.01478  0.40813  0.07277  1.0000
  H   H77       1.0  0.06319  0.31810  0.98760  1.0000
  N   N5        1.0  0.00710  0.44842  0.06720  1.0000
  H   H78       1.0  0.08677  0.33082  0.99504  1.0000
  H   H79       1.0  0.05942  0.38658  0.98752  1.0000
  C   C69       1.0  0.06932  0.33589  0.98954  1.0000
  C   C70       1.0  0.32971  0.50491  0.20473  1.0000
  H   H80       1.0  0.30254  0.50553  0.22410  1.0000
  Fe  Fe9       1.0  0.11172  0.29115  0.30745  1.0000
  S   S17       1.0  0.12841  0.32420  0.31211  1.0000
  S   S18       1.0  0.07404  0.30313  0.29841  1.0000
  Fe  Fe10      1.0  0.15598  0.25430  0.31836  1.0000
  S   S19       1.0  0.17516  0.28477  0.32435  1.0000
  S   S20       1.0  0.16974  0.21217  0.32014  1.0000
  Fe  Fe11      1.0  0.13626  0.30153  0.33373  1.0000
  S   S21       1.0  0.11885  0.32268  0.35339  1.0000
  Fe  Fe12      1.0  0.16553  0.30513  0.30226  1.0000
  S   S22       1.0  0.19446  0.32683  0.28763  1.0000
  S   S23       1.0  0.11765  0.26930  0.32950  1.0000
  S   S24       1.0  0.14849  0.27382  0.29579  1.0000
  Fe  Fe13      1.0  0.30087  0.12427  0.32182  1.0000
  H   H81       1.0  0.04344  0.45679  0.38674  1.0000
  S   S25       1.0  0.28104  0.16068  0.33013  1.0000
  Fe  Fe14      1.0  0.30744  0.06819  0.31723  1.0000
  S   S26       1.0  0.29188  0.03118  0.32468  1.0000
  H   H82       1.0  0.20552  0.40066  0.37837  1.0000
  H   H83       1.0  0.22627  0.35433  0.26570  1.0000
  H   H84       1.0  0.28374  0.15595  0.26676  1.0000
  S   S27       1.0  0.31360  0.08834  0.33591  1.0000
  S   S28       1.0  0.29073  0.10406  0.30439  1.0000
  Fe  Fe15      1.0  0.09129  0.39751  0.44383  1.0000
  S   S29       1.0  0.12546  0.37069  0.44950  1.0000
  S   S30       1.0  0.05230  0.39393  0.45482  1.0000
  Fe  Fe16      1.0  0.12136  0.43361  0.42336  1.0000
  S   S31       1.0  0.15810  0.41011  0.42740  1.0000
  S   S32       1.0  0.11779  0.47052  0.40890  1.0000
  Fe  Fe17      1.0  0.13836  0.37758  0.42494  1.0000
  S   S33       1.0  0.15954  0.34871  0.41028  1.0000
  Fe  Fe18      1.0  0.14142  0.40588  0.45132  1.0000
  S   S34       1.0  0.15763  0.41718  0.47031  1.0000
  S   S35       1.0  0.10257  0.40176  0.41931  1.0000
  S   S36       1.0  0.10615  0.43198  0.44719  1.0000
  H   H85       1.0  0.07359  0.36137  0.43273  1.0000
  H   H86       1.0  0.06308  0.43972  0.39998  1.0000
  H   H87       1.0  0.08536  0.36638  0.47576  1.0000
  C   C71       1.0  0.04715  0.34162  0.35579  1.0000
  C   C72       1.0  0.01229  0.37693  0.44668  1.0000
  H   H88       1.0  0.29942  0.03935  0.36103  1.0000
  H   H89       1.0  0.25147  0.27777  0.26678  1.0000
  H   H90       1.0  0.15634  0.46208  0.42838  1.0000
  H   H91       1.0  0.20312  0.47591  0.46769  1.0000
  C   C73       1.0  0.17387  0.42837  0.34881  1.0000
  H   H92       1.0  0.29410  0.18209  0.37816  1.0000
  H   H93       1.0  0.02745  0.22995  0.31253  1.0000
  H   H94       1.0  0.16820  0.39247  0.32222  1.0000
  H   H95       1.0  0.06499  0.25183  0.31131  1.0000
  C   C74       1.0  0.04815  0.28624  0.29969  1.0000
  C   C75       1.0  0.04833  0.26154  0.30668  1.0000
  C   C76       1.0  0.14764  0.34033  0.39495  1.0000
  C   C77       1.0  0.16373  0.32559  0.38509  1.0000
  C   C78       1.0  0.15528  0.31973  0.37235  1.0000
  C   C79       1.0  0.13057  0.32849  0.36942  1.0000
  C   C80       1.0  0.11444  0.34299  0.37938  1.0000
  C   C81       1.0  0.12287  0.34884  0.39208  1.0000
  H   H96       1.0  0.18291  0.31883  0.38724  1.0000
  H   H97       1.0  0.16788  0.30852  0.36480  1.0000
  H   H98       1.0  0.09527  0.34976  0.37727  1.0000
  H   H99       1.0  0.11017  0.35988  0.39964  1.0000
  C   C82       1.0  0.19606  0.33198  0.26809  1.0000
  C   C83       1.0  0.21390  0.34646  0.25994  1.0000
  C   C84       1.0  0.18017  0.32187  0.26052  1.0000
  H   H100      1.0  0.05545  0.30335  0.32884  1.0000
  H   H101      1.0  0.16636  0.31071  0.26664  1.0000
  C   C85       1.0  0.20099  0.19842  0.32257  1.0000
  C   C86       1.0  0.20843  0.17283  0.32088  1.0000
  C   C87       1.0  0.23302  0.16109  0.32290  1.0000
  C   C88       1.0  0.25025  0.17481  0.32688  1.0000
  C   C89       1.0  0.24290  0.20043  0.32847  1.0000
  C   C90       1.0  0.21844  0.21226  0.32621  1.0000
  H   H102      1.0  0.19501  0.16202  0.31808  1.0000
  H   H103      1.0  0.23842  0.14133  0.32169  1.0000
  H   H104      1.0  0.25612  0.21124  0.33147  1.0000
  H   H105      1.0  0.21295  0.23199  0.32749  1.0000
  H   H106      1.0  0.04447  0.42509  0.42505  1.0000
  C   C91       1.0  0.14211  0.41660  0.38542  1.0000
  C   C92       1.0  0.15214  0.48203  0.42513  1.0000
  H   H107      1.0  0.04129  0.29730  0.34755  1.0000
  C   C93       1.0  0.02028  0.34270  0.33599  1.0000
  C   C94       1.0  0.16148  0.38143  0.34562  1.0000
  H   H108      1.0  0.15487  0.36433  0.48009  1.0000
  C   C95       1.0  0.05330  0.36258  0.43401  1.0000
  C   C96       1.0  0.03846  0.37611  0.44476  1.0000
  N   N6        1.0  0.02346  0.44739  0.40821  1.0000
  H   H109      1.0  0.23254  0.19439  0.29155  1.0000
  H   H110      1.0  0.15670  0.36315  0.34439  1.0000
  H   H111      1.0  0.15865  0.47324  0.47119  1.0000
  H   H112      1.0  0.31849  0.17834  0.26703  1.0000
  C   C97       1.0  0.04185  0.35110  0.42457  1.0000
  H   H113      1.0  0.05327  0.34148  0.41586  1.0000
  H   H114      1.0  0.06190  0.33835  0.47102  1.0000
  H   H115      1.0  0.26545  0.18237  0.25721  1.0000
  H   H116      1.0  0.17232  0.44841  0.38888  1.0000
  H   H117      1.0  0.18232  0.38053  0.38562  1.0000
  C   C98       1.0  0.17308  0.44412  0.37731  1.0000
  H   H118      1.0  0.15905  0.45871  0.37209  1.0000
  H   H119      1.0  0.30062  0.16187  0.29026  1.0000
  C   C99       1.0  0.30905  0.00858  0.29921  1.0000
  H   H120      1.0  0.03554  0.33014  0.36426  1.0000
  C   C100      1.0  0.23754  0.21216  0.28596  1.0000
  H   H121      1.0  0.02266  0.32808  0.46502  1.0000
  H   H122      1.0  0.31493  0.02640  0.29432  1.0000
  C   C101      1.0  0.21943  0.23343  0.28735  1.0000
  H   H123      1.0  0.26858  0.17010  0.29718  1.0000
  H   H124      1.0  0.18680  0.40438  0.39597  1.0000
  H   H125      1.0  0.19235  0.44654  0.37178  1.0000
  H   H126      1.0  0.00730  0.25717  0.33726  1.0000
  C   C102      1.0  0.26607  0.23815  0.27061  1.0000
  H   H127      1.0  0.17888  0.44674  0.34922  1.0000
  C   C103      1.0  0.02514  0.47201  0.41296  1.0000
  N   N7        1.0  0.16731  0.41832  0.37691  1.0000
  C   C104      1.0  0.19984  0.34088  0.23684  1.0000
  H   H128      1.0  0.25249  0.16699  0.27453  1.0000
  H   H129      1.0  0.02626  0.31741  0.28800  1.0000
  H   H130      1.0  0.06288  0.46098  0.41965  1.0000
  H   H131      1.0  0.06722  0.34424  0.31907  1.0000
  C   C105      1.0  0.28519  0.17807  0.29094  1.0000
  H   H132      1.0  0.24134  0.03280  0.30737  1.0000
  H   H133      1.0  0.06668  0.33700  0.35879  1.0000
  H   H134      1.0  0.04109  0.36193  0.35687  1.0000
  C   C106      1.0  0.18631  0.40027  0.38451  1.0000
  C   C107      1.0  0.24777  0.25931  0.27212  1.0000
  N   N8        1.0  0.17494  0.50323  0.47803  1.0000
  C   C108      1.0  0.27001  0.17331  0.26831  1.0000
  H   H135      1.0  0.32073  0.18306  0.33949  1.0000
  C   C109      1.0  0.16746  0.41189  0.36179  1.0000
  C   C110      1.0  0.15444  0.49374  0.47228  1.0000
  C   C111      1.0  0.02648  0.29845  0.29360  1.0000
  H   H136      1.0  0.13763  0.39702  0.38750  1.0000
  C   C112      1.0  0.16130  0.38824  0.35971  1.0000
  C   C113      1.0  0.06388  0.35027  0.33034  1.0000
  H   H137      1.0  0.05712  0.37084  0.32924  1.0000
  C   C114      1.0  0.30975  0.03886  0.37071  1.0000
  C   C115      1.0  0.04416  0.44162  0.39625  1.0000
  H   H138      1.0  0.29053  0.19127  0.29780  1.0000
  H   H139      1.0  0.02263  0.41965  0.48190  1.0000
  C   C116      1.0  0.30479  0.19596  0.26772  1.0000
  H   H140      1.0  0.03177  0.33433  0.31330  1.0000
  C   C117      1.0  0.24811  0.00767  0.29068  1.0000
  H   H141      1.0  0.14086  0.42296  0.39650  1.0000
  C   C118      1.0  0.22454  0.25696  0.28048  1.0000
  H   H142      1.0  0.01871  0.28353  0.38150  1.0000
  N   N9        1.0  0.04585  0.33605  0.34059  1.0000
  C   C119      1.0  0.05432  0.30877  0.34014  1.0000
  C   C120      1.0  0.04616  0.33796  0.47968  1.0000
  H   H143      1.0  0.08285  0.34726  0.33416  1.0000
  H   H144      1.0  0.31638  0.13001  0.36963  1.0000
  C   C121      1.0  0.13392  0.49134  0.41565  1.0000
  H   H145      1.0  0.04308  0.42353  0.39209  1.0000
  H   H146      1.0  0.32652  0.20509  0.35102  1.0000
  C   C122      1.0  0.31668  0.18863  0.35084  1.0000
  C   C123      1.0  0.23791  0.01507  0.30440  1.0000
  H   H147      1.0  0.29080  0.15094  0.36213  1.0000
  H   H148      1.0  0.21510  0.50208  0.47289  1.0000
  H   H149      1.0  0.29597  0.19502  0.35242  1.0000
  C   C124      1.0  0.02595  0.42726  0.42082  1.0000
  H   H150      1.0  0.12703  0.42856  0.37958  1.0000
  C   C125      1.0  0.17407  0.42136  0.33472  1.0000
  C   C126      1.0  0.04971  0.49922  0.42251  1.0000
  H   H151      1.0  0.33357  0.02059  0.39422  1.0000
  C   C127      1.0  0.02373  0.33208  0.47611  1.0000
  C   C128      1.0  0.01560  0.35313  0.42596  1.0000
  H   H152      1.0  0.28358  0.24141  0.26394  1.0000
  H   H153      1.0  0.29595  0.03692  0.38086  1.0000
  H   H154      1.0  0.31367  0.20881  0.27313  1.0000
  H   H155      1.0  0.17910  0.43409  0.32494  1.0000
  C   C129      1.0  0.31489  0.17623  0.37693  1.0000
  H   H156      1.0  0.07351  0.30311  0.34361  1.0000
  C   C130      1.0  0.18211  0.32628  0.24497  1.0000
  H   H157      1.0  0.15643  0.37469  0.36901  1.0000
  H   H158      1.0  0.33581  0.14539  0.23943  1.0000
  H   H159      1.0  0.01322  0.39132  0.47801  1.0000
  N   N10       1.0  0.32437  0.16770  0.36226  1.0000
  N   N11       1.0  0.28018  0.19088  0.27610  1.0000
  C   C131      1.0  0.26149  0.21382  0.27758  1.0000
  H   H160      1.0  0.30280  0.20418  0.25610  1.0000
  C   C132      1.0  0.16538  0.49853  0.43030  1.0000
  C   C133      1.0  0.02702  0.24919  0.30736  1.0000
  Fe  Fe19      1.0  0.33054  0.10679  0.29370  1.0000
  S   S37       1.0  0.33178  0.12133  0.26922  1.0000
  C   C134      1.0  0.21576  0.35097  0.24440  1.0000
  H   H161      1.0  0.22948  0.36223  0.23829  1.0000
  H   H162      1.0  0.20127  0.23171  0.29384  1.0000
  C   C135      1.0  0.04714  0.47586  0.41858  1.0000
  C   C136      1.0  0.16791  0.39794  0.33314  1.0000
  H   H163      1.0  0.25949  0.01973  0.28303  1.0000
  H   H164      1.0  0.21046  0.27343  0.28165  1.0000
  H   H165      1.0  0.31621  0.05760  0.36981  1.0000
  H   H166      1.0  0.02420  0.40855  0.41768  1.0000
  H   H167      1.0  0.16971  0.31838  0.23925  1.0000
  H   H168      1.0  0.17980  0.49104  0.43735  1.0000
  C   C137      1.0  0.31170  0.14591  0.36100  1.0000
  N   N12       1.0  0.33115  0.01810  0.37122  1.0000
  H   H169      1.0  0.01213  0.26301  0.36087  1.0000
  C   C138      1.0  0.01636  0.34089  0.32129  1.0000
  H   H170      1.0  0.01113  0.43102  0.43024  1.0000
  H   H171      1.0  0.00674  0.45595  0.47011  1.0000
  H   H172      1.0  0.32361  0.19272  0.37860  1.0000
  H   H173      1.0  0.31865  0.16088  0.38609  1.0000
  H   H174      1.0  0.31723  0.13876  0.35011  1.0000
  C   C139      1.0  0.19894  0.49646  0.46855  1.0000
  H   H175      1.0  0.13636  0.49683  0.47963  1.0000
  H   H176      1.0  0.15125  0.50333  0.46104  1.0000
  H   H177      1.0  0.06712  0.50183  0.42627  1.0000
  H   H178      1.0  0.33825  0.02151  0.34729  1.0000
  C   C140      1.0  0.29755  0.00591  0.31383  1.0000
  H   H179      1.0  0.09578  0.32210  0.48433  1.0000
  Fe  Fe20      1.0  0.10087  0.40309  0.57730  1.0000
  S   S38       1.0  0.10952  0.36221  0.57438  1.0000
  S   S39       1.0  0.06098  0.42149  0.58183  1.0000
  Fe  Fe21      1.0  0.15529  0.41086  0.57194  1.0000
  S   S40       1.0  0.16888  0.37074  0.56794  1.0000
  S   S41       1.0  0.18052  0.44072  0.56991  1.0000
  Fe  Fe22      1.0  0.13627  0.37499  0.55478  1.0000
  S   S42       1.0  0.13708  0.35688  0.53401  1.0000
  Fe  Fe23      1.0  0.14104  0.36150  0.58780  1.0000
  S   S43       1.0  0.15067  0.32839  0.60488  1.0000
  S   S44       1.0  0.12549  0.41609  0.55686  1.0000
  S   S45       1.0  0.12963  0.40135  0.59265  1.0000
  Fe  Fe24      1.0  0.31925  0.13945  0.68524  1.0000
  H   H180      1.0  0.18405  0.45285  0.48816  1.0000
  S   S46       1.0  0.30098  0.18013  0.68111  1.0000
  H   H181      1.0  0.05746  0.47575  0.55768  1.0000
  S   S47       1.0  0.29928  0.05138  0.68486  1.0000
  C   C141      1.0  0.18277  0.42691  0.64025  1.0000
  H   H182      1.0  0.23348  0.34452  0.62446  1.0000
  H   H183      1.0  0.05248  0.24155  0.68106  1.0000
  C   C142      1.0  0.14531  0.41348  0.50040  1.0000
  S   S48       1.0  0.31108  0.11017  0.70452  1.0000
  H   H184      1.0  0.07541  0.38844  0.60910  1.0000
  Fe  Fe25      1.0  0.11764  0.29003  0.70841  1.0000
  S   S49       1.0  0.13725  0.32309  0.70986  1.0000
  S   S50       1.0  0.07495  0.29642  0.71398  1.0000
  Fe  Fe26      1.0  0.16767  0.25796  0.69849  1.0000
  S   S51       1.0  0.19056  0.28907  0.69842  1.0000
  S   S52       1.0  0.18376  0.21761  0.69513  1.0000
  Fe  Fe27      1.0  0.16726  0.29556  0.72022  1.0000
  H   H185      1.0  0.32109  0.04917  0.63342  1.0000
  Fe  Fe28      1.0  0.15858  0.31376  0.68808  1.0000
  S   S53       1.0  0.16098  0.34631  0.66996  1.0000
  S   S54       1.0  0.14567  0.26313  0.72074  1.0000
  S   S55       1.0  0.13759  0.28211  0.68614  1.0000
  C   C143      1.0  0.21970  0.34729  0.61630  1.0000
  C   C144      1.0  0.04572  0.25636  0.68800  1.0000
  C   C145      1.0  0.09198  0.32669  0.49590  1.0000
  C   C146      1.0  0.28125  0.18086  0.72786  1.0000
  H   H186      1.0  0.17915  0.37170  0.60328  1.0000
  H   H187      1.0  0.09508  0.46460  0.54432  1.0000
  H   H188      1.0  0.18246  0.45471  0.62114  1.0000
  C   C147      1.0  0.14678  0.36133  0.50389  1.0000
  H   H189      1.0  0.14439  0.43370  0.49906  1.0000
  H   H190      1.0  0.20511  0.36075  0.59039  1.0000
  C   C148      1.0  0.33073  0.05562  0.64173  1.0000
  C   C149      1.0  0.26822  0.19002  0.68448  1.0000
  C   C150      1.0  0.25924  0.21591  0.68279  1.0000
  C   C151      1.0  0.23336  0.22464  0.68570  1.0000
  C   C152      1.0  0.21623  0.20749  0.69034  1.0000
  C   C153      1.0  0.22517  0.18157  0.69178  1.0000
  C   C154      1.0  0.25109  0.17284  0.68895  1.0000
  H   H191      1.0  0.27239  0.22931  0.67929  1.0000
  H   H192      1.0  0.22668  0.24462  0.68442  1.0000
  H   H193      1.0  0.21202  0.16817  0.69529  1.0000
  H   H194      1.0  0.25779  0.15284  0.69023  1.0000
  C   C155      1.0  0.16836  0.46476  0.58101  1.0000
  C   C156      1.0  0.15403  0.45950  0.59467  1.0000
  C   C157      1.0  0.02306  0.40464  0.54408  1.0000
  H   H195      1.0  0.22728  0.33419  0.60792  1.0000
  N   N13       1.0  0.00947  0.34776  0.59783  1.0000
  C   C158      1.0  0.19807  0.41779  0.61530  1.0000
  H   H196      1.0  0.15158  0.44039  0.59894  1.0000
  H   H197      1.0  0.19629  0.39370  0.59111  1.0000
  H   H198      1.0  0.33379  0.21257  0.64831  1.0000
  C   C159      1.0  0.23994  0.38077  0.60206  1.0000
  C   C160      1.0  0.14218  0.37418  0.51641  1.0000
  C   C161      1.0  0.14127  0.40035  0.51463  1.0000
  H   H199      1.0  0.14804  0.34105  0.50525  1.0000
  H   H200      1.0  0.13749  0.41043  0.52420  1.0000
  C   C162      1.0  0.15129  0.33330  0.62331  1.0000
  C   C163      1.0  0.14485  0.35728  0.62785  1.0000
  C   C164      1.0  0.14721  0.36093  0.64232  1.0000
  C   C165      1.0  0.15606  0.34066  0.65235  1.0000
  C   C166      1.0  0.16161  0.31650  0.64802  1.0000
  C   C167      1.0  0.15925  0.31285  0.63351  1.0000
  H   H201      1.0  0.13819  0.37309  0.62024  1.0000
  H   H202      1.0  0.14246  0.37959  0.64571  1.0000
  H   H203      1.0  0.16845  0.30075  0.65570  1.0000
  H   H204      1.0  0.16419  0.29422  0.63008  1.0000
  C   C168      1.0  0.02847  0.29422  0.70607  1.0000
  C   C169      1.0  0.05417  0.28419  0.70463  1.0000
  C   C170      1.0  0.06273  0.26520  0.69556  1.0000
  H   H205      1.0  0.18755  0.43317  0.51344  1.0000
  H   H206      1.0  0.08242  0.25720  0.69445  1.0000
  C   C171      1.0  0.04916  0.39958  0.54379  1.0000
  C   C172      1.0  0.06058  0.40510  0.55533  1.0000
  C   C173      1.0  0.04616  0.41641  0.56707  1.0000
  H   H207      1.0  0.20110  0.42499  0.60370  1.0000
  H   H208      1.0  0.18357  0.49377  0.56544  1.0000
  H   H209      1.0  0.06067  0.39062  0.53492  1.0000
  H   H210      1.0  0.08058  0.40001  0.55516  1.0000
  C   C174      1.0  0.14336  0.47899  0.60311  1.0000
  N   N14       1.0  0.07627  0.32636  0.66050  1.0000
  C   C175      1.0  0.04985  0.32337  0.66644  1.0000
  C   C176      1.0  0.09050  0.30082  0.65917  1.0000
  C   C177      1.0  0.08751  0.33746  0.67142  1.0000
  C   C178      1.0  0.07655  0.34310  0.64631  1.0000
  C   C179      1.0  0.08769  0.33478  0.63257  1.0000
  C   C180      1.0  0.06465  0.36846  0.64587  1.0000
  C   C181      1.0  0.08703  0.35100  0.61935  1.0000
  C   C182      1.0  0.06423  0.38454  0.63259  1.0000
  C   C183      1.0  0.07548  0.37584  0.61936  1.0000
  H   H211      1.0  0.04054  0.31532  0.65856  1.0000
  H   H212      1.0  0.04885  0.31053  0.67695  1.0000
  H   H213      1.0  0.03830  0.34145  0.66893  1.0000
  H   H214      1.0  0.11070  0.30173  0.65492  1.0000
  H   H215      1.0  0.08222  0.29051  0.65187  1.0000
  H   H216      1.0  0.09026  0.28888  0.67007  1.0000
  H   H217      1.0  0.07657  0.35552  0.67440  1.0000
  H   H218      1.0  0.08847  0.32475  0.68204  1.0000
  H   H219      1.0  0.10706  0.34104  0.66712  1.0000
  H   H220      1.0  0.09760  0.31601  0.63172  1.0000
  H   H221      1.0  0.05557  0.37604  0.65584  1.0000
  H   H222      1.0  0.01343  0.39674  0.49668  1.0000
  H   H223      1.0  0.05527  0.40391  0.63254  1.0000
  H   H224      1.0  0.09999  0.48936  0.57917  1.0000
  N   N15       1.0  0.07246  0.34894  0.49760  1.0000
  C   C184      1.0  0.21835  0.23996  0.72498  1.0000
  C   C185      1.0  0.29840  0.16243  0.61743  1.0000
  H   H225      1.0  0.03458  0.28770  0.63655  1.0000
  C   C186      1.0  0.04824  0.34332  0.49407  1.0000
  C   C187      1.0  0.17691  0.49431  0.51992  1.0000
  H   H226      1.0  0.00877  0.43136  0.57618  1.0000
  S   S56       1.0  0.00909  0.39496  0.53025  1.0000
  C   C188      1.0  0.33802  0.17606  0.63040  1.0000
  C   C189      1.0  0.02023  0.30252  0.63270  1.0000
  C   C190      1.0  0.07119  0.35529  0.51287  1.0000
  H   H227      1.0  0.04935  0.34819  0.59808  1.0000
  C   C191      1.0  0.18192  0.46504  0.49676  1.0000
  H   H228      1.0  0.27569  0.16780  0.63821  1.0000
  C   C192      1.0  0.02639  0.34240  0.50467  1.0000
  S   S57       1.0  0.32632  0.11215  0.66832  1.0000
  H   H229      1.0  0.20871  0.19416  0.72153  1.0000
  C   C193      1.0  0.31056  0.01866  0.68710  1.0000
  H   H230      1.0  0.05688  0.37203  0.51474  1.0000
  Fe  Fe29      1.0  0.32174  0.08216  0.68779  1.0000
  H   H231      1.0  0.18149  0.21080  0.73062  1.0000
  C   C194      1.0  0.02006  0.42244  0.56717  1.0000
  H   H232      1.0  0.12288  0.46718  0.56992  1.0000
  H   H233      1.0  0.24913  0.36730  0.59416  1.0000
  C   C195      1.0  0.31354  0.17529  0.63826  1.0000
  H   H234      1.0  0.17411  0.44020  0.64788  1.0000
  H   H235      1.0  0.12724  0.46938  0.54226  1.0000
  H   H236      1.0  0.09619  0.34438  0.60907  1.0000
  H   H237      1.0  0.30919  0.17995  0.64946  1.0000
  C   C196      1.0  0.08064  0.37066  0.48735  1.0000
  H   H238      1.0  0.27682  0.00842  0.68113  1.0000
  H   H239      1.0  0.03210  0.31616  0.58805  1.0000
  C   C197      1.0  0.01411  0.32899  0.58712  1.0000
  H   H240      1.0  0.20374  0.36493  0.64057  1.0000
  C   C198      1.0  0.19830  0.37517  0.59809  1.0000
  C   C199      1.0  0.20439  0.39180  0.62022  1.0000
  N   N16       1.0  0.21539  0.37391  0.60947  1.0000
  H   H241      1.0  0.02178  0.30914  0.71293  1.0000
  C   C200      1.0  0.10382  0.47829  0.56958  1.0000
  C   C201      1.0  0.19984  0.38426  0.63569  1.0000
  H   H242      1.0  0.25308  0.38092  0.61028  1.0000
  C   C202      1.0  0.20085  0.20117  0.73223  1.0000
  H   H243      1.0  0.04189  0.31106  0.61194  1.0000
  C   C203      1.0  0.17230  0.48959  0.57594  1.0000
  H   H244      1.0  0.13236  0.47476  0.61370  1.0000
  C   C204      1.0  0.18397  0.45356  0.51122  1.0000
  H   H245      1.0  0.06657  0.33932  0.52131  1.0000
  H   H246      1.0  0.23790  0.39974  0.59553  1.0000
  H   H247      1.0  0.20180  0.34090  0.62193  1.0000
  C   C205      1.0  0.18906  0.40163  0.64547  1.0000
  H   H248      1.0  0.18507  0.39520  0.65718  1.0000
  C   C206      1.0  0.18741  0.43501  0.62520  1.0000
  C   C207      1.0  0.03176  0.36113  0.59620  1.0000
  H   H249      1.0  0.08952  0.35990  0.51515  1.0000
  H   H250      1.0  0.17707  0.34871  0.73224  1.0000
  H   H251      1.0  0.22660  0.23410  0.71408  1.0000
  C   C208      1.0  0.29413  0.16846  0.63187  1.0000
  H   H252      1.0  0.28335  0.15701  0.61253  1.0000
  H   H253      1.0  0.02909  0.37541  0.60408  1.0000
  C   C209      1.0  0.01150  0.28549  0.69840  1.0000
  H   H254      1.0  0.09033  0.46436  0.57143  1.0000
  C   C210      1.0  0.00848  0.41639  0.55569  1.0000
  C   C211      1.0  0.02414  0.31592  0.61861  1.0000
  C   C212      1.0  0.15028  0.40057  0.48789  1.0000
  H   H255      1.0  0.10514  0.49121  0.53230  1.0000
  C   C213      1.0  0.17709  0.49162  0.49345  1.0000
  C   C214      1.0  0.32208  0.16333  0.60932  1.0000
  H   H256      1.0  0.32551  0.15838  0.59812  1.0000
  C   C215      1.0  0.18149  0.46815  0.52278  1.0000
  H   H257      1.0  0.03532  0.37123  0.58486  1.0000
  H   H258      1.0  0.18336  0.45913  0.53395  1.0000
  H   H259      1.0  0.11029  0.32984  0.49895  1.0000
  C   C216      1.0  0.33457  0.00948  0.69110  1.0000
  C   C217      1.0  0.02003  0.26634  0.68944  1.0000
  C   C218      1.0  0.14657  0.50390  0.59782  1.0000
  H   H260      1.0  0.09789  0.37652  0.49031  1.0000
  H   H261      1.0  0.22995  0.25338  0.72780  1.0000
  C   C219      1.0  0.05526  0.49611  0.55661  1.0000
  H   H262      1.0  0.01504  0.49862  0.55716  1.0000
  H   H263      1.0  0.01502  0.33814  0.57547  1.0000
  H   H264      1.0  0.02599  0.34617  0.51592  1.0000
  C   C220      1.0  0.00904  0.40607  0.48559  1.0000
  C   C221      1.0  0.15067  0.37448  0.48965  1.0000
  H   H265      1.0  0.06568  0.38727  0.48741  1.0000
  H   H266      1.0  0.25053  0.19562  0.71581  1.0000
  H   H267      1.0  0.31694  0.05615  0.65197  1.0000
  N   N17       1.0  0.10207  0.49501  0.55544  1.0000
  H   H268      1.0  0.19950  0.25065  0.72338  1.0000
  H   H269      1.0  0.33408  0.07532  0.63775  1.0000
  C   C222      1.0  0.25720  0.19402  0.72646  1.0000
  H   H270      1.0  0.29235  0.17272  0.71845  1.0000
  H   H271      1.0  0.14119  0.50010  0.55365  1.0000
  C   C223      1.0  0.10757  0.47940  0.54305  1.0000
  H   H272      1.0  0.33559  0.01098  0.65858  1.0000
  H   H273      1.0  0.01667  0.49556  0.59060  1.0000
  H   H274      1.0  0.08618  0.30975  0.50309  1.0000
  Fe  Fe30      1.0  0.22410  0.38252  0.79194  1.0000
  S   S58       1.0  0.26587  0.37516  0.79297  1.0000
  S   S59       1.0  0.20557  0.38739  0.77088  1.0000
  Fe  Fe31      1.0  0.21193  0.38565  0.82522  1.0000
  S   S60       1.0  0.25253  0.37763  0.82904  1.0000
  S   S61       1.0  0.17776  0.39622  0.84157  1.0000
  Fe  Fe32      1.0  0.25872  0.40502  0.80849  1.0000
  S   S62       1.0  0.28683  0.43196  0.80822  1.0000
  Fe  Fe33      1.0  0.25630  0.34862  0.81330  1.0000
  S   S63       1.0  0.27408  0.30784  0.81704  1.0000
  S   S64       1.0  0.21792  0.41483  0.80562  1.0000
  S   S65       1.0  0.21478  0.35419  0.81133  1.0000
  N   N18       1.0  0.21647  0.21831  0.73667  1.0000
  Fe  Fe34      1.0  0.08713  0.38021  0.93693  1.0000
  S   S66       1.0  0.12351  0.35608  0.94124  1.0000
  S   S67       1.0  0.05345  0.36155  0.93581  1.0000
  Fe  Fe35      1.0  0.10633  0.42766  0.94125  1.0000
  S   S68       1.0  0.14427  0.40745  0.94604  1.0000
  S   S69       1.0  0.09264  0.46881  0.94173  1.0000
  Fe  Fe36      1.0  0.14194  0.38682  0.92680  1.0000
  S   S70       1.0  0.17796  0.37784  0.91135  1.0000
  Fe  Fe37      1.0  0.12235  0.37886  0.95991  1.0000
  C   C224      1.0  0.27188  0.30012  0.75441  1.0000
  S   S71       1.0  0.10535  0.40935  0.92097  1.0000
  S   S72       1.0  0.08467  0.40073  0.95661  1.0000
  C   C225      1.0  0.11371  0.48602  0.94730  1.0000
  C   C226      1.0  0.13546  0.47425  0.95341  1.0000
  C   C227      1.0  0.31216  0.27360  0.75839  1.0000
  H   H275      1.0  0.09558  0.38215  0.80852  1.0000
  C   C228      1.0  0.13899  0.37163  0.82112  1.0000
  C   C229      1.0  0.11025  0.39477  0.80498  1.0000
  H   H276      1.0  0.13903  0.45407  0.95556  1.0000
  H   H277      1.0  0.16955  0.47968  0.96145  1.0000
  C   C230      1.0  0.01844  0.41241  0.90607  1.0000
  C   C231      1.0  0.30947  0.49689  0.81376  1.0000
  C   C232      1.0  0.28563  0.46413  0.81041  1.0000
  C   C233      1.0  0.30807  0.47166  0.81279  1.0000
  H   H278      1.0  0.14684  0.30582  0.77069  1.0000
  C   C234      1.0  0.27658  0.50035  0.76853  1.0000
  H   H279      1.0  0.18235  0.46946  0.84217  1.0000
  C   C235      1.0  0.02483  0.36312  0.97655  1.0000
  H   H280      1.0  0.32477  0.45789  0.81364  1.0000
  H   H281      1.0  0.21834  0.45604  0.87507  1.0000
  H   H282      1.0  0.15851  0.36227  0.82245  1.0000
  H   H283      1.0  0.17882  0.33042  0.96952  1.0000
  C   C236      1.0  0.17818  0.39017  0.86092  1.0000
  C   C237      1.0  0.20013  0.37963  0.86713  1.0000
  C   C238      1.0  0.19983  0.37595  0.88261  1.0000
  C   C239      1.0  0.17760  0.38264  0.89196  1.0000
  C   C240      1.0  0.15571  0.39323  0.88571  1.0000
  C   C241      1.0  0.15604  0.39704  0.87026  1.0000
  H   H284      1.0  0.21730  0.37426  0.86005  1.0000
  H   H285      1.0  0.21683  0.36770  0.88735  1.0000
  H   H286      1.0  0.13848  0.39843  0.89277  1.0000
  H   H287      1.0  0.13898  0.40525  0.86555  1.0000
  H   H288      1.0  0.15057  0.32816  0.81275  1.0000
  H   H289      1.0  0.24677  0.47678  0.80725  1.0000
  H   H290      1.0  0.30941  0.16747  0.74240  1.0000
  C   C242      1.0  0.30706  0.27969  0.84915  1.0000
  C   C243      1.0  0.30673  0.29853  0.81294  1.0000
  C   C244      1.0  0.15469  0.39759  0.79956  1.0000
  C   C245      1.0  0.14646  0.33396  0.80155  1.0000
  C   C246      1.0  0.22891  0.44508  0.83915  1.0000
  C   C247      1.0  0.26414  0.48230  0.80929  1.0000
  C   C248      1.0  0.14445  0.32060  0.77779  1.0000
  C   C249      1.0  0.20361  0.31623  0.76183  1.0000
  C   C250      1.0  0.20785  0.33653  0.76871  1.0000
  C   C251      1.0  0.20102  0.36129  0.76245  1.0000
  H   H291      1.0  0.22354  0.45514  0.82843  1.0000
  C   C252      1.0  0.28219  0.26061  0.74426  1.0000
  H   H292      1.0  0.21626  0.33303  0.77891  1.0000
  H   H293      1.0  0.15381  0.41279  0.80667  1.0000
  H   H294      1.0  0.13516  0.34998  0.76044  1.0000
  C   C253      1.0  0.03718  0.39821  0.91406  1.0000
  C   C254      1.0  0.03129  0.37800  0.92454  1.0000
  H   H295      1.0  0.20876  0.29717  0.76685  1.0000
  H   H296      1.0  0.17409  0.38714  0.79900  1.0000
  N   N19       1.0  0.21739  0.45944  0.85158  1.0000
  H   H297      1.0  0.05606  0.40304  0.91222  1.0000
  C   C255      1.0  0.27673  0.18862  0.75331  1.0000
  H   H298      1.0  0.22944  0.37440  0.94084  1.0000
  H   H299      1.0  0.15234  0.40676  0.78817  1.0000
  H   H300      1.0  0.12545  0.35849  0.82622  1.0000
  H   H301      1.0  0.03590  0.42236  0.93931  1.0000
  H   H302      1.0  0.18370  0.23840  0.74836  1.0000
  C   C256      1.0  0.22572  0.48463  0.84923  1.0000
  H   H303      1.0  0.28445  0.18642  0.76372  1.0000
  C   C257      1.0  0.13923  0.35960  0.79607  1.0000
  H   H304      1.0  0.22272  0.42614  0.84047  1.0000
  C   C258      1.0  0.30590  0.23542  0.85671  1.0000
  H   H305      1.0  0.19999  0.21304  0.75948  1.0000
  C   C259      1.0  0.21179  0.36576  0.94247  1.0000
  H   H306      1.0  0.30269  0.25919  0.81575  1.0000
  C   C260      1.0  0.18963  0.46041  0.85263  1.0000
  C   C261      1.0  0.22773  0.33335  0.96065  1.0000
  C   C262      1.0  0.31581  0.27277  0.81321  1.0000
  H   H307      1.0  0.10672  0.40980  0.81242  1.0000
  C   C263      1.0  0.13545  0.36482  0.78094  1.0000
  C   C264      1.0  0.33215  0.23129  0.85613  1.0000
  H   H308      1.0  0.10719  0.40441  0.79377  1.0000
  H   H309      1.0  0.17970  0.47046  0.86200  1.0000
  C   C265      1.0  0.00696  0.37143  0.92661  1.0000
  H   H310      1.0  0.32957  0.11635  0.75756  1.0000
  C   C266      1.0  0.29092  0.17802  0.74130  1.0000
  H   H311      1.0  0.33322  0.22901  0.77183  1.0000
  C   C267      1.0  0.32382  0.31596  0.80992  1.0000
  H   H312      1.0  0.18399  0.44121  0.85460  1.0000
  H   H313      1.0  0.16669  0.35655  0.95733  1.0000
  C   C268      1.0  0.15263  0.48878  0.95688  1.0000
  H   H314      1.0  0.27309  0.26277  0.85335  1.0000
  H   H315      1.0  0.31701  0.33587  0.80978  1.0000
  H   H316      1.0  0.24986  0.44189  0.83809  1.0000
  H   H317      1.0  0.31977  0.25010  0.78520  1.0000
  H   H318      1.0  0.24628  0.44097  0.86503  1.0000
  H   H319      1.0  0.13314  0.41108  0.98236  1.0000
  H   H320      1.0  0.13568  0.38759  0.82790  1.0000
  H   H321      1.0  0.25744  0.50284  0.76597  1.0000
  H   H322      1.0  0.03154  0.44694  0.92415  1.0000
  N   N20       1.0  0.00697  0.45307  0.94433  1.0000
  H   H323      1.0  0.24531  0.34146  0.96081  1.0000
  H   H324      1.0  0.02287  0.42830  0.89813  1.0000
  C   C269      1.0  0.20305  0.37117  0.96914  1.0000
  H   H325      1.0  0.21398  0.35213  0.93422  1.0000
  C   C270      1.0  0.33332  0.27578  0.84841  1.0000
  C   C271      1.0  0.20281  0.22834  0.75026  1.0000
  H   H326      1.0  0.23145  0.32034  0.95200  1.0000
  H   H327      1.0  0.18441  0.32935  0.94997  1.0000
  H   H328      1.0  0.24794  0.28634  0.74164  1.0000
  H   H329      1.0  0.07536  0.34613  0.97859  1.0000
  S   S73       1.0  0.12830  0.35833  0.98248  1.0000
  H   H330      1.0  0.20685  0.40622  0.95421  1.0000
  C   C272      1.0  0.25259  0.20184  0.75202  1.0000
  C   C273      1.0  0.03146  0.44309  0.93635  1.0000
  H   H331      1.0  0.15476  0.29545  0.79680  1.0000
  C   C274      1.0  0.14896  0.31484  0.79248  1.0000
  H   H332      1.0  0.29520  0.21979  0.85981  1.0000
  C   C275      1.0  0.28846  0.47566  0.77150  1.0000
  C   C276      1.0  0.24200  0.20475  0.73851  1.0000
  H   H333      1.0  0.04737  0.45168  0.93889  1.0000
  C   C277      1.0  0.18570  0.34520  0.74236  1.0000
  C   C278      1.0  0.29467  0.29574  0.76045  1.0000
  H   H334      1.0  0.04163  0.36780  0.96953  1.0000
  H   H335      1.0  0.21827  0.42676  0.86806  1.0000
  C   C279      1.0  0.13780  0.34554  0.77202  1.0000
  H   H336      1.0  0.01842  0.48989  0.94339  1.0000
  N   N21       1.0  0.13589  0.38036  0.80536  1.0000
  C   C280      1.0  0.31281  0.47112  0.77539  1.0000
  H   H337      1.0  0.29722  0.29837  0.84610  1.0000
  C   C281      1.0  0.18321  0.34187  0.95872  1.0000
  H   H338      1.0  0.21277  0.24250  0.75382  1.0000
  C   C282      1.0  0.22545  0.44527  0.86552  1.0000
  C   C283      1.0  0.25164  0.48685  0.84857  1.0000
  S   S74       1.0  0.18663  0.29419  0.74086  1.0000
  H   H339      1.0  0.13109  0.38390  0.77579  1.0000
  C   C284      1.0  0.19238  0.32046  0.74869  1.0000
  C   C285      1.0  0.19001  0.36552  0.74923  1.0000
  H   H340      1.0  0.27851  0.45987  0.77128  1.0000
  H   H341      1.0  0.32826  0.29407  0.78115  1.0000
  N   N22       1.0  0.20642  0.35354  0.95786  1.0000
  N   N23       1.0  0.33642  0.26823  0.76467  1.0000
  H   H342      1.0  0.19602  0.38048  0.93937  1.0000
  H   H343      1.0  0.25890  0.31724  0.75604  1.0000
  C   C286      1.0  0.00752  0.44626  0.96044  1.0000
  C   C287      1.0  0.26566  0.28267  0.74631  1.0000
  C   C288      1.0  0.02657  0.44850  0.98282  1.0000
  H   H344      1.0  0.26577  0.47038  0.84934  1.0000
  C   C289      1.0  0.30500  0.25598  0.75030  1.0000
  H   H345      1.0  0.18471  0.38461  0.74429  1.0000
  H   H346      1.0  0.29801  0.31000  0.76675  1.0000
  C   C290      1.0  0.29340  0.25957  0.85317  1.0000
  C   C291      1.0  0.32534  0.49124  0.77638  1.0000
  C   C292      1.0  0.02570  0.45456  0.96761  1.0000
  H   H347      1.0  0.19918  0.18441  0.74061  1.0000
  H   H348      1.0  0.27737  0.24705  0.73792  1.0000
  H   H349      1.0  0.20180  0.43340  0.97346  1.0000
  C   C293      1.0  0.20412  0.39744  0.96548  1.0000
  H   H350      1.0  0.22406  0.32147  0.97138  1.0000
  H   H351      1.0  0.03957  0.46567  0.96145  1.0000
  H   H352      1.0  0.31701  0.23841  0.74861  1.0000
  C   C294      1.0  0.20126  0.41339  0.97648  1.0000
  C   C295      1.0  0.33560  0.24638  0.77629  1.0000
  H   H353      1.0  0.32157  0.45193  0.77821  1.0000
  H   H354      1.0  0.24260  0.20953  0.76175  1.0000
  H   H355      1.0  0.32719  0.50223  0.81543  1.0000
  C   C296      1.0  0.19845  0.36218  0.98439  1.0000
  Fe  Fe38      1.0  0.28154  0.59455  0.18222  1.0000
  S   S75       1.0  0.24209  0.60458  0.19299  1.0000
  S   S76       1.0  0.29794  0.55439  0.17839  1.0000
  Fe  Fe39      1.0  0.28892  0.65034  0.17300  1.0000
  S   S77       1.0  0.24942  0.66378  0.18266  1.0000
  S   S78       1.0  0.31003  0.68182  0.16095  1.0000
  Fe  Fe40      1.0  0.25755  0.63484  0.20196  1.0000
  H   H356      1.0  0.01608  0.61105  0.06471  1.0000
  Fe  Fe41      1.0  0.23814  0.63242  0.17253  1.0000
  S   S79       1.0  0.20406  0.63638  0.16011  1.0000
  S   S80       1.0  0.29780  0.62260  0.19271  1.0000
  S   S81       1.0  0.27697  0.62124  0.16145  1.0000
  Fe  Fe42      1.0  0.16880  0.56973  0.06340  1.0000
  S   S82       1.0  0.20203  0.59030  0.05907  1.0000
  C   C297      1.0  0.25472  0.69459  0.08112  1.0000
  Fe  Fe43      1.0  0.13396  0.61465  0.07348  1.0000
  S   S83       1.0  0.16448  0.63958  0.06996  1.0000
  S   S84       1.0  0.09324  0.62468  0.08220  1.0000
  Fe  Fe44      1.0  0.17602  0.62205  0.04876  1.0000
  S   S85       1.0  0.19093  0.63924  0.02614  1.0000
  Fe  Fe45      1.0  0.18765  0.60538  0.08067  1.0000
  S   S86       1.0  0.21783  0.60245  0.09575  1.0000
  S   S87       1.0  0.14377  0.60004  0.05149  1.0000
  S   S88       1.0  0.15628  0.58193  0.08584  1.0000
  C   C298      1.0  0.20773  0.62690  0.14218  1.0000
  C   C299      1.0  0.18676  0.62966  0.13439  1.0000
  C   C300      1.0  0.18927  0.62184  0.12022  1.0000
  C   C301      1.0  0.21280  0.61110  0.11382  1.0000
  C   C302      1.0  0.23359  0.60810  0.12167  1.0000
  C   C303      1.0  0.23111  0.61612  0.13568  1.0000
  H   H357      1.0  0.16853  0.63795  0.13932  1.0000
  H   H358      1.0  0.17310  0.62430  0.11423  1.0000
  H   H359      1.0  0.25187  0.59982  0.11682  1.0000
  H   H360      1.0  0.24743  0.61391  0.14137  1.0000
  C   C304      1.0  0.23360  0.68066  0.13240  1.0000
  H   H361      1.0  0.14829  0.59443  0.00649  1.0000
  C   C305      1.0  0.22946  0.71514  0.21514  1.0000
  C   C306      1.0  0.24423  0.75554  0.22585  1.0000
  H   H362      1.0  0.20194  0.65070  0.21910  1.0000
  C   C307      1.0  0.03438  0.61703  0.06160  1.0000
  H   H363      1.0  0.21687  0.67048  0.07766  1.0000
  C   C308      1.0  0.25237  0.75064  0.21128  1.0000
  C   C309      1.0  0.05323  0.53141  0.05864  1.0000
  H   H364      1.0  0.18592  0.51435  0.08696  1.0000
  C   C310      1.0  0.17111  0.64121  0.01232  1.0000
  H   H365      1.0  0.29087  0.70101  0.20568  1.0000
  C   C311      1.0  0.33626  0.68998  0.16761  1.0000
  C   C312      1.0  0.26049  0.64930  0.08648  1.0000
  C   C313      1.0  0.13231  0.52368  0.07739  1.0000
  H   H366      1.0  0.26162  0.54500  0.20449  1.0000
  C   C314      1.0  0.16638  0.64089  0.98643  1.0000
  H   H367      1.0  0.17957  0.56323  0.02765  1.0000
  C   C315      1.0  0.08186  0.63258  0.05364  1.0000
  C   C316      1.0  0.07383  0.62491  0.06848  1.0000
  C   C317      1.0  0.05006  0.61721  0.07245  1.0000
  H   H368      1.0  0.33008  0.52507  0.20339  1.0000
  S   S89       1.0  0.25408  0.64553  0.22520  1.0000
  H   H369      1.0  0.09995  0.63913  0.05055  1.0000
  H   H370      1.0  0.04409  0.61105  0.08390  1.0000
  H   H371      1.0  0.25171  0.69383  0.06948  1.0000
  H   H372      1.0  0.03427  0.54892  0.03342  1.0000
  C   C318      1.0  0.21119  0.53006  0.09742  1.0000
  C   C319      1.0  0.30606  0.67505  0.23043  1.0000
  H   H373      1.0  0.23704  0.56224  0.14990  1.0000
  C   C320      1.0  0.07755  0.51519  0.03716  1.0000
  C   C321      1.0  0.05178  0.55619  0.03474  1.0000
  C   C322      1.0  0.20992  0.52827  0.16785  1.0000
  C   C323      1.0  0.26550  0.52842  0.19880  1.0000
  H   H374      1.0  0.24802  0.55335  0.16758  1.0000
  H   H375      1.0  0.23228  0.58445  0.16297  1.0000
  C   C324      1.0  0.23230  0.56429  0.16185  1.0000
  C   C325      1.0  0.18794  0.56911  0.15928  1.0000
  C   C326      1.0  0.23055  0.52571  0.10627  1.0000
  C   C327      1.0  0.21470  0.51820  0.15413  1.0000
  C   C328      1.0  0.31667  0.76729  0.23094  1.0000
  C   C329      1.0  0.28204  0.52831  0.18567  1.0000
  H   H376      1.0  0.16995  0.56120  0.16271  1.0000
  C   C330      1.0  0.27831  0.67664  0.12470  1.0000
  C   C331      1.0  0.32950  0.76078  0.21750  1.0000
  H   H377      1.0  0.04542  0.57418  0.03952  1.0000
  H   H378      1.0  0.25601  0.64543  0.07566  1.0000
  H   H379      1.0  0.24453  0.71280  0.08450  1.0000
  H   H380      1.0  0.20827  0.55829  0.01500  1.0000
  H   H381      1.0  0.27518  0.69503  0.08104  1.0000
  C   C332      1.0  0.14811  0.51528  0.06513  1.0000
  C   C333      1.0  0.31103  0.69279  0.20512  1.0000
  H   H382      1.0  0.10041  0.54026  0.05514  1.0000
  H   H383      1.0  0.07239  0.63867  0.03134  1.0000
  H   H384      1.0  0.13811  0.56775  0.01829  1.0000
  C   C334      1.0  0.25802  0.67970  0.13572  1.0000
  C   C335      1.0  0.12945  0.64631  0.00450  1.0000
  H   H385      1.0  0.13455  0.54085  0.08136  1.0000
  H   H386      1.0  0.32927  0.72885  0.15827  1.0000
  H   H387      1.0  0.21666  0.55527  0.19037  1.0000
  C   C336      1.0  0.14488  0.64424  0.01577  1.0000
  H   H388      1.0  0.19359  0.52126  0.02628  1.0000
  H   H389      1.0  0.20206  0.63749  0.99489  1.0000
  H   H390      1.0  0.20702  0.69074  0.09175  1.0000
  C   C337      1.0  0.18179  0.63967  0.99762  1.0000
  H   H391      1.0  0.25099  0.72695  0.19458  1.0000
  S   S90       1.0  0.17272  0.53135  0.05647  1.0000
  N   N24       1.0  0.24580  0.67302  0.09116  1.0000
  H   H392      1.0  0.13648  0.64574  0.02705  1.0000
  H   H393      1.0  0.20423  0.54924  0.09319  1.0000
  H   H394      1.0  0.31253  0.67364  0.20169  1.0000
  C   C338      1.0  0.18837  0.56758  0.01606  1.0000
  C   C339      1.0  0.20156  0.56335  0.18331  1.0000
  N   N25       1.0  0.20791  0.55574  0.16819  1.0000
  H   H395      1.0  0.31628  0.78609  0.23384  1.0000
  C   C340      1.0  0.04241  0.62479  0.04676  1.0000
  H   H396      1.0  0.04654  0.54805  0.06473  1.0000
  H   H397      1.0  0.18334  0.55752  0.18875  1.0000
  H   H398      1.0  0.19956  0.58419  0.18310  1.0000
  H   H399      1.0  0.25626  0.63291  0.09466  1.0000
  H   H400      1.0  0.19320  0.56812  0.14724  1.0000
  H   H401      1.0  0.18846  0.58832  0.98873  1.0000
  N   N26       1.0  0.32058  0.69196  0.21951  1.0000
  H   H402      1.0  0.18396  0.58952  0.16056  1.0000
  H   H403      1.0  0.10918  0.64924  0.00718  1.0000
  H   H404      1.0  0.21715  0.53031  0.14380  1.0000
  H   H405      1.0  0.26129  0.68113  0.14690  1.0000
  C   C341      1.0  0.18415  0.51526  0.01811  1.0000
  H   H406      1.0  0.20989  0.67862  0.11646  1.0000
  C   C342      1.0  0.31856  0.71782  0.22351  1.0000
  C   C343      1.0  0.27423  0.67454  0.11029  1.0000
  C   C344      1.0  0.06615  0.63255  0.04279  1.0000
  C   C345      1.0  0.22928  0.67837  0.11807  1.0000
  H   H407      1.0  0.28115  0.64944  0.08529  1.0000
  C   C346      1.0  0.17289  0.53250  0.00698  1.0000
  H   H408      1.0  0.29059  0.67223  0.10213  1.0000
  H   H409      1.0  0.08062  0.56952  0.05216  1.0000
  C   C347      1.0  0.20199  0.65454  0.23030  1.0000
  C   C348      1.0  0.14808  0.57380  0.00726  1.0000
  H   H410      1.0  0.22409  0.69914  0.21107  1.0000
  C   C349      1.0  0.18613  0.56803  0.99021  1.0000
  H   H411      1.0  0.10053  0.55747  0.03680  1.0000
  H   H412      1.0  0.29975  0.50634  0.16827  1.0000
  H   H413      1.0  0.20427  0.51647  0.19183  1.0000
  C   C350      1.0  0.22114  0.71993  0.22968  1.0000
  C   C351      1.0  0.24956  0.67525  0.10652  1.0000
  C   C352      1.0  0.24475  0.73067  0.20589  1.0000
  H   H414      1.0  0.06192  0.56080  0.02354  1.0000
  N   N27       1.0  0.17398  0.55993  0.00527  1.0000
  H   H415      1.0  0.29728  0.67578  0.12745  1.0000
  H   H416      1.0  0.04026  0.62274  0.99465  1.0000
  N   N28       1.0  0.06813  0.53832  0.04425  1.0000
  S   S91       1.0  0.02321  0.62418  0.03305  1.0000
  H   H417      1.0  0.28559  0.68252  0.23184  1.0000
  H   H418      1.0  0.20509  0.55696  0.98791  1.0000
  C   C353      1.0  0.08841  0.55187  0.04715  1.0000
  H   H419      1.0  0.21790  0.68256  0.14112  1.0000
  H   H420      1.0  0.21117  0.65693  0.09633  1.0000
  C   C354      1.0  0.21905  0.67287  0.08921  1.0000
  H   H421      1.0  0.01034  0.65658  0.10751  1.0000
  H   H422      1.0  0.06472  0.51720  0.06586  1.0000
  H   H423      1.0  0.26467  0.76243  0.20411  1.0000
  H   H424      1.0  0.13664  0.57110  0.99866  1.0000
  C   C355      1.0  0.33058  0.73643  0.21383  1.0000
  H   H425      1.0  0.18906  0.58825  0.01441  1.0000
  H   H426      1.0  0.32156  0.70403  0.19601  1.0000
  H   H427      1.0  0.15114  0.53416  0.98857  1.0000
  H   H428      1.0  0.23845  0.54152  0.10887  1.0000
  H   H429      1.0  0.03622  0.52320  0.05732  1.0000
  C   C356      1.0  0.14017  0.64448  0.98982  1.0000
  H   H430      1.0  0.03736  0.66841  0.99004  1.0000
  C   C357      1.0  0.28706  0.50653  0.17847  1.0000
  H   H431      1.0  0.25098  0.77122  0.22930  1.0000
  H   H432      1.0  0.11799  0.51464  0.03777  1.0000
  C   C358      1.0  0.16039  0.52223  0.99721  1.0000
  H   H433      1.0  0.01177  0.65461  0.08830  1.0000
  H   H434      1.0  0.04041  0.50746  0.03420  1.0000
  H   H435      1.0  0.30734  0.65605  0.22678  1.0000
  H   H436      1.0  0.24312  0.50641  0.21549  1.0000
  H   H437      1.0  0.10289  0.51486  0.09494  1.0000
  C   C359      1.0  0.20729  0.51085  0.18086  1.0000
  C   C360      1.0  0.11417  0.50914  0.08498  1.0000
  C   C361      1.0  0.20097  0.50990  0.09384  1.0000
  C   C362      1.0  0.25510  0.50650  0.20503  1.0000
  H   H438      1.0  0.33911  0.77459  0.21001  1.0000
  C   C363      1.0  0.05954  0.69373  0.35160  1.0000
  Fe  Fe46      1.0  0.16490  0.73376  0.30039  1.0000
  S   S92       1.0  0.17982  0.69282  0.29906  1.0000
  S   S93       1.0  0.19855  0.75530  0.29504  1.0000
  Fe  Fe47      1.0  0.11026  0.72277  0.30600  1.0000
  S   S94       1.0  0.12196  0.68144  0.30517  1.0000
  S   S95       1.0  0.06820  0.73400  0.31193  1.0000
  Fe  Fe48      1.0  0.15165  0.68532  0.31898  1.0000
  S   S96       1.0  0.16221  0.65493  0.33747  1.0000
  Fe  Fe49      1.0  0.14884  0.69298  0.28542  1.0000
  S   S97       1.0  0.14992  0.67610  0.26417  1.0000
  S   S98       1.0  0.13852  0.72605  0.32126  1.0000
  S   S99       1.0  0.13538  0.73436  0.28530  1.0000
  S   S100      1.0  0.28499  0.87462  0.28380  1.0000
  S   S101      1.0  0.29201  0.88560  0.31741  1.0000
  Fe  Fe50      1.0  0.27410  0.85825  0.30723  1.0000
  S   S102      1.0  0.23366  0.85119  0.31462  1.0000
  Fe  Fe51      1.0  0.30556  0.89967  0.29401  1.0000
  S   S103      1.0  0.30719  0.94093  0.28541  1.0000
  Fe  Fe52      1.0  0.10180  0.60812  0.44452  1.0000
  S   S104      1.0  0.11378  0.64538  0.44498  1.0000
  S   S105      1.0  0.06163  0.60429  0.45192  1.0000
  Fe  Fe53      1.0  0.15427  0.58325  0.43629  1.0000
  S   S106      1.0  0.17137  0.61859  0.43639  1.0000
  Fe  Fe54      1.0  0.14450  0.62327  0.45727  1.0000
  S   S107      1.0  0.15009  0.63843  0.47807  1.0000
  Fe  Fe55      1.0  0.13895  0.63753  0.42406  1.0000
  S   S108      1.0  0.13801  0.66998  0.40551  1.0000
  S   S109      1.0  0.13046  0.58647  0.45814  1.0000
  S   S110      1.0  0.12387  0.60192  0.42257  1.0000
  C   C364      1.0  0.15432  0.65925  0.35633  1.0000
  C   C365      1.0  0.15911  0.63869  0.36717  1.0000
  C   C366      1.0  0.15381  0.64159  0.38229  1.0000
  C   C367      1.0  0.14402  0.66522  0.38667  1.0000
  C   C368      1.0  0.13901  0.68573  0.37584  1.0000
  C   C369      1.0  0.14394  0.68274  0.36072  1.0000
  H   H439      1.0  0.16713  0.62044  0.36385  1.0000
  H   H440      1.0  0.15778  0.62566  0.39054  1.0000
  H   H441      1.0  0.13144  0.70407  0.37915  1.0000
  H   H442      1.0  0.13997  0.69865  0.35250  1.0000
  C   C370      1.0  0.20746  0.78194  0.30101  1.0000
  C   C371      1.0  0.23210  0.78733  0.29637  1.0000
  C   C372      1.0  0.24030  0.80834  0.30057  1.0000
  C   C373      1.0  0.22391  0.82429  0.30945  1.0000
  C   C374      1.0  0.19925  0.81888  0.31416  1.0000
  C   C375      1.0  0.19101  0.79779  0.30995  1.0000
  H   H443      1.0  0.24501  0.77520  0.28948  1.0000
  H   H444      1.0  0.25932  0.81227  0.29687  1.0000
  H   H445      1.0  0.18642  0.83120  0.32098  1.0000
  H   H446      1.0  0.17188  0.79408  0.31344  1.0000
  H   H447      1.0  0.03538  0.74607  0.26386  1.0000
  H   H448      1.0  0.06700  0.74915  0.28038  1.0000
  H   H449      1.0  0.20187  0.66857  0.27055  1.0000
  H   H450      1.0  0.22452  0.69336  0.33185  1.0000
  H   H451      1.0  0.13749  0.55386  0.41379  1.0000
  H   H452      1.0  0.30802  0.86590  0.34799  1.0000
  C   C376      1.0  0.22485  0.65272  0.23603  1.0000
  C   C377      1.0  0.31514  0.95249  0.38721  1.0000
  C   C378      1.0  0.04948  0.65564  0.29021  1.0000
  H   H453      1.0  0.24647  0.72544  0.33986  1.0000
  H   H454      1.0  0.32698  0.94090  0.33562  1.0000
  H   H455      1.0  0.06856  0.67255  0.40976  1.0000
  H   H456      1.0  0.19905  0.68370  0.39947  1.0000
  C   C379      1.0  0.22370  0.76977  0.25434  1.0000
  C   C380      1.0  0.03434  0.65596  0.31670  1.0000
  C   C381      1.0  0.29356  0.96228  0.31161  1.0000
  C   C382      1.0  0.30447  0.96513  0.29686  1.0000
  C   C383      1.0  0.30793  0.98745  0.36233  1.0000
  C   C384      1.0  0.08922  0.65134  0.36414  1.0000
  H   H457      1.0  0.08766  0.61892  0.28509  1.0000
  H   H458      1.0  0.28728  0.94464  0.31645  1.0000
  H   H459      1.0  0.10249  0.63695  0.39289  1.0000
  H   H460      1.0  0.18639  0.72495  0.25476  1.0000
  H   H461      1.0  0.29562  0.75455  0.25139  1.0000
  C   C385      1.0  0.04734  0.60102  0.43669  1.0000
  C   C386      1.0  0.06025  0.58715  0.42551  1.0000
  C   C387      1.0  0.04809  0.58441  0.41349  1.0000
  H   H462      1.0  0.18394  0.74989  0.26554  1.0000
  H   H463      1.0  0.33454  0.97819  0.39458  1.0000
  H   H464      1.0  0.07930  0.57795  0.42631  1.0000
  H   H465      1.0  0.05785  0.57339  0.40493  1.0000
  H   H466      1.0  0.08026  0.65013  0.25505  1.0000
  H   H467      1.0  0.01256  0.62321  0.44436  1.0000
  C   C388      1.0  0.02538  0.71938  0.30519  1.0000
  C   C389      1.0  0.04709  0.73044  0.29965  1.0000
  C   C390      1.0  0.05057  0.74014  0.28472  1.0000
  C   C391      1.0  0.03254  0.73855  0.27540  1.0000
  H   H468      1.0  0.08845  0.66789  0.47496  1.0000
  C   C392      1.0  0.06383  0.65045  0.26386  1.0000
  C   C393      1.0  0.02296  0.59510  0.41293  1.0000
  C   C394      1.0  0.14142  0.53393  0.41713  1.0000
  C   C395      1.0  0.31674  0.87200  0.36923  1.0000
  C   C396      1.0  0.23227  0.72501  0.26092  1.0000
  C   C397      1.0  0.33576  0.87109  0.37822  1.0000
  C   C398      1.0  0.03926  0.65229  0.39403  1.0000
  C   C399      1.0  0.09308  0.65910  0.34894  1.0000
  H   H469      1.0  0.22594  0.72734  0.27276  1.0000
  C   C400      1.0  0.16937  0.53116  0.47650  1.0000
  H   H470      1.0  0.08233  0.68836  0.28530  1.0000
  H   H471      1.0  0.07829  0.62919  0.40720  1.0000
  Fe  Fe56      1.0  0.32683  0.85716  0.31569  1.0000
  H   H472      1.0  0.08919  0.68321  0.39393  1.0000
  H   H473      1.0  0.05624  0.69524  0.39560  1.0000
  H   H474      1.0  0.02012  0.66966  0.45057  1.0000
  N   N29       1.0  0.22713  0.94268  0.29372  1.0000
  C   C401      1.0  0.19992  0.94025  0.29551  1.0000
  C   C402      1.0  0.23783  0.93744  0.27849  1.0000
  C   C403      1.0  0.23977  0.92302  0.30412  1.0000
  C   C404      1.0  0.23060  0.96780  0.29703  1.0000
  H   H475      1.0  0.28061  0.98062  0.33119  1.0000
  H   H476      1.0  0.29737  0.87829  0.37333  1.0000
  H   H477      1.0  0.02238  0.57328  0.46073  1.0000
  S   S111      1.0  0.17603  0.54480  0.43375  1.0000
  C   C405      1.0  0.02250  0.61213  0.43590  1.0000
  H   H478      1.0  0.18950  0.95554  0.28839  1.0000
  H   H479      1.0  0.19678  0.92185  0.29253  1.0000
  H   H480      1.0  0.19095  0.94099  0.30709  1.0000
  H   H481      1.0  0.22920  0.95158  0.27002  1.0000
  H   H482      1.0  0.25865  0.93720  0.27668  1.0000
  H   H483      1.0  0.06222  0.69597  0.27106  1.0000
  H   H484      1.0  0.23164  0.92418  0.31583  1.0000
  H   H485      1.0  0.23832  0.90369  0.30183  1.0000
  C   C406      1.0  0.02430  0.65425  0.28798  1.0000
  C   C407      1.0  0.24470  0.98437  0.28699  1.0000
  C   C408      1.0  0.04133  0.65980  0.46915  1.0000
  H   H486      1.0  0.01880  0.65433  0.27717  1.0000
  H   H487      1.0  0.04838  0.71037  0.34664  1.0000
  C   C409      1.0  0.31229  0.98833  0.29075  1.0000
  C   C410      1.0  0.18348  0.74451  0.34088  1.0000
  C   C411      1.0  0.20335  0.72859  0.36971  1.0000
  C   C412      1.0  0.20118  0.71784  0.38449  1.0000
  C   C413      1.0  0.20144  0.69196  0.38801  1.0000
  H   H488      1.0  0.19045  0.69770  0.33375  1.0000
  H   H489      1.0  0.18319  0.76100  0.34685  1.0000
  H   H490      1.0  0.16611  0.73593  0.34523  1.0000
  H   H491      1.0  0.20290  0.74877  0.36755  1.0000
  H   H492      1.0  0.19894  0.72963  0.39330  1.0000
  H   H493      1.0  0.15115  0.53769  0.48300  1.0000
  C   C414      1.0  0.22048  0.97596  0.31093  1.0000
  H   H494      1.0  0.28782  0.96036  0.35572  1.0000
  C   C415      1.0  0.07014  0.66462  0.37356  1.0000
  H   H495      1.0  0.20945  0.70720  0.23639  1.0000
  H   H496      1.0  0.04891  0.66493  0.25938  1.0000
  H   H497      1.0  0.04081  0.69731  0.37326  1.0000
  C   C416      1.0  0.05374  0.65708  0.30492  1.0000
  H   H498      1.0  0.03520  0.63686  0.38828  1.0000
  C   C417      1.0  0.22786  0.74054  0.23544  1.0000
  H   H499      1.0  0.16778  0.53925  0.46481  1.0000
  Fe  Fe57      1.0  0.31999  0.84622  0.28488  1.0000
  H   H500      1.0  0.20421  0.65658  0.37959  1.0000
  C   C418      1.0  0.07776  0.68206  0.27516  1.0000
  S   S112      1.0  0.30784  0.82843  0.30786  1.0000
  H   H501      1.0  0.02522  0.66903  0.39145  1.0000
  C   C419      1.0  0.30568  0.72509  0.23716  1.0000
  H   H502      1.0  0.24227  0.65619  0.25511  1.0000
  H   H503      1.0  0.07968  0.61763  0.38986  1.0000
  C   C420      1.0  0.06998  0.67798  0.39757  1.0000
  C   C421      1.0  0.01935  0.66800  0.46250  1.0000
  C   C422      1.0  0.05543  0.68610  0.36680  1.0000
  H   H504      1.0  0.03539  0.64648  0.40613  1.0000
  H   H505      1.0  0.08160  0.68643  0.33098  1.0000
  C   C423      1.0  0.17913  0.66153  0.23909  1.0000
  C   C424      1.0  0.20620  0.68723  0.36196  1.0000
  H   H506      1.0  0.31321  0.67188  0.24136  1.0000
  C   C425      1.0  0.17896  0.66686  0.25359  1.0000
  C   C426      1.0  0.08231  0.63424  0.39504  1.0000
  H   H507      1.0  0.22862  0.75420  0.34528  1.0000
  H   H508      1.0  0.10177  0.63513  0.36822  1.0000
  C   C427      1.0  0.01107  0.72699  0.28087  1.0000
  C   C428      1.0  0.30204  0.94706  0.37640  1.0000
  H   H509      1.0  0.33410  0.86258  0.24817  1.0000
  H   H510      1.0  0.29478  0.92920  0.37772  1.0000
  H   H511      1.0  0.18082  0.75698  0.24617  1.0000
  H   H512      1.0  0.02247  0.71192  0.31673  1.0000
  C   C429      1.0  0.19143  0.74417  0.25440  1.0000
  H   H513      1.0  0.10820  0.63741  0.27239  1.0000
  C   C430      1.0  0.20552  0.71366  0.35798  1.0000
  H   H514      1.0  0.18213  0.75221  0.32911  1.0000
  C   C431      1.0  0.20181  0.66489  0.25933  1.0000
  H   H515      1.0  0.23465  0.91854  0.27632  1.0000
  N   N30       1.0  0.20633  0.72573  0.34248  1.0000
  C   C432      1.0  0.20734  0.70763  0.33163  1.0000
  H   H516      1.0  0.25296  0.72518  0.25897  1.0000
  H   H517      1.0  0.26008  0.92485  0.30325  1.0000
  H   H518      1.0  0.07199  0.65956  0.30741  1.0000
  H   H519      1.0  0.10144  0.64340  0.29093  1.0000
  H   H520      1.0  0.20787  0.71724  0.32010  1.0000
  C   C433      1.0  0.01036  0.60911  0.42407  1.0000
  C   C434      1.0  0.32149  0.99357  0.37313  1.0000
  H   H521      1.0  0.22875  0.70598  0.25935  1.0000
  C   C435      1.0  0.22466  0.65779  0.25058  1.0000
  C   C436      1.0  0.32275  0.86504  0.35489  1.0000
  C   C437      1.0  0.30490  0.74948  0.24077  1.0000
  C   C438      1.0  0.20431  0.67669  0.37677  1.0000
  C   C439      1.0  0.22888  0.73880  0.33844  1.0000
  H   H522      1.0  0.23026  0.74771  0.32672  1.0000
  H   H523      1.0  0.32065  0.99074  0.27933  1.0000
  H   H524      1.0  0.09458  0.68318  0.26670  1.0000
  H   H525      1.0  0.33861  0.90827  0.33495  1.0000
  H   H526      1.0  0.11469  0.52466  0.40420  1.0000
  C   C440      1.0  0.09274  0.63821  0.28180  1.0000
  N   N31       1.0  0.21900  0.74500  0.25096  1.0000
  H   H527      1.0  0.21505  0.78553  0.24673  1.0000
  C   C441      1.0  0.28989  0.98267  0.31998  1.0000
  C   C442      1.0  0.01004  0.65396  0.31415  1.0000
  N   N32       1.0  0.06565  0.65725  0.38973  1.0000
  C   C443      1.0  0.29834  0.96454  0.36401  1.0000
  H   H528      1.0  0.08342  0.62486  0.47435  1.0000
  H   H529      1.0  0.25401  0.97951  0.27640  1.0000
  C   C444      1.0  0.00840  0.51620  0.41585  1.0000
  H   H530      1.0  0.21549  0.77340  0.26576  1.0000
  H   H531      1.0  0.01672  0.61392  0.47140  1.0000
  H   H532      1.0  0.10804  0.64893  0.34201  1.0000
  H   H533      1.0  0.20746  0.67424  0.35392  1.0000
  H   H534      1.0  0.21011  0.96415  0.31928  1.0000
  C   C445      1.0  0.15980  0.52455  0.42652  1.0000
  N   N33       1.0  0.07045  0.65648  0.27794  1.0000
  H   H535      1.0  0.29648  0.71213  0.24535  1.0000
  C   C446      1.0  0.22412  0.99925  0.31451  1.0000
  H   H536      1.0  0.05869  0.65562  0.46198  1.0000
  H   H537      1.0  0.30439  0.00048  0.35257  1.0000
  H   H538      1.0  0.03805  0.65711  0.32782  1.0000
  S   S113      1.0  0.33595  0.81684  0.26942  1.0000
  C   C447      1.0  0.07832  0.68025  0.34270  1.0000
  H   H539      1.0  0.04757  0.55267  0.47670  1.0000
  C   C448      1.0  0.32475  0.97533  0.38568  1.0000
  H   H540      1.0  0.03253  0.53755  0.42398  1.0000
  H   H541      1.0  0.31785  0.93882  0.39689  1.0000
  H   H542      1.0  0.24414  0.77084  0.25383  1.0000
  H   H543      1.0  0.05732  0.63168  0.26533  1.0000
  C   C449      1.0  0.12868  0.51733  0.41158  1.0000
  H   H544      1.0  0.19848  0.50600  0.45701  1.0000
  H   H545      1.0  0.18468  0.53975  0.47988  1.0000
  C   C450      1.0  0.03036  0.51934  0.42115  1.0000
  S   S114      1.0  0.32800  0.88156  0.39569  1.0000
  H   H546      1.0  0.21664  0.00493  0.32529  1.0000
  C   C451      1.0  0.00749  0.71758  0.29586  1.0000
  S   S115      1.0  0.00659  0.59054  0.39878  1.0000
  H   H547      1.0  0.00643  0.54773  0.47040  1.0000
  H   H548      1.0  0.16151  0.66296  0.23458  1.0000
  H   H549      1.0  0.05145  0.67798  0.68170  1.0000
  Fe  Fe58      1.0  0.12949  0.73227  0.68009  1.0000
  S   S116      1.0  0.13476  0.69293  0.69162  1.0000
  S   S117      1.0  0.09119  0.75478  0.67660  1.0000
  Fe  Fe59      1.0  0.18634  0.73495  0.67565  1.0000
  S   S118      1.0  0.19553  0.69531  0.68664  1.0000
  S   S119      1.0  0.21865  0.75672  0.66574  1.0000
  Fe  Fe60      1.0  0.16667  0.68614  0.67355  1.0000
  S   S120      1.0  0.16800  0.65050  0.66313  1.0000
  Fe  Fe61      1.0  0.16274  0.70597  0.70355  1.0000
  C   C452      1.0  0.01653  0.64460  0.62981  1.0000
  S   S121      1.0  0.15993  0.72485  0.66127  1.0000
  S   S122      1.0  0.15524  0.74616  0.69328  1.0000
  Fe  Fe62      1.0  0.28771  0.86206  0.68540  1.0000
  S   S123      1.0  0.24733  0.85559  0.68500  1.0000
  H   H550      1.0  0.02955  0.58285  0.52598  1.0000
  H   H551      1.0  0.19890  0.56621  0.65431  1.0000
  S   S124      1.0  0.30909  0.88933  0.66945  1.0000
  S   S125      1.0  0.29959  0.87386  0.70564  1.0000
  Fe  Fe63      1.0  0.08444  0.60878  0.58713  1.0000
  S   S126      1.0  0.11101  0.62950  0.57072  1.0000
  S   S127      1.0  0.04343  0.62407  0.59125  1.0000
  Fe  Fe64      1.0  0.12531  0.56549  0.59480  1.0000
  S   S128      1.0  0.15507  0.58285  0.57908  1.0000
  Fe  Fe65      1.0  0.13712  0.61875  0.58836  1.0000
  S   S129      1.0  0.15896  0.64644  0.59554  1.0000
  Fe  Fe66      1.0  0.12588  0.59146  0.56327  1.0000
  S   S130      1.0  0.13054  0.57569  0.54130  1.0000
  S   S131      1.0  0.10925  0.60053  0.60512  1.0000
  S   S132      1.0  0.09726  0.57165  0.57872  1.0000
  C   C453      1.0  0.16255  0.65195  0.64454  1.0000
  C   C454      1.0  0.15099  0.63300  0.64049  1.0000
  C   C455      1.0  0.14874  0.63192  0.62558  1.0000
  C   C456      1.0  0.15880  0.64925  0.61450  1.0000
  C   C457      1.0  0.16984  0.66863  0.61856  1.0000
  C   C458      1.0  0.17146  0.67017  0.63354  1.0000
  H   H552      1.0  0.14398  0.61894  0.64894  1.0000
  H   H553      1.0  0.13977  0.61732  0.62266  1.0000
  H   H554      1.0  0.17760  0.68220  0.61007  1.0000
  H   H555      1.0  0.18064  0.68472  0.63652  1.0000
  C   C459      1.0  0.22692  0.78240  0.67301  1.0000
  C   C460      1.0  0.20930  0.79802  0.68153  1.0000
  C   C461      1.0  0.21581  0.82032  0.68524  1.0000
  C   C462      1.0  0.24019  0.82669  0.68096  1.0000
  C   C463      1.0  0.25815  0.81028  0.67322  1.0000
  C   C464      1.0  0.25142  0.78852  0.66902  1.0000
  H   H556      1.0  0.19042  0.79351  0.68477  1.0000
  H   H557      1.0  0.20182  0.83282  0.69133  1.0000
  H   H558      1.0  0.27708  0.81456  0.67025  1.0000
  H   H559      1.0  0.26522  0.77640  0.66259  1.0000
  C   C465      1.0  0.05590  0.56139  0.51114  1.0000
  H   H560      1.0  0.26632  0.87794  0.65285  1.0000
  C   C466      1.0  0.07732  0.68889  0.64054  1.0000
  C   C467      1.0  0.06039  0.64296  0.50791  1.0000
  H   H561      1.0  0.32501  0.87921  0.63893  1.0000
  C   C468      1.0  0.01562  0.70889  0.71331  1.0000
  C   C469      1.0  0.27046  0.86965  0.64255  1.0000
  H   H562      1.0  0.07737  0.77100  0.72345  1.0000
  C   C470      1.0  0.30412  0.97541  0.68541  1.0000
  H   H563      1.0  0.07407  0.68448  0.49028  1.0000
  C   C471      1.0  0.29543  0.00150  0.68423  1.0000
  H   H564      1.0  0.14505  0.65236  0.50739  1.0000
  H   H565      1.0  0.31049  0.78298  0.70849  1.0000
  H   H566      1.0  0.29223  0.96241  0.68328  1.0000
  H   H567      1.0  0.09243  0.61403  0.49211  1.0000
  H   H568      1.0  0.11994  0.52299  0.56298  1.0000
  C   C472      1.0  0.06060  0.55311  0.49723  1.0000
  C   C473      1.0  0.19676  0.66131  0.73162  1.0000
  H   H569      1.0  0.29932  0.75388  0.70734  1.0000
  C   C474      1.0  0.03184  0.62955  0.57410  1.0000
  C   C475      1.0  0.04712  0.62169  0.56154  1.0000
  C   C476      1.0  0.03716  0.62363  0.54815  1.0000
  C   C477      1.0  0.13817  0.61922  0.52252  1.0000
  H   H570      1.0  0.20710  0.60752  0.61012  1.0000
  H   H571      1.0  0.06646  0.61344  0.56218  1.0000
  H   H572      1.0  0.04886  0.61668  0.53867  1.0000
  C   C478      1.0  0.02456  0.71114  0.67744  1.0000
  C   C479      1.0  0.02111  0.73746  0.67479  1.0000
  C   C480      1.0  0.04163  0.75075  0.67452  1.0000
  C   C481      1.0  0.06569  0.73781  0.67675  1.0000
  C   C482      1.0  0.06903  0.71153  0.67923  1.0000
  C   C483      1.0  0.04860  0.69832  0.67961  1.0000
  C   C484      1.0  0.02656  0.53517  0.55541  1.0000
  H   H573      1.0  0.03883  0.77109  0.67257  1.0000
  H   H574      1.0  0.08735  0.70124  0.68082  1.0000
  H   H575      1.0  0.07728  0.68023  0.72964  1.0000
  C   C485      1.0  0.02202  0.68292  0.71611  1.0000
  H   H576      1.0  0.04924  0.65267  0.72406  1.0000
  H   H577      1.0  0.11362  0.82843  0.65556  1.0000
  H   H578      1.0  0.30758  0.77370  0.62436  1.0000
  H   H579      1.0  0.28428  0.84075  0.60565  1.0000
  C   C486      1.0  0.13559  0.59371  0.52391  1.0000
  H   H580      1.0  0.22505  0.63880  0.61980  1.0000
  H   H581      1.0  0.02237  0.63543  0.64063  1.0000
  C   C487      1.0  0.16103  0.50921  0.58419  1.0000
  H   H582      1.0  0.21182  0.87488  0.65311  1.0000
  C   C488      1.0  0.25909  0.88134  0.63025  1.0000
  C   C489      1.0  0.06372  0.75919  0.72108  1.0000
  N   N34       1.0  0.18938  0.56376  0.62602  1.0000
  C   C490      1.0  0.18426  0.56996  0.61041  1.0000
  C   C491      1.0  0.20660  0.53963  0.62718  1.0000
  C   C492      1.0  0.16501  0.56010  0.63518  1.0000
  C   C493      1.0  0.20091  0.58333  0.63129  1.0000
  C   C494      1.0  0.20929  0.60422  0.62174  1.0000
  H   H583      1.0  0.27111  0.80945  0.70611  1.0000
  H   H584      1.0  0.17160  0.58818  0.60877  1.0000
  H   H585      1.0  0.20187  0.57110  0.60263  1.0000
  H   H586      1.0  0.22521  0.54165  0.62054  1.0000
  H   H587      1.0  0.15494  0.54697  0.63074  1.0000
  C   C495      1.0  0.26354  0.75541  0.73017  1.0000
  H   H588      1.0  0.16729  0.55200  0.64674  1.0000
  H   H589      1.0  0.15221  0.57822  0.63559  1.0000
  C   C496      1.0  0.03161  0.72505  0.71613  1.0000
  C   C497      1.0  0.06447  0.66678  0.61761  1.0000
  H   H590      1.0  0.13529  0.56215  0.51215  1.0000
  H   H591      1.0  0.01495  0.66160  0.50514  1.0000
  H   H592      1.0  0.19744  0.66084  0.71987  1.0000
  H   H593      1.0  0.07851  0.54205  0.49395  1.0000
  H   H594      1.0  0.06998  0.55668  0.51873  1.0000
  H   H595      1.0  0.20252  0.80172  0.64510  1.0000
  H   H596      1.0  0.22972  0.83236  0.64689  1.0000
  C   C498      1.0  0.13727  0.58187  0.51113  1.0000
  C   C499      1.0  0.01721  0.66300  0.49323  1.0000
  C   C500      1.0  0.33029  0.81488  0.61444  1.0000
  C   C501      1.0  0.28096  0.84826  0.61613  1.0000
  H   H597      1.0  0.06058  0.65776  0.60861  1.0000
  C   C502      1.0  0.20448  0.58162  0.64639  1.0000
  H   H598      1.0  0.28704  0.79698  0.61439  1.0000
  H   H599      1.0  0.16738  0.78259  0.66633  1.0000
  H   H600      1.0  0.16474  0.80052  0.62685  1.0000
  H   H601      1.0  0.00986  0.67057  0.71340  1.0000
  H   H602      1.0  0.13564  0.77839  0.66489  1.0000
  H   H603      1.0  0.14161  0.80494  0.67284  1.0000
  H   H604      1.0  0.12446  0.83203  0.63590  1.0000
  C   C503      1.0  0.01174  0.63291  0.54742  1.0000
  C   C504      1.0  0.12214  0.51134  0.55371  1.0000
  C   C505      1.0  0.27965  0.79345  0.73351  1.0000
  C   C506      1.0  0.29561  0.79234  0.62489  1.0000
  C   C507      1.0  0.09595  0.68061  0.62954  1.0000
  H   H605      1.0  0.14354  0.58595  0.48730  1.0000
  H   H606      1.0  0.12234  0.52411  0.54312  1.0000
  H   H607      1.0  0.22929  0.63545  0.64639  1.0000
  C   C508      1.0  0.06024  0.68890  0.72508  1.0000
  H   H608      1.0  0.21009  0.53292  0.63878  1.0000
  N   N35       1.0  0.01852  0.67185  0.62784  1.0000
  H   H609      1.0  0.03879  0.69298  0.64908  1.0000
  C   C509      1.0  0.20946  0.83786  0.64809  1.0000
  C   C510      1.0  0.05216  0.68629  0.64013  1.0000
  C   C511      1.0  0.33341  0.88430  0.61523  1.0000
  H   H610      1.0  0.04328  0.56897  0.55376  1.0000
  H   H611      1.0  0.11542  0.68262  0.62994  1.0000
  N   N36       1.0  0.06438  0.64717  0.49150  1.0000
  C   C512      1.0  0.08242  0.66561  0.48708  1.0000
  H   H612      1.0  0.08611  0.54757  0.55330  1.0000
  H   H613      1.0  0.25964  0.78239  0.70217  1.0000
  H   H614      1.0  0.11066  0.73800  0.71914  1.0000
  C   C513      1.0  0.00700  0.57229  0.61421  1.0000
  C   C514      1.0  0.08955  0.66957  0.61810  1.0000
  H   H615      1.0  0.23187  0.76001  0.71700  1.0000
  C   C515      1.0  0.04492  0.67526  0.62855  1.0000
  H   H616      1.0  0.24249  0.80091  0.71627  1.0000
  H   H617      1.0  0.11258  0.80393  0.64513  1.0000
  N   N37       1.0  0.27603  0.77701  0.72261  1.0000
  H   H618      1.0  0.06218  0.60921  0.48796  1.0000
  H   H619      1.0  0.00751  0.54501  0.55542  1.0000
  C   C516      1.0  0.24126  0.74915  0.72590  1.0000
  H   H620      1.0  0.01366  0.70327  0.61090  1.0000
  H   H621      1.0  0.21607  0.59925  0.66340  1.0000
  C   C517      1.0  0.14277  0.63269  0.50840  1.0000
  C   C518      1.0  0.21981  0.62249  0.62715  1.0000
  C   C519      1.0  0.01073  0.68316  0.61325  1.0000
  C   C520      1.0  0.19942  0.86184  0.65162  1.0000
  H   H622      1.0  0.27999  0.79006  0.63406  1.0000
  C   C521      1.0  0.17340  0.86869  0.65373  1.0000
  H   H623      1.0  0.16378  0.52836  0.58006  1.0000
  H   H624      1.0  0.13738  0.85776  0.65477  1.0000
  H   H625      1.0  0.13697  0.62849  0.53231  1.0000
  H   H626      1.0  0.17487  0.55534  0.60688  1.0000
  H   H627      1.0  0.07829  0.63534  0.51265  1.0000
  C   C522      1.0  0.09722  0.72547  0.71737  1.0000
  C   C523      1.0  0.05451  0.71549  0.72214  1.0000
  H   H628      1.0  0.31418  0.75779  0.72296  1.0000
  C   C524      1.0  0.30102  0.76743  0.71503  1.0000
  C   C525      1.0  0.00680  0.64026  0.57311  1.0000
  C   C526      1.0  0.21474  0.60017  0.65170  1.0000
  H   H629      1.0  0.30960  0.79829  0.65045  1.0000
  C   C527      1.0  0.07136  0.53593  0.55427  1.0000
  C   C528      1.0  0.22229  0.62061  0.64211  1.0000
  H   H630      1.0  0.17734  0.77704  0.64089  1.0000
  H   H631      1.0  0.10417  0.66303  0.60958  1.0000
  H   H632      1.0  0.16568  0.88729  0.65668  1.0000
  H   H633      1.0  0.24633  0.89881  0.63093  1.0000
  C   C529      1.0  0.32812  0.96629  0.68944  1.0000
  H   H634      1.0  0.14652  0.77715  0.63696  1.0000
  H   H635      1.0  0.29630  0.84008  0.65142  1.0000
  H   H636      1.0  0.32278  0.81964  0.60364  1.0000
  H   H637      1.0  0.00714  0.58934  0.61964  1.0000
  S   S133      1.0  0.13267  0.52800  0.60849  1.0000
  N   N38       1.0  0.15021  0.80750  0.64917  1.0000
  C   C530      1.0  0.12421  0.81865  0.64625  1.0000
  C   C531      1.0  0.16020  0.78999  0.63795  1.0000
  C   C532      1.0  0.14861  0.79271  0.66395  1.0000
  C   C533      1.0  0.16692  0.82675  0.64902  1.0000
  C   C534      1.0  0.15730  0.85147  0.65253  1.0000
  C   C535      1.0  0.19356  0.82045  0.64696  1.0000
  H   H638      1.0  0.02576  0.74489  0.71321  1.0000
  C   C536      1.0  0.28747  0.84748  0.64165  1.0000
  Fe  Fe67      1.0  0.32407  0.89814  0.68944  1.0000
  C   C537      1.0  0.26158  0.79301  0.71134  1.0000
  C   C538      1.0  0.14184  0.59533  0.49704  1.0000
  C   C539      1.0  0.23039  0.72819  0.73309  1.0000
  H   H639      1.0  0.08245  0.69730  0.64949  1.0000
  N   N39       1.0  0.07185  0.73197  0.72544  1.0000
  S   S134      1.0  0.15968  0.70247  0.72856  1.0000
  H   H640      1.0  0.28741  0.81078  0.72801  1.0000
  C   C540      1.0  0.29323  0.83602  0.62837  1.0000
  S   S135      1.0  0.31836  0.82942  0.68349  1.0000
  N   N40       1.0  0.31035  0.81198  0.62718  1.0000
  H   H641      1.0  0.19871  0.52448  0.62309  1.0000
  C   C541      1.0  0.04090  0.65661  0.48475  1.0000
  H   H642      1.0  0.02127  0.67320  0.60400  1.0000
  C   C542      1.0  0.32322  0.80278  0.64054  1.0000
  C   C543      1.0  0.01504  0.58258  0.50544  1.0000
  H   H643      1.0  0.02043  0.53152  0.60267  1.0000
  C   C544      1.0  0.03083  0.50900  0.55643  1.0000
  H   H644      1.0  0.31497  0.89441  0.61351  1.0000
  H   H645      1.0  0.10609  0.70604  0.72094  1.0000
  C   C545      1.0  0.01884  0.57389  0.49135  1.0000
  H   H646      1.0  0.02874  0.63469  0.62105  1.0000
  C   C546      1.0  0.04674  0.54859  0.55441  1.0000
  Fe  Fe68      1.0  0.33144  0.84227  0.70289  1.0000
  C   C547      1.0  0.03316  0.57612  0.51522  1.0000
  H   H647      1.0  0.25574  0.87999  0.60743  1.0000
  H   H648      1.0  0.32822  0.96481  0.49917  1.0000
  C   C548      1.0  0.14464  0.62081  0.49561  1.0000
  H   H649      1.0  0.10002  0.65963  0.49235  1.0000
  H   H650      1.0  0.21343  0.72364  0.72967  1.0000
  C   C549      1.0  0.07635  0.50918  0.55544  1.0000
  H   H651      1.0  0.06250  0.76320  0.70896  1.0000
  H   H652      1.0  0.04697  0.62919  0.51193  1.0000
  C   C550      1.0  0.04426  0.67292  0.72200  1.0000
  H   H653      1.0  0.09619  0.72714  0.70530  1.0000
  C   C551      1.0  0.04245  0.55923  0.48741  1.0000
  H   H654      1.0  0.05305  0.66077  0.51277  1.0000
  C   C552      1.0  0.07601  0.62279  0.48627  1.0000
  H   H655      1.0  0.02373  0.57175  0.60559  1.0000
  H   H656      1.0  0.17145  0.52633  0.50411  1.0000
  H   H657      1.0  0.00965  0.55567  0.62272  1.0000
  C   C553      1.0  0.26436  0.87069  0.61706  1.0000
  H   H658      1.0  0.04518  0.76584  0.72721  1.0000
  H   H659      1.0  0.33883  0.88705  0.48706  1.0000
  C   C554      1.0  0.17472  0.50600  0.50550  1.0000
  C   C555      1.0  0.33902  0.87560  0.62962  1.0000
  H   H660      1.0  0.33449  0.81689  0.64293  1.0000
  H   H661      1.0  0.17541  0.50566  0.52889  1.0000
  H   H662      1.0  0.33666  0.78523  0.63914  1.0000
  Fe  Fe69      1.0  0.26763  0.58421  0.81073  1.0000
  S   S136      1.0  0.22740  0.58762  0.80700  1.0000
  S   S137      1.0  0.29283  0.54672  0.81354  1.0000
  Fe  Fe70      1.0  0.26678  0.64164  0.80858  1.0000
  S   S138      1.0  0.22588  0.64864  0.80469  1.0000
  Fe  Fe71      1.0  0.22092  0.61664  0.82289  1.0000
  S   S139      1.0  0.18730  0.61626  0.84076  1.0000
  Fe  Fe72      1.0  0.23648  0.61917  0.78923  1.0000
  C   C556      1.0  0.21740  0.53094  0.84520  1.0000
  S   S140      1.0  0.26091  0.61145  0.82779  1.0000
  S   S141      1.0  0.27754  0.61394  0.79206  1.0000
  Fe  Fe73      1.0  0.11208  0.60237  0.93448  1.0000
  S   S142      1.0  0.12594  0.63969  0.93289  1.0000
  S   S143      1.0  0.07829  0.58905  0.92826  1.0000
  Fe  Fe74      1.0  0.15623  0.57350  0.94929  1.0000
  S   S144      1.0  0.17444  0.60780  0.94935  1.0000
  C   C557      1.0  0.31383  0.68399  0.80893  1.0000
  Fe  Fe75      1.0  0.13523  0.62657  0.95614  1.0000
  H   H663      1.0  0.25061  0.53980  0.75190  1.0000
  Fe  Fe76      1.0  0.16414  0.61807  0.92610  1.0000
  S   S145      1.0  0.19403  0.62904  0.90755  1.0000
  S   S146      1.0  0.11810  0.59124  0.95812  1.0000
  S   S147      1.0  0.14932  0.58213  0.92573  1.0000
  H   H664      1.0  0.16673  0.69448  0.75926  1.0000
  H   H665      1.0  0.27996  0.51162  0.84564  1.0000
  N   N41       1.0  0.27537  0.54730  0.76678  1.0000
  C   C558      1.0  0.14939  0.54652  0.89462  1.0000
  H   H666      1.0  0.05502  0.73197  0.74805  1.0000
  H   H667      1.0  0.15644  0.56791  0.87283  1.0000
  C   C559      1.0  0.18971  0.61834  0.85949  1.0000
  C   C560      1.0  0.16775  0.62011  0.86967  1.0000
  C   C561      1.0  0.16895  0.62225  0.88460  1.0000
  C   C562      1.0  0.19212  0.62318  0.88938  1.0000
  C   C563      1.0  0.21410  0.62115  0.87923  1.0000
  C   C564      1.0  0.21295  0.61838  0.86439  1.0000
  H   H668      1.0  0.14970  0.62015  0.86595  1.0000
  H   H669      1.0  0.15190  0.62403  0.89231  1.0000
  H   H670      1.0  0.23205  0.62193  0.88286  1.0000
  H   H671      1.0  0.22999  0.61648  0.85674  1.0000
  H   H672      1.0  0.01970  0.64624  0.94696  1.0000
  H   H673      1.0  0.05789  0.62464  0.95377  1.0000
  H   H674      1.0  0.19427  0.66230  0.77395  1.0000
  H   H675      1.0  0.22467  0.62850  0.73456  1.0000
  H   H676      1.0  0.24883  0.52171  0.80990  1.0000
  H   H677      1.0  0.25660  0.57142  0.74971  1.0000
  H   H678      1.0  0.12198  0.54771  0.87187  1.0000
  H   H679      1.0  0.11343  0.51838  0.91102  1.0000
  H   H680      1.0  0.19344  0.69041  0.90395  1.0000
  C   C565      1.0  0.27420  0.73929  0.74191  1.0000
  C   C566      1.0  0.05113  0.60871  0.92329  1.0000
  C   C567      1.0  0.05038  0.63474  0.91951  1.0000
  C   C568      1.0  0.07386  0.72820  0.74151  1.0000
  H   H681      1.0  0.28089  0.54735  0.74319  1.0000
  C   C569      1.0  0.26312  0.71844  0.74904  1.0000
  H   H682      1.0  0.06695  0.64347  0.91967  1.0000
  C   C570      1.0  0.18017  0.67982  0.73855  1.0000
  C   C571      1.0  0.01585  0.64629  0.97107  1.0000
  H   H683      1.0  0.08008  0.64003  0.96041  1.0000
  C   C572      1.0  0.26551  0.55151  0.75227  1.0000
  H   H684      1.0  0.06792  0.66613  0.97979  1.0000
  C   C573      1.0  0.19005  0.68511  0.88169  1.0000
  H   H685      1.0  0.17477  0.63983  0.97511  1.0000
  C   C574      1.0  0.05992  0.64171  0.95873  1.0000
  C   C575      1.0  0.31357  0.51603  0.77354  1.0000
  C   C576      1.0  0.33342  0.66444  0.81163  1.0000
  C   C577      1.0  0.20251  0.54204  0.89372  1.0000
  H   H686      1.0  0.19731  0.52095  0.91527  1.0000
  H   H687      1.0  0.09112  0.58155  0.89464  1.0000
  H   H688      1.0  0.17086  0.68100  0.88447  1.0000
  H   H689      1.0  0.26156  0.79945  0.74029  1.0000
  H   H690      1.0  0.32835  0.91300  0.94735  1.0000
  H   H691      1.0  0.23766  0.69840  0.89811  1.0000
  C   C578      1.0  0.14803  0.51507  0.95421  1.0000
  H   H692      1.0  0.32840  0.84486  0.94408  1.0000
  S   S148      1.0  0.16975  0.53356  0.95786  1.0000
  H   H693      1.0  0.08629  0.74078  0.74445  1.0000
  S   S149      1.0  0.28270  0.67842  0.80797  1.0000
  C   C579      1.0  0.19510  0.66200  0.76217  1.0000
  C   C580      1.0  0.19078  0.55502  0.88184  1.0000
  H   H694      1.0  0.29346  0.78418  0.74113  1.0000
  C   C581      1.0  0.10874  0.51223  0.94520  1.0000
  H   H695      1.0  0.05645  0.65861  0.95050  1.0000
  H   H696      1.0  0.32988  0.64510  0.81302  1.0000
  C   C582      1.0  0.21133  0.64318  0.75528  1.0000
  C   C583      1.0  0.16208  0.53260  0.90635  1.0000
  C   C584      1.0  0.02978  0.59746  0.92289  1.0000
  H   H697      1.0  0.20190  0.56416  0.87247  1.0000
  S   S150      1.0  0.23033  0.61909  0.76533  1.0000
  C   C585      1.0  0.16465  0.55717  0.88220  1.0000
  C   C586      1.0  0.32622  0.86576  0.94243  1.0000
  C   C587      1.0  0.29141  0.56713  0.76685  1.0000
  H   H698      1.0  0.09363  0.54095  0.88319  1.0000
  H   H699      1.0  0.19149  0.67848  0.85955  1.0000
  H   H700      1.0  0.03033  0.57732  0.92574  1.0000
  C   C588      1.0  0.25391  0.55093  0.77855  1.0000
  H   H701      1.0  0.22267  0.54111  0.89360  1.0000
  H   H702      1.0  0.08753  0.54318  0.90950  1.0000
  C   C589      1.0  0.28879  0.52135  0.76941  1.0000
  C   C590      1.0  0.24295  0.53235  0.84471  1.0000
  H   H703      1.0  0.12207  0.54681  0.94635  1.0000
  H   H704      1.0  0.32283  0.87142  0.93068  1.0000
  C   C591      1.0  0.12597  0.52667  0.94846  1.0000
  C   C592      1.0  0.10841  0.53922  0.90916  1.0000
  C   C593      1.0  0.21216  0.64299  0.73998  1.0000
  C   C594      1.0  0.17950  0.68018  0.75382  1.0000
  H   H705      1.0  0.08224  0.70866  0.74530  1.0000
  H   H706      1.0  0.17496  0.56567  0.98139  1.0000
  C   C595      1.0  0.04758  0.66663  0.97879  1.0000
  H   H707      1.0  0.29790  0.56647  0.77787  1.0000
  H   H708      1.0  0.30380  0.72429  0.80510  1.0000
  H   H709      1.0  0.32406  0.53061  0.77508  1.0000
  C   C596      1.0  0.24129  0.71289  0.74462  1.0000
  H   H710      1.0  0.26076  0.54993  0.78944  1.0000
  H   H711      1.0  0.24971  0.55049  0.84261  1.0000
  N   N42       1.0  0.04292  0.64400  0.97281  1.0000
  H   H712      1.0  0.04604  0.60410  0.97948  1.0000
  N   N43       1.0  0.24183  0.68547  0.84870  1.0000
  C   C597      1.0  0.25099  0.70967  0.84254  1.0000
  C   C598      1.0  0.26385  0.66543  0.84968  1.0000
  C   C599      1.0  0.22635  0.67918  0.83804  1.0000
  C   C600      1.0  0.22791  0.68761  0.86363  1.0000
  C   C601      1.0  0.24018  0.69339  0.87509  1.0000
  C   C602      1.0  0.20231  0.68361  0.86735  1.0000
  C   C603      1.0  0.22776  0.69465  0.88942  1.0000
  C   C604      1.0  0.20278  0.69039  0.89272  1.0000
  H   H713      1.0  0.26475  0.71468  0.84908  1.0000
  H   H714      1.0  0.26091  0.70892  0.83109  1.0000
  H   H715      1.0  0.23508  0.72539  0.84209  1.0000
  H   H716      1.0  0.25794  0.64726  0.85512  1.0000
  H   H717      1.0  0.27805  0.67013  0.85603  1.0000
  H   H718      1.0  0.27400  0.66217  0.83857  1.0000
  H   H719      1.0  0.20968  0.69373  0.83651  1.0000
  H   H720      1.0  0.23722  0.67814  0.82690  1.0000
  H   H721      1.0  0.21984  0.66051  0.84153  1.0000
  H   H722      1.0  0.25965  0.69650  0.87312  1.0000
  H   H723      1.0  0.09168  0.52147  0.94082  1.0000
  H   H724      1.0  0.04160  0.68413  0.97150  1.0000
  H   H725      1.0  0.11835  0.58743  0.90170  1.0000
  H   H726      1.0  0.11285  0.54738  0.91874  1.0000
  H   H727      1.0  0.24233  0.56963  0.77656  1.0000
  H   H728      1.0  0.02735  0.66953  0.91234  1.0000
  C   C605      1.0  0.00757  0.61205  0.91889  1.0000
  H   H729      1.0  0.28086  0.58640  0.76453  1.0000
  N   N44       1.0  0.12160  0.55042  0.89509  1.0000
  H   H730      1.0  0.30896  0.87287  0.94960  1.0000
  C   C606      1.0  0.02807  0.64941  0.91530  1.0000
  H   H731      1.0  0.20431  0.54820  0.84363  1.0000
  C   C607      1.0  0.31880  0.70902  0.80720  1.0000
  S   S151      1.0  0.12039  0.64713  0.97593  1.0000
  H   H732      1.0  0.11868  0.58741  0.88225  1.0000
  C   C608      1.0  0.11211  0.57781  0.89326  1.0000
  H   H733      1.0  0.12178  0.51838  0.88376  1.0000
  H   H734      1.0  0.24101  0.53663  0.77949  1.0000
  H   H735      1.0  0.23284  0.69661  0.75009  1.0000
  H   H736      1.0  0.27155  0.70642  0.75802  1.0000
  C   C609      1.0  0.28845  0.51528  0.81241  1.0000
  H   H737      1.0  0.29134  0.74257  0.74559  1.0000
  C   C610      1.0  0.11448  0.53887  0.88292  1.0000
  H   H738      1.0  0.30813  0.56541  0.75832  1.0000
  H   H739      1.0  0.15223  0.52375  0.91629  1.0000
  C   C611      1.0  0.25999  0.51037  0.84648  1.0000
  H   H740      1.0  0.18877  0.50784  0.84763  1.0000
  C   C612      1.0  0.18822  0.53070  0.90589  1.0000
  C   C613      1.0  0.26549  0.50788  0.81043  1.0000
  C   C614      1.0  0.00711  0.64773  0.95708  1.0000
  C   C615      1.0  0.20876  0.50749  0.84747  1.0000
  C   C616      1.0  0.00659  0.63802  0.91510  1.0000
  H   H741      1.0  0.07073  0.61887  0.98435  1.0000
  C   C617      1.0  0.05019  0.62144  0.98328  1.0000
  H   H742      1.0  0.59750  0.09936  0.02619  1.0000
  Fe  Fe77      1.0  0.62662  0.22751  0.18144  1.0000
  S   S152      1.0  0.63115  0.18561  0.18559  1.0000
  S   S153      1.0  0.58682  0.24869  0.18388  1.0000
  C   C618      1.0  0.65437  0.15570  0.10725  1.0000
  C   C619      1.0  0.44885  0.11503  0.99353  1.0000
  H   H743      1.0  0.37170  0.23964  0.12798  1.0000
  C   C620      1.0  0.56166  0.16990  0.21604  1.0000
  S   S154      1.0  0.65340  0.22903  0.16026  1.0000
  C   C621      1.0  0.63934  0.15404  0.99046  1.0000
  S   S155      1.0  0.62525  0.11229  0.04855  1.0000
  H   H744      1.0  0.35118  0.20945  0.08896  1.0000
  Fe  Fe78      1.0  0.65359  0.15624  0.06924  1.0000
  S   S156      1.0  0.61829  0.14000  0.07875  1.0000
  H   H745      1.0  0.46770  0.11993  0.99197  1.0000
  Fe  Fe79      1.0  0.63871  0.10418  0.07078  1.0000
  Fe  Fe80      1.0  0.60796  0.14959  0.05582  1.0000
  S   S157      1.0  0.56801  0.16604  0.05301  1.0000
  S   S158      1.0  0.64168  0.16864  0.04661  1.0000
  Fe  Fe81      1.0  0.45549  0.20213  0.17567  1.0000
  S   S159      1.0  0.45168  0.16227  0.18508  1.0000
  S   S160      1.0  0.49559  0.20586  0.16494  1.0000
  Fe  Fe82      1.0  0.39806  0.21786  0.17956  1.0000
  S   S161      1.0  0.39099  0.17854  0.18898  1.0000
  H   H746      1.0  0.37160  0.08210  0.19679  1.0000
  Fe  Fe83      1.0  0.42239  0.17860  0.20229  1.0000
  N   N45       1.0  0.35580  0.20686  0.13943  1.0000
  Fe  Fe84      1.0  0.42064  0.16560  0.17098  1.0000
  S   S162      1.0  0.41649  0.13261  0.15921  1.0000
  S   S163      1.0  0.42828  0.21876  0.19402  1.0000
  S   S164      1.0  0.42565  0.20457  0.16052  1.0000
  Fe  Fe85      1.0  0.41882  0.09233  0.04725  1.0000
  S   S165      1.0  0.44673  0.05737  0.04959  1.0000
  S   S166      1.0  0.39635  0.09678  0.02794  1.0000
  Fe  Fe86      1.0  0.43024  0.11017  0.07541  1.0000
  S   S167      1.0  0.45921  0.07654  0.07986  1.0000
  S   S168      1.0  0.42449  0.14295  0.08905  1.0000
  Fe  Fe87      1.0  0.47167  0.08229  0.05557  1.0000
  S   S169      1.0  0.51275  0.07484  0.04783  1.0000
  Fe  Fe88      1.0  0.43165  0.05438  0.07356  1.0000
  C   C622      1.0  0.41123  0.08168  0.23218  1.0000
  S   S170      1.0  0.44527  0.11792  0.05128  1.0000
  S   S171      1.0  0.40115  0.08745  0.07104  1.0000
  C   C623      1.0  0.42009  0.13532  0.13965  1.0000
  C   C624      1.0  0.41930  0.11416  0.13259  1.0000
  C   C625      1.0  0.42105  0.11605  0.11707  1.0000
  C   C626      1.0  0.42299  0.13930  0.10853  1.0000
  C   C627      1.0  0.42379  0.16043  0.11559  1.0000
  C   C628      1.0  0.42284  0.15836  0.13105  1.0000
  H   H747      1.0  0.41722  0.09623  0.13915  1.0000
  H   H748      1.0  0.42039  0.09965  0.11174  1.0000
  H   H749      1.0  0.42498  0.17854  0.10907  1.0000
  H   H750      1.0  0.42378  0.17468  0.13631  1.0000
  H   H751      1.0  0.36987  0.32917  0.18132  1.0000
  C   C629      1.0  0.36624  0.29063  0.17957  1.0000
  H   H752      1.0  0.38611  0.28394  0.17969  1.0000
  C   C630      1.0  0.55266  0.21650  0.10216  1.0000
  C   C631      1.0  0.65952  0.16618  0.13131  1.0000
  C   C632      1.0  0.59611  0.21823  0.21988  1.0000
  H   H753      1.0  0.37117  0.16140  0.22240  1.0000
  C   C633      1.0  0.53107  0.03211  0.07986  1.0000
  H   H754      1.0  0.62137  0.20862  0.11080  1.0000
  C   C634      1.0  0.39965  0.10372  0.99768  1.0000
  C   C635      1.0  0.41201  0.10399  0.01004  1.0000
  H   H755      1.0  0.38047  0.09963  0.99925  1.0000
  C   C636      1.0  0.55147  0.14111  0.05249  1.0000
  C   C637      1.0  0.56113  0.11671  0.05808  1.0000
  C   C638      1.0  0.54917  0.09636  0.05659  1.0000
  C   C639      1.0  0.52671  0.10051  0.05029  1.0000
  C   C640      1.0  0.51613  0.12505  0.04549  1.0000
  C   C641      1.0  0.52870  0.14538  0.04643  1.0000
  H   H756      1.0  0.57784  0.11345  0.06356  1.0000
  H   H757      1.0  0.55753  0.07740  0.06015  1.0000
  H   H758      1.0  0.49882  0.12828  0.04051  1.0000
  H   H759      1.0  0.52102  0.16431  0.04227  1.0000
  C   C642      1.0  0.66979  0.18767  0.12451  1.0000
  C   C643      1.0  0.56253  0.19292  0.22158  1.0000
  C   C644      1.0  0.51924  0.21578  0.17322  1.0000
  C   C645      1.0  0.54318  0.20130  0.17269  1.0000
  C   C646      1.0  0.56370  0.21056  0.17679  1.0000
  C   C647      1.0  0.56070  0.23480  0.18095  1.0000
  C   C648      1.0  0.53661  0.24905  0.18183  1.0000
  C   C649      1.0  0.51593  0.23955  0.17806  1.0000
  H   H760      1.0  0.54598  0.18299  0.16885  1.0000
  H   H761      1.0  0.58195  0.19919  0.17626  1.0000
  H   H762      1.0  0.53408  0.26785  0.18501  1.0000
  H   H763      1.0  0.49771  0.25114  0.17820  1.0000
  H   H764      1.0  0.41151  0.05412  0.20209  1.0000
  H   H765      1.0  0.43277  0.11253  0.20921  1.0000
  H   H766      1.0  0.60246  0.21390  0.20840  1.0000
  S   S172      1.0  0.65614  0.23092  0.19588  1.0000
  S   S173      1.0  0.65632  0.15816  0.15054  1.0000
  C   C650      1.0  0.54085  0.16630  0.20958  1.0000
  H   H767      1.0  0.40317  0.02609  0.05928  1.0000
  C   C651      1.0  0.67272  0.19288  0.10901  1.0000
  C   C652      1.0  0.56165  0.10103  0.99794  1.0000
  H   H768      1.0  0.56483  0.10976  0.02714  1.0000
  C   C653      1.0  0.44427  0.04385  0.99872  1.0000
  H   H769      1.0  0.34865  0.22941  0.11141  1.0000
  N   N46       1.0  0.58839  0.23062  0.13237  1.0000
  C   C654      1.0  0.60818  0.24741  0.12862  1.0000
  C   C655      1.0  0.56635  0.24467  0.14071  1.0000
  C   C656      1.0  0.59796  0.20833  0.14233  1.0000
  C   C657      1.0  0.58243  0.22227  0.11879  1.0000
  H   H770      1.0  0.40293  0.13158  0.20829  1.0000
  C   C658      1.0  0.36068  0.18886  0.15279  1.0000
  H   H771      1.0  0.56621  0.14402  0.00714  1.0000
  H   H772      1.0  0.50449  0.18262  0.20321  1.0000
  H   H773      1.0  0.59922  0.13784  0.00863  1.0000
  H   H774      1.0  0.65951  0.06662  0.05419  1.0000
  H   H775      1.0  0.61153  0.25567  0.13846  1.0000
  H   H776      1.0  0.62680  0.23731  0.12447  1.0000
  H   H777      1.0  0.57164  0.25148  0.15056  1.0000
  H   H778      1.0  0.55144  0.23265  0.14510  1.0000
  H   H779      1.0  0.55802  0.26155  0.13375  1.0000
  C   C659      1.0  0.65614  0.04771  0.05855  1.0000
  H   H780      1.0  0.60365  0.21387  0.15243  1.0000
  H   H781      1.0  0.58346  0.19560  0.14595  1.0000
  H   H782      1.0  0.67061  0.03274  0.03807  1.0000
  H   H783      1.0  0.36542  0.13652  0.11342  1.0000
  C   C660      1.0  0.55740  0.22418  0.11527  1.0000
  C   C661      1.0  0.49218  0.01257  0.06904  1.0000
  H   H784      1.0  0.36358  0.15497  0.13603  1.0000
  N   N47       1.0  0.50167  0.14682  0.09928  1.0000
  C   C662      1.0  0.48345  0.17005  0.09682  1.0000
  C   C663      1.0  0.51294  0.13981  0.08451  1.0000
  C   C664      1.0  0.48783  0.12616  0.10689  1.0000
  C   C665      1.0  0.52044  0.15111  0.10854  1.0000
  C   C666      1.0  0.54685  0.14785  0.10386  1.0000
  C   C667      1.0  0.51246  0.15849  0.12287  1.0000
  C   C668      1.0  0.56399  0.15155  0.11308  1.0000
  C   C669      1.0  0.52975  0.16248  0.13190  1.0000
  C   C670      1.0  0.55547  0.15886  0.12704  1.0000
  H   H785      1.0  0.49323  0.18610  0.09130  1.0000
  H   H786      1.0  0.46925  0.16752  0.08969  1.0000
  H   H787      1.0  0.47257  0.17573  0.10726  1.0000
  H   H788      1.0  0.52320  0.15488  0.07806  1.0000
  H   H789      1.0  0.49832  0.13703  0.07774  1.0000
  H   H790      1.0  0.52607  0.12182  0.08535  1.0000
  H   H791      1.0  0.47631  0.13110  0.11735  1.0000
  H   H792      1.0  0.47451  0.12141  0.09988  1.0000
  H   H793      1.0  0.50103  0.10872  0.10963  1.0000
  H   H794      1.0  0.55482  0.14247  0.09311  1.0000
  H   H795      1.0  0.49272  0.16113  0.12725  1.0000
  H   H796      1.0  0.58405  0.14895  0.10931  1.0000
  H   H797      1.0  0.52310  0.16832  0.14277  1.0000
  H   H798      1.0  0.56887  0.16175  0.13410  1.0000
  H   H799      1.0  0.64945  0.04122  0.99346  1.0000
  H   H800      1.0  0.42127  0.12145  0.19178  1.0000
  H   H801      1.0  0.42678  0.07567  0.18826  1.0000
  C   C671      1.0  0.60372  0.17506  0.23029  1.0000
  C   C672      1.0  0.35217  0.20909  0.11234  1.0000
  N   N48       1.0  0.40240  0.09297  0.20578  1.0000
  H   H802      1.0  0.61255  0.19599  0.08798  1.0000
  H   H803      1.0  0.37956  0.17737  0.15128  1.0000
  H   H804      1.0  0.35025  0.38988  0.20997  1.0000
  H   H805      1.0  0.39434  0.21310  0.13319  1.0000
  C   C673      1.0  0.54164  0.21210  0.21990  1.0000
  C   C674      1.0  0.64565  0.04240  0.07323  1.0000
  C   C675      1.0  0.42034  0.07168  0.20031  1.0000
  C   C676      1.0  0.41543  0.11551  0.20368  1.0000
  C   C677      1.0  0.58429  0.13315  0.00277  1.0000
  C   C678      1.0  0.60720  0.09228  0.99860  1.0000
  C   C679      1.0  0.37558  0.22363  0.13667  1.0000
  S   S174      1.0  0.42404  0.16093  0.22614  1.0000
  H   H806      1.0  0.44633  0.10997  0.01737  1.0000
  C   C680      1.0  0.34385  0.49027  0.19439  1.0000
  Fe  Fe89      1.0  0.65949  0.18693  0.16539  1.0000
  H   H807      1.0  0.53482  0.09523  0.01801  1.0000
  C   C681      1.0  0.66258  0.02845  0.04942  1.0000
  H   H808      1.0  0.36038  0.19874  0.16262  1.0000
  H   H809      1.0  0.44968  0.01358  0.02291  1.0000
  C   C682      1.0  0.60200  0.21137  0.10869  1.0000
  H   H810      1.0  0.43759  0.06779  0.20596  1.0000
  C   C683      1.0  0.58037  0.09765  0.02124  1.0000
  H   H811      1.0  0.51344  0.04426  0.07879  1.0000
  N   N49       1.0  0.58297  0.10579  0.00507  1.0000
  C   C684      1.0  0.57365  0.02861  0.08592  1.0000
  C   C685      1.0  0.35588  0.19442  0.12610  1.0000
  H   H812      1.0  0.64333  0.13396  0.12792  1.0000
  S   S175      1.0  0.36039  0.24184  0.17597  1.0000
  H   H813      1.0  0.58853  0.14016  0.99085  1.0000
  C   C686      1.0  0.54996  0.04254  0.08475  1.0000
  C   C687      1.0  0.53823  0.09608  0.00613  1.0000
  H   H814      1.0  0.56881  0.20067  0.08211  1.0000
  C   C688      1.0  0.36127  0.15681  0.11323  1.0000
  C   C689      1.0  0.35096  0.41054  0.20887  1.0000
  H   H815      1.0  0.62319  0.09418  0.00457  1.0000
  C   C690      1.0  0.41093  0.00635  0.06040  1.0000
  H   H816      1.0  0.43100  0.08288  0.22885  1.0000
  C   C691      1.0  0.36802  0.08509  0.22723  1.0000
  Fe  Fe90      1.0  0.66015  0.13014  0.04149  1.0000
  H   H817      1.0  0.36951  0.01216  0.10470  1.0000
  H   H818      1.0  0.39272  0.02034  0.01744  1.0000
  Fe  Fe91      1.0  0.66258  0.18877  0.19823  1.0000
  C   C692      1.0  0.36019  0.16780  0.12620  1.0000
  H   H819      1.0  0.36394  0.41472  0.19864  1.0000
  H   H820      1.0  0.35351  0.45402  0.18722  1.0000
  N   N50       1.0  0.58399  0.19735  0.22874  1.0000
  C   C693      1.0  0.52090  0.20822  0.21350  1.0000
  H   H821      1.0  0.36002  0.16313  0.08976  1.0000
  H   H822      1.0  0.35319  0.08895  0.22022  1.0000
  H   H823      1.0  0.35969  0.41445  0.21838  1.0000
  C   C694      1.0  0.59709  0.20385  0.09562  1.0000
  H   H824      1.0  0.54059  0.14872  0.20531  1.0000
  N   N51       1.0  0.42860  0.02348  0.00417  1.0000
  H   H825      1.0  0.53349  0.21825  0.09963  1.0000
  H   H826      1.0  0.58315  0.23632  0.21902  1.0000
  H   H827      1.0  0.39420  0.04952  0.00574  1.0000
  C   C695      1.0  0.43672  0.10953  0.00792  1.0000
  H   H828      1.0  0.57687  0.15442  0.21646  1.0000
  H   H829      1.0  0.54131  0.23040  0.22335  1.0000
  H   H830      1.0  0.62571  0.17088  0.98936  1.0000
  C   C696      1.0  0.35697  0.31626  0.18049  1.0000
  C   C697      1.0  0.34978  0.27389  0.17820  1.0000
  C   C698      1.0  0.37405  0.15320  0.23353  1.0000
  C   C699      1.0  0.65157  0.15040  0.12267  1.0000
  H   H831      1.0  0.60282  0.26324  0.12004  1.0000
  C   C700      1.0  0.38168  0.09860  0.19633  1.0000
  H   H832      1.0  0.61286  0.09988  0.98697  1.0000
  C   C701      1.0  0.51824  0.09212  0.99909  1.0000
  H   H833      1.0  0.36794  0.11507  0.19959  1.0000
  H   H834      1.0  0.58844  0.03704  0.08933  1.0000
  C   C702      1.0  0.35348  0.19788  0.09942  1.0000
  H   H835      1.0  0.61484  0.19708  0.13696  1.0000
  S   S176      1.0  0.42901  0.01532  0.08510  1.0000
  H   H836      1.0  0.54626  0.17295  0.98537  1.0000
  C   C703      1.0  0.57247  0.20654  0.09230  1.0000
  H   H837      1.0  0.48303  0.01902  0.07972  1.0000
  S   S177      1.0  0.63621  0.06669  0.08448  1.0000
  H   H838      1.0  0.54117  0.23155  0.12244  1.0000
  H   H839      1.0  0.49544  0.02928  0.06090  1.0000
  H   H840      1.0  0.61259  0.16953  0.21933  1.0000
  H   H841      1.0  0.50527  0.22323  0.21218  1.0000
  H   H842      1.0  0.64856  0.14330  0.10065  1.0000
  C   C704      1.0  0.39371  0.08660  0.22168  1.0000
  C   C705      1.0  0.42164  0.01138  0.99216  1.0000
  H   H843      1.0  0.57696  0.07769  0.02385  1.0000
  C   C706      1.0  0.63986  0.02488  0.99414  1.0000
  H   H844      1.0  0.64638  0.15939  0.01221  1.0000
  C   C707      1.0  0.65093  0.14752  0.00341  1.0000
  S   S178      1.0  0.66749  0.16171  0.21890  1.0000
  C   C708      1.0  0.52046  0.18535  0.20840  1.0000
  H   H845      1.0  0.43384  0.05987  0.99216  1.0000
  H   H846      1.0  0.44973  0.05214  0.00800  1.0000
  H   H847      1.0  0.61292  0.22164  0.22458  1.0000
  H   H848      1.0  0.38888  0.10360  0.18447  1.0000
  H   H849      1.0  0.50062  0.08830  0.00561  1.0000
  C   C709      1.0  0.40527  0.03462  0.01277  1.0000
  C   C710      1.0  0.35824  0.17179  0.09985  1.0000
  H   H850      1.0  0.60604  0.07191  0.99892  1.0000
  H   H851      1.0  0.40943  0.04351  0.02218  1.0000
  H   H852      1.0  0.54643  0.06181  0.08728  1.0000
  H   H853      1.0  0.37714  0.23225  0.14672  1.0000
  H   H854      1.0  0.34609  0.17609  0.15579  1.0000
  H   H855      1.0  0.63256  0.02101  0.01793  1.0000
  C   C711      1.0  0.64234  0.01760  0.07889  1.0000
  H   H856      1.0  0.46186  0.03684  0.99180  1.0000
  H   H857      1.0  0.66021  0.10041  0.10913  1.0000
  H   H858      1.0  0.63471  0.01332  0.09032  1.0000
  S   S179      1.0  0.66888  0.18324  0.08102  1.0000
  H   H859      1.0  0.66609  0.06680  0.10981  1.0000
  C   C712      1.0  0.66514  0.17677  0.10036  1.0000
  C   C713      1.0  0.34259  0.46446  0.19570  1.0000
  C   C714      1.0  0.63029  0.01363  0.00791  1.0000
  C   C715      1.0  0.66879  0.12598  0.00483  1.0000
  C   C716      1.0  0.53538  0.00703  0.07616  1.0000
  H   H860      1.0  0.35528  0.49918  0.18509  1.0000
  H   H861      1.0  0.50601  0.15726  0.98453  1.0000
  H   H862      1.0  0.64213  0.06091  0.38874  1.0000
  S   S180      1.0  0.64910  0.08987  0.41173  1.0000
  S   S181      1.0  0.34634  0.06922  0.30519  1.0000
  H   H863      1.0  0.56208  0.22255  0.24359  1.0000
  S   S182      1.0  0.63045  0.05586  0.44256  1.0000
  H   H864      1.0  0.35287  0.03965  0.38146  1.0000
  C   C717      1.0  0.63349  0.01017  0.40430  1.0000
  H   H865      1.0  0.40260  0.04055  0.43150  1.0000
  Fe  Fe92      1.0  0.62630  0.09665  0.43344  1.0000
  S   S183      1.0  0.58782  0.11917  0.43654  1.0000
  C   C718      1.0  0.61817  0.10268  0.37450  1.0000
  H   H866      1.0  0.36991  0.02549  0.42054  1.0000
  H   H867      1.0  0.45783  0.03767  0.37579  1.0000
  N   N52       1.0  0.51407  0.15873  0.46657  1.0000
  Fe  Fe93      1.0  0.47648  0.08224  0.41422  1.0000
  S   S184      1.0  0.44938  0.11819  0.41438  1.0000
  S   S185      1.0  0.51497  0.07723  0.40143  1.0000
  Fe  Fe94      1.0  0.44267  0.05299  0.43684  1.0000
  S   S186      1.0  0.41254  0.08618  0.43891  1.0000
  C   C719      1.0  0.49091  0.17747  0.46731  1.0000
  Fe  Fe95      1.0  0.42001  0.09304  0.41403  1.0000
  S   S187      1.0  0.38625  0.10227  0.40109  1.0000
  Fe  Fe96      1.0  0.44455  0.10768  0.43910  1.0000
  S   S188      1.0  0.44554  0.13273  0.45661  1.0000
  S   S189      1.0  0.44774  0.05790  0.41208  1.0000
  S   S190      1.0  0.47411  0.07381  0.43881  1.0000
  C   C720      1.0  0.36363  0.09151  0.36262  1.0000
  C   C721      1.0  0.36393  0.09619  0.37723  1.0000
  C   C722      1.0  0.38670  0.09324  0.38332  1.0000
  C   C723      1.0  0.61030  0.02149  0.41077  1.0000
  H   H868      1.0  0.37214  0.07076  0.26405  1.0000
  C   C724      1.0  0.40353  0.07578  0.24725  1.0000
  C   C725      1.0  0.40102  0.14099  0.25283  1.0000
  C   C726      1.0  0.38085  0.13232  0.26262  1.0000
  H   H869      1.0  0.41929  0.13954  0.25657  1.0000
  H   H870      1.0  0.38367  0.12417  0.27377  1.0000
  C   C727      1.0  0.44069  0.11601  0.47439  1.0000
  H   H871      1.0  0.42679  0.08232  0.37942  1.0000
  H   H872      1.0  0.43548  0.08198  0.46642  1.0000
  H   H873      1.0  0.56903  0.06618  0.45865  1.0000
  H   H874      1.0  0.42631  0.07356  0.35366  1.0000
  H   H875      1.0  0.57021  0.02023  0.41490  1.0000
  C   C728      1.0  0.60569  0.01943  0.36326  1.0000
  C   C729      1.0  0.56786  0.10810  0.42632  1.0000
  C   C730      1.0  0.54248  0.11849  0.42698  1.0000
  C   C731      1.0  0.52611  0.10890  0.41944  1.0000
  C   C732      1.0  0.53535  0.08941  0.41081  1.0000
  C   C733      1.0  0.56088  0.07943  0.40986  1.0000
  C   C734      1.0  0.57708  0.08860  0.41771  1.0000
  H   H876      1.0  0.53553  0.13407  0.43317  1.0000
  H   H877      1.0  0.50644  0.11689  0.42008  1.0000
  H   H878      1.0  0.56795  0.06417  0.40336  1.0000
  H   H879      1.0  0.59665  0.08054  0.41712  1.0000
  C   C735      1.0  0.36056  0.07911  0.24233  1.0000
  H   H880      1.0  0.35668  0.03863  0.35560  1.0000
  H   H881      1.0  0.61947  0.17887  0.23584  1.0000
  Fe  Fe97      1.0  0.65667  0.04993  0.42187  1.0000
  C   C736      1.0  0.62171  0.03745  0.36282  1.0000
  C   C737      1.0  0.38613  0.08368  0.35397  1.0000
  H   H882      1.0  0.62765  0.09512  0.34563  1.0000
  C   C738      1.0  0.43650  0.09095  0.47601  1.0000
  H   H883      1.0  0.53763  0.18713  0.45728  1.0000
  C   C739      1.0  0.65048  0.06745  0.37737  1.0000
  H   H884      1.0  0.42486  0.13816  0.35335  1.0000
  C   C740      1.0  0.50775  0.07215  0.47321  1.0000
  H   H885      1.0  0.64133  0.03249  0.35875  1.0000
  H   H886      1.0  0.52513  0.12117  0.46082  1.0000
  C   C741      1.0  0.57077  0.04773  0.37355  1.0000
  C   C742      1.0  0.37824  0.07447  0.25231  1.0000
  H   H887      1.0  0.39865  0.13888  0.33339  1.0000
  C   C743      1.0  0.58033  0.02448  0.36876  1.0000
  H   H888      1.0  0.66499  0.14153  0.36627  1.0000
  C   C744      1.0  0.38124  0.01256  0.42786  1.0000
  H   H889      1.0  0.63199  0.11568  0.37483  1.0000
  H   H890      1.0  0.59806  0.08784  0.46393  1.0000
  C   C745      1.0  0.36407  0.15293  0.34619  1.0000
  Fe  Fe98      1.0  0.66382  0.06467  0.45171  1.0000
  C   C746      1.0  0.35397  0.14427  0.24325  1.0000
  H   H891      1.0  0.60354  0.11335  0.36779  1.0000
  S   S191      1.0  0.38661  0.07909  0.33526  1.0000
  H   H892      1.0  0.65364  0.07050  0.34793  1.0000
  C   C747      1.0  0.61273  0.06114  0.36797  1.0000
  S   S192      1.0  0.66170  0.01876  0.40768  1.0000
  C   C748      1.0  0.58807  0.01230  0.40934  1.0000
  H   H893      1.0  0.49016  0.00991  0.38852  1.0000
  C   C749      1.0  0.40881  0.07970  0.36025  1.0000
  H   H894      1.0  0.66380  0.08071  0.37827  1.0000
  H   H895      1.0  0.60938  0.09845  0.38612  1.0000
  H   H896      1.0  0.50019  0.13919  0.45123  1.0000
  C   C750      1.0  0.34818  0.02085  0.35713  1.0000
  C   C751      1.0  0.59486  0.09186  0.47558  1.0000
  S   S193      1.0  0.66667  0.04637  0.47516  1.0000
  S   S194      1.0  0.65844  0.10599  0.44355  1.0000
  C   C752      1.0  0.64218  0.08670  0.35298  1.0000
  C   C753      1.0  0.35730  0.13367  0.25780  1.0000
  C   C754      1.0  0.40914  0.08458  0.37485  1.0000
  H   H897      1.0  0.67156  0.09912  0.47483  1.0000
  C   C755      1.0  0.39370  0.15193  0.36870  1.0000
  H   H898      1.0  0.57777  0.08342  0.37709  1.0000
  C   C756      1.0  0.34552  0.02122  0.38329  1.0000
  H   H899      1.0  0.48386  0.18262  0.45633  1.0000
  C   C757      1.0  0.37728  0.02672  0.48150  1.0000
  C   C758      1.0  0.39993  0.02108  0.43404  1.0000
  H   H900      1.0  0.55024  0.15554  0.45304  1.0000
  H   H901      1.0  0.52516  0.17341  0.44391  1.0000
  C   C759      1.0  0.55300  0.06905  0.46703  1.0000
  H   H902      1.0  0.34609  0.09447  0.35796  1.0000
  C   C760      1.0  0.58656  0.06597  0.37306  1.0000
  S   S195      1.0  0.43959  0.01517  0.44991  1.0000
  N   N53       1.0  0.63039  0.07931  0.36821  1.0000
  H   H903      1.0  0.60956  0.03658  0.41736  1.0000
  C   C761      1.0  0.52920  0.06846  0.46300  1.0000
  H   H904      1.0  0.67077  0.13315  0.39277  1.0000
  H   H905      1.0  0.52737  0.06547  0.45180  1.0000
  C   C762      1.0  0.53268  0.16917  0.45477  1.0000
  H   H906      1.0  0.56102  0.16384  0.47501  1.0000
  C   C763      1.0  0.40484  0.14484  0.35505  1.0000
  H   H907      1.0  0.55107  0.05145  0.37807  1.0000
  C   C764      1.0  0.57486  0.20436  0.24379  1.0000
  C   C765      1.0  0.52312  0.15296  0.48129  1.0000
  C   C766      1.0  0.39006  0.14533  0.34382  1.0000
  C   C767      1.0  0.50805  0.13547  0.46199  1.0000
  H   H908      1.0  0.36038  0.16389  0.38222  1.0000
  H   H909      1.0  0.46332  0.01925  0.47720  1.0000
  H   H910      1.0  0.49426  0.19498  0.47126  1.0000
  C   C768      1.0  0.36770  0.15952  0.37121  1.0000
  H   H911      1.0  0.41327  0.03053  0.38094  1.0000
  H   H912      1.0  0.56443  0.18969  0.25054  1.0000
  H   H913      1.0  0.49348  0.12685  0.46994  1.0000
  H   H914      1.0  0.40513  0.15052  0.37763  1.0000
  H   H915      1.0  0.66206  0.05075  0.37296  1.0000
  H   H916      1.0  0.58388  0.11101  0.47572  1.0000
  H   H917      1.0  0.48929  0.07199  0.46999  1.0000
  C   C769      1.0  0.45265  0.02176  0.38352  1.0000
  H   H918      1.0  0.35618  0.01381  0.31284  1.0000
  H   H919      1.0  0.39310  0.02462  0.32240  1.0000
  C   C770      1.0  0.42754  0.01781  0.38643  1.0000
  H   H920      1.0  0.59610  0.15861  0.23702  1.0000
  H   H921      1.0  0.65515  0.10086  0.35273  1.0000
  H   H922      1.0  0.47506  0.17018  0.47480  1.0000
  Fe  Fe99      1.0  0.35180  0.09082  0.32342  1.0000
  H   H923      1.0  0.35337  0.15230  0.33724  1.0000
  H   H924      1.0  0.38026  0.03903  0.47120  1.0000
  H   H925      1.0  0.41711  0.07290  0.25511  1.0000
  C   C771      1.0  0.35205  0.16032  0.35996  1.0000
  H   H926      1.0  0.36212  0.00633  0.38420  1.0000
  H   H927      1.0  0.59073  0.20659  0.24975  1.0000
  H   H928      1.0  0.34657  0.10271  0.38380  1.0000
  H   H929      1.0  0.59956  0.04309  0.47262  1.0000
  H   H930      1.0  0.56814  0.01012  0.36967  1.0000
  C   C772      1.0  0.55607  0.07330  0.48150  1.0000
  H   H931      1.0  0.61389  0.09255  0.47864  1.0000
  C   C773      1.0  0.39778  0.15133  0.23823  1.0000
  H   H932      1.0  0.34079  0.07894  0.24647  1.0000
  C   C774      1.0  0.54749  0.15681  0.48378  1.0000
  S   S196      1.0  0.33998  0.12845  0.31068  1.0000
  H   H933      1.0  0.49382  0.00748  0.48330  1.0000
  C   C775      1.0  0.47101  0.00576  0.39089  1.0000
  C   C776      1.0  0.38796  0.00578  0.32515  1.0000
  C   C777      1.0  0.59629  0.04755  0.48421  1.0000
  C   C778      1.0  0.36722  0.03539  0.61739  1.0000
  H   H934      1.0  0.43198  0.01977  0.50627  1.0000
  H   H935      1.0  0.43274  0.05505  0.61799  1.0000
  C   C779      1.0  0.53872  0.14297  0.50997  1.0000
  S   S197      1.0  0.64413  0.06332  0.56007  1.0000
  H   H936      1.0  0.63878  0.15153  0.64368  1.0000
  Fe  Fe100     1.0  0.63602  0.08377  0.58005  1.0000
  S   S198      1.0  0.59745  0.08720  0.59279  1.0000
  C   C780      1.0  0.58585  0.02252  0.55358  1.0000
  S   S199      1.0  0.36264  0.07533  0.69093  1.0000
  H   H937      1.0  0.62131  0.00927  0.57186  1.0000
  N   N54       1.0  0.58163  0.07283  0.48561  1.0000
  C   C781      1.0  0.37327  0.04079  0.63101  1.0000
  Fe  Fe101     1.0  0.47960  0.10168  0.55576  1.0000
  S   S200      1.0  0.44281  0.12090  0.54816  1.0000
  S   S201      1.0  0.51592  0.11771  0.54843  1.0000
  Fe  Fe102     1.0  0.45801  0.05393  0.56871  1.0000
  S   S202      1.0  0.41983  0.06961  0.56244  1.0000
  C   C782      1.0  0.41450  0.04922  0.61793  1.0000
  Fe  Fe103     1.0  0.44048  0.08359  0.54068  1.0000
  S   S203      1.0  0.43111  0.07044  0.52007  1.0000
  Fe  Fe104     1.0  0.42603  0.10463  0.57080  1.0000
  S   S204      1.0  0.39324  0.12201  0.58607  1.0000
  S   S205      1.0  0.47847  0.06591  0.54664  1.0000
  S   S206      1.0  0.46304  0.08775  0.57876  1.0000
  C   C783      1.0  0.43483  0.08856  0.50270  1.0000
  C   C784      1.0  0.43916  0.11362  0.50116  1.0000
  C   C785      1.0  0.36330  0.04712  0.65748  1.0000
  C   C786      1.0  0.66246  0.09489  0.51251  1.0000
  H   H938      1.0  0.42933  0.05831  0.49119  1.0000
  C   C787      1.0  0.39549  0.11531  0.60519  1.0000
  C   C788      1.0  0.41870  0.11289  0.61058  1.0000
  C   C789      1.0  0.41994  0.10923  0.62588  1.0000
  H   H939      1.0  0.43567  0.11445  0.60297  1.0000
  H   H940      1.0  0.43799  0.10756  0.62993  1.0000
  H   H941      1.0  0.61526  0.04604  0.48783  1.0000
  N   N55       1.0  0.35470  0.03919  0.64447  1.0000
  H   H942      1.0  0.50235  0.13155  0.51728  1.0000
  H   H943      1.0  0.60905  0.12298  0.64281  1.0000
  C   C790      1.0  0.57459  0.09724  0.58072  1.0000
  C   C791      1.0  0.54919  0.09579  0.58580  1.0000
  C   C792      1.0  0.53104  0.10198  0.57593  1.0000
  C   C793      1.0  0.53821  0.11002  0.56103  1.0000
  C   C794      1.0  0.56358  0.11190  0.55603  1.0000
  C   C795      1.0  0.58178  0.10534  0.56582  1.0000
  H   H944      1.0  0.54356  0.08954  0.59731  1.0000
  H   H945      1.0  0.51149  0.10089  0.57993  1.0000
  H   H946      1.0  0.56922  0.11827  0.54454  1.0000
  H   H947      1.0  0.60133  0.10672  0.56184  1.0000
  C   C796      1.0  0.66903  0.03580  0.64062  1.0000
  C   C797      1.0  0.66680  0.10547  0.49773  1.0000
  C   C798      1.0  0.53373  0.07724  0.49162  1.0000
  H   H948      1.0  0.53401  0.08084  0.50283  1.0000
  Fe  Fe105     1.0  0.66614  0.09459  0.55021  1.0000
  C   C799      1.0  0.64009  0.15568  0.60612  1.0000
  N   N56       1.0  0.35825  0.18329  0.63749  1.0000
  H   H949      1.0  0.59865  0.11422  0.61891  1.0000
  H   H950      1.0  0.34867  0.04647  0.66726  1.0000
  H   H951      1.0  0.66534  0.21923  0.61306  1.0000
  C   C800      1.0  0.55500  0.15194  0.49796  1.0000
  H   H952      1.0  0.38929  0.16126  0.62564  1.0000
  H   H953      1.0  0.37780  0.17003  0.65670  1.0000
  H   H954      1.0  0.35556  0.11548  0.61114  1.0000
  C   C801      1.0  0.37643  0.03604  0.49493  1.0000
  H   H955      1.0  0.60119  0.07809  0.50360  1.0000
  S   S207      1.0  0.37074  0.10122  0.72730  1.0000
  H   H956      1.0  0.58645  0.03253  0.49105  1.0000
  H   H957      1.0  0.57326  0.06383  0.50925  1.0000
  H   H958      1.0  0.54439  0.13958  0.52100  1.0000
  H   H959      1.0  0.35957  0.16998  0.60872  1.0000
  C   C802      1.0  0.38420  0.03732  0.60445  1.0000
  H   H960      1.0  0.65303  0.18951  0.64159  1.0000
  C   C803      1.0  0.38324  0.18089  0.62832  1.0000
  H   H961      1.0  0.43992  0.12247  0.51087  1.0000
  H   H962      1.0  0.57126  0.09714  0.50278  1.0000
  C   C804      1.0  0.37354  0.11384  0.61524  1.0000
  S   S208      1.0  0.66477  0.11288  0.52665  1.0000
  C   C805      1.0  0.37307  0.02015  0.50813  1.0000
  H   H963      1.0  0.34462  0.17073  0.66022  1.0000
  H   H964      1.0  0.39826  0.18548  0.63415  1.0000
  H   H965      1.0  0.37868  0.05554  0.49512  1.0000
  C   C806      1.0  0.65768  0.06994  0.51564  1.0000
  H   H966      1.0  0.38312  0.19383  0.61781  1.0000
  H   H967      1.0  0.67043  0.12479  0.49522  1.0000
  C   C807      1.0  0.64670  0.16111  0.61959  1.0000
  C   C808      1.0  0.35144  0.20982  0.64049  1.0000
  H   H968      1.0  0.35768  0.10970  0.63818  1.0000
  H   H969      1.0  0.44387  0.14707  0.48591  1.0000
  H   H970      1.0  0.57409  0.02980  0.58995  1.0000
  S   S209      1.0  0.46239  0.01371  0.57897  1.0000
  H   H971      1.0  0.65921  0.04475  0.68751  1.0000
  H   H972      1.0  0.49314  0.07980  0.49531  1.0000
  C   C809      1.0  0.44425  0.01036  0.55335  1.0000
  H   H973      1.0  0.34635  0.02236  0.69348  1.0000
  C   C810      1.0  0.65321  0.20456  0.61281  1.0000
  S   S210      1.0  0.40053  0.10418  0.65502  1.0000
  C   C811      1.0  0.61182  0.12727  0.61916  1.0000
  H   H974      1.0  0.64809  0.16427  0.59555  1.0000
  C   C812      1.0  0.37473  0.11040  0.63057  1.0000
  C   C813      1.0  0.39767  0.04745  0.63093  1.0000
  C   C814      1.0  0.39798  0.10814  0.63592  1.0000
  H   H975      1.0  0.36739  0.06687  0.65523  1.0000
  S   S211      1.0  0.36031  0.13649  0.68789  1.0000
  N   N57       1.0  0.58171  0.01298  0.56953  1.0000
  H   H976      1.0  0.65581  0.03578  0.50660  1.0000
  C   C815      1.0  0.50724  0.14335  0.49376  1.0000
  H   H977      1.0  0.36329  0.14692  0.65025  1.0000
  H   H978      1.0  0.60039  0.03545  0.55123  1.0000
  H   H979      1.0  0.57347  0.15543  0.49971  1.0000
  H   H980      1.0  0.55881  0.04769  0.57474  1.0000
  H   H981      1.0  0.34861  0.15394  0.72355  1.0000
  C   C816      1.0  0.65865  0.05532  0.50408  1.0000
  Fe  Fe106     1.0  0.36659  0.10687  0.67251  1.0000
  C   C817      1.0  0.66742  0.09096  0.48616  1.0000
  H   H982      1.0  0.63436  0.21059  0.61884  1.0000
  H   H983      1.0  0.37909  0.03364  0.59408  1.0000
  C   C818      1.0  0.43324  0.07742  0.49011  1.0000
  H   H984      1.0  0.42074  0.04614  0.59465  1.0000
  H   H985      1.0  0.59173  0.04700  0.57533  1.0000
  C   C819      1.0  0.63480  0.14896  0.63288  1.0000
  H   H986      1.0  0.65067  0.20460  0.60104  1.0000
  C   C820      1.0  0.50999  0.07663  0.48745  1.0000
  C   C821      1.0  0.36107  0.16712  0.65173  1.0000
  C   C822      1.0  0.57620  0.03524  0.57778  1.0000
  H   H987      1.0  0.38037  0.03469  0.66094  1.0000
  C   C823      1.0  0.61767  0.13229  0.63258  1.0000
  C   C824      1.0  0.51497  0.13849  0.50785  1.0000
  Fe  Fe107     1.0  0.35275  0.10567  0.70607  1.0000
  H   H988      1.0  0.47232  0.03100  0.49237  1.0000
  S   S212      1.0  0.65532  0.11679  0.56964  1.0000
  H   H989      1.0  0.61816  0.13502  0.59557  1.0000
  H   H990      1.0  0.44841  0.02911  0.54981  1.0000
  H   H991      1.0  0.65394  0.06172  0.52698  1.0000
  H   H992      1.0  0.66551  0.10201  0.63706  1.0000
  C   C825      1.0  0.62293  0.13899  0.60597  1.0000
  H   H993      1.0  0.40405  0.05211  0.64066  1.0000
  H   H994      1.0  0.66313  0.04989  0.63172  1.0000
  C   C826      1.0  0.36090  0.15130  0.73208  1.0000
  C   C827      1.0  0.67014  0.18213  0.63442  1.0000
  C   C828      1.0  0.58168  0.07821  0.50099  1.0000
  C   C829      1.0  0.40774  0.04432  0.60473  1.0000
  C   C830      1.0  0.66385  0.06570  0.48932  1.0000
  C   C831      1.0  0.66765  0.01053  0.64004  1.0000
  N   N58       1.0  0.66435  0.17947  0.61946  1.0000
  H   H995      1.0  0.48855  0.13975  0.49275  1.0000
  H   H996      1.0  0.37286  0.02733  0.51858  1.0000
  S   S213      1.0  0.66921  0.06282  0.59063  1.0000
  H   H997      1.0  0.34843  0.22260  0.63013  1.0000
  H   H998      1.0  0.56810  0.03303  0.54974  1.0000
  C   C832      1.0  0.47359  0.01350  0.48707  1.0000
  C   C833      1.0  0.44164  0.12745  0.48702  1.0000
  C   C834      1.0  0.66827  0.00761  0.54709  1.0000
  H   H999      1.0  0.53606  0.01734  0.58885  1.0000
  H   H1000     1.0  0.42728  0.00938  0.53386  1.0000
  C   C835      1.0  0.34953  0.01286  0.64848  1.0000
  H   H1001     1.0  0.64302  0.01052  0.53068  1.0000
  H   H1002     1.0  0.62751  0.19140  0.73336  1.0000
  H   H1003     1.0  0.36639  0.21614  0.64562  1.0000
  H   H1004     1.0  0.34920  0.02989  0.61660  1.0000
  C   C836      1.0  0.34165  0.17012  0.61562  1.0000
  H   H1005     1.0  0.42572  0.00572  0.49078  1.0000
  H   H1006     1.0  0.59264  0.00717  0.54657  1.0000
  H   H1007     1.0  0.34159  0.00592  0.63961  1.0000
  H   H1008     1.0  0.47385  0.00848  0.51551  1.0000
  H   H1009     1.0  0.67266  0.02650  0.54397  1.0000
  Fe  Fe108     1.0  0.62086  0.22234  0.80449  1.0000
  S   S214      1.0  0.63553  0.18390  0.81501  1.0000
  S   S215      1.0  0.57934  0.23776  0.80468  1.0000
  H   H1010     1.0  0.64224  0.19681  0.74866  1.0000
  H   H1011     1.0  0.66128  0.14515  0.84050  1.0000
  C   C837      1.0  0.38469  0.22872  0.84019  1.0000
  H   H1012     1.0  0.43257  0.03913  0.97340  1.0000
  H   H1013     1.0  0.48237  0.15923  0.93928  1.0000
  C   C838      1.0  0.40087  0.10730  0.79718  1.0000
  H   H1014     1.0  0.57995  0.10770  0.97524  1.0000
  S   S216      1.0  0.64941  0.22131  0.78421  1.0000
  S   S217      1.0  0.64392  0.24251  0.81621  1.0000
  Fe  Fe109     1.0  0.61860  0.11374  0.91740  1.0000
  S   S218      1.0  0.62517  0.07157  0.92035  1.0000
  C   C839      1.0  0.42472  0.02187  0.97705  1.0000
  H   H1015     1.0  0.34262  0.29217  0.84473  1.0000
  S   S219      1.0  0.64056  0.07516  0.95370  1.0000
  C   C840      1.0  0.49746  0.13132  0.85398  1.0000
  C   C841      1.0  0.61163  0.16234  0.87055  1.0000
  H   H1016     1.0  0.45910  0.14593  0.82641  1.0000
  Fe  Fe110     1.0  0.60604  0.07394  0.94339  1.0000
  S   S220      1.0  0.57704  0.05044  0.95485  1.0000
  N   N59       1.0  0.37451  0.24636  0.85121  1.0000
  S   S221      1.0  0.59586  0.11555  0.93962  1.0000
  Fe  Fe111     1.0  0.45371  0.19580  0.78959  1.0000
  S   S222      1.0  0.43086  0.16422  0.79008  1.0000
  S   S223      1.0  0.49594  0.18501  0.78380  1.0000
  Fe  Fe112     1.0  0.40695  0.23194  0.79953  1.0000
  S   S224      1.0  0.38145  0.20280  0.80125  1.0000
  C   C842      1.0  0.66269  0.11697  0.98052  1.0000
  Fe  Fe113     1.0  0.41204  0.17660  0.81171  1.0000
  S   S225      1.0  0.40206  0.14725  0.83075  1.0000
  Fe  Fe114     1.0  0.40246  0.19333  0.77946  1.0000
  S   S226      1.0  0.37712  0.19305  0.76184  1.0000
  S   S227      1.0  0.43625  0.20649  0.81184  1.0000
  S   S228      1.0  0.42668  0.22411  0.77712  1.0000
  Fe  Fe115     1.0  0.40945  0.07984  0.92818  1.0000
  S   S229      1.0  0.38523  0.04892  0.93279  1.0000
  Fe  Fe116     1.0  0.46408  0.08313  0.91776  1.0000
  S   S230      1.0  0.46062  0.12282  0.92220  1.0000
  S   S231      1.0  0.50128  0.06491  0.90777  1.0000
  Fe  Fe117     1.0  0.43795  0.11054  0.94357  1.0000
  H   H1017     1.0  0.43318  0.19008  0.86663  1.0000
  Fe  Fe118     1.0  0.42472  0.12859  0.91206  1.0000
  S   S232      1.0  0.42090  0.16287  0.89502  1.0000
  S   S233      1.0  0.44392  0.07011  0.93971  1.0000
  S   S234      1.0  0.43039  0.08954  0.90574  1.0000
  C   C843      1.0  0.54335  0.09835  0.97543  1.0000
  H   H1018     1.0  0.39919  0.05624  0.90118  1.0000
  C   C844      1.0  0.40902  0.01921  0.89443  1.0000
  C   C845      1.0  0.40800  0.15131  0.84854  1.0000
  C   C846      1.0  0.41999  0.17124  0.85074  1.0000
  C   C847      1.0  0.42382  0.17464  0.86503  1.0000
  C   C848      1.0  0.41608  0.15784  0.87723  1.0000
  C   C849      1.0  0.40469  0.13746  0.87503  1.0000
  C   C850      1.0  0.40058  0.13428  0.86072  1.0000
  H   H1019     1.0  0.42666  0.18385  0.84142  1.0000
  H   H1020     1.0  0.39853  0.12446  0.88439  1.0000
  H   H1021     1.0  0.39140  0.11869  0.85913  1.0000
  H   H1022     1.0  0.48273  0.08467  0.86226  1.0000
  H   H1023     1.0  0.52769  0.21171  0.75449  1.0000
  S   S235      1.0  0.45282  0.12075  0.96334  1.0000
  H   H1024     1.0  0.40258  0.23192  0.86592  1.0000
  C   C851      1.0  0.37792  0.16801  0.75128  1.0000
  C   C852      1.0  0.39263  0.14470  0.75431  1.0000
  C   C853      1.0  0.55287  0.16614  0.94880  1.0000
  C   C854      1.0  0.47496  0.14618  0.83234  1.0000
  H   H1025     1.0  0.40502  0.14207  0.76276  1.0000
  H   H1026     1.0  0.36299  0.32114  0.80504  1.0000
  C   C855      1.0  0.55582  0.05143  0.94217  1.0000
  C   C856      1.0  0.53017  0.05847  0.94636  1.0000
  C   C857      1.0  0.51346  0.06278  0.93574  1.0000
  C   C858      1.0  0.52220  0.05919  0.92105  1.0000
  C   C859      1.0  0.54774  0.05119  0.91698  1.0000
  C   C860      1.0  0.56462  0.04758  0.92752  1.0000
  H   H1027     1.0  0.52336  0.06159  0.95766  1.0000
  H   H1028     1.0  0.49398  0.06942  0.93896  1.0000
  H   H1029     1.0  0.55459  0.04821  0.90564  1.0000
  H   H1030     1.0  0.62140  0.01625  0.95331  1.0000
  C   C861      1.0  0.67082  0.12953  0.83421  1.0000
  H   H1031     1.0  0.64906  0.16698  0.74205  1.0000
  Fe  Fe119     1.0  0.66067  0.20385  0.82518  1.0000
  H   H1032     1.0  0.66096  0.24380  0.86384  1.0000
  H   H1033     1.0  0.65212  0.02433  0.92468  1.0000
  C   C862      1.0  0.41201  0.10863  0.98327  1.0000
  C   C863      1.0  0.55607  0.22158  0.80016  1.0000
  C   C864      1.0  0.53100  0.23350  0.80084  1.0000
  C   C865      1.0  0.51219  0.22206  0.79639  1.0000
  C   C866      1.0  0.51840  0.19870  0.79105  1.0000
  C   C867      1.0  0.54332  0.18638  0.79082  1.0000
  C   C868      1.0  0.56208  0.19771  0.79543  1.0000
  H   H1034     1.0  0.52621  0.25194  0.80453  1.0000
  H   H1035     1.0  0.49310  0.23173  0.79663  1.0000
  H   H1036     1.0  0.54822  0.16827  0.78674  1.0000
  H   H1037     1.0  0.58128  0.18837  0.79495  1.0000
  C   C869      1.0  0.49319  0.16142  0.82635  1.0000
  H   H1038     1.0  0.59838  0.15801  0.73749  1.0000
  C   C870      1.0  0.39374  0.02765  0.91959  1.0000
  C   C871      1.0  0.62052  0.15177  0.88397  1.0000
  H   H1039     1.0  0.38049  0.28335  0.85485  1.0000
  C   C872      1.0  0.62693  0.17568  0.85954  1.0000
  C   C873      1.0  0.51581  0.14711  0.84754  1.0000
  H   H1040     1.0  0.54328  0.17818  0.91916  1.0000
  H   H1041     1.0  0.46451  0.02688  0.91180  1.0000
  S   S236      1.0  0.60108  0.13476  0.89747  1.0000
  C   C874      1.0  0.36619  0.14070  0.79776  1.0000
  C   C875      1.0  0.52982  0.15736  0.94787  1.0000
  S   S237      1.0  0.40109  0.11977  0.93395  1.0000
  H   H1042     1.0  0.53990  0.11270  0.93732  1.0000
  H   H1043     1.0  0.35112  0.18938  0.73747  1.0000
  H   H1044     1.0  0.63585  0.14785  0.76838  1.0000
  H   H1045     1.0  0.37857  0.20986  0.84337  1.0000
  H   H1046     1.0  0.35798  0.27738  0.74360  1.0000
  H   H1047     1.0  0.53208  0.14842  0.85276  1.0000
  H   H1048     1.0  0.41451  0.02606  0.88299  1.0000
  C   C876      1.0  0.51355  0.16192  0.83391  1.0000
  H   H1049     1.0  0.65450  0.25083  0.84544  1.0000
  H   H1050     1.0  0.65183  0.14659  0.89657  1.0000
  C   C877      1.0  0.37478  0.12767  0.73553  1.0000
  C   C878      1.0  0.66903  0.01175  0.92185  1.0000
  H   H1051     1.0  0.50601  0.00967  0.90183  1.0000
  H   H1052     1.0  0.64652  0.11617  0.85908  1.0000
  C   C879      1.0  0.36232  0.17131  0.74001  1.0000
  S   S238      1.0  0.39167  0.27192  0.80402  1.0000
  C   C880      1.0  0.34670  0.25135  0.85195  1.0000
  H   H1053     1.0  0.40776  0.26502  0.84638  1.0000
  H   H1054     1.0  0.57938  0.25341  0.76807  1.0000
  H   H1055     1.0  0.61991  0.18383  0.84925  1.0000
  N   N60       1.0  0.61211  0.17383  0.75445  1.0000
  C   C881      1.0  0.38689  0.26936  0.84686  1.0000
  C   C882      1.0  0.65114  0.17864  0.86196  1.0000
  C   C883      1.0  0.59125  0.19489  0.75617  1.0000
  C   C884      1.0  0.56626  0.19359  0.75354  1.0000
  C   C885      1.0  0.57590  0.23699  0.76358  1.0000
  H   H1056     1.0  0.53631  0.24994  0.76345  1.0000
  H   H1057     1.0  0.58998  0.14352  0.75619  1.0000
  C   C886      1.0  0.43664  0.11437  0.98118  1.0000
  H   H1058     1.0  0.54542  0.09910  0.96352  1.0000
  C   C887      1.0  0.59545  0.21729  0.76117  1.0000
  H   H1059     1.0  0.64860  0.28663  0.83073  1.0000
  C   C888      1.0  0.55162  0.23505  0.76101  1.0000
  C   C889      1.0  0.63355  0.18269  0.74420  1.0000
  C   C890      1.0  0.50026  0.08839  0.86600  1.0000
  H   H1060     1.0  0.58442  0.04173  0.92430  1.0000
  Fe  Fe120     1.0  0.63226  0.11698  0.94802  1.0000
  C   C891      1.0  0.64475  0.15469  0.88632  1.0000
  C   C892      1.0  0.62076  0.16435  0.76905  1.0000
  C   C893      1.0  0.41703  0.01045  0.96606  1.0000
  H   H1061     1.0  0.37854  0.23619  0.82922  1.0000
  C   C894      1.0  0.35890  0.28177  0.80749  1.0000
  C   C895      1.0  0.56331  0.10274  0.98232  1.0000
  H   H1062     1.0  0.52181  0.13651  0.87782  1.0000
  C   C896      1.0  0.51908  0.15986  0.97453  1.0000
  H   H1063     1.0  0.64542  0.02459  0.97097  1.0000
  H   H1064     1.0  0.62123  0.13696  0.74711  1.0000
  H   H1065     1.0  0.37404  0.15019  0.78693  1.0000
  H   H1066     1.0  0.37317  0.24668  0.87466  1.0000
  H   H1067     1.0  0.52767  0.17391  0.82912  1.0000
  H   H1068     1.0  0.52255  0.10452  0.88597  1.0000
  S   S239      1.0  0.65478  0.11788  0.92548  1.0000
  H   H1069     1.0  0.53957  0.11112  0.86816  1.0000
  H   H1070     1.0  0.47799  0.11129  0.88996  1.0000
  H   H1071     1.0  0.40771  0.08686  0.79928  1.0000
  N   N61       1.0  0.37296  0.11292  0.79873  1.0000
  H   H1072     1.0  0.50264  0.07548  0.87640  1.0000
  C   C897      1.0  0.52181  0.11704  0.87528  1.0000
  N   N62       1.0  0.49923  0.11512  0.86827  1.0000
  H   H1073     1.0  0.41897  0.01907  0.95465  1.0000
  H   H1074     1.0  0.44677  0.01074  0.92691  1.0000
  H   H1075     1.0  0.60497  0.15852  0.77728  1.0000
  C   C898      1.0  0.39088  0.12455  0.74655  1.0000
  H   H1076     1.0  0.34831  0.24456  0.81087  1.0000
  C   C899      1.0  0.64480  0.13854  0.97914  1.0000
  H   H1077     1.0  0.45903  0.11838  0.87531  1.0000
  C   C900      1.0  0.47669  0.12216  0.87884  1.0000
  H   H1078     1.0  0.40892  0.11639  0.80521  1.0000
  H   H1079     1.0  0.59289  0.16019  0.86866  1.0000
  C   C901      1.0  0.54175  0.16855  0.97504  1.0000
  C   C902      1.0  0.35759  0.26206  0.75301  1.0000
  H   H1080     1.0  0.35668  0.24424  0.74857  1.0000
  H   H1081     1.0  0.47419  0.14255  0.88017  1.0000
  C   C903      1.0  0.51323  0.15417  0.96119  1.0000
  C   C904      1.0  0.36317  0.10166  0.78735  1.0000
  Fe  Fe121     1.0  0.66592  0.18419  0.79559  1.0000
  H   H1082     1.0  0.56692  0.16886  0.93936  1.0000
  H   H1083     1.0  0.38318  0.27841  0.83559  1.0000
  H   H1084     1.0  0.51630  0.08265  0.85760  1.0000
  C   C905      1.0  0.40078  0.03631  0.90478  1.0000
  H   H1085     1.0  0.49152  0.17291  0.81582  1.0000
  C   C906      1.0  0.46624  0.01410  0.92231  1.0000
  H   H1086     1.0  0.50691  0.11804  0.94405  1.0000
  H   H1087     1.0  0.46203  0.12021  0.85021  1.0000
  N   N63       1.0  0.52296  0.15143  0.93387  1.0000
  C   C907      1.0  0.54123  0.15783  0.92073  1.0000
  C   C908      1.0  0.52156  0.12410  0.93506  1.0000
  C   C909      1.0  0.49797  0.16567  0.93110  1.0000
  H   H1088     1.0  0.37591  0.21575  0.86918  1.0000
  C   C910      1.0  0.55870  0.17145  0.96224  1.0000
  C   C911      1.0  0.65997  0.16816  0.87538  1.0000
  H   H1089     1.0  0.62885  0.17874  0.77365  1.0000
  H   H1090     1.0  0.37992  0.06311  0.79416  1.0000
  H   H1091     1.0  0.56015  0.14661  0.92153  1.0000
  H   H1092     1.0  0.37384  0.14852  0.80644  1.0000
  H   H1093     1.0  0.53540  0.15354  0.91036  1.0000
  H   H1094     1.0  0.40170  0.10633  0.74925  1.0000
  H   H1095     1.0  0.35340  0.24199  0.78145  1.0000
  H   H1096     1.0  0.51689  0.11868  0.92467  1.0000
  C   C912      1.0  0.38178  0.23472  0.86585  1.0000
  Fe  Fe122     1.0  0.65946  0.07550  0.93033  1.0000
  H   H1097     1.0  0.49309  0.16342  0.92007  1.0000
  H   H1098     1.0  0.49559  0.14709  0.96144  1.0000
  H   H1099     1.0  0.47339  0.02450  0.93004  1.0000
  H   H1100     1.0  0.40564  0.22575  0.83867  1.0000
  C   C913      1.0  0.47690  0.13144  0.84597  1.0000
  H   H1101     1.0  0.56094  0.17722  0.75004  1.0000
  S   S240      1.0  0.62768  0.14579  0.96391  1.0000
  H   H1102     1.0  0.49755  0.18615  0.93155  1.0000
  H   H1103     1.0  0.40928  0.11415  0.78587  1.0000
  H   H1104     1.0  0.65702  0.11665  0.83361  1.0000
  C   C914      1.0  0.66023  0.25933  0.85452  1.0000
  H   H1105     1.0  0.34544  0.14639  0.79940  1.0000
  H   H1106     1.0  0.61376  0.21949  0.76368  1.0000
  H   H1107     1.0  0.40237  0.10830  0.97381  1.0000
  C   C915      1.0  0.34985  0.30756  0.80730  1.0000
  H   H1108     1.0  0.37617  0.25909  0.75734  1.0000
  H   H1109     1.0  0.36093  0.28529  0.77570  1.0000
  H   H1110     1.0  0.50526  0.09008  0.97833  1.0000
  C   C916      1.0  0.60496  0.15220  0.74853  1.0000
  C   C917      1.0  0.54684  0.21348  0.75593  1.0000
  H   H1111     1.0  0.57661  0.17776  0.96271  1.0000
  H   H1112     1.0  0.64510  0.27459  0.85790  1.0000
  H   H1113     1.0  0.36926  0.11071  0.82252  1.0000
  C   C918      1.0  0.66496  0.31662  0.81781  1.0000
  C   C919      1.0  0.36275  0.10211  0.81368  1.0000
  H   H1114     1.0  0.65023  0.32052  0.81065  1.0000
  C   C920      1.0  0.66439  0.29694  0.82940  1.0000
  C   C921      1.0  0.36881  0.07536  0.78648  1.0000
  H   H1115     1.0  0.66723  0.10511  0.97174  1.0000
  H   H1116     1.0  0.36883  0.08150  0.81583  1.0000
  S   S241      1.0  0.67109  0.19483  0.84838  1.0000
  H   H1117     1.0  0.63872  0.09510  0.88393  1.0000
  H   H1118     1.0  0.34104  0.21220  0.85887  1.0000
  H   H1119     1.0  0.51647  0.00837  0.91939  1.0000
  C   C922      1.0  0.66255  0.10522  0.86378  1.0000
  C   C923      1.0  0.65774  0.09323  0.87818  1.0000
  H   H1120     1.0  0.36585  0.04443  0.77470  1.0000
  C   C924      1.0  0.36073  0.06442  0.77545  1.0000
  C   C925      1.0  0.63744  0.01505  0.98124  1.0000
  C   C926      1.0  0.52082  0.09310  0.98377  1.0000
  C   C927      1.0  0.34819  0.11613  0.77680  1.0000
  H   H1121     1.0  0.34326  0.13630  0.77632  1.0000
  C   C928      1.0  0.34655  0.07922  0.76512  1.0000
  H   H1122     1.0  0.34394  0.48756  0.77992  1.0000
  H   H1123     1.0  0.34178  0.10532  0.81517  1.0000
  C   C929      1.0  0.34174  0.26443  0.81047  1.0000
  H   H1124     1.0  0.34284  0.30686  0.76333  1.0000
  C   C930      1.0  0.34225  0.28962  0.77145  1.0000
  H   H1125     1.0  0.34108  0.07091  0.75622  1.0000
  C   C931      1.0  0.34002  0.10491  0.76592  1.0000
  H   H1126     1.0  0.58053  0.91736  0.99376  1.0000
  H   H1127     1.0  0.64873  0.91466  0.17570  1.0000
  H   H1128     1.0  0.35768  0.89407  0.99294  1.0000
  H   H1129     1.0  0.34986  0.66102  0.21500  1.0000
  C   C932      1.0  0.67269  0.73890  0.14485  1.0000
  Fe  Fe123     1.0  0.63632  0.78462  0.18429  1.0000
  S   S242      1.0  0.60659  0.76396  0.17816  1.0000
  S   S243      1.0  0.63012  0.82360  0.19084  1.0000
  Fe  Fe124     1.0  0.60580  0.91721  0.06158  1.0000
  S   S244      1.0  0.56476  0.92362  0.07016  1.0000
  S   S245      1.0  0.63287  0.92935  0.07446  1.0000
  S   S246      1.0  0.62177  0.93526  0.03964  1.0000
  Fe  Fe125     1.0  0.45690  0.77891  0.18993  1.0000
  S   S247      1.0  0.43957  0.81559  0.17862  1.0000
  S   S248      1.0  0.48972  0.78026  0.20256  1.0000
  Fe  Fe126     1.0  0.41504  0.75130  0.18295  1.0000
  S   S249      1.0  0.39506  0.78623  0.17109  1.0000
  S   S250      1.0  0.40281  0.71245  0.18602  1.0000
  Fe  Fe127     1.0  0.43411  0.79322  0.16094  1.0000
  S   S251      1.0  0.45047  0.80407  0.13732  1.0000
  Fe  Fe128     1.0  0.40249  0.80510  0.19002  1.0000
  H   H1130     1.0  0.37679  0.79002  0.22232  1.0000
  S   S252      1.0  0.45378  0.75690  0.17158  1.0000
  S   S253      1.0  0.41998  0.76978  0.20257  1.0000
  Fe  Fe129     1.0  0.42285  0.90475  0.04236  1.0000
  S   S254      1.0  0.39405  0.87889  0.04294  1.0000
  S   S255      1.0  0.41085  0.94679  0.03859  1.0000
  Fe  Fe130     1.0  0.46504  0.86147  0.04601  1.0000
  S   S256      1.0  0.43989  0.83201  0.04718  1.0000
  S   S257      1.0  0.50657  0.84968  0.04578  1.0000
  Fe  Fe131     1.0  0.42371  0.85705  0.02824  1.0000
  S   S258      1.0  0.41734  0.83951  0.00852  1.0000
  Fe  Fe132     1.0  0.41283  0.85631  0.06180  1.0000
  S   S259      1.0  0.38942  0.84188  0.08274  1.0000
  S   S260      1.0  0.45094  0.88480  0.02601  1.0000
  S   S261      1.0  0.43945  0.88382  0.06229  1.0000
  C   C933      1.0  0.43262  0.81571  0.12264  1.0000
  C   C934      1.0  0.40638  0.81701  0.12432  1.0000
  C   C935      1.0  0.39316  0.82516  0.11203  1.0000
  C   C936      1.0  0.40610  0.83223  0.09810  1.0000
  C   C937      1.0  0.43222  0.83150  0.09654  1.0000
  C   C938      1.0  0.44541  0.82317  0.10877  1.0000
  H   H1131     1.0  0.39632  0.81156  0.13501  1.0000
  H   H1132     1.0  0.37292  0.82578  0.11327  1.0000
  H   H1133     1.0  0.44238  0.83676  0.08585  1.0000
  H   H1134     1.0  0.46571  0.82217  0.10740  1.0000
  H   H1135     1.0  0.62917  0.88686  0.20405  1.0000
  H   H1136     1.0  0.48192  0.80888  0.22690  1.0000
  C   C939      1.0  0.37748  0.70434  0.17840  1.0000
  H   H1137     1.0  0.36277  0.90111  0.11389  1.0000
  Fe  Fe133     1.0  0.64619  0.89825  0.03779  1.0000
  H   H1138     1.0  0.35947  0.69136  0.20976  1.0000
  H   H1139     1.0  0.36675  0.96177  0.07376  1.0000
  H   H1140     1.0  0.39354  0.96104  0.98732  1.0000
  Fe  Fe134     1.0  0.66189  0.81005  0.20474  1.0000
  H   H1141     1.0  0.38490  0.66529  0.18731  1.0000
  S   S262      1.0  0.65895  0.88443  0.01549  1.0000
  H   H1142     1.0  0.39012  0.92357  0.06875  1.0000
  C   C940      1.0  0.36775  0.80592  0.22789  1.0000
  C   C941      1.0  0.41888  0.85945  0.99174  1.0000
  C   C942      1.0  0.41702  0.88545  0.99167  1.0000
  H   H1143     1.0  0.38974  0.75083  0.14174  1.0000
  C   C943      1.0  0.64864  0.99834  0.06972  1.0000
  C   C944      1.0  0.45224  0.72941  0.13680  1.0000
  H   H1144     1.0  0.41540  0.89335  0.00196  1.0000
  S   S263      1.0  0.62750  0.87896  0.05879  1.0000
  C   C945      1.0  0.41653  0.96532  0.05165  1.0000
  C   C946      1.0  0.43037  0.95512  0.06333  1.0000
  C   C947      1.0  0.43384  0.97037  0.07379  1.0000
  C   C948      1.0  0.42425  0.99605  0.07227  1.0000
  S   S264      1.0  0.66513  0.79360  0.16489  1.0000
  H   H1145     1.0  0.40867  0.88472  0.09173  1.0000
  H   H1146     1.0  0.43847  0.93557  0.06428  1.0000
  H   H1147     1.0  0.44421  0.96238  0.08294  1.0000
  H   H1148     1.0  0.41803  0.78469  0.07814  1.0000
  C   C949      1.0  0.40993  0.74845  0.14335  1.0000
  C   C950      1.0  0.54818  0.90422  0.06275  1.0000
  C   C951      1.0  0.52256  0.90378  0.06761  1.0000
  C   C952      1.0  0.50948  0.88736  0.06223  1.0000
  C   C953      1.0  0.52211  0.87119  0.05215  1.0000
  C   C954      1.0  0.54770  0.87176  0.04727  1.0000
  C   C955      1.0  0.56063  0.88851  0.05241  1.0000
  H   H1149     1.0  0.51288  0.91581  0.07566  1.0000
  H   H1150     1.0  0.48986  0.88671  0.06619  1.0000
  H   H1151     1.0  0.55746  0.85939  0.03939  1.0000
  H   H1152     1.0  0.58020  0.88922  0.04829  1.0000
  C   C956      1.0  0.57398  0.77052  0.18443  1.0000
  C   C957      1.0  0.55642  0.76288  0.17675  1.0000
  C   C958      1.0  0.53044  0.76661  0.18183  1.0000
  C   C959      1.0  0.52186  0.77750  0.19485  1.0000
  C   C960      1.0  0.53940  0.78541  0.20242  1.0000
  C   C961      1.0  0.56531  0.78224  0.19715  1.0000
  H   H1153     1.0  0.56296  0.75373  0.16693  1.0000
  H   H1154     1.0  0.51716  0.76031  0.17595  1.0000
  H   H1155     1.0  0.53299  0.79375  0.21253  1.0000
  H   H1156     1.0  0.57863  0.78809  0.20320  1.0000
  H   H1157     1.0  0.45927  0.74761  0.13702  1.0000
  S   S265      1.0  0.66558  0.76983  0.19976  1.0000
  H   H1158     1.0  0.49501  0.96410  0.07788  1.0000
  H   H1159     1.0  0.38433  0.74650  0.11799  1.0000
  H   H1160     1.0  0.53168  0.00252  0.04812  1.0000
  H   H1161     1.0  0.60689  0.96563  0.99735  1.0000
  N   N64       1.0  0.66498  0.89961  0.19572  1.0000
  C   C962      1.0  0.58614  0.81771  0.14822  1.0000
  C   C963      1.0  0.44328  0.76900  0.09415  1.0000
  C   C964      1.0  0.66028  0.86718  0.13780  1.0000
  H   H1162     1.0  0.40599  0.98060  0.00678  1.0000
  H   H1163     1.0  0.61892  0.77692  0.13547  1.0000
  C   C965      1.0  0.61474  0.90337  0.00351  1.0000
  H   H1164     1.0  0.58722  0.80848  0.15940  1.0000
  H   H1165     1.0  0.36222  0.88251  0.09952  1.0000
  H   H1166     1.0  0.46413  0.75387  0.11182  1.0000
  N   N65       1.0  0.37904  0.91640  0.09226  1.0000
  C   C966      1.0  0.60343  0.84403  0.12694  1.0000
  H   H1167     1.0  0.44830  0.81693  0.20954  1.0000
  C   C967      1.0  0.64812  0.87990  0.19853  1.0000
  C   C968      1.0  0.37268  0.67926  0.18105  1.0000
  H   H1168     1.0  0.42902  0.69721  0.12516  1.0000
  N   N66       1.0  0.58012  0.85653  0.10425  1.0000
  C   C969      1.0  0.59969  0.87316  0.09879  1.0000
  C   C970      1.0  0.58168  0.83836  0.09342  1.0000
  C   C971      1.0  0.55524  0.87266  0.10446  1.0000
  C   C972      1.0  0.58292  0.84273  0.11914  1.0000
  C   C973      1.0  0.56463  0.82751  0.12639  1.0000
  C   C974      1.0  0.56622  0.81533  0.14074  1.0000
  H   H1169     1.0  0.61887  0.86217  0.09717  1.0000
  H   H1170     1.0  0.59645  0.88402  0.08788  1.0000
  H   H1171     1.0  0.59978  0.88728  0.10645  1.0000
  H   H1172     1.0  0.57997  0.84819  0.08203  1.0000
  H   H1173     1.0  0.56645  0.82631  0.09610  1.0000
  H   H1174     1.0  0.55285  0.88585  0.11295  1.0000
  H   H1175     1.0  0.55301  0.88419  0.09360  1.0000
  H   H1176     1.0  0.53923  0.86159  0.10676  1.0000
  H   H1177     1.0  0.54880  0.82509  0.12106  1.0000
  H   H1178     1.0  0.55184  0.80412  0.14620  1.0000
  C   C975      1.0  0.37051  0.99297  0.10233  1.0000
  H   H1179     1.0  0.63499  0.92984  0.19173  1.0000
  H   H1180     1.0  0.45027  0.78249  0.22831  1.0000
  C   C976      1.0  0.66979  0.90856  0.20938  1.0000
  C   C977      1.0  0.55956  0.99321  0.07783  1.0000
  H   H1181     1.0  0.37892  0.89415  0.07457  1.0000
  C   C978      1.0  0.35195  0.85029  0.22732  1.0000
  H   H1182     1.0  0.59680  0.99304  0.08347  1.0000
  C   C979      1.0  0.50963  0.97337  0.08151  1.0000
  C   C980      1.0  0.65634  0.78192  0.12530  1.0000
  H   H1183     1.0  0.67092  0.93543  0.01962  1.0000
  C   C981      1.0  0.43743  0.82986  0.21726  1.0000
  H   H1184     1.0  0.41965  0.69776  0.14472  1.0000
  H   H1185     1.0  0.67006  0.69115  0.14240  1.0000
  H   H1186     1.0  0.64491  0.87360  0.18806  1.0000
  H   H1187     1.0  0.45288  0.71912  0.14814  1.0000
  Fe  Fe135     1.0  0.65576  0.89210  0.07047  1.0000
  C   C982      1.0  0.37630  0.97285  0.11305  1.0000
  H   H1188     1.0  0.44047  0.87238  0.23176  1.0000
  H   H1189     1.0  0.61086  0.98380  0.01957  1.0000
  S   S266      1.0  0.65476  0.86838  0.15711  1.0000
  C   C983      1.0  0.63880  0.76975  0.13512  1.0000
  H   H1190     1.0  0.40760  0.90198  0.10679  1.0000
  H   H1191     1.0  0.39762  0.71015  0.13210  1.0000
  C   C984      1.0  0.65548  0.88744  0.11268  1.0000
  Fe  Fe136     1.0  0.65137  0.94378  0.05207  1.0000
  H   H1192     1.0  0.47805  0.00329  0.06493  1.0000
  C   C985      1.0  0.61813  0.99257  0.00882  1.0000
  C   C986      1.0  0.37544  0.94277  0.09558  1.0000
  C   C987      1.0  0.65002  0.88656  0.98681  1.0000
  H   H1193     1.0  0.51130  0.97848  0.05167  1.0000
  H   H1194     1.0  0.64167  0.90495  0.13251  1.0000
  H   H1195     1.0  0.45937  0.77621  0.08748  1.0000
  S   S267      1.0  0.37435  0.83479  0.20079  1.0000
  H   H1196     1.0  0.34909  0.86889  0.22123  1.0000
  H   H1197     1.0  0.64601  0.97928  0.07413  1.0000
  H   H1198     1.0  0.65358  0.72969  0.17347  1.0000
  H   H1199     1.0  0.45994  0.99455  0.00801  1.0000
  C   C988      1.0  0.34739  0.68039  0.21823  1.0000
  N   N67       1.0  0.51598  0.99529  0.07084  1.0000
  C   C989      1.0  0.64677  0.74863  0.14477  1.0000
  C   C990      1.0  0.34141  0.71495  0.16463  1.0000
  H   H1200     1.0  0.60006  0.82574  0.09300  1.0000
  C   C991      1.0  0.65832  0.89989  0.22369  1.0000
  H   H1201     1.0  0.54220  0.97159  0.05682  1.0000
  H   H1202     1.0  0.41716  0.83073  0.21614  1.0000
  H   H1203     1.0  0.64667  0.69943  0.15752  1.0000
  C   C992      1.0  0.37858  0.94810  0.10980  1.0000
  H   H1204     1.0  0.44282  0.84874  0.21313  1.0000
  C   C993      1.0  0.44571  0.75602  0.10824  1.0000
  H   H1205     1.0  0.61859  0.85452  0.12226  1.0000
  C   C994      1.0  0.35605  0.88002  0.98598  1.0000
  H   H1206     1.0  0.64871  0.90364  0.10530  1.0000
  H   H1207     1.0  0.47465  0.86917  0.99131  1.0000
  H   H1208     1.0  0.37945  0.97651  0.12386  1.0000
  H   H1209     1.0  0.60660  0.90741  0.01450  1.0000
  H   H1210     1.0  0.34143  0.73216  0.20344  1.0000
  H   H1211     1.0  0.50227  0.97919  0.09261  1.0000
  C   C995      1.0  0.65157  0.88815  0.12810  1.0000
  C   C996      1.0  0.65301  0.92096  0.18599  1.0000
  Fe  Fe137     1.0  0.66072  0.83167  0.17230  1.0000
  H   H1212     1.0  0.41130  0.73931  0.15489  1.0000
  C   C997      1.0  0.36038  0.90232  0.10202  1.0000
  C   C998      1.0  0.60483  0.83180  0.14128  1.0000
  H   H1213     1.0  0.52620  0.95868  0.08286  1.0000
  C   C999      1.0  0.36411  0.82988  0.21994  1.0000
  H   H1214     1.0  0.64567  0.88590  0.22552  1.0000
  H   H1215     1.0  0.35992  0.81674  0.98738  1.0000
  C   C1000     1.0  0.40123  0.75223  0.11159  1.0000
  C   C1001     1.0  0.66728  0.69550  0.15403  1.0000
  H   H1216     1.0  0.36498  0.74164  0.16825  1.0000
  H   H1217     1.0  0.63243  0.74038  0.15248  1.0000
  H   H1218     1.0  0.62046  0.83337  0.14712  1.0000
  H   H1219     1.0  0.43185  0.99027  0.02041  1.0000
  H   H1220     1.0  0.66705  0.96766  0.01211  1.0000
  C   C1002     1.0  0.52573  0.98663  0.05625  1.0000
  C   C1003     1.0  0.42468  0.74709  0.11739  1.0000
  C   C1004     1.0  0.41998  0.77379  0.08884  1.0000
  C   C1005     1.0  0.37607  0.91414  0.07674  1.0000
  C   C1006     1.0  0.41782  0.70863  0.13361  1.0000
  H   H1221     1.0  0.41932  0.91500  0.08855  1.0000
  C   C1007     1.0  0.63978  0.89199  0.00108  1.0000
  H   H1222     1.0  0.46570  0.71804  0.12918  1.0000
  C   C1008     1.0  0.40996  0.98920  0.99552  1.0000
  C   C1009     1.0  0.59997  0.90886  0.99177  1.0000
  C   C1010     1.0  0.39899  0.76548  0.09755  1.0000
  H   H1223     1.0  0.38324  0.93312  0.11846  1.0000
  C   C1011     1.0  0.36916  0.96376  0.08495  1.0000
  C   C1012     1.0  0.40670  0.99091  0.05030  1.0000
  H   H1224     1.0  0.51345  0.87891  0.99916  1.0000
  H   H1225     1.0  0.65015  0.79854  0.11798  1.0000
  N   N68       1.0  0.42637  0.73361  0.13246  1.0000
  H   H1226     1.0  0.35683  0.92215  0.07404  1.0000
  C   C1013     1.0  0.36172  0.72221  0.17019  1.0000
  H   H1227     1.0  0.41539  0.76758  0.14252  1.0000
  C   C1014     1.0  0.40473  0.90410  0.09496  1.0000
  C   C1015     1.0  0.36662  0.98842  0.08840  1.0000
  H   H1228     1.0  0.65635  0.86288  0.20545  1.0000
  C   C1016     1.0  0.51218  0.87890  0.98750  1.0000
  H   H1229     1.0  0.38079  0.76991  0.09349  1.0000
  H   H1230     1.0  0.66145  0.94388  0.00157  1.0000
  S   S268      1.0  0.66602  0.98022  0.04312  1.0000
  C   C1017     1.0  0.35200  0.67214  0.17584  1.0000
  H   H1231     1.0  0.56424  0.97401  0.07536  1.0000
  H   H1232     1.0  0.34838  0.65280  0.17806  1.0000
  C   C1018     1.0  0.35829  0.85475  0.99183  1.0000
  C   C1019     1.0  0.61586  0.98242  0.99600  1.0000
  S   S269      1.0  0.65873  0.81966  0.22833  1.0000
  H   H1233     1.0  0.36167  0.84929  0.00326  1.0000
  N   N69       1.0  0.44230  0.82129  0.23274  1.0000
  C   C1020     1.0  0.57838  0.00393  0.08255  1.0000
  H   H1234     1.0  0.47476  0.84099  0.23006  1.0000
  H   H1235     1.0  0.34079  0.91135  0.10064  1.0000
  H   H1236     1.0  0.66531  0.93582  0.18240  1.0000
  C   C1021     1.0  0.66842  0.86581  0.10690  1.0000
  H   H1237     1.0  0.35525  0.67925  0.22886  1.0000
  H   H1238     1.0  0.39552  0.99880  0.04151  1.0000
  H   H1239     1.0  0.66932  0.87760  0.98488  1.0000
  H   H1240     1.0  0.36255  0.00418  0.08002  1.0000
  C   C1022     1.0  0.46921  0.82206  0.23387  1.0000
  C   C1023     1.0  0.65856  0.00380  0.05494  1.0000
  C   C1024     1.0  0.44315  0.00466  0.01424  1.0000
  C   C1025     1.0  0.40254  0.97787  0.98443  1.0000
  Fe  Fe138     1.0  0.56870  0.88372  0.42066  1.0000
  S   S270      1.0  0.53860  0.85905  0.42294  1.0000
  S   S271      1.0  0.55846  0.91835  0.43211  1.0000
  S   S272      1.0  0.58393  0.90372  0.39903  1.0000
  S   S273      1.0  0.35767  0.97615  0.42074  1.0000
  H   H1241     1.0  0.63885  0.84097  0.36778  1.0000
  C   C1026     1.0  0.47239  0.96701  0.47589  1.0000
  C   C1027     1.0  0.58918  0.99177  0.40152  1.0000
  C   C1028     1.0  0.39394  0.84583  0.26383  1.0000
  C   C1029     1.0  0.41255  0.88072  0.24976  1.0000
  Fe  Fe139     1.0  0.39254  0.88389  0.43074  1.0000
  S   S274      1.0  0.41094  0.91799  0.42177  1.0000
  S   S275      1.0  0.40928  0.86085  0.45026  1.0000
  C   C1030     1.0  0.36029  0.97560  0.32340  1.0000
  S   S276      1.0  0.37694  0.92561  0.39443  1.0000
  C   C1031     1.0  0.34776  0.85682  0.34959  1.0000
  Fe  Fe140     1.0  0.41375  0.90385  0.39993  1.0000
  S   S277      1.0  0.45022  0.90482  0.38505  1.0000
  Fe  Fe141     1.0  0.37238  0.93622  0.41734  1.0000
  H   H1242     1.0  0.51095  0.97156  0.42398  1.0000
  S   S278      1.0  0.39781  0.86831  0.40894  1.0000
  H   H1243     1.0  0.63551  0.97455  0.42869  1.0000
  H   H1244     1.0  0.64942  0.92568  0.44521  1.0000
  H   H1245     1.0  0.42988  0.85538  0.47771  1.0000
  C   C1032     1.0  0.46790  0.92271  0.47958  1.0000
  N   N70       1.0  0.48457  0.96854  0.40905  1.0000
  C   C1033     1.0  0.36716  0.99973  0.31982  1.0000
  H   H1246     1.0  0.38380  0.88420  0.26836  1.0000
  C   C1034     1.0  0.43892  0.98167  0.40407  1.0000
  H   H1247     1.0  0.65242  0.98132  0.39114  1.0000
  H   H1248     1.0  0.40665  0.95001  0.34486  1.0000
  C   C1035     1.0  0.65500  0.83734  0.35954  1.0000
  C   C1036     1.0  0.39523  0.96345  0.33783  1.0000
  S   S279      1.0  0.35626  0.84955  0.33138  1.0000
  C   C1037     1.0  0.37403  0.95674  0.33265  1.0000
  H   H1249     1.0  0.66194  0.92058  0.46828  1.0000
  C   C1038     1.0  0.37459  0.00155  0.48119  1.0000
  C   C1039     1.0  0.60798  0.87428  0.47864  1.0000
  C   C1040     1.0  0.36670  0.85545  0.35869  1.0000
  H   H1250     1.0  0.37549  0.86194  0.37984  1.0000
  H   H1251     1.0  0.61327  0.96487  0.38881  1.0000
  H   H1252     1.0  0.47648  0.98297  0.46794  1.0000
  C   C1041     1.0  0.35914  0.80237  0.24306  1.0000
  H   H1253     1.0  0.51892  0.94367  0.40335  1.0000
  H   H1254     1.0  0.49052  0.93485  0.42454  1.0000
  C   C1042     1.0  0.37818  0.98719  0.43050  1.0000
  C   C1043     1.0  0.39288  0.97059  0.44002  1.0000
  C   C1044     1.0  0.41157  0.97917  0.44628  1.0000
  H   H1255     1.0  0.60720  0.86556  0.46888  1.0000
  H   H1256     1.0  0.35374  0.90913  0.35729  1.0000
  H   H1257     1.0  0.38986  0.95113  0.44251  1.0000
  H   H1258     1.0  0.42336  0.96626  0.45334  1.0000
  C   C1045     1.0  0.46284  0.81799  0.44110  1.0000
  Fe  Fe142     1.0  0.36035  0.89139  0.40552  1.0000
  C   C1046     1.0  0.51441  0.87341  0.41252  1.0000
  C   C1047     1.0  0.51972  0.88471  0.39800  1.0000
  C   C1048     1.0  0.49999  0.89434  0.38951  1.0000
  C   C1049     1.0  0.47497  0.89276  0.39557  1.0000
  C   C1050     1.0  0.46978  0.88169  0.41014  1.0000
  C   C1051     1.0  0.48945  0.87236  0.41862  1.0000
  H   H1259     1.0  0.53901  0.88524  0.39314  1.0000
  H   H1260     1.0  0.50412  0.90274  0.37822  1.0000
  H   H1261     1.0  0.45067  0.87975  0.41482  1.0000
  H   H1262     1.0  0.48545  0.86414  0.42992  1.0000
  H   H1263     1.0  0.48325  0.81631  0.44210  1.0000
  H   H1264     1.0  0.66656  0.93867  0.42873  1.0000
  H   H1265     1.0  0.46499  0.76445  0.42549  1.0000
  H   H1266     1.0  0.38057  0.92331  0.35854  1.0000
  H   H1267     1.0  0.65375  0.98818  0.33715  1.0000
  C   C1052     1.0  0.49383  0.83138  0.38738  1.0000
  H   H1268     1.0  0.35022  0.94215  0.35832  1.0000
  C   C1053     1.0  0.36274  0.92632  0.35346  1.0000
  H   H1269     1.0  0.63366  0.84972  0.34123  1.0000
  C   C1054     1.0  0.66053  0.89245  0.37503  1.0000
  C   C1055     1.0  0.36076  0.86273  0.37295  1.0000
  H   H1270     1.0  0.38719  0.95280  0.47266  1.0000
  S   S280      1.0  0.35332  0.90353  0.42830  1.0000
  C   C1056     1.0  0.36991  0.87710  0.47057  1.0000
  C   C1057     1.0  0.42966  0.80466  0.43092  1.0000
  C   C1058     1.0  0.66465  0.90121  0.34385  1.0000
  H   H1271     1.0  0.50293  0.83962  0.37697  1.0000
  H   H1272     1.0  0.46098  0.95435  0.42836  1.0000
  S   S281      1.0  0.60106  0.92054  0.46130  1.0000
  C   C1059     1.0  0.42617  0.83812  0.24270  1.0000
  C   C1060     1.0  0.40206  0.98762  0.33408  1.0000
  C   C1061     1.0  0.39568  0.87147  0.26134  1.0000
  Fe  Fe143     1.0  0.62086  0.89506  0.40834  1.0000
  H   H1273     1.0  0.49600  0.94733  0.39058  1.0000
  C   C1062     1.0  0.47505  0.94738  0.41927  1.0000
  C   C1063     1.0  0.47369  0.94413  0.47025  1.0000
  C   C1064     1.0  0.49615  0.81200  0.41255  1.0000
  H   H1274     1.0  0.48174  0.99293  0.42592  1.0000
  C   C1065     1.0  0.45582  0.82201  0.40310  1.0000
  C   C1066     1.0  0.43796  0.79456  0.23610  1.0000
  S   S282      1.0  0.60614  0.87202  0.42934  1.0000
  H   H1275     1.0  0.62139  0.90720  0.37439  1.0000
  C   C1067     1.0  0.49619  0.98350  0.41783  1.0000
  C   C1068     1.0  0.46783  0.83161  0.38948  1.0000
  H   H1276     1.0  0.45682  0.84005  0.38064  1.0000
  H   H1277     1.0  0.50793  0.80542  0.42124  1.0000
  H   H1278     1.0  0.62493  0.91483  0.34708  1.0000
  C   C1069     1.0  0.60525  0.90052  0.47784  1.0000
  C   C1070     1.0  0.46964  0.81220  0.41516  1.0000
  H   H1279     1.0  0.66512  0.95804  0.33080  1.0000
  Fe  Fe144     1.0  0.59694  0.90847  0.43931  1.0000
  H   H1280     1.0  0.43563  0.82304  0.40395  1.0000
  C   C1071     1.0  0.34347  0.84678  0.24256  1.0000
  S   S283      1.0  0.61526  0.93028  0.41923  1.0000
  H   H1281     1.0  0.47340  0.81662  0.24546  1.0000
  C   C1072     1.0  0.39549  0.86776  0.46794  1.0000
  H   H1282     1.0  0.42104  0.79801  0.44224  1.0000
  C   C1073     1.0  0.63942  0.90288  0.36796  1.0000
  C   C1074     1.0  0.64149  0.90723  0.35244  1.0000
  H   H1283     1.0  0.42406  0.79315  0.42318  1.0000
  H   H1284     1.0  0.42071  0.82452  0.42856  1.0000
  S   S284      1.0  0.56277  0.97657  0.40243  1.0000
  C   C1075     1.0  0.61233  0.98102  0.39467  1.0000
  H   H1285     1.0  0.45834  0.76835  0.44483  1.0000
  C   C1076     1.0  0.40879  0.82931  0.25465  1.0000
  N   N71       1.0  0.65880  0.96260  0.44623  1.0000
  H   H1286     1.0  0.48821  0.77363  0.43494  1.0000
  H   H1287     1.0  0.41377  0.90070  0.24784  1.0000
  Fe  Fe145     1.0  0.57733  0.93727  0.41136  1.0000
  H   H1288     1.0  0.34413  0.97224  0.31875  1.0000
  H   H1289     1.0  0.47884  0.94314  0.45850  1.0000
  C   C1077     1.0  0.34690  0.82273  0.25044  1.0000
  H   H1290     1.0  0.45309  0.81247  0.45231  1.0000
  H   H1291     1.0  0.52811  0.82209  0.39737  1.0000
  C   C1078     1.0  0.66980  0.97739  0.33074  1.0000
  C   C1079     1.0  0.38737  0.91217  0.33141  1.0000
  H   H1292     1.0  0.40523  0.91209  0.33604  1.0000
  C   C1080     1.0  0.50798  0.82143  0.39886  1.0000
  C   C1081     1.0  0.46773  0.77618  0.43397  1.0000
  N   N72       1.0  0.45750  0.80294  0.42997  1.0000
  H   H1293     1.0  0.63067  0.99527  0.44247  1.0000
  H   H1294     1.0  0.45601  0.83828  0.43813  1.0000
  H   H1295     1.0  0.64906  0.00254  0.46251  1.0000
  S   S285      1.0  0.65828  0.88462  0.39444  1.0000
  C   C1082     1.0  0.50433  0.95739  0.39800  1.0000
  H   H1296     1.0  0.40592  0.80981  0.25708  1.0000
  H   H1297     1.0  0.39133  0.91551  0.31915  1.0000
  H   H1298     1.0  0.36181  0.78371  0.24910  1.0000
  C   C1083     1.0  0.41011  0.86275  0.47970  1.0000
  H   H1299     1.0  0.35848  0.88075  0.46158  1.0000
  H   H1300     1.0  0.46630  0.93524  0.41327  1.0000
  H   H1301     1.0  0.61868  0.96564  0.44635  1.0000
  H   H1302     1.0  0.46852  0.90512  0.47509  1.0000
  C   C1084     1.0  0.34344  0.92765  0.33143  1.0000
  N   N73       1.0  0.36684  0.93123  0.33709  1.0000
  C   C1085     1.0  0.65622  0.96173  0.46252  1.0000
  H   H1303     1.0  0.38238  0.89274  0.33431  1.0000
  H   H1304     1.0  0.43214  0.96685  0.41199  1.0000
  C   C1086     1.0  0.42768  0.86434  0.24060  1.0000
  H   H1305     1.0  0.51474  0.97176  0.39098  1.0000
  H   H1306     1.0  0.38061  0.83870  0.27278  1.0000
  C   C1087     1.0  0.63491  0.97510  0.44076  1.0000
  H   H1307     1.0  0.38607  0.84901  0.35463  1.0000
  C   C1088     1.0  0.46473  0.98514  0.40138  1.0000
  C   C1089     1.0  0.65203  0.84230  0.34460  1.0000
  H   H1308     1.0  0.35332  0.96152  0.47387  1.0000
  C   C1090     1.0  0.63446  0.99031  0.39599  1.0000
  H   H1309     1.0  0.41831  0.99235  0.33818  1.0000
  C   C1091     1.0  0.66372  0.90844  0.23635  1.0000
  C   C1092     1.0  0.66471  0.93734  0.44101  1.0000
  H   H1310     1.0  0.40116  0.99484  0.39904  1.0000
  C   C1093     1.0  0.65866  0.93882  0.47221  1.0000
  H   H1311     1.0  0.34550  0.93000  0.31912  1.0000
  C   C1094     1.0  0.42073  0.99776  0.39663  1.0000
  S   S286      1.0  0.34159  0.87270  0.29280  1.0000
  H   H1312     1.0  0.65539  0.90101  0.24718  1.0000
  H   H1313     1.0  0.65863  0.83268  0.25745  1.0000
  H   H1314     1.0  0.50584  0.99845  0.41078  1.0000
  H   H1315     1.0  0.36679  0.93030  0.48014  1.0000
  C   C1095     1.0  0.67286  0.83867  0.33397  1.0000
  S   S287      1.0  0.66617  0.90583  0.32437  1.0000
  C   C1096     1.0  0.65098  0.98440  0.46917  1.0000
  H   H1316     1.0  0.44225  0.78644  0.24739  1.0000
  C   C1097     1.0  0.36899  0.95049  0.47964  1.0000
  H   H1317     1.0  0.37542  0.99573  0.47037  1.0000
  H   H1318     1.0  0.61304  0.00112  0.35980  1.0000
  H   H1319     1.0  0.67051  0.84323  0.32236  1.0000
  H   H1320     1.0  0.67078  0.98605  0.31902  1.0000
  H   H1321     1.0  0.41820  0.79253  0.23502  1.0000
  H   H1322     1.0  0.36387  0.00493  0.35681  1.0000
  C   C1098     1.0  0.41530  0.00440  0.44309  1.0000
  Fe  Fe146     1.0  0.58139  0.89387  0.56684  1.0000
  S   S288      1.0  0.54302  0.89521  0.57996  1.0000
  S   S289      1.0  0.61765  0.85163  0.52178  1.0000
  S   S290      1.0  0.58626  0.90687  0.54264  1.0000
  Fe  Fe147     1.0  0.42571  0.86862  0.55121  1.0000
  S   S291      1.0  0.38830  0.85407  0.55297  1.0000
  S   S292      1.0  0.46476  0.84656  0.55183  1.0000
  Fe  Fe148     1.0  0.40335  0.92246  0.54452  1.0000
  S   S293      1.0  0.36433  0.91360  0.54583  1.0000
  S   S294      1.0  0.41249  0.96103  0.53621  1.0000
  Fe  Fe149     1.0  0.37330  0.88679  0.56584  1.0000
  S   S295      1.0  0.34253  0.88781  0.58519  1.0000
  Fe  Fe150     1.0  0.38169  0.88198  0.53285  1.0000
  S   S296      1.0  0.35862  0.88009  0.51463  1.0000
  S   S297      1.0  0.41095  0.89888  0.56578  1.0000
  S   S298      1.0  0.42022  0.89324  0.52985  1.0000
  C   C1099     1.0  0.39723  0.94956  0.60965  1.0000
  C   C1100     1.0  0.62243  0.86997  0.64614  1.0000
  H   H1323     1.0  0.58983  0.87910  0.63502  1.0000
  H   H1324     1.0  0.34402  0.95427  0.51531  1.0000
  C   C1101     1.0  0.60776  0.86717  0.63532  1.0000
  H   H1325     1.0  0.45274  0.94709  0.51200  1.0000
  C   C1102     1.0  0.37337  0.87549  0.49677  1.0000
  H   H1326     1.0  0.65750  0.85814  0.65514  1.0000
  C   C1103     1.0  0.61358  0.87045  0.50477  1.0000
  C   C1104     1.0  0.47459  0.99015  0.51115  1.0000
  C   C1105     1.0  0.39915  0.86697  0.49408  1.0000
  C   C1106     1.0  0.40480  0.89720  0.64900  1.0000
  C   C1107     1.0  0.56350  0.97543  0.56468  1.0000
  H   H1327     1.0  0.41042  0.86287  0.50314  1.0000
  C   C1108     1.0  0.35130  0.87938  0.60302  1.0000
  H   H1328     1.0  0.57967  0.97053  0.55679  1.0000
  Fe  Fe151     1.0  0.34075  0.85723  0.66930  1.0000
  C   C1109     1.0  0.36238  0.86157  0.63186  1.0000
  C   C1110     1.0  0.38061  0.85737  0.61969  1.0000
  C   C1111     1.0  0.37514  0.86640  0.60527  1.0000
  H   H1329     1.0  0.38952  0.94456  0.51319  1.0000
  C   C1112     1.0  0.61192  0.82802  0.60361  1.0000
  H   H1330     1.0  0.39879  0.84660  0.62137  1.0000
  H   H1331     1.0  0.38902  0.86252  0.59589  1.0000
  C   C1113     1.0  0.34460  0.95223  0.50342  1.0000
  C   C1114     1.0  0.44510  0.97306  0.57115  1.0000
  C   C1115     1.0  0.43342  0.96148  0.56180  1.0000
  C   C1116     1.0  0.42688  0.97457  0.54834  1.0000
  N   N74       1.0  0.46248  0.99330  0.49739  1.0000
  H   H1332     1.0  0.46487  0.97826  0.52033  1.0000
  H   H1333     1.0  0.44990  0.96304  0.58161  1.0000
  H   H1334     1.0  0.42947  0.94257  0.56510  1.0000
  H   H1335     1.0  0.61413  0.83897  0.49275  1.0000
  Fe  Fe152     1.0  0.61622  0.87347  0.54113  1.0000
  C   C1117     1.0  0.52150  0.88160  0.57209  1.0000
  C   C1118     1.0  0.49563  0.88885  0.57570  1.0000
  C   C1119     1.0  0.47814  0.87808  0.56963  1.0000
  C   C1120     1.0  0.48634  0.85976  0.56006  1.0000
  C   C1121     1.0  0.51226  0.85201  0.55679  1.0000
  C   C1122     1.0  0.52984  0.86318  0.56260  1.0000
  H   H1336     1.0  0.48905  0.90287  0.58317  1.0000
  H   H1337     1.0  0.45837  0.88360  0.57268  1.0000
  H   H1338     1.0  0.51874  0.83735  0.54974  1.0000
  H   H1339     1.0  0.54980  0.85717  0.55997  1.0000
  S   S299      1.0  0.64776  0.89335  0.54468  1.0000
  H   H1340     1.0  0.36836  0.98326  0.51848  1.0000
  S   S300      1.0  0.60913  0.91700  0.57212  1.0000
  H   H1341     1.0  0.56369  0.83752  0.61234  1.0000
  C   C1123     1.0  0.60623  0.91160  0.49055  1.0000
  H   H1342     1.0  0.56470  0.85502  0.62711  1.0000
  C   C1124     1.0  0.64802  0.98410  0.48452  1.0000
  C   C1125     1.0  0.61076  0.89668  0.50388  1.0000
  C   C1126     1.0  0.40751  0.96158  0.63650  1.0000
  C   C1127     1.0  0.64048  0.83535  0.62600  1.0000
  C   C1128     1.0  0.39588  0.93108  0.66391  1.0000
  H   H1343     1.0  0.39346  0.94482  0.59919  1.0000
  N   N75       1.0  0.60044  0.84730  0.61350  1.0000
  C   C1129     1.0  0.61631  0.84974  0.62491  1.0000
  H   H1344     1.0  0.35112  0.93891  0.65314  1.0000
  H   H1345     1.0  0.61228  0.90555  0.51343  1.0000
  S   S301      1.0  0.34225  0.81020  0.72044  1.0000
  C   C1130     1.0  0.65707  0.91052  0.61905  1.0000
  H   H1346     1.0  0.57837  0.82244  0.62830  1.0000
  H   H1347     1.0  0.40067  0.88371  0.65907  1.0000
  Fe  Fe153     1.0  0.61723  0.92588  0.54751  1.0000
  C   C1131     1.0  0.64655  0.97384  0.54332  1.0000
  C   C1132     1.0  0.61203  0.85927  0.49213  1.0000
  S   S302      1.0  0.36890  0.84804  0.64962  1.0000
  C   C1133     1.0  0.67073  0.88113  0.60083  1.0000
  H   H1348     1.0  0.39084  0.91781  0.67395  1.0000
  S   S303      1.0  0.35684  0.86684  0.68843  1.0000
  H   H1349     1.0  0.61402  0.87757  0.59851  1.0000
  C   C1134     1.0  0.56144  0.99686  0.57228  1.0000
  C   C1135     1.0  0.60538  0.99798  0.57397  1.0000
  C   C1136     1.0  0.37108  0.98481  0.49446  1.0000
  H   H1350     1.0  0.34550  0.85575  0.73327  1.0000
  C   C1137     1.0  0.54489  0.95964  0.56726  1.0000
  H   H1351     1.0  0.50472  0.98904  0.59318  1.0000
  H   H1352     1.0  0.54575  0.87948  0.49115  1.0000
  C   C1138     1.0  0.52383  0.96450  0.57754  1.0000
  H   H1353     1.0  0.45571  0.90753  0.50182  1.0000
  C   C1139     1.0  0.65607  0.93879  0.48754  1.0000
  C   C1140     1.0  0.46079  0.92407  0.49462  1.0000
  H   H1354     1.0  0.35724  0.91156  0.64342  1.0000
  C   C1141     1.0  0.41348  0.97692  0.62329  1.0000
  H   H1355     1.0  0.35772  0.90806  0.66282  1.0000
  C   C1142     1.0  0.64587  0.85540  0.64700  1.0000
  C   C1143     1.0  0.53720  0.89436  0.49830  1.0000
  H   H1356     1.0  0.38285  0.91753  0.62193  1.0000
  S   S304      1.0  0.60894  0.85859  0.56525  1.0000
  C   C1144     1.0  0.45938  0.94686  0.50037  1.0000
  H   H1357     1.0  0.60308  0.99070  0.58593  1.0000
  C   C1145     1.0  0.34331  0.98348  0.69216  1.0000
  C   C1146     1.0  0.65192  0.99843  0.53939  1.0000
  H   H1358     1.0  0.60396  0.93189  0.49001  1.0000
  C   C1147     1.0  0.43243  0.99897  0.54415  1.0000
  H   H1359     1.0  0.54694  0.94325  0.56144  1.0000
  C   C1148     1.0  0.39620  0.93956  0.63662  1.0000
  C   C1149     1.0  0.38980  0.94193  0.50142  1.0000
  H   H1360     1.0  0.55192  0.90673  0.49775  1.0000
  C   C1150     1.0  0.59592  0.87169  0.60407  1.0000
  H   H1361     1.0  0.49464  0.98153  0.50927  1.0000
  H   H1362     1.0  0.38468  0.94961  0.66597  1.0000
  H   H1363     1.0  0.62998  0.83289  0.59722  1.0000
  C   C1151     1.0  0.57578  0.84025  0.62066  1.0000
  H   H1364     1.0  0.58413  0.87052  0.59532  1.0000
  H   H1365     1.0  0.58588  0.88710  0.61036  1.0000
  H   H1366     1.0  0.41325  0.98282  0.59971  1.0000
  H   H1367     1.0  0.41218  0.96724  0.64642  1.0000
  H   H1368     1.0  0.50951  0.95209  0.57957  1.0000
  Fe  Fe154     1.0  0.63739  0.88252  0.56913  1.0000
  C   C1152     1.0  0.46539  0.96905  0.49120  1.0000
  H   H1369     1.0  0.40033  0.88854  0.63963  1.0000
  H   H1370     1.0  0.64907  0.82229  0.61829  1.0000
  S   S305      1.0  0.62303  0.96374  0.53550  1.0000
  N   N76       1.0  0.36864  0.95792  0.49460  1.0000
  H   H1371     1.0  0.61551  0.80899  0.60991  1.0000
  H   H1372     1.0  0.65451  0.93897  0.55743  1.0000
  H   H1373     1.0  0.41629  0.93219  0.66351  1.0000
  N   N77       1.0  0.52920  0.88346  0.51366  1.0000
  C   C1153     1.0  0.51267  0.86438  0.51287  1.0000
  H   H1374     1.0  0.64400  0.00162  0.48936  1.0000
  C   C1154     1.0  0.55182  0.87004  0.52019  1.0000
  C   C1155     1.0  0.51695  0.90378  0.52257  1.0000
  C   C1156     1.0  0.49202  0.90440  0.53005  1.0000
  C   C1157     1.0  0.53024  0.92359  0.52424  1.0000
  C   C1158     1.0  0.48146  0.92335  0.53884  1.0000
  C   C1159     1.0  0.51954  0.94237  0.53314  1.0000
  C   C1160     1.0  0.49524  0.94215  0.54051  1.0000
  H   H1375     1.0  0.49548  0.87299  0.50773  1.0000
  H   H1376     1.0  0.52249  0.84933  0.50616  1.0000
  H   H1377     1.0  0.50676  0.85467  0.52405  1.0000
  H   H1378     1.0  0.64382  0.92599  0.62298  1.0000
  C   C1161     1.0  0.65841  0.95808  0.55444  1.0000
  H   H1379     1.0  0.40821  0.94622  0.49542  1.0000
  H   H1380     1.0  0.56172  0.85452  0.51385  1.0000
  H   H1381     1.0  0.56592  0.88263  0.52047  1.0000
  H   H1382     1.0  0.54690  0.86169  0.53175  1.0000
  H   H1383     1.0  0.48045  0.89005  0.52970  1.0000
  H   H1384     1.0  0.54932  0.92431  0.51895  1.0000
  H   H1385     1.0  0.46265  0.92299  0.54473  1.0000
  H   H1386     1.0  0.53033  0.95688  0.53458  1.0000
  H   H1387     1.0  0.48713  0.95642  0.54765  1.0000
  H   H1388     1.0  0.63898  0.91044  0.59962  1.0000
  H   H1389     1.0  0.36186  0.97660  0.69536  1.0000
  H   H1390     1.0  0.59945  0.82652  0.59525  1.0000
  S   S306      1.0  0.34058  0.93387  0.69082  1.0000
  H   H1391     1.0  0.34402  0.79739  0.61357  1.0000
  C   C1162     1.0  0.65483  0.83811  0.63699  1.0000
  C   C1163     1.0  0.36291  0.92024  0.65241  1.0000
  C   C1164     1.0  0.52128  0.98525  0.58526  1.0000
  H   H1392     1.0  0.38905  0.92153  0.50134  1.0000
  C   C1165     1.0  0.40837  0.97094  0.60992  1.0000
  N   N78       1.0  0.39014  0.92251  0.65029  1.0000
  C   C1166     1.0  0.39122  0.93406  0.62277  1.0000
  H   H1393     1.0  0.42569  0.98807  0.50875  1.0000
  C   C1167     1.0  0.65037  0.96134  0.49369  1.0000
  C   C1168     1.0  0.65419  0.90162  0.60582  1.0000
  H   H1394     1.0  0.42541  0.89803  0.64728  1.0000
  C   C1169     1.0  0.45010  0.99778  0.56700  1.0000
  S   S307      1.0  0.66674  0.86776  0.58491  1.0000
  H   H1395     1.0  0.61138  0.98140  0.56783  1.0000
  H   H1396     1.0  0.64770  0.96114  0.50559  1.0000
  H   H1397     1.0  0.61592  0.88391  0.65371  1.0000
  H   H1398     1.0  0.66043  0.00505  0.63078  1.0000
  C   C1170     1.0  0.43531  0.00212  0.50094  1.0000
  C   C1171     1.0  0.35881  0.88055  0.48500  1.0000
  H   H1399     1.0  0.34165  0.93240  0.50315  1.0000
  H   H1400     1.0  0.65765  0.92107  0.49473  1.0000
  H   H1401     1.0  0.42242  0.99344  0.62335  1.0000
  H   H1402     1.0  0.52099  0.90568  0.49317  1.0000
  C   C1172     1.0  0.37048  0.99492  0.50794  1.0000
  C   C1173     1.0  0.53960  0.00140  0.58265  1.0000
  H   H1403     1.0  0.34118  0.83008  0.61553  1.0000
  H   H1404     1.0  0.36701  0.99993  0.65075  1.0000
  Fe  Fe155     1.0  0.64708  0.81630  0.81844  1.0000
  S   S308      1.0  0.64435  0.77799  0.83062  1.0000
  S   S309      1.0  0.64037  0.85103  0.83048  1.0000
  H   H1405     1.0  0.37769  0.83131  0.81075  1.0000
  S   S310      1.0  0.65229  0.75678  0.79841  1.0000
  C   C1174     1.0  0.48733  0.94321  0.96170  1.0000
  Fe  Fe156     1.0  0.61973  0.77405  0.81355  1.0000
  S   S311      1.0  0.58145  0.76225  0.82245  1.0000
  H   H1406     1.0  0.51996  0.81949  0.80122  1.0000
  S   S312      1.0  0.62091  0.81320  0.80207  1.0000
  Fe  Fe157     1.0  0.59524  0.93307  0.90904  1.0000
  S   S313      1.0  0.56430  0.95301  0.89618  1.0000
  S   S314      1.0  0.61336  0.94732  0.92603  1.0000
  S   S315      1.0  0.63164  0.91738  0.89689  1.0000
  Fe  Fe158     1.0  0.45377  0.76348  0.79531  1.0000
  S   S316      1.0  0.43623  0.80141  0.80118  1.0000
  S   S317      1.0  0.49402  0.75795  0.78399  1.0000
  Fe  Fe159     1.0  0.40610  0.73988  0.80830  1.0000
  S   S318      1.0  0.38540  0.77620  0.81592  1.0000
  S   S319      1.0  0.39359  0.70095  0.81205  1.0000
  Fe  Fe160     1.0  0.40123  0.79345  0.79338  1.0000
  S   S320      1.0  0.37994  0.82647  0.78021  1.0000
  Fe  Fe161     1.0  0.42224  0.78134  0.82304  1.0000
  S   S321      1.0  0.43553  0.79516  0.84225  1.0000
  S   S322      1.0  0.41998  0.75695  0.78541  1.0000
  S   S323      1.0  0.44162  0.74350  0.81751  1.0000
  C   C1175     1.0  0.47316  0.97728  0.90958  1.0000
  Fe  Fe162     1.0  0.46093  0.88402  0.90071  1.0000
  S   S324      1.0  0.43266  0.86385  0.91629  1.0000
  S   S325      1.0  0.50094  0.86713  0.89462  1.0000
  Fe  Fe163     1.0  0.42476  0.93208  0.89603  1.0000
  S   S326      1.0  0.39297  0.91620  0.91053  1.0000
  S   S327      1.0  0.42176  0.97225  0.88580  1.0000
  Fe  Fe164     1.0  0.42166  0.90055  0.92594  1.0000
  S   S328      1.0  0.41445  0.91246  0.94877  1.0000
  Fe  Fe165     1.0  0.40651  0.88128  0.89953  1.0000
  S   S329      1.0  0.37858  0.86109  0.89172  1.0000
  S   S330      1.0  0.45259  0.91875  0.91205  1.0000
  S   S331      1.0  0.43570  0.89885  0.88334  1.0000
  C   C1176     1.0  0.41833  0.81162  0.85652  1.0000
  C   C1177     1.0  0.39212  0.81808  0.85783  1.0000
  C   C1178     1.0  0.37975  0.83289  0.86886  1.0000
  C   C1179     1.0  0.39361  0.84132  0.87849  1.0000
  C   C1180     1.0  0.41968  0.83430  0.87735  1.0000
  C   C1181     1.0  0.43190  0.81932  0.86652  1.0000
  H   H1407     1.0  0.38142  0.81167  0.85043  1.0000
  H   H1408     1.0  0.35953  0.83812  0.86979  1.0000
  H   H1409     1.0  0.43049  0.84033  0.88486  1.0000
  H   H1410     1.0  0.45206  0.81374  0.86589  1.0000
  C   C1182     1.0  0.36994  0.82180  0.76348  1.0000
  C   C1183     1.0  0.37063  0.79761  0.75967  1.0000
  C   C1184     1.0  0.54048  0.69864  0.80608  1.0000
  Fe  Fe166     1.0  0.60952  0.90968  0.93921  1.0000
  H   H1411     1.0  0.56310  0.85797  0.75095  1.0000
  C   C1185     1.0  0.35292  0.88714  0.97108  1.0000
  H   H1412     1.0  0.37747  0.78135  0.76699  1.0000
  H   H1413     1.0  0.44768  0.94308  0.96174  1.0000
  S   S332      1.0  0.58827  0.89703  0.92309  1.0000
  C   C1186     1.0  0.53574  0.82971  0.79710  1.0000
  C   C1187     1.0  0.36270  0.69499  0.81074  1.0000
  C   C1188     1.0  0.48882  0.87275  0.96809  1.0000
  C   C1189     1.0  0.39433  0.00176  0.92396  1.0000
  C   C1190     1.0  0.62535  0.99343  0.98178  1.0000
  N   N79       1.0  0.58703  0.83128  0.76418  1.0000
  H   H1414     1.0  0.62204  0.84067  0.76895  1.0000
  H   H1415     1.0  0.36496  0.84065  0.82855  1.0000
  C   C1191     1.0  0.35168  0.86891  0.96160  1.0000
  H   H1416     1.0  0.58263  0.83412  0.74107  1.0000
  H   H1417     1.0  0.42222  0.85535  0.83295  1.0000
  H   H1418     1.0  0.59422  0.97186  0.95743  1.0000
  H   H1419     1.0  0.42675  0.87543  0.85430  1.0000
  H   H1420     1.0  0.52909  0.85529  0.92380  1.0000
  H   H1421     1.0  0.42544  0.85604  0.80827  1.0000
  H   H1422     1.0  0.40349  0.96464  0.91713  1.0000
  C   C1192     1.0  0.54857  0.92969  0.89172  1.0000
  C   C1193     1.0  0.52362  0.93566  0.88872  1.0000
  C   C1194     1.0  0.50925  0.91635  0.88850  1.0000
  C   C1195     1.0  0.51997  0.89113  0.89120  1.0000
  C   C1196     1.0  0.54562  0.88525  0.89264  1.0000
  C   C1197     1.0  0.55995  0.90457  0.89273  1.0000
  H   H1423     1.0  0.51517  0.95514  0.88712  1.0000
  H   H1424     1.0  0.48975  0.92101  0.88659  1.0000
  H   H1425     1.0  0.55420  0.86582  0.89445  1.0000
  H   H1426     1.0  0.57969  0.89992  0.89400  1.0000
  C   C1198     1.0  0.55740  0.76241  0.81132  1.0000
  C   C1199     1.0  0.56268  0.76129  0.79609  1.0000
  C   C1200     1.0  0.54312  0.75996  0.78777  1.0000
  C   C1201     1.0  0.51812  0.76035  0.79456  1.0000
  C   C1202     1.0  0.51284  0.76191  0.80972  1.0000
  C   C1203     1.0  0.53245  0.76249  0.81808  1.0000
  H   H1427     1.0  0.58191  0.76065  0.79085  1.0000
  H   H1428     1.0  0.54735  0.75844  0.77607  1.0000
  H   H1429     1.0  0.49375  0.76189  0.81512  1.0000
  H   H1430     1.0  0.52824  0.76245  0.82992  1.0000
  C   C1204     1.0  0.63800  0.84887  0.85004  1.0000
  C   C1205     1.0  0.62932  0.87065  0.85693  1.0000
  H   H1431     1.0  0.61989  0.88662  0.87747  1.0000
  H   H1432     1.0  0.62397  0.88830  0.85029  1.0000
  H   H1433     1.0  0.46830  0.84059  0.84290  1.0000
  H   H1434     1.0  0.54486  0.81118  0.77782  1.0000
  Fe  Fe167     1.0  0.64942  0.92735  0.91535  1.0000
  H   H1435     1.0  0.53028  0.85107  0.81556  1.0000
  H   H1436     1.0  0.62920  0.98827  0.94455  1.0000
  H   H1437     1.0  0.41313  0.88656  0.79974  1.0000
  H   H1438     1.0  0.46826  0.88297  0.94120  1.0000
  H   H1439     1.0  0.64809  0.80770  0.88097  1.0000
  C   C1206     1.0  0.63407  0.84716  0.88120  1.0000
  H   H1440     1.0  0.55102  0.70651  0.82639  1.0000
  H   H1441     1.0  0.65162  0.80923  0.85368  1.0000
  H   H1442     1.0  0.39799  0.82997  0.82454  1.0000
  Fe  Fe168     1.0  0.65536  0.79660  0.78797  1.0000
  C   C1207     1.0  0.40871  0.87158  0.83552  1.0000
  C   C1208     1.0  0.36075  0.84273  0.75392  1.0000
  H   H1443     1.0  0.48511  0.86796  0.92595  1.0000
  C   C1209     1.0  0.64270  0.82532  0.87431  1.0000
  N   N80       1.0  0.34858  0.87563  0.94573  1.0000
  H   H1444     1.0  0.58141  0.79206  0.76650  1.0000
  H   H1445     1.0  0.52885  0.83866  0.94219  1.0000
  C   C1210     1.0  0.41011  0.99333  0.89882  1.0000
  H   H1446     1.0  0.59246  0.86595  0.78337  1.0000
  H   H1447     1.0  0.36024  0.92774  0.84770  1.0000
  C   C1211     1.0  0.59667  0.80394  0.76532  1.0000
  H   H1448     1.0  0.65250  0.99825  0.95330  1.0000
  C   C1212     1.0  0.49037  0.87338  0.98306  1.0000
  H   H1449     1.0  0.38867  0.99496  0.93538  1.0000
  H   H1450     1.0  0.42136  0.85747  0.95465  1.0000
  N   N81       1.0  0.47900  0.67864  0.79966  1.0000
  C   C1213     1.0  0.45618  0.67271  0.80975  1.0000
  C   C1214     1.0  0.47085  0.69910  0.78813  1.0000
  C   C1215     1.0  0.48971  0.65577  0.79250  1.0000
  C   C1216     1.0  0.49836  0.68644  0.80722  1.0000
  C   C1217     1.0  0.52165  0.69184  0.79915  1.0000
  C   C1218     1.0  0.49485  0.68896  0.82258  1.0000
  C   C1219     1.0  0.51376  0.69598  0.82936  1.0000
  H   H1451     1.0  0.44643  0.68939  0.81507  1.0000
  H   H1452     1.0  0.44186  0.66708  0.80378  1.0000
  H   H1453     1.0  0.46074  0.65700  0.81854  1.0000
  H   H1454     1.0  0.48641  0.70338  0.77932  1.0000
  H   H1455     1.0  0.46377  0.71686  0.79299  1.0000
  H   H1456     1.0  0.45535  0.69459  0.78265  1.0000
  H   H1457     1.0  0.49721  0.64031  0.80071  1.0000
  H   H1458     1.0  0.47528  0.64876  0.78727  1.0000
  H   H1459     1.0  0.50533  0.65928  0.78358  1.0000
  H   H1460     1.0  0.52531  0.69136  0.78735  1.0000
  H   H1461     1.0  0.47757  0.68598  0.82960  1.0000
  H   H1462     1.0  0.51057  0.69822  0.84102  1.0000
  C   C1220     1.0  0.46455  0.94995  0.95585  1.0000
  C   C1221     1.0  0.42015  0.86534  0.96491  1.0000
  S   S333      1.0  0.64669  0.89015  0.92935  1.0000
  S   S334      1.0  0.66359  0.79889  0.76287  1.0000
  H   H1463     1.0  0.35490  0.90909  0.82611  1.0000
  H   H1464     1.0  0.41406  0.92150  0.97839  1.0000
  C   C1222     1.0  0.54159  0.84735  0.80521  1.0000
  H   H1465     1.0  0.42214  0.82923  0.97839  1.0000
  C   C1223     1.0  0.41743  0.89142  0.96496  1.0000
  H   H1466     1.0  0.52156  0.98059  0.90995  1.0000
  C   C1224     1.0  0.36212  0.79439  0.74643  1.0000
  C   C1225     1.0  0.34310  0.71452  0.80804  1.0000
  Fe  Fe169     1.0  0.62574  0.88169  0.91150  1.0000
  H   H1467     1.0  0.64346  0.88803  0.96410  1.0000
  H   H1468     1.0  0.48814  0.93123  0.97215  1.0000
  C   C1226     1.0  0.41615  0.90137  0.97831  1.0000
  N   N82       1.0  0.38554  0.86754  0.81438  1.0000
  H   H1469     1.0  0.52693  0.94604  0.95851  1.0000
  C   C1227     1.0  0.48486  0.86900  0.93796  1.0000
  H   H1470     1.0  0.52587  0.97253  0.93502  1.0000
  H   H1471     1.0  0.63668  0.94690  0.95941  1.0000
  C   C1228     1.0  0.59666  0.97891  0.96786  1.0000
  H   H1472     1.0  0.64896  0.98218  0.91839  1.0000
  C   C1229     1.0  0.40873  0.86717  0.80360  1.0000
  H   H1473     1.0  0.54845  0.86283  0.93611  1.0000
  H   H1474     1.0  0.56662  0.87384  0.80637  1.0000
  S   S335      1.0  0.59161  0.91186  0.96288  1.0000
  H   H1475     1.0  0.54952  0.88821  0.98045  1.0000
  C   C1230     1.0  0.41143  0.88284  0.84783  1.0000
  C   C1231     1.0  0.50932  0.87758  0.95704  1.0000
  C   C1232     1.0  0.61025  0.90339  0.97749  1.0000
  H   H1476     1.0  0.36282  0.86963  0.79665  1.0000
  C   C1233     1.0  0.50822  0.96687  0.94043  1.0000
  C   C1234     1.0  0.57138  0.83773  0.75186  1.0000
  H   H1477     1.0  0.35223  0.90696  0.96722  1.0000
  H   H1478     1.0  0.60346  0.86580  0.75838  1.0000
  H   H1479     1.0  0.34570  0.87896  0.81342  1.0000
  C   C1235     1.0  0.57152  0.83734  0.77817  1.0000
  C   C1236     1.0  0.56200  0.86024  0.79998  1.0000
  C   C1237     1.0  0.57675  0.85550  0.78663  1.0000
  C   C1238     1.0  0.53658  0.70061  0.82115  1.0000
  C   C1239     1.0  0.55029  0.82492  0.78372  1.0000
  H   H1480     1.0  0.55793  0.70315  0.79965  1.0000
  C   C1240     1.0  0.53110  0.88354  0.96196  1.0000
  H   H1481     1.0  0.37444  0.84341  0.93882  1.0000
  C   C1241     1.0  0.40611  0.98843  0.96973  1.0000
  H   H1482     1.0  0.36971  0.86892  0.92457  1.0000
  H   H1483     1.0  0.40001  0.97978  0.96120  1.0000
  C   C1242     1.0  0.60916  0.84507  0.76024  1.0000
  C   C1243     1.0  0.36405  0.87959  0.80628  1.0000
  C   C1244     1.0  0.35311  0.81529  0.73682  1.0000
  C   C1245     1.0  0.39394  0.90296  0.85220  1.0000
  C   C1246     1.0  0.48520  0.97427  0.93420  1.0000
  C   C1247     1.0  0.42071  0.84938  0.97833  1.0000
  C   C1248     1.0  0.35414  0.84331  0.96794  1.0000
  C   C1249     1.0  0.52965  0.85747  0.93562  1.0000
  H   H1484     1.0  0.36603  0.89943  0.80177  1.0000
  N   N83       1.0  0.56484  0.82070  0.85469  1.0000
  C   C1250     1.0  0.56967  0.79383  0.86093  1.0000
  C   C1251     1.0  0.58235  0.82473  0.84092  1.0000
  C   C1252     1.0  0.57102  0.83599  0.86552  1.0000
  C   C1253     1.0  0.53848  0.82702  0.85133  1.0000
  C   C1254     1.0  0.52939  0.81324  0.84171  1.0000
  C   C1255     1.0  0.52109  0.84647  0.85750  1.0000
  C   C1256     1.0  0.50435  0.81812  0.83876  1.0000
  C   C1257     1.0  0.49610  0.85130  0.85442  1.0000
  C   C1258     1.0  0.48777  0.83717  0.84506  1.0000
  H   H1485     1.0  0.58892  0.78877  0.86437  1.0000
  H   H1486     1.0  0.55582  0.78955  0.87078  1.0000
  H   H1487     1.0  0.56862  0.78078  0.85280  1.0000
  H   H1488     1.0  0.57976  0.81308  0.83240  1.0000
  H   H1489     1.0  0.60232  0.81949  0.84303  1.0000
  H   H1490     1.0  0.58000  0.84481  0.83600  1.0000
  H   H1491     1.0  0.55872  0.83351  0.87625  1.0000
  H   H1492     1.0  0.59077  0.83048  0.86803  1.0000
  H   H1493     1.0  0.56927  0.85639  0.86125  1.0000
  H   H1494     1.0  0.54164  0.79840  0.83653  1.0000
  H   H1495     1.0  0.52612  0.85800  0.86496  1.0000
  H   H1496     1.0  0.49760  0.80679  0.83174  1.0000
  H   H1497     1.0  0.48304  0.86576  0.85962  1.0000
  C   C1259     1.0  0.62723  0.86979  0.87240  1.0000
  H   H1498     1.0  0.49588  0.91574  0.93611  1.0000
  H   H1499     1.0  0.52960  0.90763  0.93367  1.0000
  C   C1260     1.0  0.63879  0.95682  0.96889  1.0000
  H   H1500     1.0  0.44523  0.96998  0.93830  1.0000
  C   C1261     1.0  0.51156  0.90118  0.93256  1.0000
  C   C1262     1.0  0.64462  0.82612  0.85881  1.0000
  H   H1501     1.0  0.37273  0.65471  0.81467  1.0000
  H   H1502     1.0  0.35404  0.82834  0.96137  1.0000
  H   H1503     1.0  0.65907  0.95833  0.96849  1.0000
  N   N84       1.0  0.50867  0.87629  0.94114  1.0000
  H   H1504     1.0  0.48176  0.85006  0.94373  1.0000
  H   H1505     1.0  0.48477  0.95878  0.90815  1.0000
  S   S336      1.0  0.63190  0.84551  0.90075  1.0000
  H   H1506     1.0  0.54745  0.88756  0.95427  1.0000
  C   C1263     1.0  0.50913  0.95160  0.95400  1.0000
  H   H1507     1.0  0.51144  0.90072  0.92053  1.0000
  N   N85       1.0  0.62328  0.98194  0.96840  1.0000
  H   H1508     1.0  0.38834  0.87126  0.93889  1.0000
  H   H1509     1.0  0.47143  0.86812  0.96553  1.0000
  H   H1510     1.0  0.60731  0.79798  0.77499  1.0000
  N   N86       1.0  0.48339  0.99048  0.91991  1.0000
  C   C1264     1.0  0.53245  0.88409  0.97696  1.0000
  C   C1265     1.0  0.38843  0.88040  0.82706  1.0000
  C   C1266     1.0  0.63537  0.89234  0.97503  1.0000
  C   C1267     1.0  0.40263  0.98459  0.91361  1.0000
  H   H1511     1.0  0.60984  0.79893  0.75537  1.0000
  C   C1268     1.0  0.38140  0.84127  0.81980  1.0000
  H   H1512     1.0  0.45359  0.97375  0.91347  1.0000
  C   C1269     1.0  0.46339  0.96530  0.94235  1.0000
  C   C1270     1.0  0.66722  0.98763  0.91851  1.0000
  C   C1271     1.0  0.35248  0.83952  0.74058  1.0000
  H   H1513     1.0  0.47254  0.98837  0.89845  1.0000
  H   H1514     1.0  0.40678  0.85832  0.79367  1.0000
  H   H1515     1.0  0.55552  0.82647  0.75334  1.0000
  H   H1516     1.0  0.36011  0.86150  0.75679  1.0000
  C   C1272     1.0  0.37121  0.86429  0.93663  1.0000
  C   C1273     1.0  0.63201  0.99691  0.95435  1.0000
  C   C1274     1.0  0.37387  0.91218  0.84414  1.0000
  C   C1275     1.0  0.35771  0.66994  0.81255  1.0000
  H   H1517     1.0  0.62080  0.83969  0.74987  1.0000
  H   H1518     1.0  0.58407  0.99719  0.96854  1.0000
  C   C1276     1.0  0.37104  0.90119  0.83172  1.0000
  H   H1519     1.0  0.58958  0.96489  0.97686  1.0000
  H   H1520     1.0  0.36263  0.77559  0.74361  1.0000
  C   C1277     1.0  0.50796  0.99748  0.91252  1.0000
  H   H1521     1.0  0.39574  0.91119  0.86200  1.0000
  H   H1522     1.0  0.63349  0.94439  0.97912  1.0000
  H   H1523     1.0  0.34665  0.73385  0.80660  1.0000
  H   H1524     1.0  0.36206  0.91171  0.94230  1.0000
  C   C1278     1.0  0.34519  0.90321  0.94099  1.0000
  H   H1525     1.0  0.67119  0.90633  0.87123  1.0000
  C   C1279     1.0  0.35743  0.83643  0.98283  1.0000
  H   H1526     1.0  0.67139  0.87209  0.89229  1.0000
  H   H1527     1.0  0.34254  0.90765  0.92908  1.0000
  H   H1528     1.0  0.67182  0.84986  0.76621  1.0000
  Fe  Fe170     1.0  0.78705  0.36350  0.16977  1.0000
  S   S337      1.0  0.82167  0.33566  0.17223  1.0000
  S   S338      1.0  0.74984  0.35432  0.16484  1.0000
  Fe  Fe171     1.0  0.81310  0.40731  0.17519  1.0000
  S   S339      1.0  0.84986  0.38224  0.17845  1.0000
  S   S340      1.0  0.80304  0.45005  0.17389  1.0000
  Fe  Fe172     1.0  0.84299  0.36507  0.15878  1.0000
  S   S341      1.0  0.87438  0.35050  0.14181  1.0000
  Fe  Fe173     1.0  0.82566  0.35460  0.19172  1.0000
  C   C1280     1.0  0.95464  0.46936  0.01719  1.0000
  S   S342      1.0  0.80797  0.39163  0.15456  1.0000
  S   S343      1.0  0.78934  0.38095  0.19013  1.0000
  C   C1281     1.0  0.85277  0.44708  0.00444  1.0000
  H   H1529     1.0  0.81760  0.45655  0.98556  1.0000
  H   H1530     1.0  0.71269  0.10396  0.08473  1.0000
  H   H1531     1.0  0.68261  0.06178  0.13282  1.0000
  H   H1532     1.0  0.86058  0.36498  0.21530  1.0000
  Fe  Fe174     1.0  0.91412  0.42773  0.02493  1.0000
  S   S344      1.0  0.88592  0.40290  0.03591  1.0000
  S   S345      1.0  0.90694  0.46589  0.01235  1.0000
  Fe  Fe175     1.0  0.95849  0.39246  0.03562  1.0000
  S   S346      1.0  0.93433  0.36407  0.04795  1.0000
  H   H1533     1.0  0.85390  0.45602  0.15026  1.0000
  Fe  Fe176     1.0  0.91442  0.37178  0.02750  1.0000
  S   S347      1.0  0.90383  0.34098  0.01663  1.0000
  Fe  Fe177     1.0  0.90770  0.39773  0.05546  1.0000
  S   S348      1.0  0.88423  0.40844  0.07675  1.0000
  S   S349      1.0  0.94050  0.39729  0.01483  1.0000
  S   S350      1.0  0.93391  0.42516  0.04483  1.0000
  C   C1282     1.0  0.92948  0.48073  0.01817  1.0000
  H   H1534     1.0  0.67667  0.09499  0.13355  1.0000
  H   H1535     1.0  0.96024  0.45210  0.01220  1.0000
  C   C1283     1.0  0.85340  0.48739  0.18799  1.0000
  H   H1536     1.0  0.83392  0.44396  0.01036  1.0000
  H   H1537     1.0  0.70789  0.12048  0.13007  1.0000
  C   C1284     1.0  0.72807  0.15370  0.09800  1.0000
  C   C1285     1.0  0.67472  0.08436  0.10627  1.0000
  C   C1286     1.0  0.93268  0.32228  0.19073  1.0000
  H   H1538     1.0  0.78686  0.28919  0.20338  1.0000
  C   C1287     1.0  0.86572  0.34854  0.22297  1.0000
  H   H1539     1.0  0.69008  0.29315  0.17073  1.0000
  H   H1540     1.0  0.70775  0.07779  0.13546  1.0000
  C   C1288     1.0  0.97251  0.48005  0.02292  1.0000
  C   C1289     1.0  0.72445  0.13808  0.08797  1.0000
  H   H1541     1.0  0.98521  0.42662  0.05732  1.0000
  H   H1542     1.0  0.93198  0.30137  0.22782  1.0000
  H   H1543     1.0  0.78855  0.50312  0.17339  1.0000
  H   H1544     1.0  0.75832  0.26201  0.19802  1.0000
  N   N87       1.0  0.69785  0.08411  0.11322  1.0000
  H   H1545     1.0  0.87223  0.44328  0.12573  1.0000
  C   C1290     1.0  0.81829  0.47345  0.17915  1.0000
  C   C1291     1.0  0.84172  0.46789  0.18446  1.0000
  H   H1546     1.0  0.68892  0.09434  0.99432  1.0000
  H   H1547     1.0  0.85082  0.44859  0.18582  1.0000
  H   H1548     1.0  0.84542  0.35791  0.00816  1.0000
  C   C1292     1.0  0.87758  0.36689  0.12381  1.0000
  C   C1293     1.0  0.89412  0.35591  0.11253  1.0000
  C   C1294     1.0  0.89669  0.36846  0.09804  1.0000
  C   C1295     1.0  0.88281  0.39215  0.09479  1.0000
  C   C1296     1.0  0.86645  0.40319  0.10611  1.0000
  C   C1297     1.0  0.86379  0.39062  0.12056  1.0000
  H   H1549     1.0  0.90483  0.33753  0.11497  1.0000
  H   H1550     1.0  0.90926  0.35977  0.08938  1.0000
  H   H1551     1.0  0.85558  0.42148  0.10363  1.0000
  H   H1552     1.0  0.85109  0.39931  0.12915  1.0000
  C   C1298     1.0  0.74193  0.32338  0.16757  1.0000
  C   C1299     1.0  0.71652  0.31991  0.16864  1.0000
  C   C1300     1.0  0.70969  0.29558  0.16987  1.0000
  C   C1301     1.0  0.72834  0.27458  0.16963  1.0000
  C   C1302     1.0  0.75376  0.27809  0.16842  1.0000
  C   C1303     1.0  0.76053  0.30231  0.16761  1.0000
  H   H1553     1.0  0.70204  0.33614  0.16851  1.0000
  H   H1554     1.0  0.93179  0.50526  0.98904  1.0000
  H   H1555     1.0  0.78015  0.30471  0.16662  1.0000
  H   H1556     1.0  0.76833  0.26197  0.16808  1.0000
  H   H1557     1.0  0.72828  0.14394  0.07620  1.0000
  H   H1558     1.0  0.76064  0.22341  0.18823  1.0000
  C   C1304     1.0  0.90599  0.34276  0.99719  1.0000
  C   C1305     1.0  0.92213  0.50257  0.02501  1.0000
  H   H1559     1.0  0.87880  0.32712  0.17391  1.0000
  N   N88       1.0  0.91653  0.32819  0.17865  1.0000
  H   H1560     1.0  0.89979  0.30425  0.99842  1.0000
  H   H1561     1.0  0.98897  0.36499  0.05937  1.0000
  H   H1562     1.0  0.86755  0.43559  0.01070  1.0000
  N   N89       1.0  0.79068  0.34593  0.12172  1.0000
  C   C1306     1.0  0.80902  0.33771  0.13254  1.0000
  C   C1307     1.0  0.77989  0.37260  0.12306  1.0000
  C   C1308     1.0  0.76972  0.33062  0.12595  1.0000
  C   C1309     1.0  0.80368  0.34352  0.10659  1.0000
  C   C1310     1.0  0.82311  0.35815  0.10060  1.0000
  C   C1311     1.0  0.79798  0.32652  0.09751  1.0000
  C   C1312     1.0  0.83571  0.35625  0.08637  1.0000
  C   C1313     1.0  0.81082  0.32469  0.08330  1.0000
  C   C1314     1.0  0.82961  0.33955  0.07774  1.0000
  H   H1563     1.0  0.81828  0.31805  0.13161  1.0000
  H   H1564     1.0  0.82424  0.34977  0.13096  1.0000
  H   H1565     1.0  0.79969  0.33848  0.14409  1.0000
  H   H1566     1.0  0.79461  0.38513  0.12188  1.0000
  H   H1567     1.0  0.76885  0.37479  0.13412  1.0000
  H   H1568     1.0  0.76707  0.38004  0.11454  1.0000
  H   H1569     1.0  0.77661  0.31009  0.12641  1.0000
  H   H1570     1.0  0.75981  0.33351  0.13716  1.0000
  H   H1571     1.0  0.75516  0.33587  0.11825  1.0000
  H   H1572     1.0  0.82885  0.37109  0.10693  1.0000
  H   H1573     1.0  0.78376  0.31435  0.10113  1.0000
  H   H1574     1.0  0.85042  0.36775  0.08201  1.0000
  H   H1575     1.0  0.80625  0.31160  0.07655  1.0000
  H   H1576     1.0  0.83960  0.33808  0.06675  1.0000
  H   H1577     1.0  0.99986  0.34421  0.01194  1.0000
  H   H1578     1.0  0.71708  0.23584  0.22213  1.0000
  H   H1579     1.0  0.97598  0.30950  0.22247  1.0000
  C   C1315     1.0  0.89035  0.32267  0.18327  1.0000
  S   S351      1.0  0.69147  0.18612  0.17842  1.0000
  H   H1580     1.0  0.67833  0.08585  0.09402  1.0000
  H   H1581     1.0  0.68102  0.20927  0.10369  1.0000
  C   C1316     1.0  0.78295  0.22431  0.22697  1.0000
  C   C1317     1.0  0.85510  0.32663  0.22310  1.0000
  C   C1318     1.0  0.71508  0.11540  0.09298  1.0000
  H   H1582     1.0  0.96779  0.44362  0.07172  1.0000
  H   H1583     1.0  0.85496  0.46702  0.00501  1.0000
  C   C1319     1.0  0.97990  0.35216  0.99335  1.0000
  H   H1584     1.0  0.90245  0.36073  0.16420  1.0000
  C   C1320     1.0  0.84933  0.39663  0.00019  1.0000
  Fe  Fe178     1.0  0.68352  0.22852  0.17506  1.0000
  C   C1321     1.0  0.91506  0.35536  0.17303  1.0000
  H   H1585     1.0  0.90760  0.36720  0.18207  1.0000
  H   H1586     1.0  0.88051  0.33414  0.19205  1.0000
  H   H1587     1.0  0.96236  0.34790  0.99984  1.0000
  C   C1322     1.0  0.92743  0.31329  0.16635  1.0000
  H   H1588     1.0  0.99195  0.47127  0.02209  1.0000
  H   H1589     1.0  0.72471  0.15916  0.12087  1.0000
  H   H1590     1.0  0.96643  0.33369  0.17717  1.0000
  H   H1591     1.0  0.93365  0.36077  0.16806  1.0000
  C   C1323     1.0  0.96513  0.50192  0.02979  1.0000
  S   S352      1.0  0.83303  0.32485  0.21116  1.0000
  C   C1324     1.0  0.70842  0.10794  0.10827  1.0000
  H   H1592     1.0  0.94616  0.31805  0.16118  1.0000
  C   C1325     1.0  0.97369  0.32182  0.19934  1.0000
  C   C1326     1.0  0.93930  0.30820  0.21663  1.0000
  C   C1327     1.0  0.75987  0.20704  0.19696  1.0000
  H   H1593     1.0  0.71132  0.21624  0.20908  1.0000
  H   H1594     1.0  0.91521  0.31679  0.15727  1.0000
  H   H1595     1.0  0.92963  0.29275  0.17025  1.0000
  C   C1328     1.0  0.96417  0.31280  0.21363  1.0000
  H   H1596     1.0  0.90455  0.30905  0.20864  1.0000
  C   C1329     1.0  0.72451  0.22859  0.21141  1.0000
  H   H1597     1.0  0.73464  0.17162  0.09404  1.0000
  H   H1598     1.0  0.89599  0.43175  0.98781  1.0000
  C   C1330     1.0  0.71658  0.06264  0.10868  1.0000
  C   C1331     1.0  0.76928  0.25537  0.20707  1.0000
  H   H1599     1.0  0.87150  0.48289  0.19211  1.0000
  H   H1600     1.0  0.85018  0.40032  0.01130  1.0000
  S   S353      1.0  0.67516  0.11932  0.06336  1.0000
  C   C1332     1.0  0.72241  0.14665  0.11310  1.0000
  C   C1333     1.0  0.92367  0.31280  0.20542  1.0000
  H   H1601     1.0  0.70968  0.04426  0.11263  1.0000
  H   H1602     1.0  0.91202  0.38158  0.99225  1.0000
  S   S354      1.0  0.72120  0.24358  0.17059  1.0000
  H   H1603     1.0  0.88983  0.30243  0.18741  1.0000
  C   C1334     1.0  0.00180  0.34981  0.00015  1.0000
  H   H1604     1.0  0.67596  0.19991  0.13115  1.0000
  H   H1605     1.0  0.74740  0.19495  0.19356  1.0000
  C   C1335     1.0  0.86856  0.46305  0.12730  1.0000
  H   H1606     1.0  0.77921  0.19637  0.19672  1.0000
  C   C1336     1.0  0.87403  0.48133  0.11552  1.0000
  C   C1337     1.0  0.71264  0.12419  0.11825  1.0000
  C   C1338     1.0  0.98315  0.44453  0.06232  1.0000
  C   C1339     1.0  0.78566  0.27105  0.20999  1.0000
  C   C1340     1.0  0.69098  0.07953  0.12948  1.0000
  H   H1607     1.0  0.73505  0.18025  0.21977  1.0000
  N   N90       1.0  0.75047  0.21491  0.21176  1.0000
  C   C1341     1.0  0.95825  0.32649  0.18803  1.0000
  C   C1342     1.0  0.90980  0.36488  0.98770  1.0000
  H   H1608     1.0  0.88200  0.47559  0.10482  1.0000
  C   C1343     1.0  0.98332  0.49019  0.07454  1.0000
  C   C1344     1.0  0.76734  0.23150  0.21547  1.0000
  H   H1609     1.0  0.74249  0.19628  0.23389  1.0000
  H   H1610     1.0  0.76717  0.17913  0.22232  1.0000
  C   C1345     1.0  0.85356  0.49568  0.14312  1.0000
  H   H1611     1.0  0.73468  0.06237  0.11313  1.0000
  H   H1612     1.0  0.72331  0.24473  0.20251  1.0000
  H   H1613     1.0  0.99308  0.32540  0.19708  1.0000
  C   C1346     1.0  0.74883  0.19171  0.22241  1.0000
  C   C1347     1.0  0.67490  0.11088  0.99329  1.0000
  C   C1348     1.0  0.84635  0.37204  0.99857  1.0000
  S   S355      1.0  0.00030  0.39292  0.03044  1.0000
  C   C1349     1.0  0.90273  0.32137  0.99119  1.0000
  S   S356      1.0  0.68360  0.11767  0.02092  1.0000
  H   H1614     1.0  0.96738  0.48892  0.06900  1.0000
  H   H1615     1.0  0.97689  0.45965  0.05357  1.0000
  H   H1616     1.0  0.72080  0.06346  0.09645  1.0000
  C   C1350     1.0  0.85837  0.47022  0.14108  1.0000
  C   C1351     1.0  0.85196  0.41522  0.98772  1.0000
  C   C1352     1.0  0.00492  0.47145  0.07451  1.0000
  N   N91       1.0  0.85576  0.44128  0.98895  1.0000
  H   H1617     1.0  0.85459  0.28812  0.23276  1.0000
  C   C1353     1.0  0.88287  0.34924  0.23296  1.0000
  H   H1618     1.0  0.00287  0.42520  0.08817  1.0000
  H   H1619     1.0  0.84587  0.50023  0.15403  1.0000
  C   C1354     1.0  0.86206  0.30537  0.23302  1.0000
  H   H1620     1.0  0.89116  0.36619  0.23283  1.0000
  C   C1355     1.0  0.80672  0.49867  0.17744  1.0000
  H   H1621     1.0  0.97875  0.41350  0.99126  1.0000
  C   C1356     1.0  0.80074  0.26340  0.22129  1.0000
  H   H1622     1.0  0.81353  0.27561  0.22341  1.0000
  C   C1357     1.0  0.68133  0.16954  0.23348  1.0000
  C   C1358     1.0  0.79938  0.24010  0.22976  1.0000
  H   H1623     1.0  0.78288  0.20656  0.23399  1.0000
  H   H1624     1.0  0.67303  0.20967  0.22801  1.0000
  C   C1359     1.0  0.84598  0.36520  0.98460  1.0000
  C   C1360     1.0  0.99168  0.42519  0.98462  1.0000
  Fe  Fe179     1.0  0.73268  0.15487  0.28761  1.0000
  S   S357      1.0  0.76777  0.12836  0.28179  1.0000
  S   S358      1.0  0.71841  0.18795  0.27151  1.0000
  Fe  Fe180     1.0  0.72588  0.12962  0.31976  1.0000
  S   S359      1.0  0.76065  0.10138  0.31638  1.0000
  C   C1361     1.0  0.91733  0.48867  0.48053  1.0000
  Fe  Fe181     1.0  0.77822  0.13466  0.30364  1.0000
  S   S360      1.0  0.81772  0.14202  0.30590  1.0000
  Fe  Fe182     1.0  0.74706  0.09772  0.29487  1.0000
  S   S361      1.0  0.74029  0.06328  0.28521  1.0000
  S   S362      1.0  0.74423  0.16304  0.30872  1.0000
  S   S363      1.0  0.71111  0.12419  0.29907  1.0000
  Fe  Fe183     1.0  0.94003  0.26812  0.29864  1.0000
  S   S364      1.0  0.93671  0.30972  0.29265  1.0000
  S   S365      1.0  0.97833  0.24590  0.30280  1.0000
  Fe  Fe184     1.0  0.88302  0.26840  0.30038  1.0000
  S   S366      1.0  0.87626  0.31069  0.29477  1.0000
  S   S367      1.0  0.84563  0.25254  0.30379  1.0000
  Fe  Fe185     1.0  0.90942  0.30504  0.27747  1.0000
  S   S368      1.0  0.91120  0.32936  0.25530  1.0000
  Fe  Fe186     1.0  0.90402  0.31173  0.31049  1.0000
  S   S369      1.0  0.90466  0.34348  0.32390  1.0000
  S   S370      1.0  0.91495  0.26275  0.28196  1.0000
  S   S371      1.0  0.90847  0.27011  0.31755  1.0000
  Fe  Fe187     1.0  0.91636  0.39098  0.42967  1.0000
  S   S372      1.0  0.95329  0.40369  0.42029  1.0000
  S   S373      1.0  0.89684  0.40347  0.45128  1.0000
  Fe  Fe188     1.0  0.91244  0.36707  0.40216  1.0000
  S   S374      1.0  0.94882  0.37858  0.39036  1.0000
  S   S375      1.0  0.89010  0.34161  0.39359  1.0000
  Fe  Fe189     1.0  0.96303  0.36587  0.41219  1.0000
  H   H1625     1.0  0.73182  0.23856  0.25616  1.0000
  Fe  Fe190     1.0  0.93561  0.41531  0.39951  1.0000
  S   S376      1.0  0.94330  0.45307  0.38796  1.0000
  S   S377      1.0  0.92779  0.35174  0.42358  1.0000
  S   S378      1.0  0.89762  0.40525  0.40926  1.0000
  C   C1362     1.0  0.74689  0.24819  0.25814  1.0000
  H   H1626     1.0  0.83201  0.25271  0.27379  1.0000
  H   H1627     1.0  0.99955  0.35251  0.35723  1.0000
  C   C1363     1.0  0.91959  0.47062  0.41366  1.0000
  C   C1364     1.0  0.93424  0.47598  0.40011  1.0000
  C   C1365     1.0  0.70615  0.04403  0.32365  1.0000
  H   H1628     1.0  0.91345  0.45235  0.41667  1.0000
  C   C1366     1.0  0.70907  0.11519  0.38886  1.0000
  H   H1629     1.0  0.74109  0.15868  0.40698  1.0000
  C   C1367     1.0  0.80912  0.31042  0.25768  1.0000
  H   H1630     1.0  0.88640  0.30248  0.44855  1.0000
  H   H1631     1.0  0.98065  0.36599  0.43878  1.0000
  C   C1368     1.0  0.00159  0.28930  0.37634  1.0000
  C   C1369     1.0  0.91217  0.48919  0.42320  1.0000
  C   C1370     1.0  0.89743  0.39515  0.48120  1.0000
  H   H1632     1.0  0.98895  0.29589  0.28944  1.0000
  C   C1371     1.0  0.68268  0.13166  0.36952  1.0000
  C   C1372     1.0  0.89366  0.34207  0.37422  1.0000
  C   C1373     1.0  0.88674  0.32239  0.36794  1.0000
  C   C1374     1.0  0.89000  0.32238  0.35248  1.0000
  C   C1375     1.0  0.89983  0.34228  0.34329  1.0000
  C   C1376     1.0  0.90628  0.36208  0.34960  1.0000
  C   C1377     1.0  0.90353  0.36184  0.36500  1.0000
  H   H1633     1.0  0.87897  0.30710  0.37504  1.0000
  H   H1634     1.0  0.88464  0.30722  0.34767  1.0000
  H   H1635     1.0  0.91344  0.37774  0.34253  1.0000
  H   H1636     1.0  0.90858  0.37726  0.36970  1.0000
  C   C1378     1.0  0.74887  0.03089  0.29117  1.0000
  H   H1637     1.0  0.95228  0.30688  0.33387  1.0000
  H   H1638     1.0  0.95376  0.50377  0.38598  1.0000
  H   H1639     1.0  0.81357  0.35191  0.43468  1.0000
  H   H1640     1.0  0.77240  0.03602  0.30712  1.0000
  C   C1379     1.0  0.69258  0.20012  0.24737  1.0000
  H   H1641     1.0  0.79548  0.23876  0.27836  1.0000
  C   C1380     1.0  0.72887  0.10796  0.37800  1.0000
  C   C1381     1.0  0.72540  0.11221  0.36292  1.0000
  H   H1642     1.0  0.70814  0.04440  0.36022  1.0000
  H   H1643     1.0  0.74687  0.09902  0.38128  1.0000
  H   H1644     1.0  0.74047  0.10602  0.35464  1.0000
  C   C1382     1.0  0.82583  0.17286  0.30403  1.0000
  C   C1383     1.0  0.85109  0.17627  0.30389  1.0000
  C   C1384     1.0  0.85773  0.20055  0.30351  1.0000
  C   C1385     1.0  0.83901  0.22152  0.30375  1.0000
  C   C1386     1.0  0.81378  0.21797  0.30410  1.0000
  C   C1387     1.0  0.80731  0.19395  0.30377  1.0000
  H   H1645     1.0  0.86558  0.16005  0.30411  1.0000
  H   H1646     1.0  0.87723  0.20295  0.30331  1.0000
  H   H1647     1.0  0.79906  0.23390  0.30466  1.0000
  H   H1648     1.0  0.78788  0.19167  0.30375  1.0000
  C   C1388     1.0  0.70351  0.18061  0.25721  1.0000
  H   H1649     1.0  0.71141  0.14045  0.26277  1.0000
  C   C1389     1.0  0.96729  0.29065  0.33210  1.0000
  H   H1650     1.0  0.79229  0.32482  0.25953  1.0000
  S   S379      1.0  0.00110  0.34302  0.41259  1.0000
  C   C1390     1.0  0.86509  0.34111  0.48154  1.0000
  C   C1391     1.0  0.88905  0.32827  0.24327  1.0000
  C   C1392     1.0  0.96142  0.31554  0.37535  1.0000
  H   H1651     1.0  0.94721  0.32996  0.37972  1.0000
  H   H1652     1.0  0.81232  0.30778  0.24576  1.0000
  C   C1393     1.0  0.00515  0.28629  0.29449  1.0000
  H   H1653     1.0  0.88422  0.28976  0.25075  1.0000
  C   C1394     1.0  0.99934  0.44644  0.40254  1.0000
  C   C1395     1.0  0.94497  0.26208  0.34971  1.0000
  H   H1654     1.0  0.81109  0.23422  0.23858  1.0000
  H   H1655     1.0  0.83560  0.26385  0.25439  1.0000
  C   C1396     1.0  0.80061  0.29182  0.28275  1.0000
  C   C1397     1.0  0.87873  0.30626  0.24321  1.0000
  H   H1656     1.0  0.82544  0.31891  0.25994  1.0000
  H   H1657     1.0  0.84670  0.27964  0.26763  1.0000
  C   C1398     1.0  0.97731  0.43212  0.47154  1.0000
  C   C1399     1.0  0.70235  0.12444  0.35866  1.0000
  C   C1400     1.0  0.78313  0.24867  0.27061  1.0000
  S   S380      1.0  0.69063  0.05446  0.43183  1.0000
  C   C1401     1.0  0.73931  0.01306  0.28464  1.0000
  N   N92       1.0  0.85042  0.34503  0.44199  1.0000
  C   C1402     1.0  0.85626  0.37074  0.43638  1.0000
  C   C1403     1.0  0.85961  0.32893  0.42999  1.0000
  C   C1404     1.0  0.82267  0.34591  0.44497  1.0000
  C   C1405     1.0  0.86178  0.33595  0.45583  1.0000
  H   H1658     1.0  0.99004  0.34602  0.30525  1.0000
  C   C1406     1.0  0.99868  0.35088  0.34578  1.0000
  C   C1407     1.0  0.94215  0.49966  0.39637  1.0000
  H   H1659     1.0  0.95877  0.36383  0.34856  1.0000
  H   H1660     1.0  0.87688  0.37106  0.43501  1.0000
  H   H1661     1.0  0.84956  0.37769  0.42545  1.0000
  H   H1662     1.0  0.84774  0.38487  0.44397  1.0000
  H   H1663     1.0  0.88030  0.32816  0.42676  1.0000
  H   H1664     1.0  0.85092  0.33637  0.41969  1.0000
  H   H1665     1.0  0.85511  0.30942  0.43318  1.0000
  H   H1666     1.0  0.81395  0.35945  0.45287  1.0000
  C   C1408     1.0  0.69183  0.15012  0.24348  1.0000
  H   H1667     1.0  0.81754  0.32707  0.44973  1.0000
  C   C1409     1.0  0.99748  0.27761  0.36445  1.0000
  H   H1668     1.0  0.93658  0.43976  0.44530  1.0000
  C   C1410     1.0  0.95203  0.44304  0.45078  1.0000
  C   C1411     1.0  0.99253  0.34755  0.31656  1.0000
  N   N93       1.0  0.96931  0.27213  0.34551  1.0000
  C   C1412     1.0  0.99147  0.45168  0.46497  1.0000
  H   H1669     1.0  0.94481  0.24981  0.36047  1.0000
  C   C1413     1.0  0.95744  0.42818  0.46395  1.0000
  C   C1414     1.0  0.97493  0.28461  0.35771  1.0000
  C   C1415     1.0  0.92978  0.34972  0.48047  1.0000
  C   C1416     1.0  0.95730  0.30424  0.36337  1.0000
  H   H1670     1.0  0.98287  0.44992  0.41109  1.0000
  H   H1671     1.0  0.72690  0.01941  0.27624  1.0000
  C   C1417     1.0  0.96619  0.46215  0.44472  1.0000
  C   C1418     1.0  0.98881  0.25077  0.34159  1.0000
  H   H1672     1.0  0.70855  0.05613  0.31324  1.0000
  H   H1673     1.0  0.78729  0.15156  0.40034  1.0000
  H   H1674     1.0  0.98370  0.24134  0.33269  1.0000
  Fe  Fe191     1.0  0.68201  0.09497  0.42252  1.0000
  H   H1675     1.0  0.76168  0.21757  0.27336  1.0000
  C   C1419     1.0  0.74932  0.27237  0.25112  1.0000
  C   C1420     1.0  0.76379  0.23636  0.26784  1.0000
  H   H1676     1.0  0.76924  0.30363  0.24808  1.0000
  H   H1677     1.0  0.99653  0.46036  0.39259  1.0000
  H   H1678     1.0  0.94002  0.31087  0.35863  1.0000
  H   H1679     1.0  0.98541  0.32658  0.48399  1.0000
  C   C1421     1.0  0.70305  0.15561  0.25525  1.0000
  C   C1422     1.0  0.68591  0.12687  0.38454  1.0000
  H   H1680     1.0  0.96171  0.47375  0.43458  1.0000
  H   H1681     1.0  0.75123  0.14945  0.34277  1.0000
  H   H1682     1.0  0.90024  0.48515  0.43348  1.0000
  C   C1423     1.0  0.92306  0.36366  0.46723  1.0000
  C   C1424     1.0  0.76860  0.28489  0.25384  1.0000
  C   C1425     1.0  0.70838  0.05305  0.33675  1.0000
  C   C1426     1.0  0.78623  0.27331  0.26368  1.0000
  H   H1683     1.0  0.77809  0.12826  0.34844  1.0000
  H   H1684     1.0  0.91900  0.46962  0.47778  1.0000
  H   H1685     1.0  0.93013  0.35661  0.45679  1.0000
  N   N94       1.0  0.80637  0.28624  0.26724  1.0000
  C   C1427     1.0  0.85499  0.34946  0.46827  1.0000
  C   C1428     1.0  0.90653  0.38619  0.46760  1.0000
  H   H1686     1.0  0.73042  0.17314  0.36147  1.0000
  C   C1429     1.0  0.87963  0.31375  0.45744  1.0000
  H   H1687     1.0  0.88464  0.41262  0.48151  1.0000
  C   C1430     1.0  0.88965  0.30561  0.47077  1.0000
  H   H1688     1.0  0.71316  0.17003  0.38748  1.0000
  H   H1689     1.0  0.94123  0.25073  0.34128  1.0000
  H   H1690     1.0  0.92863  0.27728  0.35064  1.0000
  C   C1431     1.0  0.83111  0.26988  0.26561  1.0000
  S   S381      1.0  0.69671  0.13102  0.34003  1.0000
  H   H1691     1.0  0.81554  0.30123  0.28598  1.0000
  H   H1692     1.0  0.78229  0.30422  0.28455  1.0000
  H   H1693     1.0  0.78033  0.14715  0.33085  1.0000
  H   H1694     1.0  0.90349  0.28886  0.47175  1.0000
  C   C1432     1.0  0.97187  0.35594  0.32635  1.0000
  H   H1695     1.0  0.98539  0.29812  0.32827  1.0000
  H   H1696     1.0  0.71239  0.07213  0.33650  1.0000
  H   H1697     1.0  0.69153  0.13069  0.24205  1.0000
  H   H1698     1.0  0.69265  0.21949  0.24896  1.0000
  S   S382      1.0  0.71374  0.11138  0.40767  1.0000
  H   H1699     1.0  0.92734  0.50426  0.45799  1.0000
  H   H1700     1.0  0.79953  0.27444  0.29067  1.0000
  C   C1433     1.0  0.98598  0.46637  0.45175  1.0000
  C   C1434     1.0  0.76493  0.02249  0.30201  1.0000
  H   H1701     1.0  0.94559  0.41382  0.46798  1.0000
  C   C1435     1.0  0.70153  0.01932  0.32380  1.0000
  H   H1702     1.0  0.84213  0.36688  0.46778  1.0000
  H   H1703     1.0  0.80585  0.15534  0.37469  1.0000
  H   H1704     1.0  0.73614  0.28150  0.24354  1.0000
  C   C1436     1.0  0.00089  0.36526  0.43733  1.0000
  C   C1437     1.0  0.68158  0.19460  0.23548  1.0000
  H   H1705     1.0  0.96251  0.28208  0.32277  1.0000
  H   H1706     1.0  0.95340  0.36106  0.32264  1.0000
  C   C1438     1.0  0.97493  0.35746  0.34094  1.0000
  H   H1707     1.0  0.96916  0.38383  0.48276  1.0000
  N   N95       1.0  0.78016  0.16726  0.34945  1.0000
  C   C1439     1.0  0.77036  0.19214  0.34184  1.0000
  C   C1440     1.0  0.80813  0.16447  0.34674  1.0000
  C   C1441     1.0  0.77203  0.14722  0.34261  1.0000
  C   C1442     1.0  0.76997  0.16539  0.36530  1.0000
  C   C1443     1.0  0.78558  0.15908  0.37683  1.0000
  C   C1444     1.0  0.74354  0.16934  0.36958  1.0000
  C   C1445     1.0  0.77518  0.15693  0.39169  1.0000
  C   C1446     1.0  0.73342  0.16755  0.38446  1.0000
  C   C1447     1.0  0.74917  0.16113  0.39548  1.0000
  H   H1708     1.0  0.77473  0.20776  0.34727  1.0000
  H   H1709     1.0  0.77875  0.19473  0.33011  1.0000
  H   H1710     1.0  0.74967  0.19457  0.34159  1.0000
  H   H1711     1.0  0.81561  0.17909  0.35153  1.0000
  H   H1712     1.0  0.81509  0.16651  0.33471  1.0000
  H   H1713     1.0  0.81686  0.14543  0.35120  1.0000
  C   C1448     1.0  0.70585  0.03741  0.35009  1.0000
  C   C1449     1.0  0.70092  0.01271  0.35041  1.0000
  H   H1714     1.0  0.70065  0.01312  0.31325  1.0000
  H   H1715     1.0  0.98836  0.49195  0.40759  1.0000
  H   H1716     1.0  0.99705  0.48120  0.44695  1.0000
  H   H1717     1.0  0.99116  0.23598  0.35117  1.0000
  C   C1450     1.0  0.98351  0.30809  0.38183  1.0000
  H   H1718     1.0  0.98653  0.31678  0.39121  1.0000
  H   H1719     1.0  0.94175  0.33179  0.48016  1.0000
  H   H1720     1.0  0.99852  0.42766  0.39915  1.0000
  C   C1451     1.0  0.00522  0.26158  0.30135  1.0000
  H   H1721     1.0  0.00071  0.38730  0.45497  1.0000
  C   C1452     1.0  0.88230  0.31918  0.48281  1.0000
  C   C1453     1.0  0.00569  0.49292  0.41181  1.0000
  Fe  Fe192     1.0  0.94214  0.34885  0.56244  1.0000
  S   S383      1.0  0.95151  0.38763  0.56242  1.0000
  S   S384      1.0  0.95057  0.31726  0.58074  1.0000
  Fe  Fe193     1.0  0.93077  0.35940  0.53023  1.0000
  S   S385      1.0  0.93835  0.39924  0.52772  1.0000
  S   S386      1.0  0.92826  0.33994  0.51047  1.0000
  Fe  Fe194     1.0  0.97149  0.38378  0.53968  1.0000
  H   H1722     1.0  0.79494  0.15492  0.71273  1.0000
  Fe  Fe195     1.0  0.91756  0.40041  0.55051  1.0000
  S   S387      1.0  0.89443  0.43706  0.55568  1.0000
  S   S388      1.0  0.96571  0.34380  0.54068  1.0000
  S   S389      1.0  0.90622  0.36160  0.55214  1.0000
  Fe  Fe196     1.0  0.76028  0.08378  0.69134  1.0000
  S   S390      1.0  0.71911  0.09922  0.69510  1.0000
  S   S391      1.0  0.76852  0.04240  0.70047  1.0000
  Fe  Fe197     1.0  0.77493  0.13420  0.67595  1.0000
  S   S392      1.0  0.73439  0.15181  0.67787  1.0000
  S   S393      1.0  0.79814  0.16516  0.66519  1.0000
  Fe  Fe198     1.0  0.73173  0.13338  0.70127  1.0000
  H   H1723     1.0  0.93088  0.29381  0.72443  1.0000
  Fe  Fe199     1.0  0.72546  0.11633  0.67151  1.0000
  S   S394      1.0  0.69437  0.11397  0.65797  1.0000
  S   S395      1.0  0.77261  0.11687  0.69969  1.0000
  S   S396      1.0  0.76609  0.09968  0.66733  1.0000
  Fe  Fe200     1.0  0.90491  0.27490  0.69918  1.0000
  S   S397      1.0  0.93120  0.23865  0.69721  1.0000
  S   S398      1.0  0.88368  0.27642  0.72214  1.0000
  Fe  Fe201     1.0  0.91358  0.29099  0.66606  1.0000
  S   S399      1.0  0.93967  0.25567  0.66190  1.0000
  S   S400      1.0  0.90316  0.32171  0.64767  1.0000
  Fe  Fe202     1.0  0.91151  0.23572  0.67780  1.0000
  S   S401      1.0  0.90168  0.19762  0.67461  1.0000
  Fe  Fe203     1.0  0.95676  0.26206  0.68169  1.0000
  C   C1454     1.0  0.97721  0.43556  0.49744  1.0000
  S   S402      1.0  0.88398  0.27067  0.68050  1.0000
  S   S403      1.0  0.93205  0.29874  0.68508  1.0000
  C   C1455     1.0  0.71299  0.10607  0.60878  1.0000
  C   C1456     1.0  0.68922  0.10258  0.61623  1.0000
  H   H1724     1.0  0.76039  0.01465  0.53747  1.0000
  H   H1725     1.0  0.97177  0.38635  0.50152  1.0000
  S   S404      1.0  0.71852  0.10809  0.58943  1.0000
  C   C1457     1.0  0.90962  0.49376  0.49512  1.0000
  H   H1726     1.0  0.74799  0.01289  0.64355  1.0000
  H   H1727     1.0  0.75365  0.04763  0.53899  1.0000
  C   C1458     1.0  0.89100  0.50316  0.52474  1.0000
  H   H1728     1.0  0.97066  0.35767  0.59374  1.0000
  H   H1729     1.0  0.87637  0.49363  0.52135  1.0000
  H   H1730     1.0  0.75345  0.04581  0.49924  1.0000
  C   C1459     1.0  0.71837  0.05921  0.52121  1.0000
  H   H1731     1.0  0.78527  0.03724  0.66930  1.0000
  C   C1460     1.0  0.70266  0.10914  0.63932  1.0000
  C   C1461     1.0  0.73192  0.11007  0.61675  1.0000
  C   C1462     1.0  0.72678  0.11157  0.63203  1.0000
  H   H1732     1.0  0.75035  0.11283  0.61102  1.0000
  H   H1733     1.0  0.74120  0.11548  0.63803  1.0000
  C   C1463     1.0  0.82511  0.17391  0.67093  1.0000
  C   C1464     1.0  0.84532  0.15598  0.67488  1.0000
  C   C1465     1.0  0.86834  0.16364  0.67654  1.0000
  C   C1466     1.0  0.87122  0.18929  0.67469  1.0000
  C   C1467     1.0  0.85045  0.20729  0.67170  1.0000
  C   C1468     1.0  0.82769  0.19960  0.66955  1.0000
  H   H1734     1.0  0.84377  0.13615  0.67574  1.0000
  H   H1735     1.0  0.88429  0.14956  0.67881  1.0000
  H   H1736     1.0  0.85223  0.22708  0.67034  1.0000
  H   H1737     1.0  0.81229  0.21363  0.66630  1.0000
  H   H1738     1.0  0.83847  0.44177  0.72697  1.0000
  H   H1739     1.0  0.71745  0.05073  0.60467  1.0000
  C   C1469     1.0  0.67731  0.05233  0.68383  1.0000
  H   H1740     1.0  0.73572  0.05239  0.62749  1.0000
  C   C1470     1.0  0.71851  0.01032  0.60807  1.0000
  H   H1741     1.0  0.89384  0.32846  0.71477  1.0000
  C   C1471     1.0  0.91439  0.46003  0.55473  1.0000
  H   H1742     1.0  0.98620  0.24583  0.72380  1.0000
  H   H1743     1.0  0.96102  0.32990  0.64375  1.0000
  H   H1744     1.0  0.94699  0.43745  0.54473  1.0000
  Fe  Fe204     1.0  0.68944  0.09415  0.57870  1.0000
  H   H1745     1.0  0.73366  0.03208  0.66507  1.0000
  C   C1472     1.0  0.92051  0.35853  0.49409  1.0000
  C   C1473     1.0  0.90454  0.38143  0.49443  1.0000
  C   C1474     1.0  0.77057  0.19729  0.70118  1.0000
  C   C1475     1.0  0.90503  0.48348  0.55959  1.0000
  H   H1746     1.0  0.89715  0.38821  0.50492  1.0000
  C   C1476     1.0  0.68641  0.02515  0.66430  1.0000
  H   H1747     1.0  0.94634  0.40508  0.49305  1.0000
  C   C1477     1.0  0.93732  0.31906  0.59926  1.0000
  C   C1478     1.0  0.91897  0.33893  0.60328  1.0000
  C   C1479     1.0  0.90868  0.33953  0.61817  1.0000
  C   C1480     1.0  0.91672  0.32038  0.62912  1.0000
  C   C1481     1.0  0.93537  0.30074  0.62510  1.0000
  C   C1482     1.0  0.94560  0.30008  0.61023  1.0000
  H   H1748     1.0  0.91251  0.35369  0.59490  1.0000
  H   H1749     1.0  0.89431  0.35484  0.62120  1.0000
  H   H1750     1.0  0.94218  0.28627  0.63345  1.0000
  H   H1751     1.0  0.96005  0.28483  0.60721  1.0000
  H   H1752     1.0  0.99005  0.45010  0.49528  1.0000
  C   C1483     1.0  0.77934  0.01968  0.67466  1.0000
  H   H1753     1.0  0.72962  0.02828  0.54540  1.0000
  C   C1484     1.0  0.78427  0.16701  0.72102  1.0000
  C   C1485     1.0  0.73269  0.03443  0.62466  1.0000
  H   H1754     1.0  0.90589  0.47785  0.50318  1.0000
  C   C1486     1.0  0.72228  0.03345  0.61184  1.0000
  H   H1755     1.0  0.79415  0.16264  0.73103  1.0000
  H   H1756     1.0  0.97465  0.47019  0.54227  1.0000
  H   H1757     1.0  0.71555  0.03324  0.49657  1.0000
  C   C1487     1.0  0.92064  0.50239  0.55790  1.0000
  H   H1758     1.0  0.98835  0.42107  0.55575  1.0000
  H   H1759     1.0  0.72786  0.05121  0.67989  1.0000
  C   C1488     1.0  0.99759  0.30764  0.64175  1.0000
  C   C1489     1.0  0.71922  0.04536  0.67089  1.0000
  H   H1760     1.0  0.88518  0.36426  0.72979  1.0000
  C   C1490     1.0  0.77094  0.01709  0.68980  1.0000
  C   C1491     1.0  0.68412  0.10412  0.63145  1.0000
  H   H1761     1.0  0.90812  0.48917  0.52630  1.0000
  H   H1762     1.0  0.73439  0.22382  0.71510  1.0000
  N   N96       1.0  0.69636  0.03351  0.67667  1.0000
  H   H1763     1.0  0.81934  0.19661  0.72057  1.0000
  C   C1492     1.0  0.94573  0.49764  0.55158  1.0000
  H   H1764     1.0  0.76525  0.16098  0.72408  1.0000
  N   N97       1.0  0.89350  0.23900  0.63070  1.0000
  C   C1493     1.0  0.89323  0.25444  0.61603  1.0000
  C   C1494     1.0  0.88427  0.25562  0.64236  1.0000
  C   C1495     1.0  0.92017  0.22860  0.63235  1.0000
  C   C1496     1.0  0.87688  0.21935  0.63199  1.0000
  C   C1497     1.0  0.88498  0.19345  0.63648  1.0000
  C   C1498     1.0  0.85141  0.22601  0.62922  1.0000
  C   C1499     1.0  0.86874  0.17545  0.63762  1.0000
  C   C1500     1.0  0.83532  0.20782  0.63044  1.0000
  C   C1501     1.0  0.84403  0.18258  0.63454  1.0000
  H   H1765     1.0  0.89826  0.24236  0.60692  1.0000
  H   H1766     1.0  0.87464  0.26588  0.61461  1.0000
  H   H1767     1.0  0.90682  0.26829  0.61435  1.0000
  H   H1768     1.0  0.86466  0.26504  0.64157  1.0000
  H   H1769     1.0  0.89609  0.27086  0.64177  1.0000
  H   H1770     1.0  0.88456  0.24468  0.65353  1.0000
  H   H1771     1.0  0.92807  0.21536  0.62411  1.0000
  H   H1772     1.0  0.93240  0.24369  0.63073  1.0000
  H   H1773     1.0  0.92217  0.21862  0.64366  1.0000
  H   H1774     1.0  0.90352  0.18665  0.63964  1.0000
  H   H1775     1.0  0.84358  0.24541  0.62640  1.0000
  H   H1776     1.0  0.87505  0.15592  0.64147  1.0000
  H   H1777     1.0  0.81579  0.21331  0.62859  1.0000
  C   C1502     1.0  0.95113  0.28583  0.72346  1.0000
  H   H1778     1.0  0.89053  0.31314  0.49303  1.0000
  H   H1779     1.0  0.76860  0.21722  0.69603  1.0000
  C   C1503     1.0  0.73947  0.01226  0.63372  1.0000
  H   H1780     1.0  0.95463  0.27555  0.71355  1.0000
  C   C1504     1.0  0.75886  0.03998  0.51056  1.0000
  S   S405      1.0  0.70245  0.07549  0.55819  1.0000
  N   N98       1.0  0.73677  0.03581  0.52167  1.0000
  C   C1505     1.0  0.88360  0.32631  0.72574  1.0000
  S   S406      1.0  0.71320  0.16259  0.71627  1.0000
  H   H1781     1.0  0.83130  0.16862  0.63592  1.0000
  C   C1506     1.0  0.71514  0.01655  0.50454  1.0000
  S   S407      1.0  0.99965  0.25494  0.67939  1.0000
  C   C1507     1.0  0.95520  0.47403  0.54707  1.0000
  H   H1782     1.0  0.80720  0.22166  0.70742  1.0000
  H   H1783     1.0  0.99198  0.29385  0.69918  1.0000
  C   C1508     1.0  0.98240  0.33955  0.62263  1.0000
  H   H1784     1.0  0.71253  0.06552  0.51004  1.0000
  H   H1785     1.0  0.77273  0.02250  0.51015  1.0000
  H   H1786     1.0  0.81892  0.19088  0.70214  1.0000
  H   H1787     1.0  0.71066  0.01056  0.59790  1.0000
  H   H1788     1.0  0.88562  0.48712  0.56449  1.0000
  H   H1789     1.0  0.72606  0.07531  0.52435  1.0000
  C   C1509     1.0  0.93955  0.45537  0.54853  1.0000
  H   H1790     1.0  0.95748  0.44536  0.49799  1.0000
  H   H1791     1.0  0.94355  0.23747  0.73079  1.0000
  H   H1792     1.0  0.76868  0.05515  0.51309  1.0000
  H   H1793     1.0  0.68386  0.05793  0.69366  1.0000
  H   H1794     1.0  0.70106  0.05649  0.52899  1.0000
  C   C1510     1.0  0.67821  0.04303  0.65257  1.0000
  C   C1511     1.0  0.80794  0.20113  0.71120  1.0000
  H   H1795     1.0  0.98338  0.38164  0.60110  1.0000
  C   C1512     1.0  0.87558  0.30325  0.73158  1.0000
  C   C1513     1.0  0.76764  0.20922  0.72651  1.0000
  H   H1796     1.0  0.75181  0.19073  0.70297  1.0000
  N   N99       1.0  0.78220  0.19406  0.71511  1.0000
  C   C1514     1.0  0.96666  0.39750  0.49100  1.0000
  H   H1797     1.0  0.98760  0.33564  0.50919  1.0000
  H   H1798     1.0  0.69800  0.15349  0.61552  1.0000
  H   H1799     1.0  0.97986  0.42556  0.50866  1.0000
  H   H1800     1.0  0.96662  0.35299  0.61934  1.0000
  H   H1801     1.0  0.78208  0.18587  0.69283  1.0000
  H   H1802     1.0  0.96212  0.30194  0.72119  1.0000
  H   H1803     1.0  0.71535  0.06249  0.66295  1.0000
  C   C1515     1.0  0.68868  0.17174  0.61052  1.0000
  H   H1804     1.0  0.68406  0.19539  0.63394  1.0000
  C   C1516     1.0  0.97885  0.32628  0.63678  1.0000
  C   C1517     1.0  0.74551  0.03128  0.53651  1.0000
  H   H1805     1.0  0.67910  0.06278  0.65255  1.0000
  C   C1518     1.0  0.74357  0.22342  0.72479  1.0000
  C   C1519     1.0  0.72505  0.01479  0.51817  1.0000
  N   N100      1.0  0.98236  0.41796  0.48606  1.0000
  H   H1806     1.0  0.99438  0.29688  0.65257  1.0000
  H   H1807     1.0  0.79081  0.45225  0.73178  1.0000
  Fe  Fe205     1.0  0.67971  0.04583  0.56950  1.0000
  H   H1808     1.0  0.86012  0.35204  0.49079  1.0000
  H   H1809     1.0  0.71125  0.01946  0.69732  1.0000
  C   C1520     1.0  0.98783  0.36665  0.59365  1.0000
  H   H1810     1.0  0.70209  0.18556  0.60987  1.0000
  C   C1521     1.0  0.00525  0.33472  0.61306  1.0000
  C   C1522     1.0  0.00273  0.33132  0.48674  1.0000
  H   H1811     1.0  0.97730  0.49258  0.58067  1.0000
  H   H1812     1.0  0.99762  0.27051  0.73058  1.0000
  C   C1523     1.0  0.98413  0.25655  0.73349  1.0000
  C   C1524     1.0  0.00405  0.33646  0.50096  1.0000
  H   H1813     1.0  0.67864  0.16376  0.64001  1.0000
  H   H1814     1.0  0.68668  0.16946  0.59897  1.0000
  C   C1525     1.0  0.70334  0.01268  0.68831  1.0000
  H   H1815     1.0  0.99873  0.31707  0.58887  1.0000
  H   H1816     1.0  0.99183  0.37637  0.58225  1.0000
  H   H1817     1.0  0.71194  0.24796  0.73440  1.0000
  H   H1818     1.0  0.67439  0.09988  0.61017  1.0000
  H   H1819     1.0  0.67336  0.07011  0.67636  1.0000
  C   C1526     1.0  0.87870  0.34654  0.73427  1.0000
  Fe  Fe206     1.0  0.80107  0.34320  0.80602  1.0000
  S   S408      1.0  0.84300  0.33235  0.80039  1.0000
  S   S409      1.0  0.77749  0.31153  0.81463  1.0000
  Fe  Fe207     1.0  0.80636  0.39978  0.80242  1.0000
  S   S410      1.0  0.84810  0.39232  0.79681  1.0000
  S   S411      1.0  0.78736  0.44002  0.80401  1.0000
  Fe  Fe208     1.0  0.84001  0.36504  0.78246  1.0000
  S   S412      1.0  0.86069  0.36926  0.75920  1.0000
  Fe  Fe209     1.0  0.84681  0.36072  0.81528  1.0000
  S   S413      1.0  0.87620  0.35392  0.83117  1.0000
  S   S414      1.0  0.79776  0.37421  0.78704  1.0000
  S   S415      1.0  0.80533  0.36977  0.82200  1.0000
  Fe  Fe210     1.0  0.88052  0.40731  0.90514  1.0000
  S   S416      1.0  0.89751  0.44223  0.90565  1.0000
  S   S417      1.0  0.85189  0.40714  0.88961  1.0000
  Fe  Fe211     1.0  0.90364  0.38020  0.93234  1.0000
  S   S418      1.0  0.92289  0.41237  0.93521  1.0000
  S   S419      1.0  0.90480  0.34371  0.94739  1.0000
  Fe  Fe212     1.0  0.88670  0.43605  0.93009  1.0000
  S   S420      1.0  0.87066  0.46867  0.94247  1.0000
  Fe  Fe213     1.0  0.93231  0.41581  0.91055  1.0000
  S   S421      1.0  0.96983  0.42603  0.90003  1.0000
  S   S422      1.0  0.86634  0.40360  0.92939  1.0000
  S   S423      1.0  0.91645  0.38111  0.90792  1.0000
  C   C1527     1.0  0.89400  0.48817  0.94053  1.0000
  C   C1528     1.0  0.91751  0.48133  0.93256  1.0000
  H   H1820     1.0  0.92139  0.46413  0.92754  1.0000
  H   H1821     1.0  0.88020  0.27911  0.86702  1.0000
  H   H1822     1.0  0.68096  0.29270  0.86739  1.0000
  C   C1529     1.0  0.69000  0.15182  0.76627  1.0000
  C   C1530     1.0  0.68407  0.29063  0.83854  1.0000
  C   C1531     1.0  0.71057  0.13457  0.84111  1.0000
  H   H1823     1.0  0.79510  0.19879  0.74231  1.0000
  H   H1824     1.0  0.82271  0.34245  0.87138  1.0000
  C   C1532     1.0  0.80407  0.46617  0.79880  1.0000
  C   C1533     1.0  0.82782  0.46380  0.79048  1.0000
  C   C1534     1.0  0.79610  0.47990  0.75980  1.0000
  C   C1535     1.0  0.70473  0.13343  0.74329  1.0000
  H   H1825     1.0  0.99319  0.27709  0.75498  1.0000
  H   H1826     1.0  0.83642  0.44580  0.78722  1.0000
  H   H1827     1.0  0.96932  0.38087  0.92066  1.0000
  N   N101      1.0  0.86408  0.45122  0.83060  1.0000
  C   C1536     1.0  0.86920  0.36799  0.84768  1.0000
  C   C1537     1.0  0.88787  0.36621  0.85705  1.0000
  C   C1538     1.0  0.88291  0.37812  0.87000  1.0000
  C   C1539     1.0  0.85915  0.39167  0.87366  1.0000
  C   C1540     1.0  0.84047  0.39321  0.86438  1.0000
  C   C1541     1.0  0.84548  0.38145  0.85144  1.0000
  H   H1828     1.0  0.90628  0.35579  0.85420  1.0000
  H   H1829     1.0  0.89746  0.37690  0.87706  1.0000
  H   H1830     1.0  0.82201  0.40355  0.86721  1.0000
  H   H1831     1.0  0.83090  0.38277  0.84441  1.0000
  C   C1542     1.0  0.86570  0.34383  0.74862  1.0000
  C   C1543     1.0  0.85739  0.32089  0.75435  1.0000
  H   H1832     1.0  0.86810  0.43678  0.85350  1.0000
  C   C1544     1.0  0.70114  0.00562  0.97574  1.0000
  C   C1545     1.0  0.70340  0.24798  0.84467  1.0000
  H   H1833     1.0  0.78068  0.47040  0.76546  1.0000
  H   H1834     1.0  0.84733  0.31863  0.76538  1.0000
  C   C1546     1.0  0.81626  0.46725  0.75077  1.0000
  H   H1835     1.0  0.81527  0.40462  0.76117  1.0000
  C   C1547     1.0  0.75645  0.29932  0.80533  1.0000
  C   C1548     1.0  0.74756  0.27670  0.81164  1.0000
  C   C1549     1.0  0.72890  0.26748  0.80557  1.0000
  C   C1550     1.0  0.71899  0.28077  0.79307  1.0000
  C   C1551     1.0  0.72841  0.30301  0.78648  1.0000
  C   C1552     1.0  0.74703  0.31230  0.79259  1.0000
  H   H1836     1.0  0.75500  0.26643  0.82137  1.0000
  H   H1837     1.0  0.72098  0.31331  0.77674  1.0000
  H   H1838     1.0  0.75367  0.32974  0.78764  1.0000
  H   H1839     1.0  0.77499  0.49188  0.80953  1.0000
  H   H1840     1.0  0.89659  0.44419  0.84235  1.0000
  C   C1553     1.0  0.87816  0.44552  0.81612  1.0000
  H   H1841     1.0  0.88143  0.42490  0.81525  1.0000
  N   N102      1.0  0.68490  0.26876  0.85020  1.0000
  H   H1842     1.0  0.69973  0.19724  0.73741  1.0000
  C   C1554     1.0  0.70689  0.08912  0.86378  1.0000
  C   C1555     1.0  0.92355  0.50066  0.87478  1.0000
  N   N103      1.0  0.95787  0.26907  0.73690  1.0000
  H   H1843     1.0  0.98690  0.44854  0.92639  1.0000
  C   C1556     1.0  0.69918  0.17858  0.74332  1.0000
  H   H1844     1.0  0.80044  0.43028  0.77104  1.0000
  C   C1557     1.0  0.67733  0.07935  0.88537  1.0000
  C   C1558     1.0  0.94604  0.31350  0.77338  1.0000
  H   H1845     1.0  0.89692  0.45212  0.81434  1.0000
  H   H1846     1.0  0.85491  0.42018  0.96358  1.0000
  C   C1559     1.0  0.98818  0.38579  0.91879  1.0000
  H   H1847     1.0  0.72988  0.24800  0.75758  1.0000
  H   H1848     1.0  0.92095  0.25701  0.74158  1.0000
  C   C1560     1.0  0.73030  0.23732  0.73587  1.0000
  H   H1849     1.0  0.87416  0.49326  0.80977  1.0000
  C   C1561     1.0  0.68482  0.33077  0.81509  1.0000
  H   H1850     1.0  0.71699  0.06666  0.88397  1.0000
  H   H1851     1.0  0.82695  0.45426  0.82424  1.0000
  H   H1852     1.0  0.84265  0.47318  0.85536  1.0000
  H   H1853     1.0  0.70486  0.23100  0.85304  1.0000
  H   H1854     1.0  0.88361  0.41644  0.84053  1.0000
  C   C1562     1.0  0.90300  0.32193  0.97593  1.0000
  H   H1855     1.0  0.84115  0.42262  0.82922  1.0000
  H   H1856     1.0  0.85103  0.50215  0.90231  1.0000
  C   C1563     1.0  0.94127  0.24915  0.74005  1.0000
  C   C1564     1.0  0.70422  0.30523  0.83527  1.0000
  H   H1857     1.0  0.84460  0.34588  0.98338  1.0000
  C   C1565     1.0  0.81635  0.42444  0.76260  1.0000
  C   C1566     1.0  0.83628  0.48105  0.74447  1.0000
  H   H1858     1.0  0.94527  0.23644  0.75029  1.0000
  H   H1859     1.0  0.72432  0.08764  0.83425  1.0000
  C   C1567     1.0  0.70427  0.32524  0.82389  1.0000
  S   S424      1.0  0.69560  0.04957  0.92547  1.0000
  H   H1860     1.0  0.83414  0.42429  0.76733  1.0000
  C   C1568     1.0  0.69278  0.27533  0.86382  1.0000
  C   C1569     1.0  0.77720  0.20951  0.74005  1.0000
  C   C1570     1.0  0.98691  0.44293  0.93852  1.0000
  H   H1861     1.0  0.67870  0.17030  0.87731  1.0000
  C   C1571     1.0  0.74033  0.23733  0.74897  1.0000
  C   C1572     1.0  0.86636  0.49734  0.82078  1.0000
  C   C1573     1.0  0.70569  0.15750  0.73560  1.0000
  H   H1862     1.0  0.95406  0.49191  0.92433  1.0000
  C   C1574     1.0  0.93019  0.29709  0.75403  1.0000
  H   H1863     1.0  0.89328  0.28336  0.89075  1.0000
  H   H1864     1.0  0.69117  0.25996  0.87316  1.0000
  C   C1575     1.0  0.99054  0.43121  0.96943  1.0000
  H   H1865     1.0  0.99020  0.24284  0.74293  1.0000
  H   H1866     1.0  0.83923  0.47943  0.98224  1.0000
  H   H1867     1.0  0.77539  0.44323  0.74995  1.0000
  H   H1868     1.0  0.85853  0.48300  0.77939  1.0000
  H   H1869     1.0  0.72072  0.30077  0.84099  1.0000
  H   H1870     1.0  0.70965  0.11707  0.73741  1.0000
  H   H1871     1.0  0.72255  0.25352  0.84160  1.0000
  C   C1576     1.0  0.92619  0.31167  0.76572  1.0000
  H   H1872     1.0  0.90755  0.32168  0.76880  1.0000
  H   H1873     1.0  0.69781  0.24212  0.83462  1.0000
  H   H1874     1.0  0.67357  0.07030  0.89659  1.0000
  C   C1577     1.0  0.96997  0.30082  0.76933  1.0000
  H   H1875     1.0  0.77139  0.22342  0.76131  1.0000
  H   H1876     1.0  0.83682  0.41075  0.73656  1.0000
  H   H1877     1.0  0.85590  0.43001  0.74257  1.0000
  C   C1578     1.0  0.83928  0.44226  0.83193  1.0000
  H   H1878     1.0  0.70876  0.00933  0.95200  1.0000
  H   H1879     1.0  0.71283  0.27840  0.86235  1.0000
  H   H1880     1.0  0.88487  0.44252  0.97026  1.0000
  C   C1579     1.0  0.98048  0.35975  0.97823  1.0000
  C   C1580     1.0  0.99383  0.40648  0.90865  1.0000
  C   C1581     1.0  0.84044  0.48492  0.78615  1.0000
  H   H1881     1.0  0.88536  0.46456  0.98292  1.0000
  C   C1582     1.0  0.69674  0.13063  0.75861  1.0000
  C   C1583     1.0  0.84871  0.48648  0.84615  1.0000
  N   N104      1.0  0.69333  0.11596  0.84088  1.0000
  C   C1584     1.0  0.79334  0.48983  0.80305  1.0000
  H   H1882     1.0  0.67590  0.13834  0.82268  1.0000
  N   N105      1.0  0.87519  0.31988  0.90903  1.0000
  C   C1585     1.0  0.87012  0.29829  0.92029  1.0000
  C   C1586     1.0  0.90276  0.32079  0.90657  1.0000
  C   C1587     1.0  0.86291  0.34328  0.91525  1.0000
  C   C1588     1.0  0.86618  0.31670  0.89505  1.0000
  C   C1589     1.0  0.84565  0.33288  0.88920  1.0000
  C   C1590     1.0  0.87795  0.29676  0.88686  1.0000
  C   C1591     1.0  0.83803  0.32958  0.87582  1.0000
  C   C1592     1.0  0.87046  0.29396  0.87334  1.0000
  C   C1593     1.0  0.85067  0.31048  0.86777  1.0000
  H   H1883     1.0  0.88004  0.28010  0.91683  1.0000
  H   H1884     1.0  0.87650  0.30024  0.93102  1.0000
  H   H1885     1.0  0.84961  0.29684  0.92239  1.0000
  H   H1886     1.0  0.91395  0.30253  0.90415  1.0000
  H   H1887     1.0  0.90976  0.32551  0.91652  1.0000
  H   H1888     1.0  0.90759  0.33520  0.89714  1.0000
  H   H1889     1.0  0.84230  0.34330  0.91840  1.0000
  H   H1890     1.0  0.87059  0.34559  0.92549  1.0000
  H   H1891     1.0  0.86595  0.36025  0.90724  1.0000
  H   H1892     1.0  0.83553  0.34870  0.89450  1.0000
  C   C1594     1.0  0.83773  0.43064  0.73810  1.0000
  H   H1893     1.0  0.85615  0.28285  0.75045  1.0000
  H   H1894     1.0  0.91213  0.38272  0.96507  1.0000
  H   H1895     1.0  0.82896  0.44256  0.84325  1.0000
  S   S425      1.0  0.69491  0.27019  0.78538  1.0000
  H   H1896     1.0  0.71383  0.14612  0.83017  1.0000
  H   H1897     1.0  0.72223  0.25008  0.81051  1.0000
  C   C1595     1.0  0.97419  0.28626  0.75757  1.0000
  C   C1596     1.0  0.90621  0.34400  0.96642  1.0000
  H   H1898     1.0  0.84946  0.37714  0.96128  1.0000
  S   S426      1.0  0.67833  0.14817  0.78522  1.0000
  C   C1597     1.0  0.86233  0.30068  0.74585  1.0000
  H   H1899     1.0  0.98538  0.30238  0.77531  1.0000
  C   C1598     1.0  0.68737  0.10338  0.85608  1.0000
  H   H1900     1.0  0.94281  0.32482  0.78246  1.0000
  H   H1901     1.0  0.96780  0.45008  0.94377  1.0000
  C   C1599     1.0  0.00284  0.36547  0.96989  1.0000
  C   C1600     1.0  0.90979  0.36553  0.97230  1.0000
  H   H1902     1.0  0.70965  0.10586  0.81933  1.0000
  H   H1903     1.0  0.91420  0.29626  0.74847  1.0000
  H   H1904     1.0  0.84528  0.30872  0.85710  1.0000
  S   S427      1.0  0.69251  0.20079  0.80669  1.0000
  H   H1905     1.0  0.86749  0.45431  0.80684  1.0000
  N   N106      1.0  0.81595  0.44087  0.74834  1.0000
  H   H1906     1.0  0.83960  0.45851  0.96909  1.0000
  H   H1907     1.0  0.72020  0.33570  0.82142  1.0000
  H   H1908     1.0  0.70259  0.14783  0.84935  1.0000
  H   H1909     1.0  0.72934  0.12556  0.84409  1.0000
  C   C1601     1.0  0.86004  0.47833  0.83244  1.0000
  C   C1602     1.0  0.83723  0.45966  0.98114  1.0000
  C   C1603     1.0  0.69263  0.01938  0.92151  1.0000
  H   H1910     1.0  0.00248  0.35545  0.93446  1.0000
  H   H1911     1.0  0.93951  0.48597  0.87602  1.0000
  C   C1604     1.0  0.87868  0.43664  0.84224  1.0000
  H   H1912     1.0  0.90032  0.30522  0.97151  1.0000
  H   H1913     1.0  0.79243  0.41960  0.73939  1.0000
  H   H1914     1.0  0.97630  0.42366  0.96501  1.0000
  H   H1915     1.0  0.68677  0.19220  0.76439  1.0000
  C   C1605     1.0  0.95427  0.28397  0.74954  1.0000
  C   C1606     1.0  0.70585  0.09707  0.83100  1.0000
  C   C1607     1.0  0.88158  0.44520  0.98216  1.0000
  H   H1916     1.0  0.98499  0.48928  0.94697  1.0000
  H   H1917     1.0  0.69812  0.02581  0.97613  1.0000
  C   C1608     1.0  0.76373  0.22343  0.75105  1.0000
  H   H1918     1.0  0.68555  0.34557  0.80587  1.0000
  H   H1919     1.0  0.87702  0.49828  0.91276  1.0000
  H   H1920     1.0  0.98964  0.42196  0.94011  1.0000
  H   H1921     1.0  0.72627  0.08723  0.85876  1.0000
  H   H1922     1.0  0.69560  0.11202  0.76450  1.0000
  C   C1609     1.0  0.70185  0.07732  0.87820  1.0000
  C   C1610     1.0  0.69159  0.17577  0.75860  1.0000
  C   C1611     1.0  0.79264  0.43898  0.74208  1.0000
  C   C1612     1.0  0.79580  0.50485  0.76218  1.0000
  C   C1613     1.0  0.93607  0.49711  0.93071  1.0000
  C   C1614     1.0  0.85188  0.40746  0.97363  1.0000
  H   H1923     1.0  0.69384  0.08217  0.83105  1.0000
  H   H1924     1.0  0.85265  0.47296  0.73770  1.0000
  C   C1615     1.0  0.84873  0.38286  0.97216  1.0000
  H   H1925     1.0  0.00333  0.37143  0.95813  1.0000
  H   H1926     1.0  0.91277  0.49901  0.89793  1.0000
  H   H1927     1.0  0.00138  0.48672  0.92879  1.0000
  C   C1616     1.0  0.00279  0.48088  0.94077  1.0000
  H   H1928     1.0  0.73276  0.00831  0.91777  1.0000
  H   H1929     1.0  0.96357  0.36113  0.97297  1.0000
  Fe  Fe214     1.0  0.67395  0.23817  0.79688  1.0000
  Fe  Fe215     1.0  0.80899  0.62757  0.18320  1.0000
  S   S428      1.0  0.83857  0.65083  0.17191  1.0000
  S   S429      1.0  0.76882  0.64429  0.19062  1.0000
  Fe  Fe216     1.0  0.84586  0.57842  0.18393  1.0000
  S   S430      1.0  0.87812  0.59843  0.17272  1.0000
  S   S431      1.0  0.85742  0.53657  0.19053  1.0000
  Fe  Fe217     1.0  0.86336  0.62791  0.18792  1.0000
  S   S432      1.0  0.89166  0.64557  0.19765  1.0000
  Fe  Fe218     1.0  0.85061  0.61929  0.15784  1.0000
  S   S433      1.0  0.85763  0.62787  0.13299  1.0000
  S   S434      1.0  0.83304  0.60653  0.20029  1.0000
  S   S435      1.0  0.81910  0.59743  0.16794  1.0000
  C   C1617     1.0  0.67734  0.84504  0.11660  1.0000
  H   H1930     1.0  0.84913  0.75512  0.19443  1.0000
  S   S436      1.0  0.73212  0.76074  0.17331  1.0000
  H   H1931     1.0  0.89864  0.66187  0.12721  1.0000
  Fe  Fe219     1.0  0.97193  0.55412  0.04271  1.0000
  S   S437      1.0  0.93413  0.56635  0.05501  1.0000
  H   H1932     1.0  0.87731  0.55780  0.11596  1.0000
  Fe  Fe220     1.0  0.98979  0.60444  0.04194  1.0000
  S   S438      1.0  0.95392  0.62125  0.05443  1.0000
  H   H1933     1.0  0.92614  0.65432  0.10473  1.0000
  Fe  Fe221     1.0  0.95552  0.58405  0.06885  1.0000
  S   S439      1.0  0.95213  0.57586  0.09376  1.0000
  Fe  Fe222     1.0  0.93563  0.60227  0.03942  1.0000
  S   S440      1.0  0.90116  0.62318  0.03001  1.0000
  H   H1934     1.0  0.83676  0.74041  0.21215  1.0000
  S   S441      1.0  0.97144  0.58827  0.02588  1.0000
  H   H1935     1.0  0.88131  0.59681  0.21110  1.0000
  H   H1936     1.0  0.70399  0.84195  0.21542  1.0000
  H   H1937     1.0  0.83766  0.74084  0.17135  1.0000
  C   C1618     1.0  0.76734  0.71045  0.21530  1.0000
  C   C1619     1.0  0.70854  0.91840  0.00080  1.0000
  C   C1620     1.0  0.89231  0.56886  0.01337  1.0000
  H   H1938     1.0  0.00030  0.53175  0.09441  1.0000
  C   C1621     1.0  0.97063  0.64567  0.12862  1.0000
  H   H1939     1.0  0.85170  0.65189  0.98932  1.0000
  C   C1622     1.0  0.87451  0.63979  0.00696  1.0000
  H   H1940     1.0  0.81875  0.56746  0.14051  1.0000
  H   H1941     1.0  0.98048  0.63905  0.07810  1.0000
  H   H1942     1.0  0.93120  0.55566  0.01194  1.0000
  H   H1943     1.0  0.70184  0.90309  0.18346  1.0000
  C   C1623     1.0  0.87097  0.57548  0.00611  1.0000
  H   H1944     1.0  0.84617  0.55655  0.11122  1.0000
  C   C1624     1.0  0.88415  0.61325  0.12234  1.0000
  C   C1625     1.0  0.90325  0.59696  0.12891  1.0000
  C   C1626     1.0  0.92393  0.58543  0.12001  1.0000
  C   C1627     1.0  0.92560  0.59007  0.10455  1.0000
  C   C1628     1.0  0.90649  0.60631  0.09799  1.0000
  C   C1629     1.0  0.88586  0.61788  0.10688  1.0000
  H   H1945     1.0  0.90221  0.59342  0.14081  1.0000
  H   H1946     1.0  0.93875  0.57296  0.12514  1.0000
  H   H1947     1.0  0.90760  0.60999  0.08607  1.0000
  H   H1948     1.0  0.87110  0.63044  0.10174  1.0000
  C   C1630     1.0  0.75857  0.67663  0.18570  1.0000
  C   C1631     1.0  0.77297  0.69126  0.17508  1.0000
  C   C1632     1.0  0.76457  0.71700  0.17148  1.0000
  C   C1633     1.0  0.74184  0.72843  0.17855  1.0000
  C   C1634     1.0  0.72727  0.71383  0.18912  1.0000
  C   C1635     1.0  0.73551  0.68794  0.19256  1.0000
  H   H1949     1.0  0.79037  0.68264  0.16945  1.0000
  H   H1950     1.0  0.77560  0.72805  0.16303  1.0000
  H   H1951     1.0  0.70978  0.72247  0.19471  1.0000
  H   H1952     1.0  0.72424  0.67671  0.20079  1.0000
  H   H1953     1.0  0.67949  0.70738  0.17908  1.0000
  C   C1636     1.0  0.99199  0.61483  0.10422  1.0000
  H   H1954     1.0  0.92738  0.54514  0.22534  1.0000
  H   H1955     1.0  0.67415  0.67807  0.16113  1.0000
  H   H1956     1.0  0.98023  0.53027  0.98483  1.0000
  H   H1957     1.0  0.88715  0.54256  0.14155  1.0000
  S   S442      1.0  0.67691  0.90760  0.04915  1.0000
  C   C1637     1.0  0.69893  0.98904  0.98882  1.0000
  H   H1958     1.0  0.95754  0.65333  0.99173  1.0000
  S   S443      1.0  0.69192  0.82119  0.18669  1.0000
  C   C1638     1.0  0.92840  0.65586  0.14095  1.0000
  H   H1959     1.0  0.85583  0.57756  0.98561  1.0000
  C   C1639     1.0  0.89782  0.62804  0.01099  1.0000
  H   H1960     1.0  0.86274  0.56746  0.14668  1.0000
  H   H1961     1.0  0.93406  0.52972  0.03635  1.0000
  H   H1962     1.0  0.85971  0.64626  0.01533  1.0000
  C   C1640     1.0  0.98185  0.51160  0.08168  1.0000
  H   H1963     1.0  0.81947  0.53657  0.15012  1.0000
  H   H1964     1.0  0.98952  0.67839  0.09674  1.0000
  H   H1965     1.0  0.85091  0.57944  0.12224  1.0000
  H   H1966     1.0  0.92243  0.66883  0.21308  1.0000
  H   H1967     1.0  0.93499  0.61070  0.00303  1.0000
  H   H1968     1.0  0.78133  0.74233  0.20270  1.0000
  C   C1641     1.0  0.69976  0.84538  0.22683  1.0000
  H   H1969     1.0  0.00187  0.60765  0.09388  1.0000
  C   C1642     1.0  0.00174  0.51513  0.08885  1.0000
  C   C1643     1.0  0.99848  0.65841  0.09843  1.0000
  C   C1644     1.0  0.82456  0.54717  0.13915  1.0000
  H   H1970     1.0  0.95290  0.62978  0.08908  1.0000
  C   C1645     1.0  0.95426  0.64998  0.14149  1.0000
  H   H1971     1.0  0.69942  0.87367  0.19487  1.0000
  H   H1972     1.0  0.71927  0.72243  0.15488  1.0000
  C   C1646     1.0  0.67382  0.94833  0.00920  1.0000
  H   H1973     1.0  0.91289  0.58134  0.20830  1.0000
  H   H1974     1.0  0.80922  0.53741  0.17960  1.0000
  C   C1647     1.0  0.86558  0.64973  0.22559  1.0000
  C   C1648     1.0  0.78627  0.72267  0.20667  1.0000
  H   H1975     1.0  0.71540  0.93814  0.02370  1.0000
  H   H1976     1.0  0.73595  0.95175  0.00857  1.0000
  C   C1649     1.0  0.91714  0.55440  0.99090  1.0000
  H   H1977     1.0  0.95957  0.52492  0.00141  1.0000
  C   C1650     1.0  0.86994  0.64290  0.99221  1.0000
  H   H1978     1.0  0.81277  0.54214  0.13136  1.0000
  H   H1979     1.0  0.88819  0.56744  0.20335  1.0000
  H   H1980     1.0  0.86181  0.70012  0.20333  1.0000
  H   H1981     1.0  0.87048  0.71813  0.18604  1.0000
  H   H1982     1.0  0.75694  0.67511  0.22621  1.0000
  C   C1651     1.0  0.77192  0.68476  0.22001  1.0000
  H   H1983     1.0  0.00235  0.64723  0.99456  1.0000
  H   H1984     1.0  0.99048  0.64067  0.12961  1.0000
  H   H1985     1.0  0.68601  0.88051  0.17776  1.0000
  H   H1986     1.0  0.79845  0.65099  0.21916  1.0000
  H   H1987     1.0  0.68769  0.82846  0.11217  1.0000
  S   S444      1.0  0.99332  0.56907  0.05766  1.0000
  C   C1652     1.0  0.85829  0.51487  0.13132  1.0000
  H   H1988     1.0  0.96158  0.64843  0.15198  1.0000
  H   H1989     1.0  0.74870  0.72074  0.21785  1.0000
  C   C1653     1.0  0.90558  0.66561  0.22052  1.0000
  C   C1654     1.0  0.93502  0.65331  0.11461  1.0000
  H   H1990     1.0  0.91567  0.65873  0.15098  1.0000
  C   C1655     1.0  0.85684  0.55948  0.12015  1.0000
  H   H1991     1.0  0.80502  0.74376  0.17878  1.0000
  C   C1656     1.0  0.71592  0.95175  0.01342  1.0000
  C   C1657     1.0  0.70325  0.96253  0.98867  1.0000
  C   C1658     1.0  0.91885  0.65768  0.12754  1.0000
  C   C1659     1.0  0.96670  0.64331  0.08793  1.0000
  H   H1992     1.0  0.81622  0.76006  0.20014  1.0000
  H   H1993     1.0  0.89137  0.57255  0.02473  1.0000
  H   H1994     1.0  0.86207  0.53635  0.15597  1.0000
  H   H1995     1.0  0.96516  0.52563  0.08162  1.0000
  N   N107      1.0  0.70058  0.94541  0.00268  1.0000
  C   C1660     1.0  0.81448  0.68324  0.20748  1.0000
  N   N108      1.0  0.97919  0.64109  0.10149  1.0000
  H   H1996     1.0  0.87378  0.52004  0.10784  1.0000
  H   H1997     1.0  0.72987  0.86760  0.22580  1.0000
  H   H1998     1.0  0.72848  0.91489  0.99571  1.0000
  H   H1999     1.0  0.95685  0.66269  0.08517  1.0000
  C   C1661     1.0  0.82321  0.73087  0.17867  1.0000
  C   C1662     1.0  0.79538  0.67118  0.21604  1.0000
  C   C1663     1.0  0.68656  0.92650  0.20862  1.0000
  H   H2000     1.0  0.97817  0.60181  0.10904  1.0000
  C   C1664     1.0  0.70808  0.70772  0.15328  1.0000
  C   C1665     1.0  0.81065  0.70954  0.20278  1.0000
  C   C1666     1.0  0.96152  0.64711  0.11477  1.0000
  Fe  Fe223     1.0  0.69381  0.78191  0.18082  1.0000
  C   C1667     1.0  0.91692  0.61979  0.00000  1.0000
  H   H2001     1.0  0.70882  0.97041  0.01729  1.0000
  H   H2002     1.0  0.85151  0.64032  0.22230  1.0000
  H   H2003     1.0  0.70700  0.90610  0.01160  1.0000
  C   C1668     1.0  0.86656  0.54720  0.14496  1.0000
  C   C1669     1.0  0.81845  0.51815  0.18089  1.0000
  H   H2004     1.0  0.71354  0.69121  0.16145  1.0000
  N   N109      1.0  0.83046  0.72294  0.19371  1.0000
  H   H2005     1.0  0.71023  0.74618  0.13403  1.0000
  C   C1670     1.0  0.88724  0.65385  0.21587  1.0000
  H   H2006     1.0  0.85592  0.69102  0.18616  1.0000
  C   C1671     1.0  0.85567  0.70734  0.19229  1.0000
  C   C1672     1.0  0.90761  0.54116  0.22789  1.0000
  H   H2007     1.0  0.85361  0.58428  0.01180  1.0000
  H   H2008     1.0  0.86107  0.54534  0.22045  1.0000
  C   C1673     1.0  0.89309  0.57804  0.21180  1.0000
  C   C1674     1.0  0.91522  0.55901  0.00585  1.0000
  H   H2009     1.0  0.68403  0.73925  0.17226  1.0000
  N   N110      1.0  0.85179  0.54173  0.13372  1.0000
  H   H2010     1.0  0.82080  0.71426  0.17339  1.0000
  C   C1675     1.0  0.83318  0.74559  0.20041  1.0000
  C   C1676     1.0  0.69207  0.93464  0.22138  1.0000
  H   H2011     1.0  0.69620  0.91146  0.99405  1.0000
  H   H2012     1.0  0.71423  0.70192  0.14206  1.0000
  C   C1677     1.0  0.84188  0.51260  0.18617  1.0000
  H   H2013     1.0  0.69555  0.78253  0.11748  1.0000
  H   H2014     1.0  0.90257  0.51100  0.02609  1.0000
  H   H2015     1.0  0.96651  0.55636  0.99466  1.0000
  S   S445      1.0  0.98767  0.51570  0.03643  1.0000
  S   S446      1.0  0.67357  0.86346  0.08773  1.0000
  C   C1678     1.0  0.93993  0.51302  0.03095  1.0000
  H   H2016     1.0  0.84873  0.57366  0.22834  1.0000
  H   H2017     1.0  0.90499  0.52838  0.21991  1.0000
  C   C1679     1.0  0.69012  0.75177  0.13467  1.0000
  H   H2018     1.0  0.69366  0.99717  0.99908  1.0000
  H   H2019     1.0  0.70548  0.94780  0.22061  1.0000
  C   C1680     1.0  0.67410  0.72353  0.17071  1.0000
  N   N111      1.0  0.68060  0.71680  0.15545  1.0000
  C   C1681     1.0  0.86356  0.55694  0.22908  1.0000
  C   C1682     1.0  0.87228  0.57168  0.99137  1.0000
  N   N112      1.0  0.88918  0.56449  0.22694  1.0000
  H   H2020     1.0  0.93069  0.58742  0.22772  1.0000
  C   C1683     1.0  0.86907  0.50692  0.11743  1.0000
  C   C1684     1.0  0.96268  0.53849  0.99134  1.0000
  H   H2021     1.0  0.69584  0.93409  0.19815  1.0000
  C   C1685     1.0  0.68192  0.77290  0.12506  1.0000
  C   C1686     1.0  0.68910  0.88882  0.18764  1.0000
  H   H2022     1.0  0.83189  0.67143  0.20444  1.0000
  H   H2023     1.0  0.68031  0.82948  0.13927  1.0000
  C   C1687     1.0  0.71452  0.85973  0.23279  1.0000
  C   C1688     1.0  0.91220  0.62277  0.98510  1.0000
  H   H2024     1.0  0.00624  0.61284  0.11201  1.0000
  C   C1689     1.0  0.67315  0.84560  0.13197  1.0000
  Fe  Fe224     1.0  0.89982  0.73867  0.29230  1.0000
  S   S447      1.0  0.88450  0.70180  0.29780  1.0000
  S   S448      1.0  0.88342  0.77881  0.29610  1.0000
  Fe  Fe225     1.0  0.95057  0.71448  0.27795  1.0000
  S   S449      1.0  0.93889  0.67586  0.28134  1.0000
  Fe  Fe226     1.0  0.90152  0.69491  0.27456  1.0000
  S   S450      1.0  0.87498  0.67897  0.26234  1.0000
  Fe  Fe227     1.0  0.92290  0.68536  0.30411  1.0000
  S   S451      1.0  0.93718  0.65674  0.32243  1.0000
  S   S452      1.0  0.91471  0.73286  0.26882  1.0000
  S   S453      1.0  0.93652  0.72273  0.30089  1.0000
  Fe  Fe228     1.0  0.75183  0.91551  0.29894  1.0000
  S   S454      1.0  0.71441  0.92245  0.29028  1.0000
  S   S455      1.0  0.77207  0.94610  0.30433  1.0000
  Fe  Fe229     1.0  0.75112  0.85825  0.30508  1.0000
  S   S456      1.0  0.71293  0.86150  0.29756  1.0000
  S   S457      1.0  0.76747  0.81832  0.31311  1.0000
  Fe  Fe230     1.0  0.72821  0.88786  0.27864  1.0000
  S   S458      1.0  0.72767  0.88345  0.25442  1.0000
  Fe  Fe231     1.0  0.70288  0.89531  0.31002  1.0000
  C   C1690     1.0  0.96229  0.72915  0.33721  1.0000
  S   S459      1.0  0.76709  0.88317  0.28565  1.0000
  S   S460      1.0  0.73964  0.88973  0.31914  1.0000
  Fe  Fe232     1.0  0.96615  0.59913  0.40809  1.0000
  S   S461      1.0  0.94721  0.63789  0.41191  1.0000
  C   C1691     1.0  0.91979  0.60656  0.24671  1.0000
  Fe  Fe233     1.0  0.92157  0.57416  0.42292  1.0000
  S   S462      1.0  0.89849  0.61080  0.42828  1.0000
  S   S463      1.0  0.90890  0.53648  0.43104  1.0000
  Fe  Fe234     1.0  0.91351  0.62561  0.40506  1.0000
  S   S464      1.0  0.88921  0.65095  0.38941  1.0000
  Fe  Fe235     1.0  0.93430  0.61976  0.43468  1.0000
  S   S465      1.0  0.94180  0.63668  0.45441  1.0000
  S   S466      1.0  0.93368  0.58813  0.39926  1.0000
  S   S467      1.0  0.95587  0.58183  0.43128  1.0000
  H   H2025     1.0  0.84513  0.65478  0.24709  1.0000
  H   H2026     1.0  0.92945  0.59432  0.33865  1.0000
  H   H2027     1.0  0.74429  0.78615  0.26439  1.0000
  C   C1692     1.0  0.92574  0.62820  0.47199  1.0000
  S   S468      1.0  0.98952  0.72418  0.26864  1.0000
  C   C1693     1.0  0.92339  0.56944  0.35887  1.0000
  C   C1694     1.0  0.87501  0.55219  0.39844  1.0000
  H   H2028     1.0  0.95991  0.57991  0.48076  1.0000
  N   N113      1.0  0.86556  0.57423  0.38818  1.0000
  C   C1695     1.0  0.90707  0.56403  0.37175  1.0000
  C   C1696     1.0  0.68390  0.88734  0.36645  1.0000
  H   H2029     1.0  0.99123  0.61793  0.42360  1.0000
  C   C1697     1.0  0.68941  0.85397  0.25659  1.0000
  C   C1698     1.0  0.74268  0.83661  0.35135  1.0000
  H   H2030     1.0  0.93640  0.78148  0.29370  1.0000
  H   H2031     1.0  0.71547  0.97109  0.31579  1.0000
  H   H2032     1.0  0.70035  0.87953  0.37185  1.0000
  H   H2033     1.0  0.70383  0.88699  0.34444  1.0000
  C   C1699     1.0  0.70928  0.86429  0.24766  1.0000
  H   H2034     1.0  0.71243  0.82814  0.32955  1.0000
  H   H2035     1.0  0.85688  0.77509  0.27072  1.0000
  H   H2036     1.0  0.91385  0.77974  0.31884  1.0000
  H   H2037     1.0  0.72496  0.77838  0.35549  1.0000
  C   C1700     1.0  0.92451  0.65793  0.34104  1.0000
  C   C1701     1.0  0.90090  0.67149  0.34507  1.0000
  C   C1702     1.0  0.89032  0.66971  0.36001  1.0000
  C   C1703     1.0  0.90343  0.65462  0.37093  1.0000
  C   C1704     1.0  0.92743  0.64192  0.36691  1.0000
  C   C1705     1.0  0.93787  0.64348  0.35202  1.0000
  H   H2038     1.0  0.89047  0.68264  0.33666  1.0000
  H   H2039     1.0  0.87178  0.67967  0.36308  1.0000
  H   H2040     1.0  0.93780  0.63045  0.37522  1.0000
  H   H2041     1.0  0.95613  0.63295  0.34896  1.0000
  C   C1706     1.0  0.88036  0.66965  0.24435  1.0000
  H   H2042     1.0  0.98587  0.65239  0.29794  1.0000
  C   C1707     1.0  0.91981  0.51299  0.41938  1.0000
  C   C1708     1.0  0.85093  0.78917  0.30038  1.0000
  C   C1709     1.0  0.84237  0.81514  0.29887  1.0000
  C   C1710     1.0  0.81675  0.82426  0.30244  1.0000
  C   C1711     1.0  0.79956  0.80744  0.30783  1.0000
  C   C1712     1.0  0.80804  0.78144  0.30924  1.0000
  C   C1713     1.0  0.83363  0.77229  0.30541  1.0000
  H   H2043     1.0  0.85564  0.82830  0.29497  1.0000
  H   H2044     1.0  0.81044  0.84432  0.30136  1.0000
  H   H2045     1.0  0.79482  0.76831  0.31334  1.0000
  H   H2046     1.0  0.84003  0.75225  0.30657  1.0000
  H   H2047     1.0  0.68516  0.85732  0.26805  1.0000
  N   N114      1.0  0.69368  0.97679  0.33699  1.0000
  H   H2048     1.0  0.79070  0.82176  0.23890  1.0000
  H   H2049     1.0  0.92304  0.54784  0.46391  1.0000
  H   H2050     1.0  0.84757  0.59313  0.40694  1.0000
  H   H2051     1.0  0.76223  0.83111  0.35423  1.0000
  C   C1714     1.0  0.99638  0.67370  0.47113  1.0000
  H   H2052     1.0  0.99362  0.53214  0.41453  1.0000
  H   H2053     1.0  0.89830  0.61027  0.46420  1.0000
  H   H2054     1.0  0.87813  0.60100  0.39952  1.0000
  H   H2055     1.0  0.74667  0.80681  0.37657  1.0000
  C   C1715     1.0  0.79603  0.78699  0.26219  1.0000
  H   H2056     1.0  0.75634  0.78616  0.35471  1.0000
  N   N115      1.0  0.77509  0.80807  0.26083  1.0000
  H   H2057     1.0  0.95709  0.82773  0.30317  1.0000
  H   H2058     1.0  0.82796  0.56450  0.39385  1.0000
  H   H2059     1.0  0.94195  0.53595  0.40325  1.0000
  C   C1716     1.0  0.76259  0.97865  0.29924  1.0000
  H   H2060     1.0  0.82179  0.80920  0.26897  1.0000
  H   H2061     1.0  0.73877  0.97360  0.28342  1.0000
  C   C1717     1.0  0.87884  0.60202  0.26008  1.0000
  H   H2062     1.0  0.83197  0.58599  0.37740  1.0000
  H   H2063     1.0  0.88853  0.62103  0.34298  1.0000
  C   C1718     1.0  0.79434  0.76217  0.25937  1.0000
  H   H2064     1.0  0.68277  0.92702  0.44445  1.0000
  H   H2065     1.0  0.71578  0.79792  0.37919  1.0000
  C   C1719     1.0  0.74599  0.98708  0.28870  1.0000
  H   H2066     1.0  0.67973  0.82629  0.37571  1.0000
  C   C1720     1.0  0.81466  0.74282  0.26066  1.0000
  H   H2067     1.0  0.73312  0.96355  0.33119  1.0000
  H   H2068     1.0  0.87856  0.53445  0.39320  1.0000
  H   H2069     1.0  0.95108  0.81602  0.32245  1.0000
  H   H2070     1.0  0.84486  0.55339  0.37718  1.0000
  H   H2071     1.0  0.98972  0.57448  0.46025  1.0000
  H   H2072     1.0  0.94153  0.55789  0.35697  1.0000
  H   H2073     1.0  0.76789  0.84436  0.24790  1.0000
  N   N116      1.0  0.96268  0.78713  0.30810  1.0000
  H   H2074     1.0  0.90420  0.62463  0.26600  1.0000
  H   H2075     1.0  0.81306  0.72391  0.25865  1.0000
  H   H2076     1.0  0.98463  0.61549  0.46820  1.0000
  C   C1721     1.0  0.95408  0.76755  0.31985  1.0000
  C   C1722     1.0  0.92796  0.76642  0.32402  1.0000
  H   H2077     1.0  0.67551  0.97064  0.35943  1.0000
  C   C1723     1.0  0.91941  0.74722  0.33441  1.0000
  C   C1724     1.0  0.91661  0.58983  0.34850  1.0000
  C   C1725     1.0  0.69681  0.83027  0.33824  1.0000
  H   H2078     1.0  0.68751  0.94258  0.35132  1.0000
  H   H2079     1.0  0.96255  0.79638  0.28450  1.0000
  C   C1726     1.0  0.87458  0.58652  0.25003  1.0000
  H   H2080     1.0  0.73508  0.85499  0.35545  1.0000
  H   H2081     1.0  0.69732  0.96943  0.44392  1.0000
  C   C1727     1.0  0.83940  0.77158  0.26746  1.0000
  C   C1728     1.0  0.87718  0.59991  0.36388  1.0000
  H   H2082     1.0  0.78469  0.99010  0.31412  1.0000
  H   H2083     1.0  0.85980  0.61265  0.36542  1.0000
  C   C1729     1.0  0.67886  0.82893  0.36395  1.0000
  H   H2084     1.0  0.77750  0.75713  0.25628  1.0000
  C   C1730     1.0  0.67928  0.83589  0.23561  1.0000
  H   H2085     1.0  0.70917  0.95976  0.35697  1.0000
  H   H2086     1.0  0.74451  0.83987  0.33910  1.0000
  C   C1731     1.0  0.86203  0.65790  0.23967  1.0000
  C   C1732     1.0  0.92214  0.50813  0.46936  1.0000
  H   H2087     1.0  0.92904  0.81476  0.30978  1.0000
  C   C1733     1.0  0.75229  0.80088  0.25620  1.0000
  C   C1734     1.0  0.83712  0.74752  0.26469  1.0000
  H   H2088     1.0  0.89268  0.55510  0.40233  1.0000
  C   C1735     1.0  0.90510  0.61501  0.47379  1.0000
  H   H2089     1.0  0.79866  0.83728  0.25325  1.0000
  C   C1736     1.0  0.67937  0.97719  0.43936  1.0000
  C   C1737     1.0  0.91971  0.53271  0.47273  1.0000
  C   C1738     1.0  0.81918  0.79102  0.26637  1.0000
  C   C1739     1.0  0.90135  0.61202  0.25842  1.0000
  C   C1740     1.0  0.86040  0.59640  0.39650  1.0000
  H   H2090     1.0  0.85274  0.73242  0.26579  1.0000
  H   H2091     1.0  0.76194  0.80289  0.28410  1.0000
  N   N117      1.0  0.72633  0.81717  0.35756  1.0000
  H   H2092     1.0  0.99113  0.70853  0.30024  1.0000
  C   C1741     1.0  0.89349  0.60491  0.35097  1.0000
  C   C1742     1.0  0.77187  0.99646  0.30594  1.0000
  H   H2093     1.0  0.96692  0.76335  0.29080  1.0000
  H   H2094     1.0  0.75632  0.79417  0.24512  1.0000
  C   C1743     1.0  0.93534  0.51797  0.40611  1.0000
  C   C1744     1.0  0.73718  0.79326  0.35153  1.0000
  H   H2095     1.0  0.89936  0.74640  0.33705  1.0000
  H   H2096     1.0  0.71993  0.83048  0.37897  1.0000
  C   C1745     1.0  0.72711  0.81291  0.37379  1.0000
  C   C1746     1.0  0.70062  0.82535  0.35337  1.0000
  H   H2097     1.0  0.73944  0.79546  0.33924  1.0000
  H   H2098     1.0  0.85163  0.61366  0.39007  1.0000
  C   C1747     1.0  0.95687  0.78192  0.29368  1.0000
  H   H2099     1.0  0.85659  0.57971  0.25193  1.0000
  C   C1748     1.0  0.94942  0.81244  0.31105  1.0000
  H   H2100     1.0  0.94965  0.64542  0.48312  1.0000
  C   C1749     1.0  0.76742  0.81798  0.27524  1.0000
  H   H2101     1.0  0.86147  0.54900  0.40860  1.0000
  H   H2102     1.0  0.93703  0.61489  0.24529  1.0000
  C   C1750     1.0  0.88341  0.57928  0.37469  1.0000
  H   H2103     1.0  0.91361  0.54799  0.37928  1.0000
  C   C1751     1.0  0.84154  0.56934  0.38396  1.0000
  C   C1752     1.0  0.78352  0.82866  0.24974  1.0000
  H   H2104     1.0  0.99596  0.80368  0.29827  1.0000
  H   H2105     1.0  0.75114  0.83336  0.27475  1.0000
  C   C1753     1.0  0.71443  0.96306  0.32761  1.0000
  C   C1754     1.0  0.93654  0.72851  0.34091  1.0000
  C   C1755     1.0  0.99020  0.78813  0.30670  1.0000
  C   C1756     1.0  0.97106  0.74840  0.32691  1.0000
  C   C1757     1.0  0.69140  0.96197  0.35187  1.0000
  H   H2106     1.0  0.86438  0.60687  0.26906  1.0000
  H   H2107     1.0  0.91650  0.68234  0.23821  1.0000
  H   H2108     1.0  0.97552  0.71434  0.34217  1.0000
  H   H2109     1.0  0.78271  0.82611  0.27893  1.0000
  C   C1758     1.0  0.68593  0.89157  0.35092  1.0000
  H   H2110     1.0  0.73696  0.81715  0.25534  1.0000
  H   H2111     1.0  0.71207  0.94295  0.32783  1.0000
  H   H2112     1.0  0.67499  0.99740  0.44103  1.0000
  H   H2113     1.0  0.99121  0.74762  0.32451  1.0000
  H   H2114     1.0  0.99486  0.65345  0.32323  1.0000
  H   H2115     1.0  0.92983  0.71327  0.34867  1.0000
  C   C1759     1.0  0.67439  0.84002  0.25055  1.0000
  H   H2116     1.0  0.97930  0.67974  0.46593  1.0000
  H   H2117     1.0  0.99606  0.79102  0.31736  1.0000
  H   H2118     1.0  0.68284  0.97693  0.42715  1.0000
  H   H2119     1.0  0.69935  0.00164  0.36112  1.0000
  C   C1760     1.0  0.91583  0.59099  0.23664  1.0000
  H   H2120     1.0  0.68567  0.93123  0.24514  1.0000
  C   C1761     1.0  0.69869  0.00286  0.33718  1.0000
  C   C1762     1.0  0.99804  0.60887  0.47648  1.0000
  H   H2121     1.0  0.90558  0.53059  0.23918  1.0000
  C   C1763     1.0  0.89300  0.58064  0.23790  1.0000
  N   N118      1.0  0.99947  0.58148  0.48112  1.0000
  H   H2122     1.0  0.85979  0.54519  0.23987  1.0000
  C   C1764     1.0  0.68078  0.92552  0.23522  1.0000
  C   C1765     1.0  0.00482  0.56851  0.46760  1.0000
  H   H2123     1.0  0.00145  0.77065  0.30292  1.0000
  C   C1766     1.0  0.00503  0.65324  0.29984  1.0000
  C   C1767     1.0  0.90224  0.67337  0.23473  1.0000
  Fe  Fe236     1.0  0.91010  0.74099  0.67009  1.0000
  S   S469      1.0  0.89104  0.71173  0.66304  1.0000
  S   S470      1.0  0.89121  0.78116  0.67191  1.0000
  Fe  Fe237     1.0  0.95921  0.70487  0.67372  1.0000
  S   S471      1.0  0.94308  0.67278  0.66719  1.0000
  Fe  Fe238     1.0  0.92788  0.70077  0.64917  1.0000
  S   S472      1.0  0.93534  0.69738  0.62449  1.0000
  Fe  Fe239     1.0  0.90797  0.68641  0.68176  1.0000
  S   S473      1.0  0.88323  0.66052  0.69651  1.0000
  S   S474      1.0  0.94597  0.73221  0.65489  1.0000
  S   S475      1.0  0.92505  0.71637  0.68966  1.0000
  Fe  Fe240     1.0  0.75256  0.91761  0.66952  1.0000
  S   S476      1.0  0.71097  0.92241  0.67640  1.0000
  S   S477      1.0  0.77180  0.95256  0.66202  1.0000
  Fe  Fe241     1.0  0.75491  0.86062  0.66952  1.0000
  S   S478      1.0  0.71290  0.86200  0.67624  1.0000
  S   S479      1.0  0.77593  0.82192  0.66522  1.0000
  Fe  Fe242     1.0  0.70917  0.89668  0.65954  1.0000
  C   C1768     1.0  0.86396  0.64258  0.72458  1.0000
  Fe  Fe243     1.0  0.71854  0.88737  0.69244  1.0000
  S   S480      1.0  0.70093  0.88838  0.71643  1.0000
  S   S481      1.0  0.75054  0.89356  0.65173  1.0000
  S   S482      1.0  0.76076  0.88422  0.68666  1.0000
  Fe  Fe244     1.0  0.94857  0.56094  0.55024  1.0000
  S   S483      1.0  0.90846  0.57624  0.55700  1.0000
  H   H2124     1.0  0.93411  0.52409  0.51997  1.0000
  Fe  Fe245     1.0  0.96339  0.61331  0.54087  1.0000
  S   S484      1.0  0.92440  0.63319  0.54679  1.0000
  H   H2125     1.0  0.86522  0.74135  0.71310  1.0000
  Fe  Fe246     1.0  0.92439  0.60485  0.56729  1.0000
  S   S485      1.0  0.91058  0.61043  0.59133  1.0000
  Fe  Fe247     1.0  0.91253  0.60281  0.53600  1.0000
  S   S486      1.0  0.88713  0.60489  0.51838  1.0000
  S   S487      1.0  0.96444  0.58715  0.56191  1.0000
  S   S488      1.0  0.95163  0.58539  0.52870  1.0000
  C   C1769     1.0  0.95813  0.52744  0.58777  1.0000
  H   H2126     1.0  0.74176  0.97273  0.63762  1.0000
  C   C1770     1.0  0.72522  0.98734  0.61705  1.0000
  H   H2127     1.0  0.68305  0.95540  0.57115  1.0000
  H   H2128     1.0  0.81616  0.81886  0.70407  1.0000
  C   C1771     1.0  0.69099  0.83923  0.72496  1.0000
  C   C1772     1.0  0.90638  0.51878  0.49888  1.0000
  H   H2129     1.0  0.80677  0.71065  0.69803  1.0000
  C   C1773     1.0  0.00018  0.68355  0.63939  1.0000
  H   H2130     1.0  0.71864  0.94220  0.63431  1.0000
  C   C1774     1.0  0.89186  0.67374  0.72313  1.0000
  H   H2131     1.0  0.96343  0.59934  0.59176  1.0000
  C   C1775     1.0  0.98192  0.55077  0.60063  1.0000
  C   C1776     1.0  0.90167  0.61446  0.50054  1.0000
  C   C1777     1.0  0.70283  0.97496  0.51070  1.0000
  C   C1778     1.0  0.92244  0.62744  0.49871  1.0000
  H   H2132     1.0  0.72642  0.92290  0.61974  1.0000
  H   H2133     1.0  0.92913  0.63246  0.50826  1.0000
  H   H2134     1.0  0.73120  0.97401  0.58906  1.0000
  H   H2135     1.0  0.00362  0.67461  0.65070  1.0000
  H   H2136     1.0  0.82734  0.72776  0.68465  1.0000
  H   H2137     1.0  0.77981  0.73925  0.70968  1.0000
  C   C1779     1.0  0.69071  0.87034  0.60894  1.0000
  C   C1780     1.0  0.69383  0.87950  0.62206  1.0000
  H   H2138     1.0  0.96684  0.58820  0.49738  1.0000
  C   C1781     1.0  0.71235  0.97258  0.52415  1.0000
  H   H2139     1.0  0.70366  0.85454  0.60516  1.0000
  H   H2140     1.0  0.70907  0.87075  0.62829  1.0000
  H   H2141     1.0  0.87062  0.71404  0.70379  1.0000
  H   H2142     1.0  0.83912  0.69675  0.72235  1.0000
  C   C1782     1.0  0.97438  0.57606  0.48858  1.0000
  C   C1783     1.0  0.92935  0.67227  0.61570  1.0000
  C   C1784     1.0  0.91583  0.65343  0.62327  1.0000
  C   C1785     1.0  0.91034  0.63456  0.61565  1.0000
  C   C1786     1.0  0.91844  0.63425  0.60046  1.0000
  C   C1787     1.0  0.93258  0.65269  0.59300  1.0000
  C   C1788     1.0  0.93790  0.67167  0.60059  1.0000
  H   H2143     1.0  0.90913  0.65366  0.63490  1.0000
  H   H2144     1.0  0.89941  0.62034  0.62151  1.0000
  H   H2145     1.0  0.93900  0.65262  0.58133  1.0000
  H   H2146     1.0  0.94840  0.68615  0.59463  1.0000
  C   C1789     1.0  0.87993  0.65864  0.71603  1.0000
  C   C1790     1.0  0.72971  0.94088  0.62321  1.0000
  H   H2147     1.0  0.85467  0.63081  0.71918  1.0000
  C   C1791     1.0  0.78254  0.80170  0.70630  1.0000
  C   C1792     1.0  0.85895  0.79198  0.67038  1.0000
  C   C1793     1.0  0.84287  0.77623  0.66718  1.0000
  C   C1794     1.0  0.81743  0.78562  0.66582  1.0000
  C   C1795     1.0  0.80779  0.81080  0.66767  1.0000
  C   C1796     1.0  0.82384  0.82652  0.67095  1.0000
  C   C1797     1.0  0.84931  0.81712  0.67228  1.0000
  H   H2148     1.0  0.85006  0.75694  0.66561  1.0000
  H   H2149     1.0  0.80515  0.77342  0.66319  1.0000
  H   H2150     1.0  0.81667  0.84595  0.67235  1.0000
  H   H2151     1.0  0.86162  0.82946  0.67474  1.0000
  H   H2152     1.0  0.90445  0.68593  0.71676  1.0000
  H   H2153     1.0  0.99043  0.68238  0.61275  1.0000
  H   H2154     1.0  0.69612  0.83626  0.71348  1.0000
  C   C1798     1.0  0.77224  0.97663  0.67315  1.0000
  H   H2155     1.0  0.75863  0.95619  0.69374  1.0000
  C   C1799     1.0  0.69209  0.86271  0.72929  1.0000
  C   C1800     1.0  0.82705  0.71544  0.72186  1.0000
  C   C1801     1.0  0.82461  0.77837  0.70585  1.0000
  H   H2156     1.0  0.96140  0.56009  0.62780  1.0000
  H   H2157     1.0  0.86556  0.54865  0.52482  1.0000
  C   C1802     1.0  0.72339  0.99207  0.52789  1.0000
  C   C1803     1.0  0.78847  0.75618  0.70844  1.0000
  H   H2158     1.0  0.75802  0.99149  0.70844  1.0000
  H   H2159     1.0  0.71071  0.95566  0.53188  1.0000
  N   N119      1.0  0.87594  0.76142  0.62322  1.0000
  C   C1804     1.0  0.89745  0.76370  0.63105  1.0000
  C   C1805     1.0  0.86669  0.73726  0.62944  1.0000
  C   C1806     1.0  0.88569  0.76018  0.60741  1.0000
  C   C1807     1.0  0.85506  0.78254  0.62459  1.0000
  C   C1808     1.0  0.83228  0.78216  0.61873  1.0000
  C   C1809     1.0  0.85646  0.80380  0.63175  1.0000
  C   C1810     1.0  0.81182  0.80124  0.62053  1.0000
  C   C1811     1.0  0.83602  0.82294  0.63327  1.0000
  C   C1812     1.0  0.81363  0.82146  0.62792  1.0000
  H   H2160     1.0  0.89145  0.76443  0.64308  1.0000
  H   H2161     1.0  0.91264  0.74740  0.63004  1.0000
  H   H2162     1.0  0.90636  0.78074  0.62644  1.0000
  H   H2163     1.0  0.85725  0.73820  0.64095  1.0000
  H   H2164     1.0  0.88232  0.72117  0.62965  1.0000
  H   H2165     1.0  0.85303  0.73211  0.62289  1.0000
  H   H2166     1.0  0.89257  0.77809  0.60226  1.0000
  H   H2167     1.0  0.90166  0.74457  0.60604  1.0000
  H   H2168     1.0  0.87108  0.75672  0.60092  1.0000
  H   H2169     1.0  0.82995  0.76688  0.61291  1.0000
  H   H2170     1.0  0.87282  0.80585  0.63670  1.0000
  H   H2171     1.0  0.79432  0.80020  0.61639  1.0000
  H   H2172     1.0  0.83719  0.83858  0.63918  1.0000
  H   H2173     1.0  0.79750  0.83582  0.62975  1.0000
  N   N120      1.0  0.83156  0.73046  0.70721  1.0000
  H   H2174     1.0  0.83135  0.72525  0.73083  1.0000
  C   C1813     1.0  0.77255  0.77920  0.70787  1.0000
  H   H2175     1.0  0.77023  0.81957  0.70543  1.0000
  C   C1814     1.0  0.81507  0.75506  0.70712  1.0000
  C   C1815     1.0  0.67896  0.99233  0.55877  1.0000
  H   H2176     1.0  0.91327  0.52046  0.56159  1.0000
  H   H2177     1.0  0.91960  0.55501  0.51305  1.0000
  N   N121      1.0  0.72201  0.96299  0.61249  1.0000
  C   C1816     1.0  0.82587  0.71633  0.69569  1.0000
  C   C1817     1.0  0.95969  0.54826  0.59480  1.0000
  C   C1818     1.0  0.87334  0.54341  0.51361  1.0000
  S   S489      1.0  0.99961  0.69312  0.67870  1.0000
  C   C1819     1.0  0.96192  0.57716  0.61954  1.0000
  H   H2178     1.0  0.68684  0.00334  0.69353  1.0000
  H   H2179     1.0  0.73636  0.94093  0.59456  1.0000
  H   H2180     1.0  0.78711  0.00155  0.65477  1.0000
  H   H2181     1.0  0.87632  0.56145  0.50672  1.0000
  S   S490      1.0  0.96585  0.52072  0.54895  1.0000
  H   H2182     1.0  0.75766  0.96061  0.59872  1.0000
  H   H2183     1.0  0.71825  0.99825  0.68376  1.0000
  C   C1820     1.0  0.69523  0.96275  0.61080  1.0000
  C   C1821     1.0  0.73749  0.95951  0.59809  1.0000
  C   C1822     1.0  0.76410  0.99385  0.69667  1.0000
  C   C1823     1.0  0.91217  0.53799  0.48727  1.0000
  H   H2184     1.0  0.94335  0.58148  0.61523  1.0000
  H   H2185     1.0  0.86351  0.74410  0.69344  1.0000
  H   H2186     1.0  0.91031  0.55738  0.48930  1.0000
  H   H2187     1.0  0.75235  0.77974  0.70834  1.0000
  C   C1824     1.0  0.76444  0.97380  0.68837  1.0000
  H   H2188     1.0  0.84452  0.77960  0.70470  1.0000
  H   H2189     1.0  0.87631  0.59918  0.48931  1.0000
  H   H2190     1.0  0.97517  0.55609  0.49362  1.0000
  H   H2191     1.0  0.98049  0.68132  0.63832  1.0000
  H   H2192     1.0  0.97689  0.64853  0.55931  1.0000
  H   H2193     1.0  0.97748  0.67595  0.49317  1.0000
  N   N122      1.0  0.89687  0.52521  0.51398  1.0000
  C   C1825     1.0  0.91591  0.53690  0.51971  1.0000
  H   H2194     1.0  0.96304  0.59345  0.62544  1.0000
  C   C1826     1.0  0.85885  0.73275  0.70427  1.0000
  H   H2195     1.0  0.90954  0.54148  0.53120  1.0000
  H   H2196     1.0  0.72992  0.98902  0.53863  1.0000
  H   H2197     1.0  0.83914  0.69847  0.69480  1.0000
  C   C1827     1.0  0.89275  0.60866  0.48803  1.0000
  H   H2198     1.0  0.75010  0.93887  0.62445  1.0000
  H   H2199     1.0  0.85858  0.53560  0.50915  1.0000
  H   H2200     1.0  0.69426  0.95978  0.50793  1.0000
  H   H2201     1.0  0.94345  0.56270  0.59530  1.0000
  H   H2202     1.0  0.80726  0.71161  0.72456  1.0000
  H   H2203     1.0  0.98334  0.61322  0.60100  1.0000
  C   C1828     1.0  0.73582  0.98904  0.63007  1.0000
  C   C1829     1.0  0.78027  0.99944  0.66643  1.0000
  H   H2204     1.0  0.68812  0.97793  0.60234  1.0000
  C   C1830     1.0  0.80846  0.80125  0.70550  1.0000
  H   H2205     1.0  0.69244  0.94473  0.60718  1.0000
  C   C1831     1.0  0.00257  0.53114  0.59888  1.0000
  C   C1832     1.0  0.97856  0.50848  0.58634  1.0000
  H   H2206     1.0  0.68297  0.96470  0.62146  1.0000
  H   H2207     1.0  0.94110  0.52621  0.58314  1.0000
  C   C1833     1.0  0.00071  0.51029  0.59191  1.0000
  C   C1834     1.0  0.98166  0.59577  0.59636  1.0000
  N   N123      1.0  0.98328  0.57343  0.60763  1.0000
  H   H2208     1.0  0.99504  0.64692  0.58268  1.0000
  C   C1835     1.0  0.67466  0.96733  0.56218  1.0000
  H   H2209     1.0  0.88334  0.50881  0.53584  1.0000
  H   H2210     1.0  0.99168  0.61994  0.48593  1.0000
  H   H2211     1.0  0.69110  0.98433  0.67156  1.0000
  H   H2212     1.0  0.99688  0.64128  0.62941  1.0000
  C   C1836     1.0  0.67675  0.89939  0.62730  1.0000
  S   S491      1.0  0.67895  0.91084  0.64414  1.0000
  C   C1837     1.0  0.70419  0.99692  0.50091  1.0000
  C   C1838     1.0  0.99537  0.67142  0.48645  1.0000
  C   C1839     1.0  0.68502  0.99943  0.66330  1.0000
  S   S492      1.0  0.99803  0.63064  0.53171  1.0000
  H   H2213     1.0  0.99683  0.59335  0.58694  1.0000
  H   H2214     1.0  0.00264  0.74756  0.67316  1.0000
  C   C1840     1.0  0.99659  0.64138  0.55986  1.0000
  H   H2215     1.0  0.99816  0.59488  0.50894  1.0000
  H   H2216     1.0  0.68129  0.80187  0.73192  1.0000
  H   H2217     1.0  0.69655  0.99891  0.49047  1.0000
  H   H2218     1.0  0.00079  0.70412  0.63869  1.0000
  C   C1841     1.0  0.67567  0.99237  0.65133  1.0000
  H   H2219     1.0  0.99853  0.71646  0.70840  1.0000
  H   H2220     1.0  0.67347  0.82742  0.63742  1.0000
  H   H2221     1.0  0.67473  0.97263  0.65084  1.0000
  S   S493      1.0  0.69591  0.00516  0.56983  1.0000
  C   C1842     1.0  0.93411  0.63470  0.48447  1.0000
  S   S494      1.0  0.71454  0.74335  0.82000  1.0000
  H   H2222     1.0  0.68762  0.89102  0.90113  1.0000
  Fe  Fe248     1.0  0.80046  0.61804  0.80277  1.0000
  S   S495      1.0  0.83178  0.63944  0.80504  1.0000
  S   S496      1.0  0.75851  0.63188  0.80647  1.0000
  Fe  Fe249     1.0  0.83610  0.57350  0.79159  1.0000
  S   S497      1.0  0.86987  0.59231  0.79240  1.0000
  S   S498      1.0  0.84606  0.53462  0.78389  1.0000
  Fe  Fe250     1.0  0.85116  0.60201  0.81463  1.0000
  S   S499      1.0  0.87958  0.59240  0.83129  1.0000
  Fe  Fe251     1.0  0.84807  0.62791  0.78268  1.0000
  S   S500      1.0  0.86586  0.65784  0.76647  1.0000
  S   S501      1.0  0.81837  0.58130  0.81431  1.0000
  S   S502      1.0  0.81572  0.60852  0.77985  1.0000
  H   H2223     1.0  0.86690  0.53700  0.81384  1.0000
  H   H2224     1.0  0.70160  0.76354  0.77793  1.0000
  C   C1843     1.0  0.83583  0.50598  0.74701  1.0000
  S   S503      1.0  0.97819  0.65596  0.91054  1.0000
  H   H2225     1.0  0.73395  0.78141  0.78585  1.0000
  C   C1844     1.0  0.79612  0.68388  0.76912  1.0000
  C   C1845     1.0  0.68258  0.81978  0.73544  1.0000
  H   H2226     1.0  0.88476  0.70498  0.88127  1.0000
  Fe  Fe252     1.0  0.89956  0.61614  0.91138  1.0000
  S   S504      1.0  0.94055  0.60100  0.90658  1.0000
  S   S505      1.0  0.86868  0.62150  0.89653  1.0000
  Fe  Fe253     1.0  0.90487  0.62425  0.94308  1.0000
  S   S506      1.0  0.94609  0.61007  0.94095  1.0000
  S   S507      1.0  0.88083  0.63841  0.96300  1.0000
  Fe  Fe254     1.0  0.94730  0.63230  0.91846  1.0000
  H   H2227     1.0  0.79772  0.52910  0.80223  1.0000
  Fe  Fe255     1.0  0.93584  0.58013  0.92941  1.0000
  S   S508      1.0  0.95392  0.54002  0.93361  1.0000
  S   S509      1.0  0.90673  0.64933  0.92148  1.0000
  S   S510      1.0  0.89420  0.59246  0.93330  1.0000
  H   H2228     1.0  0.72871  0.80075  0.86893  1.0000
  H   H2229     1.0  0.78062  0.51387  0.76950  1.0000
  C   C1846     1.0  0.98138  0.65151  0.95571  1.0000
  C   C1847     1.0  0.69065  0.90830  0.87304  1.0000
  H   H2230     1.0  0.82327  0.70917  0.76204  1.0000
  C   C1848     1.0  0.94771  0.55936  0.96902  1.0000
  H   H2231     1.0  0.70827  0.73533  0.76931  1.0000
  C   C1849     1.0  0.75967  0.72759  0.77104  1.0000
  C   C1850     1.0  0.93710  0.51816  0.97893  1.0000
  H   H2232     1.0  0.79222  0.74730  0.76346  1.0000
  H   H2233     1.0  0.71294  0.73502  0.78841  1.0000
  C   C1851     1.0  0.87610  0.60096  0.84932  1.0000
  C   C1852     1.0  0.89711  0.59604  0.85717  1.0000
  C   C1853     1.0  0.89520  0.60221  0.87165  1.0000
  C   C1854     1.0  0.87226  0.61368  0.87830  1.0000
  C   C1855     1.0  0.85119  0.61840  0.87052  1.0000
  C   C1856     1.0  0.85305  0.61201  0.85608  1.0000
  H   H2234     1.0  0.91495  0.58727  0.85203  1.0000
  H   H2235     1.0  0.91142  0.59793  0.87762  1.0000
  H   H2236     1.0  0.83331  0.62709  0.87566  1.0000
  H   H2237     1.0  0.83674  0.61578  0.85014  1.0000
  C   C1857     1.0  0.88889  0.51106  0.94642  1.0000
  H   H2238     1.0  0.68826  0.88594  0.85094  1.0000
  H   H2239     1.0  0.88274  0.67318  0.89014  1.0000
  H   H2240     1.0  0.89218  0.56345  0.90183  1.0000
  C   C1858     1.0  0.68519  0.86630  0.74424  1.0000
  C   C1859     1.0  0.75289  0.70296  0.77486  1.0000
  C   C1860     1.0  0.72634  0.71240  0.81601  1.0000
  C   C1861     1.0  0.75215  0.70377  0.81623  1.0000
  C   C1862     1.0  0.76231  0.67927  0.81314  1.0000
  C   C1863     1.0  0.74665  0.66305  0.81001  1.0000
  C   C1864     1.0  0.72085  0.67173  0.80971  1.0000
  C   C1865     1.0  0.71073  0.69639  0.81258  1.0000
  H   H2241     1.0  0.76435  0.71604  0.81887  1.0000
  H   H2242     1.0  0.78218  0.67280  0.81339  1.0000
  H   H2243     1.0  0.70862  0.65925  0.80733  1.0000
  H   H2244     1.0  0.69080  0.70280  0.81246  1.0000
  C   C1866     1.0  0.72031  0.81964  0.86510  1.0000
  C   C1867     1.0  0.67557  0.82346  0.75037  1.0000
  H   H2245     1.0  0.87490  0.65513  0.82703  1.0000
  C   C1868     1.0  0.71131  0.82437  0.85141  1.0000
  H   H2246     1.0  0.76546  0.66293  0.77717  1.0000
  H   H2247     1.0  0.71258  0.80925  0.84466  1.0000
  C   C1869     1.0  0.87151  0.65706  0.74715  1.0000
  H   H2248     1.0  0.70080  0.91614  0.86245  1.0000
  H   H2249     1.0  0.90196  0.53339  0.91175  1.0000
  H   H2250     1.0  0.75972  0.77406  0.75432  1.0000
  H   H2251     1.0  0.90504  0.69082  0.89475  1.0000
  C   C1870     1.0  0.80621  0.51094  0.79896  1.0000
  H   H2252     1.0  0.81009  0.66719  0.76871  1.0000
  H   H2253     1.0  0.85149  0.51609  0.74246  1.0000
  H   H2254     1.0  0.84754  0.62921  0.74657  1.0000
  C   C1871     1.0  0.88251  0.53854  0.87164  1.0000
  H   H2255     1.0  0.90332  0.54472  0.94883  1.0000
  H   H2256     1.0  0.99127  0.60304  0.91858  1.0000
  C   C1872     1.0  0.71264  0.97847  0.91477  1.0000
  H   H2257     1.0  0.72960  0.96567  0.91203  1.0000
  C   C1873     1.0  0.88665  0.52705  0.88611  1.0000
  H   H2258     1.0  0.95440  0.50876  0.97277  1.0000
  C   C1874     1.0  0.77093  0.68154  0.77383  1.0000
  H   H2259     1.0  0.96551  0.55129  0.96266  1.0000
  H   H2260     1.0  0.94815  0.68873  0.86028  1.0000
  H   H2261     1.0  0.86353  0.68284  0.86880  1.0000
  C   C1875     1.0  0.81560  0.51787  0.75578  1.0000
  C   C1876     1.0  0.80345  0.70767  0.76532  1.0000
  C   C1877     1.0  0.78555  0.72927  0.76620  1.0000
  H   H2262     1.0  0.76661  0.77192  0.78006  1.0000
  H   H2263     1.0  0.86731  0.55358  0.86958  1.0000
  H   H2264     1.0  0.94052  0.70094  0.87759  1.0000
  H   H2265     1.0  0.81573  0.53693  0.75810  1.0000
  N   N124      1.0  0.87042  0.53459  0.89958  1.0000
  N   N125      1.0  0.74128  0.75075  0.77245  1.0000
  H   H2266     1.0  0.73391  0.69961  0.77908  1.0000
  H   H2267     1.0  0.89537  0.54070  0.84828  1.0000
  C   C1878     1.0  0.96360  0.65364  0.96815  1.0000
  H   H2268     1.0  0.72846  0.90379  0.88839  1.0000
  H   H2269     1.0  0.71249  0.93391  0.97327  1.0000
  C   C1879     1.0  0.70923  0.95370  0.97457  1.0000
  C   C1880     1.0  0.88524  0.54639  0.90832  1.0000
  C   C1881     1.0  0.74829  0.76482  0.78358  1.0000
  C   C1882     1.0  0.88740  0.67316  0.73859  1.0000
  H   H2270     1.0  0.97520  0.65302  0.94487  1.0000
  H   H2271     1.0  0.93913  0.65674  0.84859  1.0000
  C   C1883     1.0  0.89856  0.53125  0.85920  1.0000
  C   C1884     1.0  0.85987  0.64165  0.74009  1.0000
  H   H2272     1.0  0.83586  0.54535  0.88973  1.0000
  H   H2273     1.0  0.92665  0.61624  0.97664  1.0000
  S   S511      1.0  0.68748  0.94057  0.91075  1.0000
  H   H2274     1.0  0.92182  0.51996  0.97187  1.0000
  H   H2275     1.0  0.72687  0.78409  0.75867  1.0000
  H   H2276     1.0  0.93325  0.56231  0.96132  1.0000
  C   C1885     1.0  0.86143  0.51213  0.90870  1.0000
  H   H2277     1.0  0.69289  0.85200  0.83593  1.0000
  C   C1886     1.0  0.93094  0.52005  0.93651  1.0000
  H   H2278     1.0  0.95036  0.57818  0.97149  1.0000
  C   C1887     1.0  0.71495  0.74577  0.77721  1.0000
  C   C1888     1.0  0.82973  0.50859  0.79035  1.0000
  H   H2279     1.0  0.93789  0.65719  0.88995  1.0000
  H   H2280     1.0  0.71558  0.96345  0.95086  1.0000
  C   C1889     1.0  0.90731  0.52710  0.94427  1.0000
  H   H2281     1.0  0.68863  0.92281  0.88077  1.0000
  H   H2282     1.0  0.72542  0.83436  0.88447  1.0000
  H   H2283     1.0  0.73721  0.75671  0.74930  1.0000
  N   N126      1.0  0.94081  0.54285  0.98279  1.0000
  C   C1890     1.0  0.74140  0.76705  0.75806  1.0000
  H   H2284     1.0  0.84682  0.67342  0.84754  1.0000
  N   N127      1.0  0.70426  0.88386  0.87910  1.0000
  C   C1891     1.0  0.70712  0.99638  0.96213  1.0000
  C   C1892     1.0  0.69030  0.87610  0.89366  1.0000
  C   C1893     1.0  0.84458  0.51197  0.84817  1.0000
  C   C1894     1.0  0.70659  0.86377  0.86940  1.0000
  H   H2285     1.0  0.83583  0.51778  0.85871  1.0000
  C   C1895     1.0  0.69771  0.86797  0.85533  1.0000
  H   H2286     1.0  0.94518  0.64559  0.87250  1.0000
  C   C1896     1.0  0.90790  0.50811  0.88729  1.0000
  H   H2287     1.0  0.87381  0.55234  0.91860  1.0000
  H   H2288     1.0  0.74106  0.89347  0.87070  1.0000
  C   C1897     1.0  0.88857  0.63425  0.98123  1.0000
  H   H2289     1.0  0.92202  0.71331  0.86271  1.0000
  H   H2290     1.0  0.85294  0.57108  0.89061  1.0000
  H   H2291     1.0  0.74991  0.75258  0.79429  1.0000
  H   H2292     1.0  0.69995  0.85892  0.89969  1.0000
  C   C1898     1.0  0.71104  0.97049  0.96153  1.0000
  C   C1899     1.0  0.68903  0.97092  0.91498  1.0000
  H   H2293     1.0  0.89477  0.55829  0.97255  1.0000
  H   H2294     1.0  0.83572  0.55770  0.90682  1.0000
  H   H2295     1.0  0.84812  0.54984  0.83814  1.0000
  H   H2296     1.0  0.74026  0.87137  0.88719  1.0000
  C   C1900     1.0  0.70026  0.84851  0.84650  1.0000
  C   C1901     1.0  0.72965  0.88826  0.88143  1.0000
  N   N128      1.0  0.91477  0.67687  0.87349  1.0000
  C   C1902     1.0  0.92934  0.65367  0.88025  1.0000
  C   C1903     1.0  0.93209  0.69579  0.86827  1.0000
  C   C1904     1.0  0.89592  0.68694  0.88536  1.0000
  C   C1905     1.0  0.90340  0.67120  0.86084  1.0000
  C   C1906     1.0  0.91894  0.66090  0.84874  1.0000
  C   C1907     1.0  0.87701  0.67574  0.86002  1.0000
  C   C1908     1.0  0.90870  0.65533  0.83669  1.0000
  C   C1909     1.0  0.86703  0.67041  0.84780  1.0000
  C   C1910     1.0  0.88282  0.66014  0.83621  1.0000
  H   H2297     1.0  0.91696  0.63894  0.88411  1.0000
  C   C1911     1.0  0.84776  0.55289  0.89646  1.0000
  C   C1912     1.0  0.71819  0.83902  0.87394  1.0000
  H   H2298     1.0  0.68601  0.88441  0.74768  1.0000
  H   H2299     1.0  0.89654  0.68505  0.74399  1.0000
  H   H2300     1.0  0.92076  0.64672  0.82778  1.0000
  C   C1913     1.0  0.71443  0.00259  0.91803  1.0000
  H   H2301     1.0  0.87064  0.51653  0.95246  1.0000
  Fe  Fe256     1.0  0.67707  0.76470  0.81426  1.0000
  C   C1914     1.0  0.91889  0.51223  0.86075  1.0000
  C   C1915     1.0  0.67714  0.84675  0.75477  1.0000
  C   C1916     1.0  0.86216  0.52277  0.82294  1.0000
  H   H2302     1.0  0.84876  0.51715  0.91881  1.0000
  C   C1917     1.0  0.85139  0.53006  0.83660  1.0000
  H   H2303     1.0  0.94366  0.65689  0.96698  1.0000
  S   S512      1.0  0.68164  0.80368  0.80312  1.0000
  C   C1918     1.0  0.97149  0.65172  0.98206  1.0000
  H   H2304     1.0  0.93122  0.50670  0.85106  1.0000
  C   C1919     1.0  0.99720  0.64814  0.98355  1.0000
  C   C1920     1.0  0.89487  0.56098  0.98391  1.0000
