data_image0
_chemical_formula_structural       CHFeHC2FeH4CSHCH2SHC2SCHSHCSHCSH7NCHCNCHFeH6C2HC3HCFeCSCHCSCHSH2NC9H4CSCFeHCH2C2H2FeHCHCHFeS2FeS2FeSFeS3HCSFeSFeS2FeS2FeSFeS3FeSFeS2FeS2FeSFeS3C2H5SC6H4C3H2CHCH3C6H4SC6H4C6H4C6H4C5H11SH3NCHC2H4CSCHSHSH2FeCH2C2H5SC3HNH3CH2CNCH2CFeCH2CHC3H6FeHCHCHCNH2CH4NC9H12CFeH2SCFeCHSHC3HCH2CH3NH2CH8CHCH6C5HCHC2HCH3C3HC3HNCSC2H2C2HSHC2N2C3H3CH3CH3C2H6CHCH2C2H3C2HC3HC2NC2H2CH2CH3C3HSH2C2SC4HSHSCH3CFeS2CHCH4FeH5CH2C3HC2H2FeC3HNCHSCHCH2SHCHCSHFeHC5HCNH3C2HSC2HC2FeH2C2HC2HC2FeCHS2H4CHNHC2H3C3SHCFeSFeS2FeS2FeSFeS3FeS2FeS2FeSFeS3H2CHCSH2FeSFeS2FeS2FeSFeS3C3H2C3H5C6H4C6HCHC4HCH3C6H4C6H4CH3NH5C6H4CH2C3H8SH2CHCH7C3H3CH5CH2C3H3CHCNHC6HC2FeC3H3CHCHCSNC9H13CH2CH5CHCHC3NC3H11CH2CHC2H2C3H3FeH2C2H3NHCSHCH2CHNHCHCH3C5HC2HCH3C5HCH4S2C2H2C2HSCHN2HC3H3C2HCNH2FeHCHC2H4CFeSFeS2FeS2FeSFeS3FeH3FeCFeS2FeS2FeSFeS3HSFeSHFeS2FeS2FeSFeS3C2H2CHCH3C7H4C6H4SC3H3SH2C7H2SC6H4C2HCHC8H4C7H8NC6H2CH16C2HCH3NC8H16SC2H2CNC9H14C2HC2HCH7SNCFeSH2SHSHCH2FeHCHC3H2C3HSC3HC4H2C2NC5HC2H6C2NHSHNCHCH3C3H2CNCHCH4CH3C6HCHC3H14SCH2FeCH3C2H2C4FeSNHCHC2S2H4SHCSCHCHCH3SCHSCHCFeHCHCNC3HSCHFeCFeC2SH7CNCHSC2HCFeCHC8HNFeH4C3HC2HCH6SHSH3C3HFeS2FeS2FeSFeS3H2FeSFeS2FeS2FeSFeS5FeSFeS2FeS2FeSFeS3CH3CHCH2C6H4C2SHCHCH4C6H5C2H2CHC6H4C6H7CHSH5SCNC8H11NC2H2C2SCHCHCH5C2SC4H3C4NHC2Fe2HNH2FeH5NC9H15CH2SC2NC9H12C2H2C2HC2NHCHCHC2SH2NHCH2CH3CH4CHCHC3H3C4H3C3HCHCH3CNH4CH3C2HFeHCH3CHCH4SH3C2H2CSC4H2SCHCSFeCHCH2CH3SHCSC4SH4C2HSC2SC4H2FeHCSHCH2CH3NCH3CH2CH6CNC3FeC2HCHCH3SC3HCH2CHNFeH6CHCHCH3CH2C3H2CHSFeC4H3SNCH2CHNHSCSCH2FeCHSFeSCHCH2FeSFeC2HSHC2H2CH3C2SH4CNHCH2C2H5CH2CH2SNC6SC2SC2H5CHCH3CSCH2C2HFe2CH2FeS2FeS2FeSFeS3H2C2SHFeSCFeS2FeS2FeSFeS3FeSFeS2FeS2FeSFeS3H2C2H2C6H4C3HC2HNSH2C7H6C9H2C6H4C6H4C2HC4H2SH3C2NC9H18C2NC6HC2H12FeCHC2HSHCH2C3HFeHFeCH9CH3CHCHC2H2CH2CH4C3HCH2CH3CHCHCHCSNHNC3HCH3CH2C4HC2HCH2C2H5NH3CH3CHCH2CHSCHCHCHCNCHCHC7H3C2SC3H5SC2NCSH4SCFeH3C2HFeH11C2SCS2CH2SCH4CFeSCNHCH2CH5CH2FeCH2C3FeC4HCHCH3CH2CHC5HCFeCHNSHSHC2SH4CH6C2SHC2FeS2CSFeS2FeS2FeSFeS3FeSFeS2FeS2FeSFeS3FeS2FeS2FeSFeS3H6CH2CHC2H2C4H2C6H4C2SHCHFeC3FeCH2C6H4C6H4C2HC3H2C3SC6H4NHNC9H15CHC9H6CH2CSH5CH2CH2CHCH7SH3C6H5NC5FeH3SHC2HC2H4CH2FeHCH3CH3CH3CHCH2CH4CSHCSCHSC3NCHC3HCNH4CH2C2HCH2C2H2SNFeCH4C4HCHCH3C2HCH4CNHC2HNHCH3CH2CH2CH2SCHCH2CNH2FeCH4S2C2HC3HCH2CH2CHFeSFeS2FeS2FeSFeS5FeSFe2S2FeS2FeSFeS3HSH5CFeS2FeS2FeSFeS3C6H4C6H2NC6H4SH5C2H2C6H4C6H4C2H2C3HCHC6H4C3H3NC6H2CH11C2H2SCH6SHCH2C2HCH6C3SHCH2SCHCNC9H14NC9H13C2HCHCH3C2HC2H2CHC3H2NC8H3CHCH3CH6CNHNC6H6CH4CH2C4H2CH2CNFeH4SH2CHCHC2HCFeHSH2FeSH3CHC4H2C3H6CFeH3C2SC3NSCH4NCHFeS2H4CSHNC2FeCFeHCHCNCHCH3CHSC3H4C5H3CS2CH3C2H2SH2FeHC2SH2C2HC2HCHCH4C2H5FeCHSHC3HC2HCHC6FeS2FeS2FeSFeS3FeSFeS2FeS2FeSFeS4CFeS2FeS2FeS2FeSFeS3H2CH3CH2C7H5C2H2C5H3C6H4C6H4C6H4C6HC8NH3CH4CHCH2C2H2C3NHSC3NC9H14NC9H14SCH4SH2CSCFeCH2NHC2H4C2H3NC8H7CHCFeH2SH2NSNHC3H3C3HC2HFeH3CHC3HCSHCH9CH2CH2C4HCH2CH7CH2C2H2CSHCHNCH5C3H2CHC2HCFeC3H3CH2CFeHCHCHFeHSHCH2CH3FeHCFeH3C2HCSC2SHCS2H2C4H2SHCH2CFeC2H2CHCH2C3H2NC3H2CNC2HC2HCHCSH2CH2CHNCH9CH2CHC2SHS2HSC5SH2CH5
_chemical_formula_sum              "C1440 H1728 Fe192 S384 N96"
_cell_length_a       71.2153
_cell_length_b       71.3289
_cell_length_c       49.7155
_cell_angle_alpha    85.422
_cell_angle_beta     85.4035
_cell_angle_gamma    87.359

_space_group_name_H-M_alt    "P 1"
_space_group_IT_number       1

loop_
  _space_group_symop_operation_xyz
  'x, y, z'

loop_
  _atom_site_type_symbol
  _atom_site_label
  _atom_site_symmetry_multiplicity
  _atom_site_fract_x
  _atom_site_fract_y
  _atom_site_fract_z
  _atom_site_occupancy
  C   C1        1.0  0.43681  0.12060  0.41282  1.0000
  H   H1        1.0  0.43243  0.14749  0.44833  1.0000
  Fe  Fe1       1.0  0.43601  0.16421  0.50152  1.0000
  H   H2        1.0  0.16020  0.10306  0.04954  1.0000
  C   C2        1.0  0.02315  0.23507  0.01652  1.0000
  C   C3        1.0  0.43765  0.08477  0.49712  1.0000
  Fe  Fe2       1.0  0.08700  0.18773  0.02461  1.0000
  H   H3        1.0  0.07402  0.23924  0.09989  1.0000
  H   H4        1.0  0.10149  0.09862  0.03827  1.0000
  H   H5        1.0  0.12355  0.04229  0.10131  1.0000
  H   H6        1.0  0.44947  0.12902  0.41375  1.0000
  C   C4        1.0  0.40718  0.24115  0.50264  1.0000
  S   S1        1.0  0.46275  0.16663  0.47420  1.0000
  H   H7        1.0  0.21553  0.00761  0.12030  1.0000
  C   C5        1.0  0.11868  0.07287  0.03617  1.0000
  H   H8        1.0  0.16180  0.09456  0.12301  1.0000
  H   H9        1.0  0.15612  0.02528  0.15833  1.0000
  S   S2        1.0  0.40746  0.17578  0.49036  1.0000
  H   H10       1.0  0.03729  0.22949  0.01936  1.0000
  C   C6        1.0  0.16753  0.02444  0.14174  1.0000
  C   C7        1.0  0.37162  0.10753  0.49938  1.0000
  S   S3        1.0  0.12654  0.12716  0.05171  1.0000
  C   C8        1.0  0.42773  0.09376  0.47625  1.0000
  H   H11       1.0  0.40940  0.09641  0.42791  1.0000
  S   S4        1.0  0.07491  0.21597  0.03814  1.0000
  H   H12       1.0  0.11508  0.22306  0.02955  1.0000
  C   C9        1.0  0.15182  0.07533  0.04190  1.0000
  S   S5        1.0  0.07668  0.15977  0.04367  1.0000
  H   H13       1.0  0.03508  0.19979  0.04049  1.0000
  C   C10       1.0  0.08762  0.23692  0.03321  1.0000
  S   S6        1.0  0.11669  0.17636  0.01547  1.0000
  H   H14       1.0  0.39659  0.11111  0.45180  1.0000
  H   H15       1.0  0.18271  0.01525  0.09234  1.0000
  H   H16       1.0  0.11048  0.07421  0.09940  1.0000
  H   H17       1.0  0.12924  0.10057  0.10970  1.0000
  H   H18       1.0  0.42919  0.12726  0.39557  1.0000
  H   H19       1.0  0.14207  0.01736  0.08896  1.0000
  H   H20       1.0  0.03259  0.14260  0.04246  1.0000
  N   N1        1.0  0.16012  0.02979  0.11499  1.0000
  C   C11       1.0  0.46240  0.10685  0.48763  1.0000
  H   H21       1.0  0.16575  0.06886  0.04361  1.0000
  C   C12       1.0  0.13047  0.10331  0.04402  1.0000
  N   N2        1.0  0.42466  0.11992  0.43854  1.0000
  C   C13       1.0  0.35375  0.08023  0.49111  1.0000
  H   H22       1.0  0.41066  0.13939  0.46486  1.0000
  Fe  Fe3       1.0  0.10585  0.14777  0.03067  1.0000
  H   H23       1.0  0.41004  0.22895  0.49113  1.0000
  H   H24       1.0  0.34230  0.07446  0.48181  1.0000
  H   H25       1.0  0.44177  0.10618  0.40773  1.0000
  H   H26       1.0  0.17893  0.03357  0.14620  1.0000
  H   H27       1.0  0.17381  0.00980  0.14284  1.0000
  H   H28       1.0  0.13474  0.01443  0.12471  1.0000
  C   C14       1.0  0.45256  0.11601  0.46683  1.0000
  C   C15       1.0  0.14863  0.09473  0.04529  1.0000
  H   H29       1.0  0.41437  0.08801  0.47316  1.0000
  C   C16       1.0  0.17601  0.02962  0.09386  1.0000
  C   C17       1.0  0.40683  0.11114  0.43363  1.0000
  C   C18       1.0  0.48315  0.15965  0.49093  1.0000
  H   H30       1.0  0.41189  0.14760  0.42983  1.0000
  C   C19       1.0  0.43490  0.10976  0.46045  1.0000
  Fe  Fe4       1.0  0.16426  0.01915  0.02844  1.0000
  C   C20       1.0  0.11558  0.09231  0.03892  1.0000
  S   S7        1.0  0.13912  0.03929  0.03777  1.0000
  C   C21       1.0  0.13674  0.06421  0.03791  1.0000
  H   H31       1.0  0.34697  0.10893  0.47670  1.0000
  C   C22       1.0  0.41978  0.13943  0.44562  1.0000
  S   S8        1.0  0.19557  0.02207  0.02917  1.0000
  C   C23       1.0  0.10731  0.23646  0.02973  1.0000
  H   H32       1.0  0.17589  0.06265  0.12559  1.0000
  S   S9        1.0  0.37459  0.13224  0.49465  1.0000
  H   H33       1.0  0.39950  0.11904  0.41702  1.0000
  H   H34       1.0  0.10688  0.06439  0.03333  1.0000
  N   N3        1.0  0.00933  0.20248  0.01983  1.0000
  C   C24       1.0  0.15107  0.04895  0.11462  1.0000
  C   C25       1.0  0.16142  0.06449  0.12050  1.0000
  C   C26       1.0  0.13233  0.05296  0.10723  1.0000
  C   C27       1.0  0.15352  0.08284  0.11905  1.0000
  C   C28       1.0  0.12456  0.07136  0.10597  1.0000
  C   C29       1.0  0.13514  0.08626  0.11174  1.0000
  C   C30       1.0  0.35654  0.09977  0.48804  1.0000
  C   C31       1.0  0.14716  0.01500  0.10964  1.0000
  C   C32       1.0  0.02018  0.14196  0.03141  1.0000
  H   H35       1.0  0.17099  0.03454  0.07375  1.0000
  H   H36       1.0  0.45877  0.12830  0.45615  1.0000
  H   H37       1.0  0.18736  0.03900  0.09776  1.0000
  H   H38       1.0  0.03003  0.17945  0.02418  1.0000
  C   C33       1.0  0.02906  0.19512  0.02224  1.0000
  S   S10       1.0  0.30936  0.02989  0.49552  1.0000
  C   C34       1.0  0.36600  0.06819  0.50573  1.0000
  Fe  Fe5       1.0  0.31134  0.00198  0.47563  1.0000
  H   H39       1.0  0.10835  0.24270  0.09172  1.0000
  C   C35       1.0  0.00751  0.22331  0.01652  1.0000
  H   H40       1.0  0.47577  0.11206  0.49223  1.0000
  H   H41       1.0  0.22766  0.00708  0.16598  1.0000
  C   C36       1.0  0.45494  0.09129  0.50280  1.0000
  C   C37       1.0  0.00223  0.14064  0.04540  1.0000
  H   H42       1.0  0.00234  0.20174  0.06281  1.0000
  H   H43       1.0  0.15427  0.00074  0.11051  1.0000
  Fe  Fe6       1.0  0.33937  0.02370  0.50570  1.0000
  H   H44       1.0  0.30439  0.00150  0.37275  1.0000
  C   C38       1.0  0.50082  0.16595  0.48037  1.0000
  H   H45       1.0  0.03952  0.13950  0.81106  1.0000
  C   C39       1.0  0.07531  0.24100  0.96719  1.0000
  H   H46       1.0  0.15844  0.07407  0.95894  1.0000
  Fe  Fe7       1.0  0.25028  0.05362  0.79107  1.0000
  S   S11       1.0  0.24353  0.08439  0.79325  1.0000
  S   S12       1.0  0.24916  0.03196  0.82843  1.0000
  Fe  Fe8       1.0  0.25871  0.05884  0.72781  1.0000
  S   S13       1.0  0.25125  0.09015  0.72727  1.0000
  S   S14       1.0  0.27467  0.04358  0.69250  1.0000
  Fe  Fe9       1.0  0.26856  0.08964  0.76340  1.0000
  S   S15       1.0  0.28717  0.11416  0.76924  1.0000
  Fe  Fe10      1.0  0.22665  0.08225  0.75730  1.0000
  S   S16       1.0  0.19691  0.09424  0.76889  1.0000
  S   S17       1.0  0.27671  0.05890  0.76344  1.0000
  S   S18       1.0  0.23290  0.05089  0.75567  1.0000
  H   H47       1.0  0.48852  0.15518  0.58482  1.0000
  C   C40       1.0  0.44611  0.20397  0.85908  1.0000
  S   S19       1.0  0.27904  0.02460  0.56709  1.0000
  Fe  Fe11      1.0  0.42172  0.15165  0.55828  1.0000
  S   S20       1.0  0.43268  0.13993  0.59738  1.0000
  Fe  Fe12      1.0  0.43692  0.15760  0.76468  1.0000
  S   S21       1.0  0.43158  0.18865  0.75602  1.0000
  S   S22       1.0  0.46580  0.14299  0.76798  1.0000
  Fe  Fe13      1.0  0.39438  0.14871  0.76595  1.0000
  S   S23       1.0  0.38584  0.17921  0.75752  1.0000
  S   S24       1.0  0.37625  0.12289  0.76769  1.0000
  Fe  Fe14      1.0  0.41119  0.18013  0.72763  1.0000
  S   S25       1.0  0.40853  0.19549  0.68702  1.0000
  Fe  Fe15      1.0  0.40695  0.18519  0.78672  1.0000
  S   S26       1.0  0.40074  0.20501  0.81971  1.0000
  S   S27       1.0  0.41831  0.14928  0.73355  1.0000
  S   S28       1.0  0.41365  0.15448  0.79794  1.0000
  Fe  Fe16      1.0  0.10670  0.16946  0.97606  1.0000
  S   S29       1.0  0.12342  0.17323  0.93603  1.0000
  Fe  Fe17      1.0  0.06504  0.17535  0.76485  1.0000
  S   S30       1.0  0.07322  0.18340  0.80490  1.0000
  S   S31       1.0  0.03502  0.18751  0.76219  1.0000
  Fe  Fe18      1.0  0.10444  0.15627  0.75308  1.0000
  S   S32       1.0  0.11440  0.16309  0.79259  1.0000
  S   S33       1.0  0.12662  0.14290  0.72410  1.0000
  Fe  Fe19      1.0  0.08586  0.15430  0.80967  1.0000
  S   S34       1.0  0.07865  0.13824  0.84942  1.0000
  Fe  Fe20      1.0  0.10069  0.19156  0.78346  1.0000
  S   S35       1.0  0.11538  0.21721  0.79363  1.0000
  S   S36       1.0  0.07635  0.14537  0.77096  1.0000
  S   S37       1.0  0.09214  0.18561  0.74277  1.0000
  C   C41       1.0  0.01538  0.17516  0.75458  1.0000
  C   C42       1.0  0.31716  0.07619  0.88011  1.0000
  H   H48       1.0  0.35410  0.07069  0.58305  1.0000
  H   H49       1.0  0.12214  0.21407  0.85164  1.0000
  H   H50       1.0  0.47177  0.20954  0.53675  1.0000
  H   H51       1.0  0.02921  0.16277  0.71981  1.0000
  H   H52       1.0  0.46252  0.08438  0.51912  1.0000
  S   S38       1.0  0.07818  0.18307  0.98352  1.0000
  C   C43       1.0  0.11154  0.16222  0.91254  1.0000
  C   C44       1.0  0.12011  0.15998  0.88665  1.0000
  C   C45       1.0  0.11016  0.15222  0.86733  1.0000
  C   C46       1.0  0.09174  0.14645  0.87400  1.0000
  C   C47       1.0  0.08345  0.14805  0.90019  1.0000
  C   C48       1.0  0.09327  0.15611  0.91935  1.0000
  H   H53       1.0  0.13434  0.16446  0.88140  1.0000
  H   H54       1.0  0.11681  0.15050  0.84737  1.0000
  H   H55       1.0  0.06921  0.14357  0.90548  1.0000
  H   H56       1.0  0.08644  0.15787  0.93921  1.0000
  C   C49       1.0  0.48694  0.15406  0.77246  1.0000
  C   C50       1.0  0.37167  0.22582  0.70765  1.0000
  C   C51       1.0  0.39993  0.23882  0.52962  1.0000
  H   H57       1.0  0.19771  0.17730  0.70530  1.0000
  H   H58       1.0  0.32852  0.05276  0.59647  1.0000
  C   C52       1.0  0.48822  0.17363  0.76976  1.0000
  H   H59       1.0  0.45703  0.22460  0.81467  1.0000
  C   C53       1.0  0.14422  0.19033  0.74289  1.0000
  H   H60       1.0  0.12775  0.08437  0.97318  1.0000
  H   H61       1.0  0.39973  0.23169  0.85891  1.0000
  H   H62       1.0  0.00718  0.14142  0.96712  1.0000
  C   C54       1.0  0.42750  0.15642  0.62136  1.0000
  C   C55       1.0  0.41484  0.17157  0.61608  1.0000
  C   C56       1.0  0.40931  0.18379  0.63618  1.0000
  C   C57       1.0  0.41680  0.18113  0.66138  1.0000
  C   C58       1.0  0.43030  0.16661  0.66618  1.0000
  C   C59       1.0  0.43553  0.15413  0.64624  1.0000
  H   H63       1.0  0.40895  0.17376  0.59671  1.0000
  H   H64       1.0  0.39906  0.19515  0.63222  1.0000
  H   H65       1.0  0.43667  0.16497  0.68525  1.0000
  H   H66       1.0  0.44551  0.14254  0.65026  1.0000
  S   S39       1.0  0.09758  0.14062  0.99046  1.0000
  C   C60       1.0  0.27578  0.03923  0.65725  1.0000
  C   C61       1.0  0.29192  0.02976  0.64569  1.0000
  C   C62       1.0  0.29324  0.02520  0.61837  1.0000
  C   C63       1.0  0.27836  0.02998  0.60195  1.0000
  C   C64       1.0  0.26230  0.03961  0.61343  1.0000
  C   C65       1.0  0.26103  0.04428  0.64073  1.0000
  H   H67       1.0  0.30341  0.02565  0.65816  1.0000
  H   H68       1.0  0.30572  0.01775  0.61027  1.0000
  H   H69       1.0  0.25065  0.04345  0.60113  1.0000
  H   H70       1.0  0.24847  0.05149  0.64912  1.0000
  C   C66       1.0  0.31205  0.11631  0.76733  1.0000
  C   C67       1.0  0.32467  0.10079  0.76504  1.0000
  C   C68       1.0  0.34423  0.10307  0.76544  1.0000
  C   C69       1.0  0.35145  0.12089  0.76763  1.0000
  C   C70       1.0  0.33887  0.13646  0.76937  1.0000
  C   C71       1.0  0.31930  0.13413  0.76941  1.0000
  H   H71       1.0  0.31935  0.08699  0.76344  1.0000
  H   H72       1.0  0.35384  0.09092  0.76404  1.0000
  H   H73       1.0  0.34417  0.15025  0.77111  1.0000
  H   H74       1.0  0.30966  0.14621  0.77131  1.0000
  C   C72       1.0  0.14617  0.12930  0.73648  1.0000
  C   C73       1.0  0.14619  0.12250  0.76365  1.0000
  C   C74       1.0  0.16172  0.11158  0.77288  1.0000
  C   C75       1.0  0.17758  0.10749  0.75527  1.0000
  C   C76       1.0  0.17765  0.11435  0.72807  1.0000
  C   C77       1.0  0.16195  0.12510  0.71872  1.0000
  H   H75       1.0  0.13410  0.12537  0.77750  1.0000
  H   H76       1.0  0.16147  0.10630  0.79391  1.0000
  H   H77       1.0  0.18972  0.11132  0.71426  1.0000
  H   H78       1.0  0.16205  0.13016  0.69762  1.0000
  C   C78       1.0  0.22113  0.02907  0.91653  1.0000
  C   C79       1.0  0.22228  0.04643  0.90088  1.0000
  C   C80       1.0  0.23028  0.04757  0.87381  1.0000
  C   C81       1.0  0.23774  0.03135  0.86204  1.0000
  C   C82       1.0  0.23685  0.01403  0.87782  1.0000
  H   H79       1.0  0.31172  0.11192  0.70153  1.0000
  H   H80       1.0  0.18152  0.01978  0.90313  1.0000
  H   H81       1.0  0.23078  0.06103  0.86217  1.0000
  H   H82       1.0  0.30597  0.10826  0.65384  1.0000
  H   H83       1.0  0.10747  0.11655  0.94509  1.0000
  H   H84       1.0  0.07103  0.20956  0.86893  1.0000
  H   H85       1.0  0.47614  0.18237  0.76423  1.0000
  H   H86       1.0  0.17461  0.21134  0.74363  1.0000
  H   H87       1.0  0.02509  0.16111  0.81069  1.0000
  H   H88       1.0  0.37519  0.09649  0.58122  1.0000
  H   H89       1.0  0.14531  0.13416  0.92549  1.0000
  S   S40       1.0  0.43441  0.17819  0.54022  1.0000
  H   H90       1.0  0.29313  0.08965  0.57563  1.0000
  H   H91       1.0  0.27029  0.08673  0.86291  1.0000
  H   H92       1.0  0.32385  0.06564  0.52340  1.0000
  N   N4        1.0  0.31743  0.07168  0.56484  1.0000
  C   C83       1.0  0.00588  0.14122  0.98898  1.0000
  H   H93       1.0  0.42363  0.23404  0.57905  1.0000
  C   C84       1.0  0.32528  0.05302  0.57492  1.0000
  C   C85       1.0  0.33093  0.08695  0.56420  1.0000
  H   H94       1.0  0.30466  0.08256  0.52816  1.0000
  H   H95       1.0  0.19403  0.03565  0.86061  1.0000
  H   H96       1.0  0.39574  0.10123  0.52242  1.0000
  H   H97       1.0  0.12095  0.19869  0.88158  1.0000
  C   C86       1.0  0.49820  0.14258  0.52820  1.0000
  S   S41       1.0  0.42574  0.13656  0.52032  1.0000
  C   C87       1.0  0.11791  0.21348  0.87376  1.0000
  H   H98       1.0  0.08939  0.21000  0.84203  1.0000
  S   S42       1.0  0.16644  0.00862  0.98717  1.0000
  H   H99       1.0  0.33825  0.04881  0.56234  1.0000
  S   S43       1.0  0.33110  0.00799  0.54554  1.0000
  H   H100      1.0  0.21967  0.15337  0.72424  1.0000
  H   H101      1.0  0.27653  0.08820  0.82710  1.0000
  Fe  Fe21      1.0  0.06960  0.15474  0.00164  1.0000
  C   C88       1.0  0.36126  0.09902  0.57399  1.0000
  H   H102      1.0  0.36478  0.22085  0.75880  1.0000
  H   H103      1.0  0.34899  0.11070  0.86793  1.0000
  C   C89       1.0  0.31154  0.06960  0.53729  1.0000
  C   C90       1.0  0.22846  0.01284  0.90470  1.0000
  H   H104      1.0  0.28989  0.06520  0.58353  1.0000
  H   H105      1.0  0.03364  0.11435  0.84798  1.0000
  H   H106      1.0  0.43557  0.17906  0.82763  1.0000
  H   H107      1.0  0.09658  0.20047  0.91562  1.0000
  H   H108      1.0  0.03836  0.13179  0.87031  1.0000
  S   S44       1.0  0.36332  0.04341  0.51044  1.0000
  C   C91       1.0  0.13337  0.09873  0.97251  1.0000
  C   C92       1.0  0.00715  0.23324  0.73082  1.0000
  C   C93       1.0  0.05813  0.24772  0.95795  1.0000
  H   H109      1.0  0.06414  0.23936  0.88789  1.0000
  N   N5        1.0  0.48410  0.18540  0.58033  1.0000
  H   H110      1.0  0.48465  0.16620  0.83615  1.0000
  H   H111      1.0  0.33932  0.08538  0.90256  1.0000
  H   H112      1.0  0.26154  0.00088  0.69065  1.0000
  C   C94       1.0  0.38124  0.07596  0.51675  1.0000
  H   H113      1.0  0.07766  0.21731  0.91458  1.0000
  H   H114      1.0  0.11906  0.11729  0.91220  1.0000
  C   C95       1.0  0.40680  0.22889  0.81648  1.0000
  N   N6        1.0  0.09772  0.21922  0.87924  1.0000
  C   C96       1.0  0.49677  0.18637  0.55504  1.0000
  H   H115      1.0  0.31138  0.04818  0.82849  1.0000
  H   H116      1.0  0.47872  0.22621  0.84716  1.0000
  C   C97       1.0  0.48973  0.17953  0.84080  1.0000
  Fe  Fe22      1.0  0.39689  0.14871  0.51225  1.0000
  C   C98       1.0  0.03144  0.14963  0.82397  1.0000
  H   H117      1.0  0.43179  0.07274  0.50910  1.0000
  H   H118      1.0  0.35615  0.22539  0.71239  1.0000
  C   C99       1.0  0.49575  0.18852  0.60292  1.0000
  H   H119      1.0  0.45249  0.16777  0.84873  1.0000
  C   C100      1.0  0.32802  0.10496  0.84126  1.0000
  C   C101      1.0  0.01601  0.16477  0.73182  1.0000
  C   C102      1.0  0.40485  0.23874  0.83982  1.0000
  H   H120      1.0  0.02000  0.22545  0.73608  1.0000
  H   H121      1.0  0.28715  0.04690  0.82129  1.0000
  H   H122      1.0  0.46505  0.20580  0.79406  1.0000
  H   H123      1.0  0.03309  0.23501  0.78622  1.0000
  H   H124      1.0  0.01736  0.11889  0.87651  1.0000
  H   H125      1.0  0.15828  0.12527  0.95368  1.0000
  Fe  Fe23      1.0  0.30132  0.01316  0.53519  1.0000
  H   H126      1.0  0.10078  0.22447  0.92067  1.0000
  C   C103      1.0  0.33853  0.12002  0.55249  1.0000
  H   H127      1.0  0.43074  0.21535  0.62121  1.0000
  C   C104      1.0  0.36752  0.23508  0.76276  1.0000
  H   H128      1.0  0.45821  0.17230  0.81271  1.0000
  C   C105      1.0  0.35612  0.11683  0.56272  1.0000
  N   N7        1.0  0.01694  0.14010  0.84277  1.0000
  H   H129      1.0  0.36601  0.12804  0.56102  1.0000
  H   H130      1.0  0.44061  0.20896  0.80475  1.0000
  C   C106      1.0  0.48670  0.21296  0.84672  1.0000
  H   H131      1.0  0.01336  0.13835  0.78672  1.0000
  H   H132      1.0  0.40651  0.23198  0.72110  1.0000
  H   H133      1.0  0.44877  0.21884  0.86217  1.0000
  H   H134      1.0  0.18122  0.14273  0.79377  1.0000
  N   N8        1.0  0.37303  0.13166  0.67933  1.0000
  C   C107      1.0  0.38211  0.11607  0.69582  1.0000
  C   C108      1.0  0.38645  0.13689  0.65578  1.0000
  C   C109      1.0  0.37012  0.14829  0.69559  1.0000
  C   C110      1.0  0.35468  0.12563  0.67168  1.0000
  C   C111      1.0  0.35091  0.12342  0.64444  1.0000
  C   C112      1.0  0.33999  0.12131  0.69196  1.0000
  C   C113      1.0  0.33350  0.11724  0.63819  1.0000
  C   C114      1.0  0.32267  0.11516  0.68552  1.0000
  C   C115      1.0  0.31943  0.11310  0.65868  1.0000
  H   H135      1.0  0.38494  0.10341  0.68420  1.0000
  H   H136      1.0  0.39573  0.12019  0.70279  1.0000
  H   H137      1.0  0.37320  0.11165  0.71443  1.0000
  H   H138      1.0  0.39035  0.12482  0.64330  1.0000
  H   H139      1.0  0.39995  0.14146  0.66244  1.0000
  H   H140      1.0  0.38074  0.14886  0.64267  1.0000
  H   H141      1.0  0.38374  0.15416  0.69976  1.0000
  H   H142      1.0  0.36184  0.15977  0.68485  1.0000
  H   H143      1.0  0.36266  0.14486  0.71578  1.0000
  H   H144      1.0  0.36116  0.12637  0.62759  1.0000
  H   H145      1.0  0.34183  0.12254  0.71307  1.0000
  H   H146      1.0  0.33090  0.11566  0.61731  1.0000
  C   C116      1.0  0.44011  0.21414  0.60307  1.0000
  Fe  Fe24      1.0  0.19778  0.01034  0.98775  1.0000
  H   H147      1.0  0.09736  0.22674  0.74324  1.0000
  H   H148      1.0  0.12284  0.10732  0.98451  1.0000
  S   S45       1.0  0.39197  0.16169  0.55214  1.0000
  C   C117      1.0  0.18480  0.15077  0.77475  1.0000
  Fe  Fe25      1.0  0.40507  0.18776  0.53115  1.0000
  C   C118      1.0  0.43616  0.22481  0.57939  1.0000
  H   H149      1.0  0.41496  0.23069  0.77366  1.0000
  S   S46       1.0  0.04379  0.14501  0.98430  1.0000
  H   H150      1.0  0.31513  0.04178  0.57383  1.0000
  C   C119      1.0  0.41350  0.23818  0.79183  1.0000
  C   C120      1.0  0.33196  0.08765  0.88424  1.0000
  C   C121      1.0  0.17183  0.16412  0.76410  1.0000
  H   H151      1.0  0.15856  0.16581  0.77593  1.0000
  C   C122      1.0  0.17098  0.20714  0.72362  1.0000
  H   H152      1.0  0.33487  0.13380  0.54300  1.0000
  H   H153      1.0  0.08972  0.19189  0.86929  1.0000
  C   C123      1.0  0.20194  0.14691  0.76038  1.0000
  H   H154      1.0  0.48941  0.18262  0.53738  1.0000
  H   H155      1.0  0.17077  0.18385  0.68449  1.0000
  H   H156      1.0  0.30045  0.06655  0.80765  1.0000
  N   N9        1.0  0.16249  0.18842  0.72651  1.0000
  H   H157      1.0  0.16111  0.21826  0.71517  1.0000
  H   H158      1.0  0.30637  0.09654  0.81840  1.0000
  C   C124      1.0  0.17587  0.17425  0.73862  1.0000
  H   H159      1.0  0.21155  0.13594  0.76827  1.0000
  H   H160      1.0  0.18089  0.05693  0.93002  1.0000
  H   H161      1.0  0.44418  0.23084  0.53726  1.0000
  H   H162      1.0  0.13685  0.17683  0.74498  1.0000
  H   H163      1.0  0.14638  0.09801  0.98365  1.0000
  H   H164      1.0  0.13441  0.20105  0.73340  1.0000
  H   H165      1.0  0.14607  0.19486  0.76340  1.0000
  H   H166      1.0  0.39090  0.06679  0.52790  1.0000
  C   C125      1.0  0.45558  0.20135  0.60323  1.0000
  H   H167      1.0  0.50029  0.20332  0.60157  1.0000
  C   C126      1.0  0.16035  0.07939  0.93797  1.0000
  H   H168      1.0  0.33231  0.11604  0.82605  1.0000
  H   H169      1.0  0.28207  0.05870  0.89176  1.0000
  H   H170      1.0  0.14765  0.11388  0.89023  1.0000
  H   H171      1.0  0.12065  0.24586  0.84901  1.0000
  H   H172      1.0  0.18409  0.20735  0.70990  1.0000
  H   H173      1.0  0.14700  0.19243  0.69063  1.0000
  C   C127      1.0  0.29804  0.05666  0.82594  1.0000
  C   C128      1.0  0.46798  0.19929  0.57971  1.0000
  C   C129      1.0  0.33742  0.10195  0.86481  1.0000
  C   C130      1.0  0.45508  0.20961  0.81132  1.0000
  C   C131      1.0  0.47804  0.19623  0.84135  1.0000
  H   H174      1.0  0.35935  0.22890  0.80514  1.0000
  C   C132      1.0  0.32601  0.10541  0.55342  1.0000
  H   H175      1.0  0.40373  0.23994  0.68645  1.0000
  C   C133      1.0  0.15831  0.18313  0.69939  1.0000
  C   C134      1.0  0.19365  0.17021  0.72476  1.0000
  H   H176      1.0  0.15341  0.16845  0.70058  1.0000
  C   C135      1.0  0.20639  0.15665  0.73547  1.0000
  H   H177      1.0  0.29928  0.04219  0.87675  1.0000
  H   H178      1.0  0.31374  0.06533  0.89590  1.0000
  H   H179      1.0  0.46793  0.16322  0.56807  1.0000
  C   C136      1.0  0.34895  0.08422  0.57473  1.0000
  C   C137      1.0  0.30736  0.07884  0.85617  1.0000
  C   C138      1.0  0.16738  0.09115  0.88324  1.0000
  H   H180      1.0  0.45738  0.19270  0.62177  1.0000
  C   C139      1.0  0.27475  0.07827  0.84547  1.0000
  C   C140      1.0  0.14411  0.12610  0.94561  1.0000
  C   C141      1.0  0.45088  0.17814  0.83104  1.0000
  H   H181      1.0  0.13468  0.13484  0.95902  1.0000
  N   N10       1.0  0.45790  0.19681  0.83580  1.0000
  C   C142      1.0  0.11835  0.10901  0.93215  1.0000
  S   S47       1.0  0.21043  0.02867  0.95055  1.0000
  C   C143      1.0  0.17683  0.07515  0.89418  1.0000
  C   C144      1.0  0.17335  0.06930  0.92147  1.0000
  H   H182      1.0  0.26281  0.06938  0.84215  1.0000
  H   H183      1.0  0.11292  0.09497  0.92925  1.0000
  C   C145      1.0  0.15444  0.10141  0.89957  1.0000
  C   C146      1.0  0.28716  0.05216  0.87278  1.0000
  H   H184      1.0  0.27557  0.04335  0.86774  1.0000
  S   S48       1.0  0.39493  0.21630  0.54576  1.0000
  H   H185      1.0  0.18697  0.06734  0.88150  1.0000
  C   C147      1.0  0.44787  0.22304  0.55587  1.0000
  C   C148      1.0  0.09293  0.21534  0.90873  1.0000
  N   N11       1.0  0.29211  0.06663  0.85046  1.0000
  N   N12       1.0  0.13681  0.10708  0.94428  1.0000
  C   C149      1.0  0.15042  0.09580  0.92742  1.0000
  C   C150      1.0  0.31319  0.09366  0.83701  1.0000
  C   C151      1.0  0.19431  0.01120  0.83821  1.0000
  H   H186      1.0  0.17018  0.09568  0.86197  1.0000
  H   H187      1.0  0.37465  0.22313  0.68590  1.0000
  H   H188      1.0  0.04210  0.15620  0.83506  1.0000
  C   C152      1.0  0.02691  0.12565  0.86016  1.0000
  H   H189      1.0  0.44866  0.19531  0.87817  1.0000
  H   H190      1.0  0.43078  0.20366  0.85612  1.0000
  H   H191      1.0  0.46835  0.14299  0.52320  1.0000
  C   C153      1.0  0.36417  0.23957  0.78964  1.0000
  H   H192      1.0  0.30115  0.05835  0.53745  1.0000
  H   H193      1.0  0.31255  0.10864  0.54520  1.0000
  H   H194      1.0  0.30411  0.07760  0.60385  1.0000
  C   C154      1.0  0.09339  0.23927  0.87088  1.0000
  C   C155      1.0  0.11174  0.23860  0.77400  1.0000
  H   H195      1.0  0.00994  0.19976  0.97693  1.0000
  H   H196      1.0  0.37864  0.21375  0.71903  1.0000
  H   H197      1.0  0.48814  0.18553  0.62308  1.0000
  H   H198      1.0  0.07621  0.22746  0.97877  1.0000
  H   H199      1.0  0.12729  0.22235  0.88378  1.0000
  H   H200      1.0  0.00405  0.17878  0.99756  1.0000
  C   C156      1.0  0.30045  0.07630  0.58274  1.0000
  H   H201      1.0  0.06402  0.24838  0.77183  1.0000
  C   C157      1.0  0.08643  0.20717  0.86431  1.0000
  H   H202      1.0  0.24252  0.00463  0.65109  1.0000
  H   H203      1.0  0.01826  0.16199  0.87010  1.0000
  C   C158      1.0  0.48188  0.14799  0.51494  1.0000
  C   C159      1.0  0.46367  0.21060  0.55590  1.0000
  H   H204      1.0  0.04575  0.23937  0.96211  1.0000
  H   H205      1.0  0.21690  0.05915  0.90978  1.0000
  H   H206      1.0  0.46797  0.16390  0.60382  1.0000
  C   C160      1.0  0.19064  0.02096  0.86131  1.0000
  C   C161      1.0  0.10250  0.23941  0.75010  1.0000
  H   H207      1.0  0.03840  0.19950  0.00403  1.0000
  C   C162      1.0  0.47687  0.16613  0.58452  1.0000
  C   C163      1.0  0.00774  0.15447  0.86002  1.0000
  C   C164      1.0  0.00225  0.19439  0.99616  1.0000
  H   H208      1.0  0.20051  0.01835  0.81974  1.0000
  C   C165      1.0  0.38403  0.09549  0.51367  1.0000
  C   C166      1.0  0.37466  0.24852  0.74221  1.0000
  N   N13       1.0  0.37899  0.24407  0.71372  1.0000
  C   C167      1.0  0.07518  0.24752  0.87720  1.0000
  C   C168      1.0  0.18332  0.01174  0.88549  1.0000
  H   H209      1.0  0.15740  0.00759  0.92914  1.0000
  H   H210      1.0  0.49712  0.13341  0.54662  1.0000
  C   C169      1.0  0.39973  0.24317  0.70777  1.0000
  H   H211      1.0  0.49710  0.13556  0.68330  1.0000
  H   H212      1.0  0.24263  0.00138  0.86913  1.0000
  C   C170      1.0  0.02198  0.14234  0.00312  1.0000
  H   H213      1.0  0.10400  0.24594  0.97079  1.0000
  H   H214      1.0  0.50016  0.14143  0.71671  1.0000
  H   H215      1.0  0.50014  0.15966  0.68967  1.0000
  C   C171      1.0  0.00254  0.13166  0.80013  1.0000
  C   C172      1.0  0.00247  0.13116  0.82882  1.0000
  C   C173      1.0  0.03440  0.25018  0.78450  1.0000
  H   H216      1.0  0.34853  0.41706  0.47057  1.0000
  S   S49       1.0  0.40982  0.29806  0.48802  1.0000
  H   H217      1.0  0.41497  0.26103  0.46904  1.0000
  H   H218      1.0  0.36455  0.46078  0.42616  1.0000
  C   C174      1.0  0.35691  0.46459  0.40761  1.0000
  C   C175      1.0  0.33597  0.48719  0.38455  1.0000
  S   S50       1.0  0.42313  0.35017  0.48621  1.0000
  C   C176      1.0  0.30668  0.49372  0.36181  1.0000
  C   C177      1.0  0.01840  0.35983  0.08552  1.0000
  C   C178      1.0  0.09495  0.28855  0.09901  1.0000
  C   C179      1.0  0.08745  0.27138  0.03083  1.0000
  H   H219      1.0  0.46526  0.27427  0.45688  1.0000
  S   S51       1.0  0.07771  0.32819  0.01334  1.0000
  H   H220      1.0  0.06007  0.31096  0.06670  1.0000
  S   S52       1.0  0.12022  0.29161  0.02602  1.0000
  C   C180      1.0  0.46258  0.30993  0.47102  1.0000
  H   H221      1.0  0.46089  0.26345  0.49110  1.0000
  H   H222      1.0  0.07971  0.28475  0.03152  1.0000
  H   H223      1.0  0.10172  0.30188  0.09709  1.0000
  C   C181      1.0  0.05088  0.30751  0.08547  1.0000
  Fe  Fe26      1.0  0.07926  0.35191  0.03970  1.0000
  S   S53       1.0  0.05591  0.35766  0.07137  1.0000
  S   S54       1.0  0.10877  0.34388  0.05100  1.0000
  C   C182      1.0  0.04927  0.29985  0.13373  1.0000
  H   H224      1.0  0.03701  0.34853  0.02349  1.0000
  C   C183      1.0  0.03209  0.35633  0.06459  1.0000
  H   H225      1.0  0.03295  0.26341  0.01308  1.0000
  H   H226      1.0  0.02258  0.36366  0.10473  1.0000
  H   H227      1.0  0.29144  0.49574  0.36303  1.0000
  H   H228      1.0  0.17856  0.43957  0.02092  1.0000
  Fe  Fe27      1.0  0.11787  0.36404  0.01541  1.0000
  H   H229      1.0  0.06254  0.25494  0.03657  1.0000
  H   H230      1.0  0.11518  0.41317  0.02013  1.0000
  H   H231      1.0  0.12172  0.27418  0.08987  1.0000
  H   H232      1.0  0.36734  0.49550  0.43043  1.0000
  H   H233      1.0  0.03915  0.28883  0.13134  1.0000
  C   C184      1.0  0.09921  0.25490  0.09575  1.0000
  H   H234      1.0  0.36770  0.46462  0.39018  1.0000
  H   H235      1.0  0.37120  0.49835  0.39456  1.0000
  C   C185      1.0  0.07227  0.32091  0.11292  1.0000
  C   C186      1.0  0.41000  0.25938  0.49020  1.0000
  C   C187      1.0  0.07514  0.28705  0.10461  1.0000
  H   H236      1.0  0.47012  0.35808  0.48173  1.0000
  C   C188      1.0  0.34594  0.48966  0.35868  1.0000
  C   C189      1.0  0.31594  0.48909  0.38536  1.0000
  H   H237      1.0  0.17542  0.40536  0.01650  1.0000
  H   H238      1.0  0.04038  0.31259  0.13861  1.0000
  Fe  Fe28      1.0  0.34465  0.49660  0.50036  1.0000
  C   C190      1.0  0.35746  0.44343  0.48272  1.0000
  C   C191      1.0  0.35990  0.42422  0.47803  1.0000
  C   C192      1.0  0.37688  0.41418  0.48307  1.0000
  H   H239      1.0  0.06228  0.33285  0.11790  1.0000
  N   N14       1.0  0.34636  0.48295  0.40913  1.0000
  C   C193      1.0  0.33390  0.48191  0.43453  1.0000
  H   H240      1.0  0.46990  0.30952  0.45044  1.0000
  S   S55       1.0  0.31485  0.48816  0.49827  1.0000
  C   C194      1.0  0.02087  0.25470  0.01304  1.0000
  H   H241      1.0  0.46623  0.32314  0.47942  1.0000
  C   C195      1.0  0.10718  0.27087  0.02819  1.0000
  H   H242      1.0  0.00129  0.27839  0.00722  1.0000
  H   H243      1.0  0.13227  0.25280  0.02566  1.0000
  S   S56       1.0  0.37932  0.39001  0.47685  1.0000
  H   H244      1.0  0.04080  0.31975  0.08816  1.0000
  C   C196      1.0  0.13083  0.43826  0.02264  1.0000
  H   H245      1.0  0.34219  0.47947  0.45263  1.0000
  C   C197      1.0  0.06791  0.26881  0.10457  1.0000
  S   S57       1.0  0.14369  0.38233  0.01400  1.0000
  H   H246      1.0  0.34440  0.49652  0.31579  1.0000
  Fe  Fe29      1.0  0.39779  0.36838  0.50001  1.0000
  H   H247      1.0  0.32407  0.47014  0.43540  1.0000
  C   C198      1.0  0.16291  0.41453  0.01809  1.0000
  C   C199      1.0  0.12900  0.41885  0.02019  1.0000
  C   C200      1.0  0.02648  0.35136  0.03972  1.0000
  C   C201      1.0  0.35995  0.49783  0.41137  1.0000
  C   C202      1.0  0.37238  0.45304  0.49113  1.0000
  H   H248      1.0  0.08182  0.31861  0.12962  1.0000
  C   C203      1.0  0.49883  0.27420  0.48260  1.0000
  N   N15       1.0  0.06224  0.30359  0.10913  1.0000
  H   H249      1.0  0.34418  0.45081  0.47932  1.0000
  H   H250      1.0  0.04248  0.29534  0.08182  1.0000
  H   H251      1.0  0.36114  0.48811  0.35640  1.0000
  C   C204      1.0  0.39149  0.42358  0.49265  1.0000
  C   C205      1.0  0.33651  0.49438  0.33529  1.0000
  H   H252      1.0  0.34722  0.45306  0.40553  1.0000
  S   S58       1.0  0.20701  0.48122  0.02317  1.0000
  C   C206      1.0  0.16474  0.43394  0.02054  1.0000
  C   C207      1.0  0.11701  0.25334  0.02757  1.0000
  H   H253      1.0  0.30702  0.48759  0.40398  1.0000
  C   C208      1.0  0.07775  0.25446  0.03364  1.0000
  C   C209      1.0  0.48341  0.35692  0.49099  1.0000
  Fe  Fe30      1.0  0.10782  0.32164  0.02141  1.0000
  H   H254      1.0  0.08058  0.32607  0.09408  1.0000
  H   H255      1.0  0.05295  0.26665  0.10718  1.0000
  C   C210      1.0  0.10672  0.27263  0.09487  1.0000
  C   C211      1.0  0.14505  0.40684  0.01787  1.0000
  H   H256      1.0  0.44376  0.27891  0.47614  1.0000
  C   C212      1.0  0.31692  0.49655  0.33689  1.0000
  C   C213      1.0  0.38936  0.44300  0.49612  1.0000
  H   H257      1.0  0.32547  0.49529  0.43690  1.0000
  C   C214      1.0  0.45918  0.27659  0.47772  1.0000
  C   C215      1.0  0.14868  0.44595  0.02271  1.0000
  Fe  Fe31      1.0  0.17634  0.48822  0.01780  1.0000
  C   C216      1.0  0.07983  0.25299  0.10041  1.0000
  H   H258      1.0  0.49132  0.31831  0.50461  1.0000
  S   S59       1.0  0.37100  0.47769  0.49411  1.0000
  S   S60       1.0  0.15010  0.47059  0.02545  1.0000
  H   H259      1.0  0.05731  0.29537  0.15162  1.0000
  H   H260      1.0  0.11829  0.44736  0.02452  1.0000
  H   H261      1.0  0.12292  0.49949  0.04017  1.0000
  H   H262      1.0  0.44712  0.31137  0.46864  1.0000
  C   C217      1.0  0.00710  0.35000  0.03603  1.0000
  H   H263      1.0  0.40467  0.41606  0.49647  1.0000
  N   N16       1.0  0.46752  0.29287  0.48860  1.0000
  H   H264      1.0  0.49237  0.26212  0.47606  1.0000
  C   C218      1.0  0.48824  0.29076  0.48968  1.0000
  C   C219      1.0  0.49844  0.30546  0.49849  1.0000
  H   H265      1.0  0.40101  0.45031  0.50257  1.0000
  H   H266      1.0  0.50039  0.35601  0.45303  1.0000
  H   H267      1.0  0.00269  0.34603  0.01706  1.0000
  C   C220      1.0  0.00309  0.26317  0.00975  1.0000
  C   C221      1.0  0.40605  0.27543  0.50474  1.0000
  C   C222      1.0  0.50054  0.35580  0.47479  1.0000
  S   S61       1.0  0.08825  0.37357  0.00654  1.0000
  H   H268      1.0  0.35514  0.26072  0.69991  1.0000
  C   C223      1.0  0.09047  0.26985  0.94797  1.0000
  Fe  Fe32      1.0  0.39505  0.34857  0.55604  1.0000
  S   S62       1.0  0.37838  0.35234  0.59564  1.0000
  Fe  Fe33      1.0  0.41740  0.31072  0.71657  1.0000
  S   S63       1.0  0.42771  0.33992  0.70818  1.0000
  S   S64       1.0  0.40929  0.29361  0.68388  1.0000
  Fe  Fe34      1.0  0.42400  0.30919  0.77511  1.0000
  S   S65       1.0  0.43527  0.33845  0.77199  1.0000
  S   S66       1.0  0.42031  0.29132  0.81442  1.0000
  Fe  Fe35      1.0  0.41059  0.34618  0.74666  1.0000
  S   S67       1.0  0.39351  0.37410  0.74844  1.0000
  Fe  Fe36      1.0  0.45142  0.32982  0.73370  1.0000
  S   S68       1.0  0.48100  0.33409  0.71329  1.0000
  S   S69       1.0  0.39837  0.31756  0.75282  1.0000
  S   S70       1.0  0.44199  0.30003  0.73925  1.0000
  Fe  Fe37      1.0  0.24200  0.41271  0.76003  1.0000
  S   S71       1.0  0.24190  0.44446  0.75361  1.0000
  S   S72       1.0  0.21993  0.39023  0.75998  1.0000
  Fe  Fe38      1.0  0.28341  0.41015  0.77409  1.0000
  S   S73       1.0  0.28569  0.44162  0.77028  1.0000
  S   S74       1.0  0.30543  0.38625  0.78170  1.0000
  Fe  Fe39      1.0  0.25665  0.44333  0.79261  1.0000
  S   S75       1.0  0.24512  0.46606  0.82146  1.0000
  Fe  Fe40      1.0  0.27092  0.44088  0.73172  1.0000
  S   S76       1.0  0.28742  0.45740  0.69605  1.0000
  S   S77       1.0  0.25562  0.41179  0.79950  1.0000
  S   S78       1.0  0.26976  0.40928  0.73519  1.0000
  H   H269      1.0  0.44288  0.29569  0.51645  1.0000
  H   H270      1.0  0.05944  0.37618  0.83938  1.0000
  C   C224      1.0  0.17298  0.30371  0.74866  1.0000
  H   H271      1.0  0.02030  0.25996  0.72505  1.0000
  C   C225      1.0  0.07271  0.27629  0.93890  1.0000
  S   S79       1.0  0.41981  0.32870  0.54783  1.0000
  H   H272      1.0  0.20238  0.41856  0.95524  1.0000
  H   H273      1.0  0.26007  0.48928  0.70024  1.0000
  Fe  Fe41      1.0  0.08920  0.34903  0.98088  1.0000
  S   S80       1.0  0.07415  0.35004  0.94295  1.0000
  Fe  Fe42      1.0  0.11462  0.35814  0.76185  1.0000
  S   S81       1.0  0.12774  0.32914  0.76862  1.0000
  S   S82       1.0  0.13226  0.38292  0.74444  1.0000
  Fe  Fe43      1.0  0.07482  0.34531  0.78342  1.0000
  S   S83       1.0  0.08542  0.31553  0.79242  1.0000
  S   S84       1.0  0.04425  0.35118  0.79868  1.0000
  Fe  Fe44      1.0  0.11016  0.32812  0.80787  1.0000
  S   S85       1.0  0.12269  0.31679  0.84581  1.0000
  Fe  Fe45      1.0  0.10186  0.31912  0.75228  1.0000
  S   S86       1.0  0.10234  0.29511  0.72543  1.0000
  S   S87       1.0  0.09854  0.35778  0.80273  1.0000
  S   S88       1.0  0.08969  0.34823  0.74170  1.0000
  C   C226      1.0  0.02531  0.37289  0.89130  1.0000
  C   C227      1.0  0.02441  0.35326  0.77916  1.0000
  C   C228      1.0  0.02609  0.35316  0.75093  1.0000
  H   H274      1.0  0.04117  0.40201  0.95381  1.0000
  H   H275      1.0  0.03992  0.35233  0.74027  1.0000
  C   C229      1.0  0.37060  0.25885  0.69501  1.0000
  C   C230      1.0  0.11528  0.27252  0.76792  1.0000
  C   C231      1.0  0.10613  0.27336  0.74398  1.0000
  H   H276      1.0  0.00994  0.35468  0.93813  1.0000
  H   H277      1.0  0.47006  0.32442  0.57717  1.0000
  H   H278      1.0  0.12022  0.28524  0.77499  1.0000
  H   H279      1.0  0.31533  0.47675  0.66035  1.0000
  H   H280      1.0  0.21680  0.49884  0.89998  1.0000
  C   C232      1.0  0.08803  0.34279  0.91483  1.0000
  C   C233      1.0  0.07931  0.33820  0.89216  1.0000
  C   C234      1.0  0.09012  0.33090  0.87035  1.0000
  C   C235      1.0  0.10957  0.32777  0.87161  1.0000
  C   C236      1.0  0.11836  0.33279  0.89396  1.0000
  C   C237      1.0  0.10759  0.34057  0.91539  1.0000
  H   H281      1.0  0.06418  0.34013  0.89154  1.0000
  H   H282      1.0  0.08333  0.32735  0.85285  1.0000
  H   H283      1.0  0.13347  0.33078  0.89460  1.0000
  H   H284      1.0  0.11446  0.34483  0.93229  1.0000
  C   C238      1.0  0.24102  0.46883  0.85723  1.0000
  C   C239      1.0  0.22939  0.48409  0.86599  1.0000
  C   C240      1.0  0.03701  0.38737  0.96006  1.0000
  C   C241      1.0  0.23401  0.47494  0.91363  1.0000
  C   C242      1.0  0.15896  0.29802  0.73345  1.0000
  C   C243      1.0  0.24908  0.45660  0.87702  1.0000
  H   H285      1.0  0.01065  0.29898  0.83373  1.0000
  C   C244      1.0  0.49912  0.31842  0.58088  1.0000
  H   H286      1.0  0.33677  0.37475  0.52952  1.0000
  C   C245      1.0  0.28755  0.46579  0.66101  1.0000
  C   C246      1.0  0.27240  0.46372  0.64537  1.0000
  C   C247      1.0  0.27314  0.47089  0.61791  1.0000
  C   C248      1.0  0.28905  0.48012  0.60546  1.0000
  H   H287      1.0  0.15311  0.28425  0.73802  1.0000
  C   C249      1.0  0.18005  0.32163  0.74333  1.0000
  H   H288      1.0  0.25998  0.45678  0.65443  1.0000
  H   H289      1.0  0.26121  0.46934  0.60620  1.0000
  H   H290      1.0  0.44162  0.31903  0.60211  1.0000
  C   C250      1.0  0.19515  0.38944  0.75747  1.0000
  C   C251      1.0  0.18456  0.40425  0.74507  1.0000
  C   C252      1.0  0.16526  0.40218  0.74165  1.0000
  C   C253      1.0  0.15622  0.38548  0.75103  1.0000
  C   C254      1.0  0.16670  0.37089  0.76402  1.0000
  C   C255      1.0  0.18606  0.37279  0.76690  1.0000
  H   H291      1.0  0.19134  0.41709  0.73754  1.0000
  H   H292      1.0  0.15731  0.41357  0.73155  1.0000
  H   H293      1.0  0.15998  0.35800  0.77145  1.0000
  H   H294      1.0  0.19407  0.36125  0.77653  1.0000
  C   C256      1.0  0.36875  0.37723  0.75599  1.0000
  C   C257      1.0  0.35704  0.36196  0.76159  1.0000
  C   C258      1.0  0.33763  0.36505  0.76865  1.0000
  C   C259      1.0  0.32961  0.38339  0.77010  1.0000
  C   C260      1.0  0.34124  0.39868  0.76402  1.0000
  C   C261      1.0  0.36069  0.39559  0.75701  1.0000
  H   H295      1.0  0.36294  0.34776  0.76081  1.0000
  H   H296      1.0  0.32879  0.35312  0.77346  1.0000
  H   H297      1.0  0.33536  0.41285  0.76554  1.0000
  H   H298      1.0  0.36963  0.40751  0.75285  1.0000
  C   C262      1.0  0.41564  0.26721  0.81424  1.0000
  H   H299      1.0  0.37842  0.28448  0.78332  1.0000
  H   H300      1.0  0.09952  0.29691  0.97795  1.0000
  H   H301      1.0  0.42270  0.26464  0.77164  1.0000
  N   N17       1.0  0.18349  0.43738  0.93335  1.0000
  H   H302      1.0  0.37004  0.39726  0.53313  1.0000
  H   H303      1.0  0.40619  0.25667  0.71081  1.0000
  H   H304      1.0  0.20297  0.40686  0.83830  1.0000
  H   H305      1.0  0.38366  0.31874  0.86055  1.0000
  H   H306      1.0  0.01984  0.31642  0.80877  1.0000
  C   C263      1.0  0.39902  0.30906  0.65975  1.0000
  C   C264      1.0  0.39954  0.30452  0.63285  1.0000
  C   C265      1.0  0.39287  0.31771  0.61306  1.0000
  C   C266      1.0  0.38547  0.33527  0.62032  1.0000
  C   C267      1.0  0.38439  0.33952  0.64738  1.0000
  C   C268      1.0  0.39135  0.32649  0.66706  1.0000
  H   H307      1.0  0.40544  0.29101  0.62721  1.0000
  H   H308      1.0  0.39331  0.31424  0.59224  1.0000
  H   H309      1.0  0.37860  0.35305  0.65307  1.0000
  H   H310      1.0  0.39076  0.32996  0.68791  1.0000
  C   C269      1.0  0.39278  0.35512  0.81400  1.0000
  H   H311      1.0  0.38150  0.35004  0.88177  1.0000
  H   H312      1.0  0.08081  0.29214  0.84861  1.0000
  C   C270      1.0  0.33091  0.33665  0.83697  1.0000
  C   C271      1.0  0.33446  0.37016  0.83547  1.0000
  C   C272      1.0  0.32297  0.35488  0.83562  1.0000
  H   H313      1.0  0.38875  0.34843  0.79595  1.0000
  H   H314      1.0  0.38914  0.37042  0.81066  1.0000
  H   H315      1.0  0.38682  0.37102  0.86060  1.0000
  H   H316      1.0  0.20973  0.44904  0.89251  1.0000
  H   H317      1.0  0.32188  0.32485  0.83674  1.0000
  H   H318      1.0  0.44619  0.34382  0.59487  1.0000
  H   H319      1.0  0.30794  0.35729  0.83393  1.0000
  H   H320      1.0  0.37126  0.39429  0.56945  1.0000
  S   S89       1.0  0.40985  0.37423  0.53859  1.0000
  H   H321      1.0  0.11235  0.27850  0.83602  1.0000
  H   H322      1.0  0.15413  0.43072  0.93527  1.0000
  C   C273      1.0  0.15853  0.32876  0.70727  1.0000
  H   H323      1.0  0.17815  0.29435  0.76494  1.0000
  C   C274      1.0  0.07076  0.26640  0.86939  1.0000
  H   H324      1.0  0.19075  0.32617  0.75548  1.0000
  H   H325      1.0  0.19317  0.46560  0.92208  1.0000
  H   H326      1.0  0.00488  0.35475  0.81447  1.0000
  H   H327      1.0  0.48728  0.34248  0.76847  1.0000
  H   H328      1.0  0.19618  0.44019  0.97074  1.0000
  H   H329      1.0  0.40768  0.26509  0.85701  1.0000
  H   H330      1.0  0.02936  0.38759  0.98050  1.0000
  C   C275      1.0  0.49235  0.32406  0.63576  1.0000
  C   C276      1.0  0.22579  0.48705  0.89385  1.0000
  C   C277      1.0  0.02014  0.36068  0.95053  1.0000
  H   H331      1.0  0.46675  0.34872  0.66068  1.0000
  H   H332      1.0  0.37301  0.25542  0.67350  1.0000
  H   H333      1.0  0.31664  0.48906  0.61199  1.0000
  C   C278      1.0  0.05364  0.38518  0.90591  1.0000
  H   H334      1.0  0.23341  0.48696  0.77023  1.0000
  H   H335      1.0  0.44336  0.35381  0.65140  1.0000
  H   H336      1.0  0.40840  0.35376  0.81414  1.0000
  H   H337      1.0  0.07689  0.38777  0.87539  1.0000
  H   H338      1.0  0.17911  0.39177  0.87090  1.0000
  C   C279      1.0  0.06232  0.38400  0.87978  1.0000
  H   H339      1.0  0.39615  0.28526  0.54336  1.0000
  H   H340      1.0  0.42887  0.33633  0.62094  1.0000
  C   C280      1.0  0.03409  0.37189  0.86524  1.0000
  C   C281      1.0  0.44308  0.33256  0.61128  1.0000
  C   C282      1.0  0.20754  0.42896  0.86380  1.0000
  H   H341      1.0  0.45250  0.30205  0.64467  1.0000
  H   H342      1.0  0.37685  0.27275  0.69564  1.0000
  H   H343      1.0  0.06223  0.38989  0.92078  1.0000
  C   C283      1.0  0.37493  0.27086  0.77736  1.0000
  H   H344      1.0  0.07098  0.29001  0.92820  1.0000
  C   C284      1.0  0.48083  0.32307  0.59137  1.0000
  N   N18       1.0  0.34306  0.39567  0.55620  1.0000
  H   H345      1.0  0.02663  0.36663  0.84938  1.0000
  C   C285      1.0  0.37855  0.26647  0.75047  1.0000
  C   C286      1.0  0.33552  0.38442  0.58084  1.0000
  C   C287      1.0  0.33906  0.41604  0.55890  1.0000
  C   C288      1.0  0.35308  0.42970  0.55325  1.0000
  C   C289      1.0  0.32044  0.42288  0.56617  1.0000
  C   C290      1.0  0.34867  0.44889  0.55521  1.0000
  H   H346      1.0  0.46250  0.30811  0.52467  1.0000
  C   C291      1.0  0.33033  0.45505  0.56283  1.0000
  C   C292      1.0  0.01865  0.26212  0.79021  1.0000
  Fe  Fe46      1.0  0.21197  0.49520  0.98049  1.0000
  C   C293      1.0  0.03807  0.28914  0.77939  1.0000
  C   C294      1.0  0.05368  0.27708  0.77368  1.0000
  C   C295      1.0  0.27041  0.48873  0.75490  1.0000
  H   H347      1.0  0.12331  0.27032  0.97523  1.0000
  H   H348      1.0  0.31989  0.38495  0.58330  1.0000
  H   H349      1.0  0.33988  0.36921  0.58032  1.0000
  C   C296      1.0  0.11066  0.28619  0.91305  1.0000
  H   H350      1.0  0.01228  0.31631  0.76153  1.0000
  C   C297      1.0  0.39933  0.27307  0.53195  1.0000
  H   H351      1.0  0.32692  0.46995  0.56408  1.0000
  C   C298      1.0  0.40935  0.25769  0.83874  1.0000
  S   S90       1.0  0.28891  0.48896  0.57061  1.0000
  N   N19       1.0  0.32476  0.40999  0.68346  1.0000
  C   C299      1.0  0.32439  0.39135  0.69913  1.0000
  C   C300      1.0  0.32659  0.42441  0.70293  1.0000
  C   C301      1.0  0.30641  0.41326  0.67133  1.0000
  C   C302      1.0  0.34029  0.41152  0.66181  1.0000
  C   C303      1.0  0.34233  0.42849  0.64501  1.0000
  C   C304      1.0  0.35367  0.39653  0.65663  1.0000
  C   C305      1.0  0.35690  0.43040  0.62452  1.0000
  C   C306      1.0  0.36815  0.39859  0.63597  1.0000
  C   C307      1.0  0.36981  0.41550  0.62005  1.0000
  H   H352      1.0  0.33762  0.38817  0.70944  1.0000
  H   H353      1.0  0.31269  0.39080  0.71549  1.0000
  H   H354      1.0  0.32225  0.37980  0.68605  1.0000
  H   H355      1.0  0.34051  0.42284  0.71176  1.0000
  H   H356      1.0  0.31542  0.42336  0.71998  1.0000
  H   H357      1.0  0.32516  0.43901  0.69345  1.0000
  H   H358      1.0  0.30470  0.40309  0.65597  1.0000
  H   H359      1.0  0.29435  0.41188  0.68689  1.0000
  H   H360      1.0  0.30471  0.42769  0.66138  1.0000
  H   H361      1.0  0.33271  0.44051  0.64772  1.0000
  H   H362      1.0  0.35338  0.38311  0.66835  1.0000
  H   H363      1.0  0.37820  0.38697  0.63232  1.0000
  H   H364      1.0  0.04335  0.27075  0.93713  1.0000
  C   C308      1.0  0.47689  0.32606  0.61924  1.0000
  H   H365      1.0  0.35821  0.44358  0.61216  1.0000
  H   H366      1.0  0.17452  0.46452  0.94757  1.0000
  C   C309      1.0  0.00977  0.35424  0.73643  1.0000
  H   H367      1.0  0.03285  0.35097  0.95064  1.0000
  H   H368      1.0  0.01341  0.36035  0.97155  1.0000
  H   H369      1.0  0.27052  0.47772  0.74033  1.0000
  H   H370      1.0  0.17895  0.34778  0.72033  1.0000
  H   H371      1.0  0.16976  0.46147  0.91314  1.0000
  C   C310      1.0  0.15185  0.31029  0.71303  1.0000
  H   H372      1.0  0.36597  0.37519  0.55051  1.0000
  C   C311      1.0  0.36779  0.25743  0.79690  1.0000
  H   H373      1.0  0.12594  0.25460  0.80060  1.0000
  C   C312      1.0  0.08420  0.27752  0.85478  1.0000
  C   C313      1.0  0.45195  0.31623  0.65263  1.0000
  C   C314      1.0  0.00759  0.30744  0.81470  1.0000
  N   N20       1.0  0.15010  0.34176  0.68636  1.0000
  C   C315      1.0  0.15896  0.36035  0.68233  1.0000
  C   C316      1.0  0.15195  0.33321  0.65998  1.0000
  C   C317      1.0  0.12980  0.34525  0.69431  1.0000
  H   H374      1.0  0.15724  0.36798  0.70114  1.0000
  H   H375      1.0  0.17426  0.35890  0.67594  1.0000
  H   H376      1.0  0.15230  0.36984  0.66660  1.0000
  H   H377      1.0  0.16696  0.32937  0.65408  1.0000
  H   H378      1.0  0.14655  0.34302  0.64353  1.0000
  H   H379      1.0  0.14376  0.32027  0.66044  1.0000
  H   H380      1.0  0.12796  0.35151  0.71417  1.0000
  H   H381      1.0  0.12290  0.35527  0.67948  1.0000
  H   H382      1.0  0.12170  0.33217  0.69631  1.0000
  H   H383      1.0  0.14056  0.30540  0.70242  1.0000
  H   H384      1.0  0.21254  0.44019  0.94154  1.0000
  C   C318      1.0  0.35040  0.33359  0.83817  1.0000
  H   H385      1.0  0.17015  0.40467  0.91400  1.0000
  H   H386      1.0  0.34089  0.38938  0.59934  1.0000
  C   C319      1.0  0.10205  0.26980  0.84779  1.0000
  H   H387      1.0  0.04999  0.37838  0.96287  1.0000
  C   C320      1.0  0.31624  0.44209  0.56828  1.0000
  C   C321      1.0  0.45776  0.34927  0.64331  1.0000
  H   H388      1.0  0.09280  0.25732  0.71644  1.0000
  H   H389      1.0  0.11034  0.49440  0.99849  1.0000
  C   C322      1.0  0.36347  0.39056  0.55226  1.0000
  C   C323      1.0  0.23715  0.49495  0.75043  1.0000
  C   C324      1.0  0.09991  0.25674  0.73494  1.0000
  H   H390      1.0  0.16173  0.43740  0.96633  1.0000
  H   H391      1.0  0.36751  0.42604  0.54673  1.0000
  H   H392      1.0  0.11546  0.30877  0.95322  1.0000
  Fe  Fe47      1.0  0.43368  0.35403  0.52680  1.0000
  H   H393      1.0  0.31842  0.39256  0.53442  1.0000
  H   H394      1.0  0.40557  0.32484  0.84263  1.0000
  C   C325      1.0  0.10666  0.25097  0.85559  1.0000
  C   C326      1.0  0.38997  0.32628  0.84177  1.0000
  H   H395      1.0  0.46292  0.36051  0.62804  1.0000
  H   H396      1.0  0.13674  0.28244  0.94837  1.0000
  H   H397      1.0  0.12356  0.29444  0.90809  1.0000
  N   N21       1.0  0.02529  0.38000  0.94013  1.0000
  H   H398      1.0  0.05679  0.27243  0.87441  1.0000
  C   C327      1.0  0.17304  0.33401  0.72292  1.0000
  S   S91       1.0  0.46274  0.35723  0.54068  1.0000
  H   H399      1.0  0.16849  0.41469  0.95603  1.0000
  C   C328      1.0  0.05682  0.26536  0.94388  1.0000
  H   H400      1.0  0.21819  0.43541  0.84959  1.0000
  H   H401      1.0  0.33950  0.39793  0.51356  1.0000
  C   C329      1.0  0.24570  0.45972  0.90487  1.0000
  H   H402      1.0  0.25809  0.44482  0.87091  1.0000
  N   N22       1.0  0.38323  0.34633  0.83912  1.0000
  H   H403      1.0  0.35559  0.31912  0.83898  1.0000
  C   C330      1.0  0.19931  0.43390  0.95097  1.0000
  H   H404      1.0  0.32821  0.38433  0.83354  1.0000
  C   C331      1.0  0.30352  0.47492  0.64856  1.0000
  H   H405      1.0  0.09112  0.30819  0.94751  1.0000
  H   H406      1.0  0.43727  0.31896  0.66110  1.0000
  H   H407      1.0  0.30887  0.41350  0.56973  1.0000
  C   C332      1.0  0.36253  0.34891  0.83800  1.0000
  C   C333      1.0  0.05258  0.37736  0.85951  1.0000
  C   C334      1.0  0.30432  0.48196  0.62104  1.0000
  C   C335      1.0  0.50082  0.34114  0.75710  1.0000
  C   C336      1.0  0.16623  0.42965  0.94821  1.0000
  H   H408      1.0  0.30189  0.44710  0.57362  1.0000
  C   C337      1.0  0.18006  0.45807  0.92868  1.0000
  C   C338      1.0  0.18855  0.42882  0.90738  1.0000
  H   H409      1.0  0.01114  0.40677  0.93107  1.0000
  C   C339      1.0  0.18557  0.40442  0.87584  1.0000
  H   H410      1.0  0.11268  0.27312  0.90225  1.0000
  H   H411      1.0  0.38118  0.41709  0.60429  1.0000
  H   H412      1.0  0.46089  0.31551  0.67007  1.0000
  C   C340      1.0  0.18044  0.41211  0.90057  1.0000
  C   C341      1.0  0.03483  0.37950  0.91254  1.0000
  C   C342      1.0  0.35394  0.36730  0.83644  1.0000
  C   C343      1.0  0.20249  0.43677  0.88841  1.0000
  C   C344      1.0  0.38927  0.35549  0.86261  1.0000
  H   H413      1.0  0.25218  0.45019  0.91978  1.0000
  C   C345      1.0  0.10307  0.29966  0.95582  1.0000
  H   H414      1.0  0.00555  0.25537  0.79624  1.0000
  H   H415      1.0  0.38684  0.31869  0.82399  1.0000
  H   H416      1.0  0.36223  0.37968  0.83542  1.0000
  H   H417      1.0  0.40464  0.35296  0.86491  1.0000
  S   S92       1.0  0.22991  0.47773  0.94937  1.0000
  S   S93       1.0  0.38160  0.34348  0.51828  1.0000
  C   C346      1.0  0.00787  0.39220  0.93923  1.0000
  C   C347      1.0  0.19902  0.41287  0.85745  1.0000
  H   H418      1.0  0.38492  0.27710  0.73634  1.0000
  H   H419      1.0  0.35947  0.45913  0.55021  1.0000
  C   C348      1.0  0.05186  0.25765  0.77630  1.0000
  C   C349      1.0  0.02004  0.28204  0.78785  1.0000
  H   H420      1.0  0.04024  0.30414  0.77694  1.0000
  S   S94       1.0  0.11944  0.34092  0.98674  1.0000
  C   C350      1.0  0.39610  0.25486  0.54421  1.0000
  H   H421      1.0  0.12869  0.25962  0.94352  1.0000
  N   N23       1.0  0.45772  0.33094  0.63116  1.0000
  N   N24       1.0  0.10700  0.28183  0.94263  1.0000
  H   H422      1.0  0.09901  0.29482  0.90409  1.0000
  C   C351      1.0  0.12464  0.27302  0.95285  1.0000
  C   C352      1.0  0.41785  0.25740  0.79069  1.0000
  C   C353      1.0  0.33396  0.38998  0.53250  1.0000
  H   H423      1.0  0.06727  0.28284  0.76697  1.0000
  H   H424      1.0  0.28473  0.49458  0.75300  1.0000
  H   H425      1.0  0.01115  0.35421  0.71460  1.0000
  C   C354      1.0  0.48359  0.35675  0.51914  1.0000
  C   C355      1.0  0.45855  0.29496  0.51624  1.0000
  H   H426      1.0  0.26828  0.48133  0.77543  1.0000
  C   C356      1.0  0.11839  0.25515  0.78255  1.0000
  N   N25       1.0  0.00367  0.29517  0.79321  1.0000
  H   H427      1.0  0.49042  0.32602  0.65718  1.0000
  H   H428      1.0  0.23697  0.48476  0.73469  1.0000
  Fe  Fe48      1.0  0.40775  0.32573  0.50819  1.0000
  H   H429      1.0  0.39037  0.25320  0.56504  1.0000
  C   C357      1.0  0.00634  0.35450  0.79267  1.0000
  H   H430      1.0  0.36570  0.26063  0.81790  1.0000
  C   C358      1.0  0.09129  0.25184  0.96241  1.0000
  C   C359      1.0  0.00732  0.25263  0.72465  1.0000
  H   H431      1.0  0.22303  0.49371  0.85108  1.0000
  H   H432      1.0  0.46252  0.28284  0.53045  1.0000
  H   H433      1.0  0.01105  0.36822  0.89473  1.0000
  H   H434      1.0  0.50109  0.35574  0.55263  1.0000
  C   C360      1.0  0.50088  0.35568  0.53091  1.0000
  Fe  Fe49      1.0  0.40258  0.68735  0.45939  1.0000
  S   S95       1.0  0.39006  0.69893  0.42108  1.0000
  Fe  Fe50      1.0  0.42199  0.65294  0.29409  1.0000
  S   S96       1.0  0.43498  0.63391  0.26343  1.0000
  S   S97       1.0  0.41944  0.64107  0.33724  1.0000
  Fe  Fe51      1.0  0.41264  0.68391  0.25215  1.0000
  S   S98       1.0  0.42446  0.66700  0.21799  1.0000
  S   S99       1.0  0.39921  0.71249  0.24145  1.0000
  Fe  Fe52      1.0  0.40942  0.64272  0.24076  1.0000
  S   S100      1.0  0.39328  0.61949  0.22472  1.0000
  Fe  Fe53      1.0  0.44878  0.65996  0.24406  1.0000
  S   S101      1.0  0.47891  0.66239  0.22463  1.0000
  S   S102      1.0  0.39582  0.66029  0.27283  1.0000
  S   S103      1.0  0.43768  0.67836  0.27686  1.0000
  Fe  Fe54      1.0  0.31077  0.51631  0.47423  1.0000
  H   H435      1.0  0.45689  0.69995  0.22069  1.0000
  H   H436      1.0  0.30963  0.50068  0.31886  1.0000
  H   H437      1.0  0.00910  0.68797  0.28712  1.0000
  Fe  Fe55      1.0  0.44110  0.67951  0.48090  1.0000
  C   C361      1.0  0.13387  0.74140  0.08292  1.0000
  Fe  Fe56      1.0  0.28333  0.59466  0.23514  1.0000
  S   S104      1.0  0.29185  0.56412  0.23645  1.0000
  S   S105      1.0  0.30347  0.61885  0.22773  1.0000
  Fe  Fe57      1.0  0.24139  0.58589  0.24881  1.0000
  S   S106      1.0  0.24822  0.55441  0.25268  1.0000
  S   S107      1.0  0.21175  0.59832  0.24217  1.0000
  Fe  Fe58      1.0  0.27323  0.56167  0.27565  1.0000
  S   S108      1.0  0.29131  0.54958  0.31065  1.0000
  Fe  Fe59      1.0  0.26621  0.55993  0.21343  1.0000
  S   S109      1.0  0.26878  0.54402  0.17401  1.0000
  S   S110      1.0  0.26484  0.59269  0.27400  1.0000
  S   S111      1.0  0.25927  0.59095  0.20969  1.0000
  H   H438      1.0  0.00527  0.62832  0.15500  1.0000
  S   S112      1.0  0.06633  0.64227  0.03447  1.0000
  Fe  Fe60      1.0  0.06925  0.66797  0.05632  1.0000
  S   S113      1.0  0.05357  0.67340  0.09592  1.0000
  H   H439      1.0  0.04273  0.74786  0.08752  1.0000
  Fe  Fe61      1.0  0.07928  0.67453  0.26093  1.0000
  S   S114      1.0  0.08528  0.68339  0.21714  1.0000
  S   S115      1.0  0.04910  0.68035  0.27798  1.0000
  Fe  Fe62      1.0  0.12115  0.66191  0.26709  1.0000
  S   S116      1.0  0.12941  0.67041  0.22361  1.0000
  S   S117      1.0  0.14308  0.64702  0.29332  1.0000
  Fe  Fe63      1.0  0.11089  0.69626  0.22969  1.0000
  S   S118      1.0  0.11641  0.72455  0.20749  1.0000
  Fe  Fe64      1.0  0.10302  0.65665  0.21588  1.0000
  S   S119      1.0  0.10479  0.63645  0.18334  1.0000
  S   S120      1.0  0.10417  0.68905  0.27412  1.0000
  S   S121      1.0  0.09540  0.64664  0.25889  1.0000
  C   C362      1.0  0.02995  0.67607  0.25881  1.0000
  C   C363      1.0  0.03279  0.66733  0.23452  1.0000
  H   H440      1.0  0.10211  0.51310  0.04928  1.0000
  H   H441      1.0  0.04689  0.66295  0.22727  1.0000
  C   C364      1.0  0.47236  0.74855  0.18770  1.0000
  H   H442      1.0  0.05961  0.70862  0.11975  1.0000
  C   C365      1.0  0.12015  0.73993  0.25571  1.0000
  H   H443      1.0  0.35895  0.58951  0.36646  1.0000
  H   H444      1.0  0.15359  0.55719  0.03289  1.0000
  H   H445      1.0  0.12201  0.72566  0.26441  1.0000
  C   C366      1.0  0.32034  0.56447  0.44908  1.0000
  C   C367      1.0  0.06584  0.66076  0.12085  1.0000
  C   C368      1.0  0.06188  0.66432  0.14795  1.0000
  C   C369      1.0  0.07295  0.65548  0.16761  1.0000
  C   C370      1.0  0.08834  0.64367  0.16006  1.0000
  C   C371      1.0  0.09167  0.63930  0.13318  1.0000
  C   C372      1.0  0.08029  0.64775  0.11357  1.0000
  H   H446      1.0  0.05060  0.67421  0.15375  1.0000
  H   H447      1.0  0.06968  0.65792  0.18859  1.0000
  H   H448      1.0  0.10338  0.62989  0.12732  1.0000
  H   H449      1.0  0.08294  0.64436  0.09278  1.0000
  C   C373      1.0  0.19601  0.61489  0.25805  1.0000
  C   C374      1.0  0.19084  0.61322  0.28589  1.0000
  C   C375      1.0  0.17515  0.62383  0.29668  1.0000
  C   C376      1.0  0.16440  0.63612  0.27979  1.0000
  C   C377      1.0  0.17016  0.63841  0.25221  1.0000
  C   C378      1.0  0.18576  0.62780  0.24144  1.0000
  H   H450      1.0  0.19830  0.60306  0.29890  1.0000
  H   H451      1.0  0.17087  0.62194  0.31807  1.0000
  H   H452      1.0  0.16230  0.64797  0.23899  1.0000
  H   H453      1.0  0.18955  0.62913  0.21988  1.0000
  S   S122      1.0  0.10065  0.66738  0.04952  1.0000
  C   C379      1.0  0.22437  0.53674  0.12682  1.0000
  C   C380      1.0  0.23488  0.54213  0.14796  1.0000
  C   C381      1.0  0.25437  0.53794  0.14784  1.0000
  H   H454      1.0  0.35908  0.63027  0.42521  1.0000
  H   H455      1.0  0.46632  0.65835  0.33341  1.0000
  H   H456      1.0  0.22785  0.54934  0.16451  1.0000
  S   S123      1.0  0.38688  0.67835  0.49907  1.0000
  H   H457      1.0  0.19026  0.56097  0.02488  1.0000
  H   H458      1.0  0.26247  0.53185  0.40308  1.0000
  C   C382      1.0  0.29276  0.53182  0.40273  1.0000
  C   C383      1.0  0.30935  0.53559  0.38641  1.0000
  C   C384      1.0  0.30856  0.54138  0.35855  1.0000
  C   C385      1.0  0.29121  0.54378  0.34652  1.0000
  C   C386      1.0  0.27463  0.54069  0.36308  1.0000
  C   C387      1.0  0.27544  0.53466  0.39082  1.0000
  C   C388      1.0  0.45980  0.62931  0.49684  1.0000
  H   H459      1.0  0.32153  0.54350  0.34603  1.0000
  H   H460      1.0  0.26116  0.54237  0.35434  1.0000
  S   S124      1.0  0.11499  0.61601  0.03637  1.0000
  C   C389      1.0  0.32843  0.61834  0.22831  1.0000
  C   C390      1.0  0.33734  0.63524  0.23076  1.0000
  C   C391      1.0  0.35711  0.63567  0.23066  1.0000
  C   C392      1.0  0.36827  0.61926  0.22730  1.0000
  C   C393      1.0  0.35938  0.60231  0.22488  1.0000
  C   C394      1.0  0.33956  0.60178  0.22577  1.0000
  H   H461      1.0  0.32891  0.64815  0.23263  1.0000
  H   H462      1.0  0.36375  0.64882  0.23240  1.0000
  H   H463      1.0  0.36792  0.58957  0.22211  1.0000
  H   H464      1.0  0.33294  0.58869  0.22381  1.0000
  C   C395      1.0  0.40089  0.73037  0.26335  1.0000
  C   C396      1.0  0.49847  0.64472  0.35761  1.0000
  H   H465      1.0  0.41754  0.71377  0.29147  1.0000
  C   C397      1.0  0.08336  0.74735  0.15369  1.0000
  H   H466      1.0  0.48498  0.66193  0.28222  1.0000
  C   C398      1.0  0.03874  0.73097  0.29543  1.0000
  C   C399      1.0  0.31609  0.57495  0.12633  1.0000
  C   C400      1.0  0.39532  0.68271  0.39666  1.0000
  C   C401      1.0  0.39929  0.68894  0.36945  1.0000
  C   C402      1.0  0.40590  0.67604  0.35062  1.0000
  C   C403      1.0  0.40856  0.65699  0.35915  1.0000
  C   C404      1.0  0.40368  0.65068  0.38603  1.0000
  C   C405      1.0  0.39693  0.66352  0.40471  1.0000
  H   H467      1.0  0.39788  0.70377  0.36309  1.0000
  H   H468      1.0  0.40949  0.68092  0.32976  1.0000
  H   H469      1.0  0.40548  0.63592  0.39258  1.0000
  H   H470      1.0  0.39312  0.65858  0.42546  1.0000
  C   C406      1.0  0.29950  0.58965  0.16338  1.0000
  C   C407      1.0  0.33404  0.59262  0.15437  1.0000
  C   C408      1.0  0.33208  0.61173  0.16087  1.0000
  C   C409      1.0  0.35267  0.58537  0.14818  1.0000
  C   C410      1.0  0.34786  0.62253  0.16200  1.0000
  C   C411      1.0  0.36835  0.59627  0.14962  1.0000
  C   C412      1.0  0.36595  0.61476  0.15676  1.0000
  H   H471      1.0  0.29584  0.60226  0.14988  1.0000
  H   H472      1.0  0.30781  0.55432  0.17435  1.0000
  H   H473      1.0  0.29976  0.59397  0.18438  1.0000
  H   H474      1.0  0.31858  0.61854  0.16621  1.0000
  H   H475      1.0  0.35526  0.57110  0.14263  1.0000
  H   H476      1.0  0.34609  0.63681  0.16813  1.0000
  H   H477      1.0  0.38248  0.59030  0.14569  1.0000
  H   H478      1.0  0.37813  0.62299  0.15884  1.0000
  N   N26       1.0  0.12750  0.69014  0.13476  1.0000
  C   C413      1.0  0.14241  0.68928  0.15409  1.0000
  C   C414      1.0  0.10884  0.69026  0.15026  1.0000
  C   C415      1.0  0.12934  0.67256  0.12042  1.0000
  C   C416      1.0  0.12925  0.70754  0.11652  1.0000
  C   C417      1.0  0.13349  0.70733  0.08809  1.0000
  C   C418      1.0  0.12740  0.72546  0.12727  1.0000
  H   H479      1.0  0.16051  0.62761  0.08594  1.0000
  H   H480      1.0  0.02557  0.63699  0.11560  1.0000
  C   C419      1.0  0.01146  0.68140  0.26821  1.0000
  H   H481      1.0  0.14035  0.70059  0.16841  1.0000
  H   H482      1.0  0.14261  0.67570  0.16678  1.0000
  H   H483      1.0  0.15663  0.69077  0.14329  1.0000
  H   H484      1.0  0.10667  0.70225  0.16327  1.0000
  H   H485      1.0  0.10722  0.67736  0.16420  1.0000
  H   H486      1.0  0.09720  0.69091  0.13651  1.0000
  H   H487      1.0  0.14347  0.67089  0.10942  1.0000
  H   H488      1.0  0.12758  0.65982  0.13480  1.0000
  H   H489      1.0  0.11824  0.67214  0.10592  1.0000
  H   H490      1.0  0.13503  0.69447  0.07789  1.0000
  H   H491      1.0  0.12447  0.72676  0.14876  1.0000
  H   H492      1.0  0.35261  0.51196  0.41147  1.0000
  H   H493      1.0  0.15543  0.63895  0.03866  1.0000
  H   H494      1.0  0.46941  0.68039  0.34737  1.0000
  H   H495      1.0  0.33310  0.56483  0.46058  1.0000
  H   H496      1.0  0.31739  0.59365  0.47913  1.0000
  C   C420      1.0  0.11648  0.51406  0.03885  1.0000
  C   C421      1.0  0.26302  0.52846  0.12597  1.0000
  H   H497      1.0  0.33260  0.57392  0.39253  1.0000
  C   C422      1.0  0.40082  0.74900  0.37898  1.0000
  H   H498      1.0  0.30375  0.56596  0.12547  1.0000
  H   H499      1.0  0.03005  0.63798  0.01936  1.0000
  H   H500      1.0  0.37233  0.61757  0.38262  1.0000
  N   N27       1.0  0.13458  0.59633  0.23424  1.0000
  C   C423      1.0  0.14107  0.61296  0.21678  1.0000
  C   C424      1.0  0.11397  0.59533  0.23202  1.0000
  C   C425      1.0  0.14566  0.57935  0.22603  1.0000
  C   C426      1.0  0.13743  0.56387  0.21569  1.0000
  C   C427      1.0  0.16548  0.57807  0.22789  1.0000
  C   C428      1.0  0.14849  0.54817  0.20792  1.0000
  C   C429      1.0  0.17639  0.56237  0.22006  1.0000
  C   C430      1.0  0.16792  0.54742  0.21011  1.0000
  H   H501      1.0  0.15635  0.61494  0.21736  1.0000
  H   H502      1.0  0.13369  0.62619  0.22314  1.0000
  H   H503      1.0  0.13843  0.61165  0.19526  1.0000
  H   H504      1.0  0.10796  0.58333  0.24508  1.0000
  H   H505      1.0  0.10620  0.60834  0.23847  1.0000
  H   H506      1.0  0.12251  0.56356  0.21341  1.0000
  H   H507      1.0  0.17281  0.58928  0.23538  1.0000
  H   H508      1.0  0.14197  0.53646  0.20019  1.0000
  H   H509      1.0  0.19153  0.56190  0.22183  1.0000
  H   H510      1.0  0.17646  0.53524  0.20411  1.0000
  H   H511      1.0  0.13918  0.72349  0.05006  1.0000
  H   H512      1.0  0.12528  0.52256  0.05044  1.0000
  H   H513      1.0  0.11065  0.59422  0.21070  1.0000
  H   H514      1.0  0.38497  0.73767  0.43622  1.0000
  H   H515      1.0  0.31424  0.58760  0.11200  1.0000
  H   H516      1.0  0.03263  0.71784  0.29168  1.0000
  S   S125      1.0  0.34114  0.52352  0.47376  1.0000
  C   C431      1.0  0.16716  0.62002  0.06946  1.0000
  C   C432      1.0  0.07326  0.73556  0.11222  1.0000
  H   H517      1.0  0.29459  0.58555  0.47586  1.0000
  H   H518      1.0  0.30146  0.57391  0.40538  1.0000
  C   C433      1.0  0.33769  0.60961  0.43303  1.0000
  N   N28       1.0  0.31972  0.60673  0.31195  1.0000
  C   C434      1.0  0.31263  0.60184  0.34040  1.0000
  C   C435      1.0  0.30927  0.62392  0.30150  1.0000
  C   C436      1.0  0.31514  0.59104  0.29600  1.0000
  C   C437      1.0  0.34014  0.61025  0.31054  1.0000
  C   C438      1.0  0.34681  0.62481  0.32476  1.0000
  C   C439      1.0  0.35386  0.59981  0.29482  1.0000
  C   C440      1.0  0.36599  0.62861  0.32335  1.0000
  C   C441      1.0  0.37298  0.60378  0.29352  1.0000
  C   C442      1.0  0.37903  0.61808  0.30779  1.0000
  H   H519      1.0  0.32002  0.58883  0.34866  1.0000
  H   H520      1.0  0.31452  0.61325  0.35378  1.0000
  H   H521      1.0  0.29726  0.59910  0.34197  1.0000
  H   H522      1.0  0.30988  0.63583  0.31445  1.0000
  H   H523      1.0  0.29408  0.62142  0.29990  1.0000
  H   H524      1.0  0.31516  0.62881  0.28084  1.0000
  H   H525      1.0  0.32230  0.57750  0.30287  1.0000
  H   H526      1.0  0.29981  0.58846  0.29805  1.0000
  H   H527      1.0  0.31883  0.59413  0.27405  1.0000
  H   H528      1.0  0.33722  0.63359  0.33670  1.0000
  H   H529      1.0  0.35020  0.58885  0.28265  1.0000
  H   H530      1.0  0.37085  0.64003  0.33386  1.0000
  H   H531      1.0  0.38315  0.59619  0.28053  1.0000
  H   H532      1.0  0.39384  0.62128  0.30624  1.0000
  C   C443      1.0  0.18425  0.56214  0.07858  1.0000
  C   C444      1.0  0.18610  0.59277  0.05372  1.0000
  H   H533      1.0  0.48934  0.71752  0.49534  1.0000
  C   C445      1.0  0.18341  0.60008  0.02676  1.0000
  C   C446      1.0  0.29775  0.58243  0.42294  1.0000
  H   H534      1.0  0.01864  0.65477  0.09089  1.0000
  C   C447      1.0  0.17803  0.60351  0.07489  1.0000
  H   H535      1.0  0.17039  0.56073  0.07033  1.0000
  H   H536      1.0  0.33290  0.61570  0.45171  1.0000
  H   H537      1.0  0.19073  0.54773  0.08167  1.0000
  H   H538      1.0  0.30099  0.60785  0.45923  1.0000
  H   H539      1.0  0.49463  0.73276  0.16652  1.0000
  H   H540      1.0  0.06207  0.70585  0.16864  1.0000
  H   H541      1.0  0.27798  0.52500  0.12541  1.0000
  S   S126      1.0  0.47176  0.67980  0.46584  1.0000
  N   N29       1.0  0.07141  0.73717  0.08263  1.0000
  C   C448      1.0  0.33767  0.58647  0.39990  1.0000
  Fe  Fe65      1.0  0.40827  0.65395  0.50068  1.0000
  S   S127      1.0  0.17711  0.51598  0.03659  1.0000
  H   H542      1.0  0.32395  0.55553  0.43199  1.0000
  H   H543      1.0  0.13272  0.58117  0.05532  1.0000
  S   S128      1.0  0.21955  0.52087  0.07799  1.0000
  H   H544      1.0  0.02187  0.65870  0.14974  1.0000
  S   S129      1.0  0.42255  0.70562  0.47675  1.0000
  H   H545      1.0  0.07621  0.70727  0.07815  1.0000
  C   C449      1.0  0.47701  0.71458  0.19317  1.0000
  H   H546      1.0  0.01404  0.74110  0.31828  1.0000
  H   H547      1.0  0.08088  0.72196  0.04789  1.0000
  Fe  Fe66      1.0  0.09775  0.64297  0.02419  1.0000
  H   H548      1.0  0.21023  0.58445  0.09339  1.0000
  C   C450      1.0  0.45608  0.74796  0.20627  1.0000
  H   H549      1.0  0.36427  0.74413  0.36835  1.0000
  C   C451      1.0  0.12990  0.59938  0.01902  1.0000
  C   C452      1.0  0.01301  0.64371  0.10614  1.0000
  C   C453      1.0  0.49775  0.66105  0.39862  1.0000
  H   H550      1.0  0.22298  0.58780  0.06081  1.0000
  H   H551      1.0  0.30936  0.55699  0.46254  1.0000
  C   C454      1.0  0.32950  0.59352  0.42429  1.0000
  C   C455      1.0  0.09304  0.56978  0.02682  1.0000
  C   C456      1.0  0.16440  0.62653  0.04285  1.0000
  H   H552      1.0  0.49085  0.66849  0.41498  1.0000
  S   S130      1.0  0.29272  0.52300  0.43763  1.0000
  C   C457      1.0  0.08177  0.72111  0.07022  1.0000
  C   C458      1.0  0.35288  0.61815  0.41798  1.0000
  C   C459      1.0  0.00925  0.66547  0.14061  1.0000
  H   H553      1.0  0.17974  0.59899  0.09584  1.0000
  C   C460      1.0  0.25258  0.52321  0.10483  1.0000
  C   C461      1.0  0.14867  0.56961  0.02125  1.0000
  C   C462      1.0  0.48957  0.67712  0.48857  1.0000
  C   C463      1.0  0.05718  0.73453  0.28556  1.0000
  H   H554      1.0  0.48470  0.70170  0.18803  1.0000
  H   H555      1.0  0.28757  0.58003  0.16355  1.0000
  C   C464      1.0  0.48253  0.73203  0.18120  1.0000
  C   C465      1.0  0.45291  0.74644  0.44736  1.0000
  N   N30       1.0  0.46697  0.65681  0.37715  1.0000
  C   C466      1.0  0.46227  0.66677  0.35100  1.0000
  C   C467      1.0  0.45860  0.63802  0.37974  1.0000
  C   C468      1.0  0.45780  0.66776  0.39916  1.0000
  C   C469      1.0  0.48770  0.65438  0.37789  1.0000
  C   C470      1.0  0.06754  0.71803  0.15656  1.0000
  H   H556      1.0  0.21251  0.57256  0.02158  1.0000
  C   C471      1.0  0.06620  0.71978  0.12855  1.0000
  C   C472      1.0  0.07614  0.73178  0.16909  1.0000
  H   H557      1.0  0.46260  0.62986  0.36186  1.0000
  H   H558      1.0  0.44293  0.63916  0.38142  1.0000
  H   H559      1.0  0.46301  0.62951  0.39807  1.0000
  H   H560      1.0  0.46334  0.68215  0.39842  1.0000
  H   H561      1.0  0.44225  0.66960  0.39772  1.0000
  H   H562      1.0  0.45979  0.66054  0.41948  1.0000
  C   C473      1.0  0.41133  0.72753  0.28609  1.0000
  C   C474      1.0  0.35282  0.59518  0.38496  1.0000
  N   N31       1.0  0.31375  0.58376  0.44001  1.0000
  H   H563      1.0  0.21009  0.55083  0.04128  1.0000
  S   S131      1.0  0.42254  0.66211  0.45975  1.0000
  H   H564      1.0  0.20936  0.53992  0.12752  1.0000
  N   N32       1.0  0.19645  0.57468  0.06013  1.0000
  C   C475      1.0  0.41414  0.74268  0.30150  1.0000
  H   H565      1.0  0.44682  0.66982  0.35040  1.0000
  C   C476      1.0  0.13675  0.58321  0.03388  1.0000
  H   H566      1.0  0.33238  0.55382  0.16480  1.0000
  H   H567      1.0  0.32283  0.53330  0.39492  1.0000
  H   H568      1.0  0.18881  0.59291  0.00924  1.0000
  C   C477      1.0  0.21360  0.57813  0.07377  1.0000
  C   C478      1.0  0.30639  0.59324  0.46449  1.0000
  C   C479      1.0  0.01733  0.66380  0.21994  1.0000
  H   H569      1.0  0.32875  0.56675  0.11859  1.0000
  H   H570      1.0  0.39961  0.74413  0.35848  1.0000
  C   C480      1.0  0.39273  0.74822  0.25668  1.0000
  N   N33       1.0  0.31775  0.58043  0.15416  1.0000
  C   C481      1.0  0.13739  0.59933  0.26283  1.0000
  H   H571      1.0  0.15231  0.60169  0.26602  1.0000
  C   C482      1.0  0.17275  0.61675  0.02158  1.0000
  H   H572      1.0  0.22193  0.56477  0.07833  1.0000
  H   H573      1.0  0.43859  0.72825  0.23213  1.0000
  H   H574      1.0  0.06528  0.72411  0.27415  1.0000
  H   H575      1.0  0.29260  0.59664  0.41511  1.0000
  C   C483      1.0  0.20252  0.56442  0.03584  1.0000
  H   H576      1.0  0.12922  0.61200  0.26981  1.0000
  H   H577      1.0  0.25965  0.51591  0.08839  1.0000
  H   H578      1.0  0.13302  0.58698  0.27663  1.0000
  C   C484      1.0  0.11730  0.74334  0.22824  1.0000
  C   C485      1.0  0.45093  0.72994  0.21809  1.0000
  C   C486      1.0  0.32049  0.56310  0.17229  1.0000
  C   C487      1.0  0.23309  0.52716  0.10501  1.0000
  C   C488      1.0  0.46128  0.71358  0.21164  1.0000
  C   C489      1.0  0.05125  0.73665  0.07724  1.0000
  H   H579      1.0  0.28566  0.57531  0.43453  1.0000
  C   C490      1.0  0.36040  0.61099  0.39399  1.0000
  H   H580      1.0  0.46462  0.72171  0.46748  1.0000
  C   C491      1.0  0.49952  0.66158  0.24267  1.0000
  C   C492      1.0  0.46008  0.73622  0.46976  1.0000
  C   C493      1.0  0.13588  0.72405  0.07170  1.0000
  H   H581      1.0  0.04510  0.72288  0.08427  1.0000
  H   H582      1.0  0.32330  0.56666  0.19293  1.0000
  H   H583      1.0  0.00668  0.63276  0.09537  1.0000
  H   H584      1.0  0.01972  0.65671  0.20148  1.0000
  H   H585      1.0  0.09695  0.72082  0.07387  1.0000
  H   H586      1.0  0.18159  0.56725  0.09910  1.0000
  H   H587      1.0  0.10066  0.54527  0.05079  1.0000
  H   H588      1.0  0.42269  0.74056  0.31858  1.0000
  H   H589      1.0  0.01413  0.67742  0.12637  1.0000
  H   H590      1.0  0.40352  0.73623  0.39276  1.0000
  H   H591      1.0  0.46337  0.64439  0.49556  1.0000
  H   H592      1.0  0.49184  0.63920  0.34124  1.0000
  H   H593      1.0  0.44440  0.62908  0.49449  1.0000
  H   H594      1.0  0.46690  0.62259  0.47912  1.0000
  S   S132      1.0  0.06455  0.68863  0.02134  1.0000
  C   C494      1.0  0.12959  0.74209  0.11065  1.0000
  H   H595      1.0  0.45193  0.73972  0.42875  1.0000
  H   H596      1.0  0.36952  0.73380  0.40052  1.0000
  Fe  Fe67      1.0  0.20849  0.51028  0.03885  1.0000
  C   C495      1.0  0.02834  0.74409  0.31047  1.0000
  H   H597      1.0  0.07742  0.73027  0.19078  1.0000
  H   H598      1.0  0.12125  0.74859  0.02580  1.0000
  H   H599      1.0  0.08825  0.57740  0.04430  1.0000
  C   C496      1.0  0.46096  0.74440  0.49474  1.0000
  C   C497      1.0  0.10043  0.55130  0.03022  1.0000
  H   H600      1.0  0.49493  0.63389  0.48757  1.0000
  H   H601      1.0  0.04930  0.73871  0.05517  1.0000
  C   C498      1.0  0.08193  0.74936  0.12569  1.0000
  C   C499      1.0  0.01706  0.64307  0.01117  1.0000
  C   C500      1.0  0.49858  0.66153  0.27087  1.0000
  C   C501      1.0  0.36721  0.74763  0.38901  1.0000
  Fe  Fe68      1.0  0.09578  0.68636  0.01234  1.0000
  S   S133      1.0  0.11340  0.71221  0.01024  1.0000
  N   N34       1.0  0.11588  0.52195  0.01032  1.0000
  H   H602      1.0  0.38713  0.74757  0.48159  1.0000
  C   C502      1.0  0.10765  0.54141  0.00760  1.0000
  H   H603      1.0  0.14423  0.53121  0.00752  1.0000
  C   C503      1.0  0.49218  0.61233  0.55181  1.0000
  C   C504      1.0  0.14737  0.58831  0.97873  1.0000
  S   S134      1.0  0.40355  0.71357  0.55146  1.0000
  S   S135      1.0  0.33630  0.56852  0.51617  1.0000
  H   H604      1.0  0.17029  0.62170  0.00091  1.0000
  H   H605      1.0  0.26842  0.52229  0.77500  1.0000
  H   H606      1.0  0.02713  0.73882  0.97602  1.0000
  H   H607      1.0  0.13655  0.52578  0.97587  1.0000
  S   S136      1.0  0.42869  0.66982  0.52202  1.0000
  H   H608      1.0  0.49727  0.67252  0.55569  1.0000
  C   C505      1.0  0.35619  0.58307  0.51272  1.0000
  S   S137      1.0  0.18121  0.50126  0.97534  1.0000
  C   C506      1.0  0.15428  0.57220  0.99365  1.0000
  H   H609      1.0  0.10505  0.51322  0.97406  1.0000
  C   C507      1.0  0.38993  0.58781  0.51148  1.0000
  H   H610      1.0  0.40133  0.73618  0.59571  1.0000
  C   C508      1.0  0.48553  0.67533  0.51667  1.0000
  H   H611      1.0  0.46137  0.59160  0.54279  1.0000
  H   H612      1.0  0.48289  0.60583  0.56777  1.0000
  H   H613      1.0  0.26156  0.54243  0.73731  1.0000
  S   S138      1.0  0.09511  0.66202  0.98586  1.0000
  C   C509      1.0  0.41205  0.75007  0.52946  1.0000
  H   H614      1.0  0.45825  0.64309  0.54667  1.0000
  S   S139      1.0  0.30215  0.53046  0.51248  1.0000
  C   C510      1.0  0.10678  0.55113  0.98162  1.0000
  H   H615      1.0  0.44406  0.59888  0.51960  1.0000
  C   C511      1.0  0.26721  0.54294  0.69483  1.0000
  Fe  Fe69      1.0  0.40867  0.69499  0.51656  1.0000
  H   H616      1.0  0.25148  0.50732  0.79302  1.0000
  C   C512      1.0  0.10473  0.50928  0.99617  1.0000
  H   H617      1.0  0.45993  0.70773  0.54333  1.0000
  C   C513      1.0  0.13517  0.60178  0.99127  1.0000
  N   N35       1.0  0.46491  0.61943  0.52286  1.0000
  C   C514      1.0  0.26193  0.50428  0.69955  1.0000
  C   C515      1.0  0.40715  0.73797  0.55246  1.0000
  C   C516      1.0  0.01745  0.65570  0.98814  1.0000
  H   H618      1.0  0.13002  0.61410  0.97952  1.0000
  S   S140      1.0  0.33910  0.51070  0.53954  1.0000
  C   C517      1.0  0.48526  0.61987  0.52701  1.0000
  H   H619      1.0  0.44086  0.72031  0.52757  1.0000
  Fe  Fe70      1.0  0.18418  0.52848  0.99451  1.0000
  C   C518      1.0  0.13551  0.52152  0.99790  1.0000
  Fe  Fe71      1.0  0.33286  0.53702  0.51259  1.0000
  C   C519      1.0  0.40508  0.74533  0.57783  1.0000
  C   C520      1.0  0.09943  0.56963  0.97851  1.0000
  S   S141      1.0  0.03904  0.66363  0.97218  1.0000
  H   H620      1.0  0.15156  0.59045  0.95734  1.0000
  H   H621      1.0  0.47109  0.67517  0.52511  1.0000
  H   H622      1.0  0.08583  0.72566  0.97175  1.0000
  H   H623      1.0  0.46765  0.59217  0.50704  1.0000
  H   H624      1.0  0.22568  0.50576  0.74678  1.0000
  H   H625      1.0  0.41392  0.74454  0.50977  1.0000
  H   H626      1.0  0.24336  0.52691  0.77184  1.0000
  C   C521      1.0  0.01214  0.73683  0.97877  1.0000
  N   N36       1.0  0.25566  0.50372  0.75015  1.0000
  C   C522      1.0  0.46658  0.74328  0.54351  1.0000
  H   H627      1.0  0.49323  0.71800  0.53019  1.0000
  S   S142      1.0  0.17022  0.55598  0.97711  1.0000
  C   C523      1.0  0.26274  0.53378  0.72037  1.0000
  C   C524      1.0  0.10418  0.73487  0.00001  1.0000
  H   H628      1.0  0.11212  0.54463  0.96350  1.0000
  C   C525      1.0  0.26005  0.51406  0.72349  1.0000
  Fe  Fe72      1.0  0.30899  0.50313  0.53671  1.0000
  C   C526      1.0  0.25472  0.51572  0.77337  1.0000
  H   H629      1.0  0.45460  0.62068  0.56501  1.0000
  C   C527      1.0  0.00654  0.71816  0.98073  1.0000
  C   C528      1.0  0.26649  0.51355  0.67419  1.0000
  C   C529      1.0  0.09104  0.73766  0.98046  1.0000
  C   C530      1.0  0.26914  0.53284  0.67183  1.0000
  C   C531      1.0  0.45608  0.71617  0.52461  1.0000
  C   C532      1.0  0.38686  0.60751  0.51004  1.0000
  C   C533      1.0  0.09259  0.57893  0.00107  1.0000
  C   C534      1.0  0.48760  0.72658  0.51265  1.0000
  H   H630      1.0  0.26929  0.55797  0.69284  1.0000
  N   N37       1.0  0.46768  0.73296  0.51857  1.0000
  Fe  Fe73      1.0  0.06371  0.66292  0.99838  1.0000
  H   H631      1.0  0.47135  0.73419  0.56115  1.0000
  H   H632      1.0  0.09945  0.57698  0.95855  1.0000
  H   H633      1.0  0.45177  0.74813  0.54927  1.0000
  H   H634      1.0  0.08748  0.59350  0.99872  1.0000
  C   C535      1.0  0.36835  0.61493  0.50938  1.0000
  C   C536      1.0  0.45361  0.62856  0.54498  1.0000
  C   C537      1.0  0.35314  0.60277  0.51096  1.0000
  H   H635      1.0  0.33888  0.60870  0.51137  1.0000
  C   C538      1.0  0.37473  0.57565  0.51257  1.0000
  C   C539      1.0  0.45930  0.59965  0.52311  1.0000
  H   H636      1.0  0.26810  0.50568  0.65625  1.0000
  C   C540      1.0  0.50035  0.67380  0.53397  1.0000
  H   H637      1.0  0.01703  0.70662  0.97946  1.0000
  H   H638      1.0  0.43828  0.62949  0.54160  1.0000
  H   H639      1.0  0.27274  0.53994  0.65210  1.0000
  H   H640      1.0  0.36572  0.63002  0.50852  1.0000
  H   H641      1.0  0.14229  0.50719  0.00021  1.0000
  H   H642      1.0  0.49678  0.73876  0.50752  1.0000
  S   S143      1.0  0.21568  0.52375  0.99652  1.0000
  H   H643      1.0  0.37733  0.56056  0.51406  1.0000
  S   S144      1.0  0.40651  0.62208  0.51047  1.0000
  H   H644      1.0  0.40415  0.58188  0.51209  1.0000
  H   H645      1.0  0.45766  0.70646  0.50816  1.0000
  H   H646      1.0  0.08972  0.50956  0.00437  1.0000
  C   C541      1.0  0.49872  0.62771  0.50702  1.0000
  C   C542      1.0  0.22632  0.99397  0.15688  1.0000
  C   C543      1.0  0.15773  0.92183  0.01256  1.0000
  H   H647      1.0  0.12812  0.75561  0.11941  1.0000
  Fe  Fe74      1.0  0.24976  0.95639  0.23903  1.0000
  S   S145      1.0  0.25788  0.92631  0.23181  1.0000
  S   S146      1.0  0.24110  0.97758  0.20373  1.0000
  Fe  Fe75      1.0  0.25774  0.95030  0.30118  1.0000
  S   S147      1.0  0.26534  0.91972  0.29624  1.0000
  S   S148      1.0  0.25913  0.95581  0.34663  1.0000
  Fe  Fe76      1.0  0.28191  0.92926  0.25788  1.0000
  S   S149      1.0  0.31355  0.92313  0.25066  1.0000
  Fe  Fe77      1.0  0.24043  0.91958  0.27102  1.0000
  S   S150      1.0  0.22219  0.89388  0.27602  1.0000
  S   S151      1.0  0.27511  0.96002  0.26308  1.0000
  S   S152      1.0  0.23145  0.94955  0.27783  1.0000
  H   H648      1.0  0.38981  0.77726  0.26609  1.0000
  H   H649      1.0  0.14791  0.90237  0.35713  1.0000
  Fe  Fe78      1.0  0.42976  0.83259  0.47115  1.0000
  S   S153      1.0  0.43273  0.81744  0.43324  1.0000
  Fe  Fe79      1.0  0.38995  0.83941  0.25306  1.0000
  S   S154      1.0  0.38826  0.83134  0.29770  1.0000
  S   S155      1.0  0.36172  0.84640  0.23519  1.0000
  Fe  Fe80      1.0  0.43325  0.83298  0.24754  1.0000
  S   S156      1.0  0.43444  0.82573  0.29183  1.0000
  S   S157      1.0  0.46101  0.82710  0.22315  1.0000
  Fe  Fe81      1.0  0.40960  0.80823  0.28843  1.0000
  S   S158      1.0  0.41199  0.77983  0.31175  1.0000
  Fe  Fe82      1.0  0.41308  0.84941  0.29702  1.0000
  S   S159      1.0  0.41280  0.86831  0.33080  1.0000
  S   S160      1.0  0.40918  0.81417  0.24352  1.0000
  S   S161      1.0  0.41404  0.85887  0.25279  1.0000
  S   S162      1.0  0.08852  0.85116  0.05412  1.0000
  S   S163      1.0  0.06936  0.81474  0.03265  1.0000
  Fe  Fe83      1.0  0.09379  0.81981  0.05595  1.0000
  S   S164      1.0  0.09727  0.80077  0.09352  1.0000
  Fe  Fe84      1.0  0.11167  0.82132  0.26567  1.0000
  S   S165      1.0  0.10064  0.84044  0.29755  1.0000
  S   S166      1.0  0.12058  0.79216  0.28179  1.0000
  Fe  Fe85      1.0  0.10352  0.85052  0.22067  1.0000
  S   S167      1.0  0.09102  0.87141  0.24905  1.0000
  S   S168      1.0  0.10707  0.86026  0.17670  1.0000
  Fe  Fe86      1.0  0.11644  0.86312  0.27229  1.0000
  S   S169      1.0  0.13275  0.88708  0.28596  1.0000
  Fe  Fe87      1.0  0.07651  0.84661  0.27112  1.0000
  S   S170      1.0  0.04695  0.84379  0.29203  1.0000
  S   S171      1.0  0.12950  0.84335  0.24266  1.0000
  S   S172      1.0  0.08697  0.82648  0.24040  1.0000
  C   C544      1.0  0.11933  0.77364  0.26074  1.0000
  H   H650      1.0  0.32747  0.95293  0.12475  1.0000
  H   H651      1.0  0.30259  0.95401  0.21453  1.0000
  H   H652      1.0  0.11473  0.79143  0.22458  1.0000
  C   C545      1.0  0.02621  0.84411  0.27447  1.0000
  H   H653      1.0  0.49978  0.84657  0.39358  1.0000
  C   C546      1.0  0.02702  0.84266  0.24652  1.0000
  H   H654      1.0  0.47282  0.86236  0.37683  1.0000
  H   H655      1.0  0.04056  0.84151  0.23513  1.0000
  C   C547      1.0  0.10318  0.81545  0.11774  1.0000
  C   C548      1.0  0.11142  0.83253  0.10920  1.0000
  C   C549      1.0  0.11317  0.84598  0.12770  1.0000
  C   C550      1.0  0.10711  0.84218  0.15493  1.0000
  C   C551      1.0  0.09987  0.82465  0.16383  1.0000
  C   C552      1.0  0.09785  0.81126  0.14517  1.0000
  H   H656      1.0  0.11621  0.83552  0.08818  1.0000
  H   H657      1.0  0.11891  0.85946  0.12077  1.0000
  H   H658      1.0  0.09522  0.82162  0.18482  1.0000
  H   H659      1.0  0.09149  0.79803  0.15182  1.0000
  C   C553      1.0  0.48196  0.83360  0.23632  1.0000
  C   C554      1.0  0.48161  0.84805  0.25377  1.0000
  S   S173      1.0  0.43372  0.86316  0.47496  1.0000
  H   H660      1.0  0.46841  0.85543  0.25923  1.0000
  C   C555      1.0  0.31288  0.95756  0.12366  1.0000
  H   H661      1.0  0.39305  0.78472  0.36410  1.0000
  C   C556      1.0  0.21939  0.99433  0.13085  1.0000
  H   H662      1.0  0.07825  0.76802  0.34591  1.0000
  H   H663      1.0  0.45621  0.85289  0.32754  1.0000
  H   H664      1.0  0.29736  0.92158  0.19852  1.0000
  H   H665      1.0  0.02802  0.86688  0.17471  1.0000
  C   C557      1.0  0.42277  0.83107  0.40682  1.0000
  C   C558      1.0  0.41898  0.85038  0.40850  1.0000
  C   C559      1.0  0.41471  0.86184  0.38539  1.0000
  C   C560      1.0  0.41379  0.85385  0.36081  1.0000
  C   C561      1.0  0.41561  0.83429  0.35992  1.0000
  C   C562      1.0  0.42035  0.82291  0.38282  1.0000
  H   H666      1.0  0.42019  0.85671  0.42714  1.0000
  H   H667      1.0  0.41294  0.87694  0.38632  1.0000
  H   H668      1.0  0.41413  0.82789  0.34137  1.0000
  H   H669      1.0  0.42287  0.80792  0.38156  1.0000
  H   H670      1.0  0.27601  0.96847  0.43818  1.0000
  C   C563      1.0  0.27207  0.96778  0.36959  1.0000
  C   C564      1.0  0.26906  0.96319  0.39773  1.0000
  H   H671      1.0  0.01107  0.84142  0.21171  1.0000
  H   H672      1.0  0.15241  0.86980  0.34384  1.0000
  C   C565      1.0  0.00847  0.84534  0.28903  1.0000
  H   H673      1.0  0.47189  0.81097  0.37221  1.0000
  C   C566      1.0  0.32635  0.90132  0.24767  1.0000
  C   C567      1.0  0.34599  0.90077  0.24939  1.0000
  C   C568      1.0  0.35688  0.88393  0.24647  1.0000
  C   C569      1.0  0.34830  0.86752  0.24106  1.0000
  C   C570      1.0  0.32866  0.86811  0.23917  1.0000
  C   C571      1.0  0.31768  0.88485  0.24280  1.0000
  H   H674      1.0  0.35287  0.91340  0.25318  1.0000
  H   H675      1.0  0.37197  0.88374  0.24786  1.0000
  H   H676      1.0  0.32191  0.85551  0.23487  1.0000
  H   H677      1.0  0.30261  0.88504  0.24129  1.0000
  C   C572      1.0  0.19727  0.89269  0.27698  1.0000
  C   C573      1.0  0.18942  0.87509  0.27551  1.0000
  C   C574      1.0  0.16973  0.87318  0.27780  1.0000
  C   C575      1.0  0.15763  0.88886  0.28200  1.0000
  C   C576      1.0  0.16546  0.90651  0.28319  1.0000
  C   C577      1.0  0.18515  0.90849  0.28033  1.0000
  H   H678      1.0  0.19866  0.86277  0.27295  1.0000
  H   H679      1.0  0.16394  0.85950  0.27693  1.0000
  H   H680      1.0  0.15621  0.91874  0.28633  1.0000
  H   H681      1.0  0.19091  0.92216  0.28117  1.0000
  H   H682      1.0  0.49973  0.81347  0.21499  1.0000
  H   H683      1.0  0.31825  0.96719  0.08160  1.0000
  H   H684      1.0  0.42525  0.76267  0.18226  1.0000
  C   C578      1.0  0.23166  0.97692  0.17121  1.0000
  H   H685      1.0  0.26118  0.97499  0.11449  1.0000
  S   S174      1.0  0.11495  0.82066  0.02032  1.0000
  H   H686      1.0  0.45777  0.76766  0.24984  1.0000
  H   H687      1.0  0.07156  0.76757  0.07666  1.0000
  H   H688      1.0  0.35426  0.75461  0.39833  1.0000
  H   H689      1.0  0.30330  0.97369  0.18970  1.0000
  H   H690      1.0  0.38866  0.96047  0.46997  1.0000
  S   S175      1.0  0.30383  0.99864  0.43128  1.0000
  C   C579      1.0  0.27871  0.97219  0.41675  1.0000
  N   N38       1.0  0.15141  0.89346  0.18828  1.0000
  C   C580      1.0  0.13105  0.89849  0.19318  1.0000
  C   C581      1.0  0.15940  0.89067  0.21506  1.0000
  C   C582      1.0  0.16053  0.90834  0.16993  1.0000
  C   C583      1.0  0.15513  0.91197  0.14305  1.0000
  C   C584      1.0  0.17460  0.91979  0.17805  1.0000
  C   C585      1.0  0.16356  0.92590  0.12526  1.0000
  C   C586      1.0  0.18282  0.93377  0.16014  1.0000
  C   C587      1.0  0.17741  0.93675  0.13377  1.0000
  H   H691      1.0  0.12384  0.88800  0.20785  1.0000
  H   H692      1.0  0.12885  0.91246  0.20170  1.0000
  H   H693      1.0  0.12349  0.89892  0.17442  1.0000
  H   H694      1.0  0.15718  0.90348  0.22653  1.0000
  H   H695      1.0  0.15240  0.87919  0.22812  1.0000
  H   H696      1.0  0.17473  0.88669  0.21316  1.0000
  H   H697      1.0  0.14432  0.90404  0.13560  1.0000
  H   H698      1.0  0.17955  0.91825  0.19813  1.0000
  H   H699      1.0  0.15936  0.92829  0.10471  1.0000
  H   H700      1.0  0.19351  0.94233  0.16678  1.0000
  H   H701      1.0  0.18398  0.94751  0.11989  1.0000
  N   N39       1.0  0.04857  0.86085  0.12477  1.0000
  C   C588      1.0  0.05526  0.84258  0.11435  1.0000
  C   C589      1.0  0.05273  0.87613  0.10338  1.0000
  H   H702      1.0  0.36508  0.91838  0.46826  1.0000
  H   H703      1.0  0.44319  0.78836  0.47403  1.0000
  C   C590      1.0  0.49379  0.86668  0.49826  1.0000
  C   C591      1.0  0.01974  0.86415  0.15828  1.0000
  S   S176      1.0  0.16452  0.98971  0.04871  1.0000
  C   C592      1.0  0.38593  0.76593  0.41565  1.0000
  H   H704      1.0  0.28213  0.96099  0.19760  1.0000
  C   C593      1.0  0.28061  0.96196  0.14212  1.0000
  H   H705      1.0  0.07088  0.84168  0.11053  1.0000
  C   C594      1.0  0.38051  0.77584  0.36787  1.0000
  H   H706      1.0  0.04751  0.89007  0.11014  1.0000
  H   H707      1.0  0.04605  0.87410  0.08442  1.0000
  H   H708      1.0  0.06814  0.87689  0.09767  1.0000
  H   H709      1.0  0.45198  0.85019  0.37374  1.0000
  H   H710      1.0  0.07516  0.86414  0.14161  1.0000
  C   C595      1.0  0.21792  0.97758  0.11833  1.0000
  C   C596      1.0  0.08168  0.77681  0.32680  1.0000
  S   S177      1.0  0.38688  0.88671  0.48913  1.0000
  C   C597      1.0  0.06535  0.75119  0.29078  1.0000
  C   C598      1.0  0.29938  0.95550  0.14629  1.0000
  C   C599      1.0  0.02798  0.86072  0.13199  1.0000
  C   C600      1.0  0.05235  0.79471  0.32927  1.0000
  H   H711      1.0  0.39047  0.78118  0.48887  1.0000
  H   H712      1.0  0.04952  0.84027  0.09475  1.0000
  H   H713      1.0  0.05609  0.87777  0.15622  1.0000
  C   C601      1.0  0.44349  0.76673  0.24261  1.0000
  C   C602      1.0  0.45509  0.76370  0.49545  1.0000
  C   C603      1.0  0.30776  0.96574  0.09862  1.0000
  C   C604      1.0  0.13714  0.89549  0.00888  1.0000
  N   N40       1.0  0.47682  0.83850  0.35259  1.0000
  H   H714      1.0  0.46871  0.83968  0.39540  1.0000
  C   C605      1.0  0.07889  0.75481  0.06863  1.0000
  C   C606      1.0  0.28920  0.97202  0.09534  1.0000
  Fe  Fe88      1.0  0.06590  0.84601  0.02703  1.0000
  Fe  Fe89      1.0  0.19615  0.99175  0.04725  1.0000
  H   H715      1.0  0.43666  0.75464  0.25424  1.0000
  N   N41       1.0  0.44450  0.76500  0.21298  1.0000
  H   H716      1.0  0.22241  0.94744  0.12326  1.0000
  H   H717      1.0  0.32760  0.93613  0.19563  1.0000
  Fe  Fe90      1.0  0.10808  0.85211  0.01628  1.0000
  H   H718      1.0  0.38444  0.75041  0.23929  1.0000
  H   H719      1.0  0.11340  0.76472  0.19575  1.0000
  H   H720      1.0  0.03959  0.80003  0.31901  1.0000
  H   H721      1.0  0.05770  0.79745  0.27512  1.0000
  H   H722      1.0  0.07720  0.80602  0.29060  1.0000
  N   N42       1.0  0.31865  0.92796  0.34521  1.0000
  C   C607      1.0  0.30159  0.91933  0.35914  1.0000
  C   C608      1.0  0.32530  0.94144  0.36334  1.0000
  C   C609      1.0  0.31323  0.93895  0.32020  1.0000
  C   C610      1.0  0.33290  0.91295  0.33819  1.0000
  C   C611      1.0  0.35111  0.91146  0.34829  1.0000
  C   C612      1.0  0.32865  0.89907  0.32086  1.0000
  C   C613      1.0  0.36414  0.89700  0.34127  1.0000
  C   C614      1.0  0.34171  0.88458  0.31425  1.0000
  C   C615      1.0  0.35945  0.88362  0.32428  1.0000
  H   H723      1.0  0.29079  0.93023  0.36556  1.0000
  H   H724      1.0  0.29459  0.91042  0.34588  1.0000
  H   H725      1.0  0.30517  0.91035  0.37753  1.0000
  H   H726      1.0  0.32894  0.93427  0.38308  1.0000
  H   H727      1.0  0.31424  0.95249  0.36828  1.0000
  H   H728      1.0  0.33775  0.94899  0.35373  1.0000
  H   H729      1.0  0.30613  0.93031  0.30675  1.0000
  H   H730      1.0  0.30312  0.95089  0.32475  1.0000
  H   H731      1.0  0.32581  0.94474  0.30816  1.0000
  H   H732      1.0  0.35573  0.92128  0.36156  1.0000
  H   H733      1.0  0.31526  0.89940  0.31196  1.0000
  H   H734      1.0  0.37805  0.89609  0.34890  1.0000
  H   H735      1.0  0.33820  0.87422  0.30080  1.0000
  H   H736      1.0  0.36969  0.87256  0.31872  1.0000
  H   H737      1.0  0.44270  0.79525  0.20515  1.0000
  C   C616      1.0  0.46735  0.84810  0.37573  1.0000
  H   H738      1.0  0.12397  0.75229  0.29296  1.0000
  H   H739      1.0  0.04806  0.78768  0.34945  1.0000
  S   S178      1.0  0.03685  0.85863  0.03643  1.0000
  C   C617      1.0  0.45188  0.78283  0.19957  1.0000
  C   C618      1.0  0.05530  0.76476  0.30643  1.0000
  N   N43       1.0  0.21269  0.91064  0.35689  1.0000
  C   C619      1.0  0.21224  0.92720  0.33696  1.0000
  C   C620      1.0  0.21173  0.91733  0.38449  1.0000
  C   C621      1.0  0.23126  0.90056  0.35219  1.0000
  C   C622      1.0  0.19638  0.89894  0.35409  1.0000
  C   C623      1.0  0.19841  0.88010  0.34648  1.0000
  C   C624      1.0  0.17768  0.90658  0.35825  1.0000
  C   C625      1.0  0.18266  0.86968  0.34339  1.0000
  C   C626      1.0  0.16205  0.89608  0.35480  1.0000
  C   C627      1.0  0.16454  0.87767  0.34739  1.0000
  H   H740      1.0  0.19944  0.93648  0.34016  1.0000
  H   H741      1.0  0.22455  0.93616  0.33788  1.0000
  H   H742      1.0  0.21250  0.92260  0.31607  1.0000
  H   H743      1.0  0.19909  0.92666  0.38875  1.0000
  H   H744      1.0  0.22415  0.92576  0.38736  1.0000
  H   H745      1.0  0.21133  0.90527  0.40016  1.0000
  H   H746      1.0  0.23334  0.89597  0.33119  1.0000
  H   H747      1.0  0.24317  0.90978  0.35447  1.0000
  H   H748      1.0  0.23276  0.88802  0.36676  1.0000
  H   H749      1.0  0.21199  0.87324  0.34190  1.0000
  H   H750      1.0  0.17500  0.92090  0.36354  1.0000
  H   H751      1.0  0.18451  0.85554  0.33676  1.0000
  C   C628      1.0  0.40987  0.94128  0.48648  1.0000
  C   C629      1.0  0.39580  0.76343  0.27176  1.0000
  H   H752      1.0  0.45361  0.82035  0.35151  1.0000
  H   H753      1.0  0.41568  0.77549  0.21039  1.0000
  C   C630      1.0  0.11615  0.77711  0.23335  1.0000
  C   C631      1.0  0.38955  0.77689  0.46861  1.0000
  H   H754      1.0  0.11037  0.78081  0.01067  1.0000
  C   C632      1.0  0.38859  0.78500  0.42049  1.0000
  C   C633      1.0  0.28511  0.98156  0.36087  1.0000
  N   N44       1.0  0.30409  0.94667  0.17302  1.0000
  H   H755      1.0  0.23398  0.94687  0.16928  1.0000
  C   C634      1.0  0.29775  0.95938  0.19452  1.0000
  H   H756      1.0  0.09245  0.76879  0.31439  1.0000
  C   C635      1.0  0.07012  0.79303  0.28667  1.0000
  H   H757      1.0  0.44098  0.77310  0.43183  1.0000
  C   C636      1.0  0.15354  0.87517  0.17581  1.0000
  C   C637      1.0  0.36525  0.91953  0.48980  1.0000
  S   S179      1.0  0.20970  0.97706  0.08502  1.0000
  H   H758      1.0  0.47518  0.84164  0.30918  1.0000
  H   H759      1.0  0.28765  0.98549  0.33947  1.0000
  N   N45       1.0  0.06452  0.78202  0.31234  1.0000
  H   H760      1.0  0.49807  0.86487  0.27652  1.0000
  C   C638      1.0  0.40669  0.76072  0.29400  1.0000
  H   H761      1.0  0.08035  0.78513  0.27328  1.0000
  H   H762      1.0  0.37809  0.77092  0.34774  1.0000
  C   C639      1.0  0.01026  0.84274  0.23327  1.0000
  H   H763      1.0  0.44926  0.90020  0.48272  1.0000
  H   H764      1.0  0.36803  0.78490  0.37411  1.0000
  H   H765      1.0  0.26955  0.96068  0.15828  1.0000
  C   C640      1.0  0.29151  0.98622  0.40810  1.0000
  H   H766      1.0  0.05129  0.83058  0.12909  1.0000
  H   H767      1.0  0.14580  0.87513  0.15727  1.0000
  H   H768      1.0  0.14764  0.86349  0.18973  1.0000
  H   H769      1.0  0.16863  0.87141  0.17040  1.0000
  C   C641      1.0  0.42516  0.76336  0.20455  1.0000
  H   H770      1.0  0.09021  0.75792  0.16354  1.0000
  C   C642      1.0  0.01542  0.85730  0.11226  1.0000
  H   H771      1.0  0.33014  0.93173  0.16088  1.0000
  C   C643      1.0  0.01927  0.84883  0.01967  1.0000
  C   C644      1.0  0.32458  0.94236  0.17503  1.0000
  C   C645      1.0  0.39626  0.95604  0.48759  1.0000
  H   H772      1.0  0.41212  0.93489  0.46747  1.0000
  H   H773      1.0  0.25907  0.95264  0.40501  1.0000
  H   H774      1.0  0.47736  0.76157  0.17767  1.0000
  C   C646      1.0  0.49302  0.85732  0.47470  1.0000
  C   C647      1.0  0.05980  0.86395  0.14787  1.0000
  C   C648      1.0  0.22994  0.96015  0.15883  1.0000
  C   C649      1.0  0.27565  0.97014  0.11706  1.0000
  H   H775      1.0  0.07708  0.75572  0.04650  1.0000
  H   H776      1.0  0.02062  0.85476  0.09178  1.0000
  H   H777      1.0  0.08892  0.78948  0.33182  1.0000
  C   C650      1.0  0.12133  0.75504  0.27184  1.0000
  C   C651      1.0  0.22333  0.96053  0.13259  1.0000
  C   C652      1.0  0.47168  0.84950  0.32741  1.0000
  H   H778      1.0  0.42523  0.90535  0.47584  1.0000
  C   C653      1.0  0.29462  0.99070  0.37992  1.0000
  H   H779      1.0  0.27872  0.93085  0.17856  1.0000
  C   C654      1.0  0.44804  0.77378  0.47289  1.0000
  H   H780      1.0  0.47900  0.86306  0.32444  1.0000
  H   H781      1.0  0.43507  0.77952  0.24851  1.0000
  H   H782      1.0  0.07976  0.75323  0.28274  1.0000
  C   C655      1.0  0.11536  0.76196  0.21706  1.0000
  N   N46       1.0  0.38363  0.75986  0.38832  1.0000
  H   H783      1.0  0.29874  0.91875  0.16283  1.0000
  H   H784      1.0  0.38935  0.79618  0.40451  1.0000
  H   H785      1.0  0.01018  0.78480  0.26508  1.0000
  H   H786      1.0  0.47995  0.85152  0.47023  1.0000
  C   C656      1.0  0.29429  0.92872  0.17847  1.0000
  H   H787      1.0  0.46613  0.78554  0.20579  1.0000
  H   H788      1.0  0.44297  0.92264  0.46655  1.0000
  H   H789      1.0  0.45239  0.78301  0.17714  1.0000
  C   C657      1.0  0.43804  0.91164  0.48233  1.0000
  C   C658      1.0  0.35571  0.93494  0.50164  1.0000
  H   H790      1.0  0.39234  0.80492  0.44986  1.0000
  Fe  Fe91      1.0  0.40690  0.86228  0.50214  1.0000
  H   H791      1.0  0.05981  0.80758  0.33302  1.0000
  C   C659      1.0  0.39034  0.79029  0.44663  1.0000
  H   H792      1.0  0.33285  0.95530  0.17113  1.0000
  H   H793      1.0  0.05804  0.85253  0.16440  1.0000
  H   H794      1.0  0.34831  0.94553  0.48923  1.0000
  C   C660      1.0  0.44678  0.76516  0.44901  1.0000
  H   H795      1.0  0.41346  0.75775  0.37772  1.0000
  C   C661      1.0  0.46911  0.81951  0.35310  1.0000
  H   H796      1.0  0.00771  0.84646  0.31067  1.0000
  H   H797      1.0  0.09428  0.75573  0.07060  1.0000
  H   H798      1.0  0.47523  0.81158  0.33589  1.0000
  H   H799      1.0  0.02772  0.77015  0.32818  1.0000
  S   S180      1.0  0.40199  0.83195  0.49549  1.0000
  H   H800      1.0  0.08783  0.76183  0.11513  1.0000
  H   H801      1.0  0.28525  0.97832  0.07591  1.0000
  H   H802      1.0  0.41839  0.75045  0.21390  1.0000
  C   C662      1.0  0.38759  0.75802  0.46447  1.0000
  C   C663      1.0  0.49931  0.82445  0.22884  1.0000
  H   H803      1.0  0.13568  0.75434  0.07016  1.0000
  H   H804      1.0  0.00272  0.75724  0.24912  1.0000
  C   C664      1.0  0.38608  0.75253  0.43837  1.0000
  S   S181      1.0  0.34224  0.99701  0.48369  1.0000
  C   C665      1.0  0.37503  0.90563  0.50554  1.0000
  C   C666      1.0  0.49843  0.85338  0.26352  1.0000
  C   C667      1.0  0.49759  0.83663  0.35327  1.0000
  C   C668      1.0  0.03642  0.76077  0.31601  1.0000
  H   H805      1.0  0.16380  0.89294  0.02686  1.0000
  H   H806      1.0  0.45696  0.93848  0.50336  1.0000
  S   S182      1.0  0.44742  0.82300  0.50528  1.0000
  C   C669      1.0  0.15379  0.90252  0.01707  1.0000
  H   H807      1.0  0.17068  0.92689  0.01877  1.0000
  C   C670      1.0  0.11100  0.75055  0.01088  1.0000
  S   S183      1.0  0.13390  0.87068  0.01284  1.0000
  Fe  Fe92      1.0  0.16921  0.97925  0.00717  1.0000
  C   C671      1.0  0.28280  0.98286  0.67153  1.0000
  H   H808      1.0  0.27039  0.98465  0.57089  1.0000
  C   C672      1.0  0.14910  0.78232  0.97514  1.0000
  H   H809      1.0  0.17922  0.83012  0.92991  1.0000
  H   H810      1.0  0.17710  0.83147  0.97975  1.0000
  C   C673      1.0  0.13781  0.80892  0.93476  1.0000
  H   H811      1.0  0.45123  0.93039  0.53809  1.0000
  H   H812      1.0  0.15568  0.96222  0.89658  1.0000
  H   H813      1.0  0.42112  0.93952  0.55223  1.0000
  S   S184      1.0  0.41521  0.80060  0.56298  1.0000
  H   H814      1.0  0.12923  0.84703  0.93454  1.0000
  C   C674      1.0  0.02460  0.77459  0.97511  1.0000
  S   S185      1.0  0.42207  0.85443  0.53978  1.0000
  C   C675      1.0  0.41462  0.94388  0.53373  1.0000
  C   C676      1.0  0.14840  0.81502  0.95524  1.0000
  C   C677      1.0  0.14528  0.93435  0.99908  1.0000
  C   C678      1.0  0.08550  0.75609  0.97095  1.0000
  S   S186      1.0  0.08676  0.79480  0.96815  1.0000
  H   H815      1.0  0.15945  0.83799  0.91117  1.0000
  H   H816      1.0  0.31483  0.97262  0.60362  1.0000
  H   H817      1.0  0.46504  0.78049  0.58811  1.0000
  H   H818      1.0  0.11890  0.93680  0.98035  1.0000
  C   C679      1.0  0.09252  0.77177  0.98169  1.0000
  C   C680      1.0  0.00942  0.83277  0.98220  1.0000
  H   H819      1.0  0.11166  0.90299  0.98939  1.0000
  S   S187      1.0  0.08481  0.84896  0.98853  1.0000
  C   C681      1.0  0.12863  0.92732  0.99089  1.0000
  C   C682      1.0  0.36546  0.92263  0.54528  1.0000
  S   S188      1.0  0.47406  0.86835  0.52170  1.0000
  C   C683      1.0  0.16330  0.83933  0.97856  1.0000
  C   C684      1.0  0.35580  0.93659  0.52946  1.0000
  C   C685      1.0  0.37506  0.90723  0.53341  1.0000
  C   C686      1.0  0.28877  0.94641  0.60606  1.0000
  H   H820      1.0  0.27566  0.93981  0.61527  1.0000
  H   H821      1.0  0.38224  0.89651  0.54587  1.0000
  Fe  Fe93      1.0  0.33138  0.98195  0.52282  1.0000
  H   H822      1.0  0.13440  0.76244  0.95507  1.0000
  C   C687      1.0  0.47391  0.80522  0.56385  1.0000
  S   S189      1.0  0.30066  0.98586  0.51463  1.0000
  H   H823      1.0  0.18985  0.99704  0.93717  1.0000
  C   C688      1.0  0.41215  0.77667  0.55770  1.0000
  H   H824      1.0  0.17083  0.85436  0.92924  1.0000
  H   H825      1.0  0.25845  0.96368  0.58454  1.0000
  C   C689      1.0  0.26134  0.98714  0.62665  1.0000
  H   H826      1.0  0.40591  0.76979  0.60029  1.0000
  H   H827      1.0  0.18156  0.97516  0.95261  1.0000
  H   H828      1.0  0.07602  0.75821  0.95493  1.0000
  N   N47       1.0  0.28552  0.96696  0.59992  1.0000
  C   C690      1.0  0.41961  0.93482  0.50959  1.0000
  H   H829      1.0  0.30181  0.99062  0.58481  1.0000
  H   H830      1.0  0.02807  0.78976  0.97380  1.0000
  H   H831      1.0  0.29352  0.93919  0.58746  1.0000
  C   C691      1.0  0.41438  0.76947  0.53211  1.0000
  H   H832      1.0  0.03124  0.76887  0.95626  1.0000
  H   H833      1.0  0.12419  0.78596  0.91955  1.0000
  C   C692      1.0  0.13637  0.84755  0.95348  1.0000
  H   H834      1.0  0.47570  0.75564  0.54102  1.0000
  H   H835      1.0  0.18017  0.96815  0.86226  1.0000
  H   H836      1.0  0.30232  0.96630  0.64790  1.0000
  H   H837      1.0  0.12595  0.84376  0.97065  1.0000
  H   H838      1.0  0.36552  0.92374  0.56684  1.0000
  H   H839      1.0  0.17917  0.95404  0.90510  1.0000
  C   C693      1.0  0.10484  0.76888  0.00229  1.0000
  N   N48       1.0  0.17172  0.98287  0.91315  1.0000
  C   C694      1.0  0.30362  0.97515  0.58929  1.0000
  C   C695      1.0  0.16631  0.83956  0.93015  1.0000
  C   C696      1.0  0.15452  0.99320  0.92396  1.0000
  Fe  Fe94      1.0  0.41987  0.82414  0.53021  1.0000
  C   C697      1.0  0.12445  0.90811  0.99604  1.0000
  C   C698      1.0  0.13290  0.79017  0.93477  1.0000
  H   H840      1.0  0.15315  0.77195  0.99100  1.0000
  C   C699      1.0  0.25527  0.99570  0.65035  1.0000
  H   H841      1.0  0.45955  0.81021  0.56063  1.0000
  C   C700      1.0  0.28898  0.97416  0.64799  1.0000
  H   H842      1.0  0.19964  0.97546  0.92516  1.0000
  H   H843      1.0  0.16189  0.80431  0.99204  1.0000
  H   H844      1.0  0.27802  0.96227  0.55974  1.0000
  S   S190      1.0  0.34407  0.95582  0.54527  1.0000
  C   C701      1.0  0.27841  0.97597  0.62481  1.0000
  C   C702      1.0  0.15398  0.80108  0.97549  1.0000
  C   C703      1.0  0.40767  0.76442  0.58044  1.0000
  H   H845      1.0  0.39679  0.96482  0.55347  1.0000
  C   C704      1.0  0.19033  0.99222  0.83904  1.0000
  H   H846      1.0  0.15440  0.83615  0.99771  1.0000
  H   H847      1.0  0.30927  0.96901  0.57026  1.0000
  C   C705      1.0  0.40082  0.95846  0.53466  1.0000
  H   H848      1.0  0.41788  0.77888  0.51449  1.0000
  N   N49       1.0  0.15355  0.83496  0.95459  1.0000
  Fe  Fe95      1.0  0.08998  0.81752  0.99648  1.0000
  H   H849      1.0  0.30000  0.94313  0.62017  1.0000
  H   H850      1.0  0.13302  0.81863  0.91872  1.0000
  H   H851      1.0  0.41485  0.89794  0.52345  1.0000
  H   H852      1.0  0.16628  0.85457  0.97812  1.0000
  H   H853      1.0  0.03832  0.83852  0.98782  1.0000
  H   H854      1.0  0.13957  0.86258  0.95490  1.0000
  C   C706      1.0  0.27244  0.96951  0.57794  1.0000
  H   H855      1.0  0.01296  0.82620  0.96351  1.0000
  C   C707      1.0  0.18630  0.98263  0.93286  1.0000
  H   H856      1.0  0.16072  0.95659  0.93102  1.0000
  C   C708      1.0  0.13859  0.77689  0.95484  1.0000
  H   H857      1.0  0.29129  0.98167  0.68880  1.0000
  H   H858      1.0  0.42592  0.90779  0.54987  1.0000
  H   H859      1.0  0.43903  0.89179  0.52912  1.0000
  C   C709      1.0  0.16664  0.96308  0.91113  1.0000
  H   H860      1.0  0.46377  0.91495  0.51596  1.0000
  H   H861      1.0  0.49769  0.76895  0.59608  1.0000
  C   C710      1.0  0.45230  0.92614  0.51699  1.0000
  C   C711      1.0  0.18277  0.98286  0.86304  1.0000
  C   C712      1.0  0.02379  0.83976  0.99593  1.0000
  H   H862      1.0  0.38067  0.97556  0.51259  1.0000
  H   H863      1.0  0.19332  0.98469  0.82097  1.0000
  C   C713      1.0  0.47699  0.78843  0.57939  1.0000
  H   H864      1.0  0.03164  0.76776  0.99276  1.0000
  S   S191      1.0  0.20095  0.98009  0.00560  1.0000
  Fe  Fe96      1.0  0.44843  0.85364  0.51181  1.0000
  C   C714      1.0  0.17905  0.99240  0.88710  1.0000
  C   C715      1.0  0.26598  0.99360  0.67271  1.0000
  C   C716      1.0  0.39172  0.96458  0.51161  1.0000
  C   C717      1.0  0.48916  0.81576  0.55283  1.0000
  H   H865      1.0  0.48596  0.82868  0.54083  1.0000
  H   H866      1.0  0.25267  0.99001  0.60983  1.0000
  H   H867      1.0  0.14821  0.98593  0.94305  1.0000
  S   S192      1.0  0.15057  0.95839  0.98972  1.0000
  N   N50       1.0  0.43425  0.91936  0.50921  1.0000
  C   C718      1.0  0.42825  0.90360  0.52880  1.0000
  H   H868      1.0  0.45528  0.77129  0.51337  1.0000
  H   H869      1.0  0.14356  0.99450  0.90911  1.0000
  C   C719      1.0  0.49535  0.78201  0.58386  1.0000
  H   H870      1.0  0.22793  0.99939  0.91635  1.0000
  N   N51       1.0  0.00389  0.77210  0.97804  1.0000
  H   H871      1.0  0.68462  0.04710  0.38208  1.0000
  S   S193      1.0  0.86453  0.03282  0.00750  1.0000
  C   C720      1.0  0.98607  0.14013  0.03107  1.0000
  S   S194      1.0  0.80771  0.02278  0.00746  1.0000
  C   C721      1.0  0.65334  0.09249  0.40721  1.0000
  H   H872      1.0  0.98260  0.19882  0.04337  1.0000
  H   H873      1.0  0.89176  0.11570  0.09886  1.0000
  Fe  Fe97      1.0  0.70506  0.00482  0.47968  1.0000
  C   C722      1.0  0.56362  0.24995  0.42227  1.0000
  H   H874      1.0  0.67458  0.04267  0.45628  1.0000
  S   S195      1.0  0.57622  0.16238  0.47997  1.0000
  Fe  Fe98      1.0  0.94174  0.14820  0.01853  1.0000
  S   S196      1.0  0.72429  0.00298  0.44006  1.0000
  C   C723      1.0  0.65317  0.07823  0.48512  1.0000
  H   H875      1.0  0.50190  0.17495  0.46177  1.0000
  C   C724      1.0  0.58735  0.23972  0.48638  1.0000
  H   H876      1.0  0.91699  0.09212  0.11441  1.0000
  H   H877      1.0  0.90974  0.12910  0.08022  1.0000
  Fe  Fe99      1.0  0.83857  0.01459  0.00929  1.0000
  S   S197      1.0  0.91165  0.15586  0.03136  1.0000
  Fe  Fe100     1.0  0.66855  0.02276  0.50445  1.0000
  C   C725      1.0  0.85650  0.08989  0.01131  1.0000
  C   C726      1.0  0.63871  0.06649  0.49568  1.0000
  H   H878      1.0  0.56346  0.23468  0.42446  1.0000
  S   S198      1.0  0.57660  0.21894  0.47905  1.0000
  H   H879      1.0  0.89527  0.24780  0.02364  1.0000
  C   C727      1.0  0.92455  0.09555  0.09426  1.0000
  C   C728      1.0  0.63108  0.10571  0.48477  1.0000
  H   H880      1.0  0.87126  0.09797  0.07806  1.0000
  H   H881      1.0  0.93132  0.09089  0.04110  1.0000
  C   C729      1.0  0.92186  0.10303  0.04658  1.0000
  H   H882      1.0  0.66204  0.00988  0.42500  1.0000
  H   H883      1.0  0.62787  0.04801  0.43767  1.0000
  H   H884      1.0  0.83905  0.06559  0.01798  1.0000
  C   C730      1.0  0.90724  0.06519  0.06745  1.0000
  C   C731      1.0  0.89897  0.08325  0.07218  1.0000
  S   S199      1.0  0.96346  0.13985  0.04819  1.0000
  H   H885      1.0  0.68131  0.02267  0.38865  1.0000
  H   H886      1.0  0.91218  0.10602  0.03014  1.0000
  H   H887      1.0  0.66040  0.10649  0.47026  1.0000
  H   H888      1.0  0.68900  0.02661  0.43642  1.0000
  C   C732      1.0  0.86803  0.06903  0.07456  1.0000
  N   N52       1.0  0.91104  0.09954  0.07308  1.0000
  H   H889      1.0  0.93458  0.08359  0.08985  1.0000
  C   C733      1.0  0.85303  0.07052  0.01201  1.0000
  H   H890      1.0  0.64159  0.02264  0.41339  1.0000
  H   H891      1.0  0.93103  0.11529  0.04644  1.0000
  C   C734      1.0  0.90844  0.24739  0.01119  1.0000
  C   C735      1.0  0.89617  0.04962  0.06631  1.0000
  H   H892      1.0  0.66287  0.03757  0.37446  1.0000
  H   H893      1.0  0.92233  0.06304  0.06409  1.0000
  H   H894      1.0  0.62744  0.10730  0.41955  1.0000
  H   H895      1.0  0.64810  0.02389  0.44764  1.0000
  H   H896      1.0  0.93344  0.10783  0.09592  1.0000
  C   C736      1.0  0.90024  0.11724  0.07908  1.0000
  H   H897      1.0  0.69062  0.05138  0.42902  1.0000
  H   H898      1.0  0.86805  0.03954  0.06831  1.0000
  C   C737      1.0  0.87894  0.08475  0.07545  1.0000
  H   H899      1.0  0.66034  0.10527  0.39976  1.0000
  H   H900      1.0  0.84505  0.09975  0.01659  1.0000
  S   S200      1.0  0.69848  0.03182  0.50101  1.0000
  N   N53       1.0  0.66526  0.03988  0.41694  1.0000
  C   C738      1.0  0.68053  0.04016  0.43542  1.0000
  C   C739      1.0  0.65366  0.02342  0.42608  1.0000
  C   C740      1.0  0.67382  0.03674  0.38933  1.0000
  C   C741      1.0  0.65439  0.05811  0.41689  1.0000
  C   C742      1.0  0.66308  0.07502  0.40659  1.0000
  C   C743      1.0  0.63543  0.05986  0.42814  1.0000
  S   S201      1.0  0.90295  0.20952  0.01057  1.0000
  C   C744      1.0  0.62583  0.07740  0.42859  1.0000
  C   C745      1.0  0.63475  0.09367  0.41818  1.0000
  S   S202      1.0  0.62645  0.12993  0.47487  1.0000
  C   C746      1.0  0.87662  0.05152  0.06999  1.0000
  C   C747      1.0  0.98960  0.23246  0.01325  1.0000
  H   H901      1.0  0.61161  0.07850  0.43810  1.0000
  H   H902      1.0  0.85277  0.07053  0.07647  1.0000
  H   H903      1.0  0.89066  0.12181  0.06288  1.0000
  H   H904      1.0  0.67764  0.07493  0.39861  1.0000
  H   H905      1.0  0.00082  0.14031  0.06726  1.0000
  C   C748      1.0  0.60689  0.24055  0.48729  1.0000
  H   H906      1.0  0.90270  0.03606  0.06193  1.0000
  C   C749      1.0  0.64929  0.09768  0.47939  1.0000
  H   H907      1.0  0.61570  0.22785  0.48569  1.0000
  H   H908      1.0  0.99941  0.17990  0.04818  1.0000
  H   H909      1.0  0.97699  0.22453  0.01336  1.0000
  C   C750      1.0  0.61681  0.09409  0.49627  1.0000
  S   S203      1.0  0.64193  0.04153  0.49944  1.0000
  C   C751      1.0  0.51710  0.16092  0.49403  1.0000
  H   H910      1.0  0.60268  0.09999  0.50022  1.0000
  H   H911      1.0  0.53063  0.16612  0.48603  1.0000
  C   C752      1.0  0.99794  0.19550  0.04460  1.0000
  C   C753      1.0  0.62057  0.07459  0.50138  1.0000
  H   H912      1.0  0.66715  0.07225  0.48041  1.0000
  Fe  Fe101     1.0  0.58480  0.18932  0.49622  1.0000
  Fe  Fe102     1.0  0.60346  0.14897  0.49476  1.0000
  C   C754      1.0  0.52105  0.24894  0.79153  1.0000
  H   H913      1.0  0.94673  0.19872  0.70327  1.0000
  H   H914      1.0  0.93698  0.20712  0.75053  1.0000
  Fe  Fe103     1.0  0.75316  0.05043  0.72494  1.0000
  S   S204      1.0  0.75619  0.08183  0.72106  1.0000
  S   S205      1.0  0.75512  0.03291  0.68714  1.0000
  Fe  Fe104     1.0  0.75134  0.04974  0.78893  1.0000
  S   S206      1.0  0.75271  0.08128  0.78752  1.0000
  S   S207      1.0  0.74738  0.03285  0.83067  1.0000
  Fe  Fe105     1.0  0.73267  0.08230  0.75445  1.0000
  S   S208      1.0  0.70649  0.10044  0.74414  1.0000
  Fe  Fe106     1.0  0.77598  0.07774  0.75460  1.0000
  S   S209      1.0  0.80541  0.08661  0.76251  1.0000
  S   S210      1.0  0.72945  0.05091  0.75781  1.0000
  S   S211      1.0  0.77474  0.04611  0.75642  1.0000
  H   H915      1.0  0.93568  0.24585  0.72427  1.0000
  H   H916      1.0  0.67394  0.14992  0.66573  1.0000
  C   C755      1.0  0.88038  0.16698  0.87976  1.0000
  C   C756      1.0  0.66070  0.17390  0.68428  1.0000
  S   S212      1.0  0.59047  0.14008  0.53604  1.0000
  H   H917      1.0  0.69203  0.08930  0.51462  1.0000
  Fe  Fe107     1.0  0.59853  0.16833  0.54673  1.0000
  S   S213      1.0  0.61358  0.17430  0.58265  1.0000
  C   C757      1.0  0.90309  0.21146  0.93147  1.0000
  Fe  Fe108     1.0  0.61109  0.15448  0.77545  1.0000
  S   S214      1.0  0.61855  0.16127  0.73128  1.0000
  S   S215      1.0  0.63420  0.14162  0.80135  1.0000
  Fe  Fe109     1.0  0.57043  0.17093  0.77168  1.0000
  S   S216      1.0  0.57544  0.17868  0.72732  1.0000
  S   S217      1.0  0.54168  0.18119  0.78912  1.0000
  Fe  Fe110     1.0  0.59017  0.15040  0.72599  1.0000
  S   S218      1.0  0.58406  0.13236  0.69302  1.0000
  Fe  Fe111     1.0  0.60309  0.18901  0.73707  1.0000
  S   S219      1.0  0.61286  0.21614  0.71461  1.0000
  S   S220      1.0  0.58336  0.14159  0.76988  1.0000
  S   S221      1.0  0.59740  0.18323  0.78188  1.0000
  Fe  Fe112     1.0  0.93599  0.15648  0.95985  1.0000
  S   S222      1.0  0.95228  0.15844  0.91933  1.0000
  Fe  Fe113     1.0  0.88886  0.15552  0.74512  1.0000
  S   S223      1.0  0.88318  0.16432  0.78745  1.0000
  S   S224      1.0  0.86420  0.14950  0.72094  1.0000
  Fe  Fe114     1.0  0.93180  0.15812  0.74674  1.0000
  S   S225      1.0  0.92891  0.16677  0.78900  1.0000
  S   S226      1.0  0.96093  0.15458  0.72497  1.0000
  Fe  Fe115     1.0  0.90754  0.14457  0.79676  1.0000
  S   S227      1.0  0.90464  0.12554  0.83493  1.0000
  Fe  Fe116     1.0  0.90501  0.18582  0.77578  1.0000
  S   S228      1.0  0.90508  0.21346  0.79502  1.0000
  S   S229      1.0  0.91197  0.13418  0.75530  1.0000
  S   S230      1.0  0.90915  0.17885  0.73238  1.0000
  H   H918      1.0  0.70793  0.03310  0.81878  1.0000
  H   H919      1.0  0.55204  0.16890  0.66763  1.0000
  C   C758      1.0  0.98143  0.17079  0.76164  1.0000
  C   C759      1.0  0.98187  0.16130  0.73803  1.0000
  H   H920      1.0  0.96822  0.17310  0.77333  1.0000
  H   H921      1.0  0.88494  0.22302  0.96323  1.0000
  C   C760      1.0  0.94063  0.14670  0.89653  1.0000
  C   C761      1.0  0.94691  0.14812  0.86912  1.0000
  C   C762      1.0  0.93631  0.14073  0.85023  1.0000
  C   C763      1.0  0.91951  0.13191  0.85871  1.0000
  C   C764      1.0  0.91389  0.12942  0.88633  1.0000
  C   C765      1.0  0.92436  0.13698  0.90526  1.0000
  H   H922      1.0  0.95961  0.15543  0.86237  1.0000
  H   H923      1.0  0.94122  0.14177  0.82911  1.0000
  H   H924      1.0  0.90103  0.12238  0.89304  1.0000
  H   H925      1.0  0.91961  0.13565  0.92651  1.0000
  C   C766      1.0  0.51992  0.15099  0.78310  1.0000
  C   C767      1.0  0.52113  0.17057  0.78092  1.0000
  C   C768      1.0  0.51582  0.14920  0.51800  1.0000
  H   H926      1.0  0.53199  0.14216  0.78865  1.0000
  C   C769      1.0  0.97353  0.23320  0.72272  1.0000
  C   C770      1.0  0.90417  0.20181  0.90793  1.0000
  H   H927      1.0  0.85693  0.19702  0.90411  1.0000
  N   N54       1.0  0.88807  0.18583  0.87231  1.0000
  S   S231      1.0  0.90525  0.16467  0.96729  1.0000
  H   H928      1.0  0.96087  0.20576  0.75917  1.0000
  H   H929      1.0  0.61475  0.22048  0.77213  1.0000
  C   C771      1.0  0.66243  0.07380  0.85117  1.0000
  C   C772      1.0  0.60525  0.16224  0.61285  1.0000
  C   C773      1.0  0.60985  0.16857  0.63724  1.0000
  C   C774      1.0  0.60303  0.15953  0.66176  1.0000
  C   C775      1.0  0.59233  0.14359  0.66206  1.0000
  C   C776      1.0  0.58800  0.13695  0.63763  1.0000
  C   C777      1.0  0.59422  0.14649  0.61296  1.0000
  H   H930      1.0  0.61849  0.18065  0.63727  1.0000
  H   H931      1.0  0.60613  0.16498  0.68038  1.0000
  H   H932      1.0  0.57950  0.12474  0.63781  1.0000
  H   H933      1.0  0.59046  0.14167  0.59416  1.0000
  H   H934      1.0  0.60923  0.06564  0.50930  1.0000
  H   H935      1.0  0.90719  0.17501  0.84074  1.0000
  C   C778      1.0  0.53021  0.14284  0.61302  1.0000
  C   C779      1.0  0.98748  0.12176  0.84407  1.0000
  C   C780      1.0  0.74231  0.03199  0.65733  1.0000
  C   C781      1.0  0.74824  0.01877  0.63840  1.0000
  C   C782      1.0  0.88589  0.06427  0.99844  1.0000
  C   C783      1.0  0.72250  0.02867  0.60980  1.0000
  C   C784      1.0  0.71664  0.04200  0.62861  1.0000
  C   C785      1.0  0.72639  0.04365  0.65212  1.0000
  C   C786      1.0  0.95975  0.20652  0.70495  1.0000
  H   H936      1.0  0.70441  0.05114  0.62504  1.0000
  H   H937      1.0  0.72153  0.05393  0.66623  1.0000
  C   C787      1.0  0.82053  0.10532  0.75152  1.0000
  C   C788      1.0  0.81759  0.11760  0.72872  1.0000
  C   C789      1.0  0.83087  0.13132  0.71986  1.0000
  C   C790      1.0  0.84710  0.13301  0.73380  1.0000
  C   C791      1.0  0.84979  0.12099  0.75691  1.0000
  C   C792      1.0  0.83665  0.10716  0.76557  1.0000
  H   H938      1.0  0.80532  0.11632  0.71763  1.0000
  H   H939      1.0  0.82870  0.14053  0.70192  1.0000
  H   H940      1.0  0.86222  0.12206  0.76777  1.0000
  H   H941      1.0  0.83910  0.09769  0.78314  1.0000
  C   C793      1.0  0.68663  0.11143  0.76132  1.0000
  C   C794      1.0  0.68641  0.11621  0.78812  1.0000
  C   C795      1.0  0.67030  0.12549  0.80023  1.0000
  C   C796      1.0  0.65439  0.13020  0.78560  1.0000
  C   C797      1.0  0.65473  0.12546  0.75883  1.0000
  C   C798      1.0  0.67069  0.11609  0.74686  1.0000
  H   H942      1.0  0.69867  0.11301  0.79936  1.0000
  H   H943      1.0  0.67016  0.12902  0.82101  1.0000
  H   H944      1.0  0.64257  0.12869  0.74739  1.0000
  H   H945      1.0  0.67067  0.11244  0.72615  1.0000
  C   C799      1.0  0.76230  0.02791  0.85825  1.0000
  C   C800      1.0  0.99805  0.17792  0.76965  1.0000
  H   H946      1.0  0.52489  0.13527  0.59728  1.0000
  C   C801      1.0  0.78490  0.01874  0.90319  1.0000
  C   C802      1.0  0.60539  0.24707  0.57084  1.0000
  C   C803      1.0  0.78137  0.03239  0.85649  1.0000
  C   C804      1.0  0.90452  0.23513  0.77551  1.0000
  H   H947      1.0  0.98639  0.12084  0.86596  1.0000
  H   H948      1.0  0.96540  0.21129  0.68414  1.0000
  S   S232      1.0  0.70930  0.02689  0.58058  1.0000
  H   H949      1.0  0.88118  0.21064  0.84689  1.0000
  H   H950      1.0  0.54865  0.15916  0.58487  1.0000
  H   H951      1.0  0.78850  0.06210  0.69062  1.0000
  C   C805      1.0  0.65991  0.08333  0.58114  1.0000
  C   C806      1.0  0.64412  0.12064  0.59715  1.0000
  N   N55       1.0  0.84551  0.05981  0.92540  1.0000
  C   C807      1.0  0.83115  0.04544  0.92484  1.0000
  C   C808      1.0  0.86334  0.04969  0.93257  1.0000
  C   C809      1.0  0.83902  0.07221  0.94712  1.0000
  C   C810      1.0  0.84869  0.07133  0.89944  1.0000
  C   C811      1.0  0.86277  0.08495  0.89634  1.0000
  C   C812      1.0  0.83795  0.06968  0.87683  1.0000
  C   C813      1.0  0.86620  0.09589  0.87198  1.0000
  C   C814      1.0  0.84145  0.08079  0.85259  1.0000
  C   C815      1.0  0.85562  0.09379  0.85013  1.0000
  H   H952      1.0  0.83513  0.03537  0.90915  1.0000
  H   H953      1.0  0.82933  0.03677  0.94449  1.0000
  H   H954      1.0  0.81694  0.05191  0.92129  1.0000
  H   H955      1.0  0.86947  0.04138  0.91575  1.0000
  H   H956      1.0  0.86108  0.03969  0.95082  1.0000
  H   H957      1.0  0.87416  0.05933  0.93756  1.0000
  H   H958      1.0  0.82619  0.08079  0.94181  1.0000
  H   H959      1.0  0.83539  0.06388  0.96660  1.0000
  H   H960      1.0  0.84996  0.08207  0.95114  1.0000
  H   H961      1.0  0.87127  0.08723  0.91278  1.0000
  H   H962      1.0  0.82674  0.05993  0.87731  1.0000
  H   H963      1.0  0.87719  0.10603  0.86994  1.0000
  H   H964      1.0  0.83312  0.07931  0.83556  1.0000
  H   H965      1.0  0.85842  0.10230  0.83125  1.0000
  H   H966      1.0  0.75959  0.00754  0.92354  1.0000
  H   H967      1.0  0.94679  0.22695  0.76353  1.0000
  H   H968      1.0  0.50204  0.12763  0.78095  1.0000
  H   H969      1.0  0.65837  0.12632  0.59769  1.0000
  C   C816      1.0  0.97333  0.11368  0.83143  1.0000
  C   C817      1.0  0.75469  0.01889  0.88274  1.0000
  N   N56       1.0  0.66725  0.19004  0.75404  1.0000
  C   C818      1.0  0.64745  0.18956  0.76565  1.0000
  C   C819      1.0  0.67942  0.18285  0.77583  1.0000
  C   C820      1.0  0.67181  0.20993  0.74621  1.0000
  C   C821      1.0  0.66954  0.17898  0.72989  1.0000
  C   C822      1.0  0.65914  0.18430  0.70709  1.0000
  C   C823      1.0  0.68178  0.16269  0.72826  1.0000
  H   H970      1.0  0.50869  0.17914  0.60272  1.0000
  C   C824      1.0  0.52416  0.13864  0.64024  1.0000
  C   C825      1.0  0.60457  0.22278  0.60771  1.0000
  H   H971      1.0  0.64333  0.17483  0.77108  1.0000
  H   H972      1.0  0.64516  0.19730  0.78429  1.0000
  H   H973      1.0  0.63741  0.19601  0.75130  1.0000
  H   H974      1.0  0.67590  0.16821  0.78361  1.0000
  H   H975      1.0  0.67747  0.19150  0.79360  1.0000
  H   H976      1.0  0.69463  0.18303  0.76865  1.0000
  H   H977      1.0  0.66173  0.21705  0.73230  1.0000
  H   H978      1.0  0.67107  0.21848  0.76410  1.0000
  H   H979      1.0  0.68623  0.21089  0.73588  1.0000
  H   H980      1.0  0.64936  0.19636  0.70694  1.0000
  H   H981      1.0  0.69001  0.15719  0.74466  1.0000
  H   H982      1.0  0.97566  0.13988  0.99160  1.0000
  Fe  Fe117     1.0  0.91497  0.18059  0.00060  1.0000
  C   C826      1.0  0.50520  0.18186  0.77430  1.0000
  H   H983      1.0  0.60311  0.21743  0.56606  1.0000
  C   C827      1.0  0.53155  0.14777  0.66124  1.0000
  C   C828      1.0  0.89764  0.23701  0.74982  1.0000
  H   H984      1.0  0.87746  0.18902  0.83262  1.0000
  S   S233      1.0  0.57098  0.18267  0.53777  1.0000
  H   H985      1.0  0.86523  0.16776  0.88703  1.0000
  C   C829      1.0  0.98798  0.14040  0.00285  1.0000
  H   H986      1.0  0.98831  0.12451  0.76581  1.0000
  H   H987      1.0  0.86120  0.19683  0.85872  1.0000
  C   C830      1.0  0.79254  0.02774  0.87867  1.0000
  C   C831      1.0  0.86918  0.21081  0.93437  1.0000
  C   C832      1.0  0.60622  0.23631  0.62601  1.0000
  H   H988      1.0  0.70277  0.01134  0.67831  1.0000
  Fe  Fe118     1.0  0.70150  0.01453  0.54098  1.0000
  H   H989      1.0  0.50585  0.24800  0.79269  1.0000
  Fe  Fe119     1.0  0.56399  0.15530  0.52252  1.0000
  C   C833      1.0  0.87642  0.19603  0.85194  1.0000
  H   H990      1.0  0.85234  0.11309  0.65075  1.0000
  H   H991      1.0  0.96234  0.10893  0.79358  1.0000
  H   H992      1.0  0.83551  0.04341  0.66312  1.0000
  H   H993      1.0  0.64226  0.10947  0.61392  1.0000
  H   H994      1.0  0.62628  0.09652  0.81937  1.0000
  H   H995      1.0  0.62985  0.14099  0.55652  1.0000
  H   H996      1.0  0.53187  0.19642  0.85301  1.0000
  H   H997      1.0  0.67609  0.06990  0.78422  1.0000
  H   H998      1.0  0.71092  0.04494  0.86052  1.0000
  C   C834      1.0  0.64529  0.08379  0.84779  1.0000
  H   H999      1.0  0.87293  0.11237  0.68852  1.0000
  H   H1000     1.0  0.88164  0.15800  0.86226  1.0000
  H   H1001     1.0  0.66758  0.11312  0.52415  1.0000
  C   C835      1.0  0.65695  0.09966  0.56344  1.0000
  H   H1002     1.0  0.69668  0.06142  0.54666  1.0000
  C   C836      1.0  0.88566  0.21597  0.94461  1.0000
  H   H1003     1.0  0.99979  0.15066  0.70519  1.0000
  C   C837      1.0  0.85083  0.10216  0.66713  1.0000
  C   C838      1.0  0.86254  0.10172  0.68830  1.0000
  H   H1004     1.0  0.68271  0.03153  0.82338  1.0000
  H   H1005     1.0  0.74006  0.01522  0.88455  1.0000
  C   C839      1.0  0.88759  0.19644  0.89680  1.0000
  H   H1006     1.0  0.85568  0.21387  0.94516  1.0000
  H   H1007     1.0  0.78758  0.03923  0.83790  1.0000
  C   C840      1.0  0.82143  0.05086  0.66462  1.0000
  H   H1008     1.0  0.82018  0.06015  0.64578  1.0000
  H   H1009     1.0  0.80675  0.03736  0.71242  1.0000
  H   H1010     1.0  0.88811  0.15940  0.89624  1.0000
  H   H1011     1.0  0.92751  0.22578  0.71039  1.0000
  C   C841      1.0  0.99055  0.22367  0.72996  1.0000
  C   C842      1.0  0.70764  0.07125  0.81941  1.0000
  C   C843      1.0  0.55087  0.16583  0.62592  1.0000
  H   H1012     1.0  0.54999  0.15139  0.70784  1.0000
  C   C844      1.0  0.83685  0.08898  0.66745  1.0000
  H   H1013     1.0  0.63357  0.13214  0.60211  1.0000
  H   H1014     1.0  0.96994  0.19579  0.71326  1.0000
  C   C845      1.0  0.86033  0.08811  0.70986  1.0000
  H   H1015     1.0  0.81047  0.04017  0.66461  1.0000
  H   H1016     1.0  0.82790  0.09013  0.65081  1.0000
  H   H1017     1.0  0.86907  0.08828  0.72673  1.0000
  C   C846      1.0  0.90732  0.18299  0.85908  1.0000
  H   H1018     1.0  0.54662  0.11964  0.69188  1.0000
  C   C847      1.0  0.65033  0.08267  0.79943  1.0000
  H   H1019     1.0  0.62199  0.09281  0.58689  1.0000
  C   C848      1.0  0.50584  0.21296  0.85116  1.0000
  H   H1020     1.0  0.72198  0.06467  0.82142  1.0000
  C   C849      1.0  0.94021  0.23424  0.71122  1.0000
  S   S234      1.0  0.61306  0.17676  0.50643  1.0000
  N   N57       1.0  0.69285  0.05841  0.83110  1.0000
  H   H1021     1.0  0.83167  0.03883  0.71401  1.0000
  N   N58       1.0  0.81891  0.06143  0.68928  1.0000
  C   C850      1.0  0.81825  0.04737  0.71305  1.0000
  C   C851      1.0  0.83413  0.07493  0.68917  1.0000
  C   C852      1.0  0.84631  0.07494  0.71052  1.0000
  H   H1022     1.0  0.64583  0.08660  0.77934  1.0000
  C   C853      1.0  0.53440  0.15347  0.70931  1.0000
  H   H1023     1.0  0.81533  0.05429  0.73236  1.0000
  H   H1024     1.0  0.51224  0.22592  0.85490  1.0000
  H   H1025     1.0  0.84491  0.06537  0.72845  1.0000
  C   C854      1.0  0.91579  0.23012  0.00228  1.0000
  H   H1026     1.0  0.89239  0.22489  0.74145  1.0000
  H   H1027     1.0  0.70636  0.07522  0.79751  1.0000
  C   C855      1.0  0.69428  0.04110  0.81618  1.0000
  C   C856      1.0  0.50491  0.14485  0.69499  1.0000
  C   C857      1.0  0.53245  0.23254  0.79210  1.0000
  C   C858      1.0  0.60420  0.22812  0.58020  1.0000
  H   H1028     1.0  0.91818  0.19831  0.89930  1.0000
  C   C859      1.0  0.67415  0.06808  0.82850  1.0000
  C   C860      1.0  0.66760  0.07294  0.80251  1.0000
  H   H1029     1.0  0.66631  0.07101  0.87169  1.0000
  C   C861      1.0  0.80041  0.07184  0.68955  1.0000
  H   H1030     1.0  0.53067  0.16876  0.70615  1.0000
  H   H1031     1.0  0.52618  0.21889  0.79383  1.0000
  C   C862      1.0  0.61658  0.23401  0.76109  1.0000
  C   C863      1.0  0.68345  0.15255  0.70517  1.0000
  H   H1032     1.0  0.69785  0.06510  0.87152  1.0000
  H   H1033     1.0  0.69372  0.04417  0.79401  1.0000
  H   H1034     1.0  0.79897  0.08155  0.67117  1.0000
  H   H1035     1.0  0.52384  0.11261  0.68459  1.0000
  H   H1036     1.0  0.79834  0.08051  0.70730  1.0000
  N   N59       1.0  0.95614  0.22264  0.72211  1.0000
  H   H1037     1.0  0.63806  0.12661  0.53007  1.0000
  H   H1038     1.0  0.76044  0.00959  0.64199  1.0000
  H   H1039     1.0  0.62098  0.09936  0.55147  1.0000
  C   C864      1.0  0.54511  0.16160  0.65321  1.0000
  H   H1040     1.0  0.56173  0.17593  0.62031  1.0000
  H   H1041     1.0  0.70691  0.08454  0.82981  1.0000
  H   H1042     1.0  0.68620  0.04316  0.86969  1.0000
  C   C865      1.0  0.69697  0.05270  0.85952  1.0000
  H   H1043     1.0  0.91666  0.17459  0.87274  1.0000
  C   C866      1.0  0.51690  0.19637  0.85033  1.0000
  H   H1044     1.0  0.91588  0.21488  0.94017  1.0000
  H   H1045     1.0  0.69275  0.14005  0.70456  1.0000
  C   C867      1.0  0.66898  0.10145  0.53918  1.0000
  H   H1046     1.0  0.63672  0.08842  0.86524  1.0000
  S   S235      1.0  0.79966  0.01329  0.93087  1.0000
  C   C868      1.0  0.62322  0.10483  0.57129  1.0000
  H   H1047     1.0  0.65460  0.13794  0.54868  1.0000
  C   C869      1.0  0.68572  0.07202  0.55126  1.0000
  H   H1048     1.0  0.91384  0.19663  0.85233  1.0000
  C   C870      1.0  0.87007  0.20116  0.91087  1.0000
  H   H1049     1.0  0.99739  0.18603  0.78721  1.0000
  C   C871      1.0  0.67286  0.15806  0.68332  1.0000
  N   N60       1.0  0.64170  0.11374  0.57028  1.0000
  C   C872      1.0  0.64113  0.13048  0.55047  1.0000
  H   H1050     1.0  0.65115  0.08081  0.59972  1.0000
  C   C873      1.0  0.61588  0.23580  0.73296  1.0000
  H   H1051     1.0  0.50253  0.20059  0.55042  1.0000
  C   C874      1.0  0.67413  0.06978  0.57508  1.0000
  C   C875      1.0  0.68314  0.08778  0.53334  1.0000
  C   C876      1.0  0.63929  0.08827  0.82199  1.0000
  C   C877      1.0  0.73844  0.01705  0.61500  1.0000
  C   C878      1.0  0.53117  0.12223  0.69639  1.0000
  C   C879      1.0  0.54360  0.15634  0.60592  1.0000
  C   C880      1.0  0.94228  0.24646  0.97896  1.0000
  H   H1052     1.0  0.52785  0.11778  0.71819  1.0000
  H   H1053     1.0  0.65225  0.17804  0.66742  1.0000
  H   H1054     1.0  0.94394  0.24036  0.69028  1.0000
  C   C881      1.0  0.50884  0.17971  0.84534  1.0000
  C   C882      1.0  0.50291  0.14280  0.77883  1.0000
  S   S236      1.0  0.67111  0.00648  0.54466  1.0000
  C   C883      1.0  0.76580  0.01445  0.90500  1.0000
  C   C884      1.0  0.88935  0.08364  0.99767  1.0000
  C   C885      1.0  0.94998  0.21530  0.75001  1.0000
  H   H1055     1.0  0.60365  0.20806  0.61478  1.0000
  H   H1056     1.0  0.67618  0.05734  0.58878  1.0000
  H   H1057     1.0  0.93858  0.21655  0.97916  1.0000
  H   H1058     1.0  0.61134  0.11499  0.57617  1.0000
  H   H1059     1.0  0.80726  0.03104  0.87669  1.0000
  S   S237      1.0  0.53557  0.14344  0.53676  1.0000
  C   C886      1.0  0.97358  0.11480  0.80332  1.0000
  C   C887      1.0  0.98822  0.12364  0.78773  1.0000
  N   N61       1.0  0.52567  0.14231  0.68998  1.0000
  C   C888      1.0  0.55198  0.23364  0.79003  1.0000
  S   S238      1.0  0.93449  0.12967  0.98670  1.0000
  H   H1060     1.0  0.60662  0.23198  0.64743  1.0000
  H   H1061     1.0  0.52974  0.14905  0.73061  1.0000
  H   H1062     1.0  0.51408  0.12775  0.64477  1.0000
  H   H1063     1.0  0.50597  0.19701  0.77276  1.0000
  S   S239      1.0  0.94570  0.17423  0.99079  1.0000
  C   C889      1.0  0.99929  0.15802  0.72347  1.0000
  Fe  Fe120     1.0  0.80817  0.00283  0.97406  1.0000
  H   H1064     1.0  0.98693  0.19746  0.99443  1.0000
  H   H1065     1.0  0.56076  0.22076  0.79001  1.0000
  H   H1066     1.0  0.96182  0.10689  0.84352  1.0000
  C   C890      1.0  0.93282  0.22972  0.98624  1.0000
  C   C891      1.0  0.87469  0.09659  0.00437  1.0000
  H   H1067     1.0  0.50910  0.17621  0.55642  1.0000
  Fe  Fe121     1.0  0.90437  0.13908  0.99729  1.0000
  H   H1068     1.0  0.99121  0.20866  0.73493  1.0000
  H   H1069     1.0  0.74325  0.00669  0.60100  1.0000
  H   H1070     1.0  0.99944  0.16514  0.84778  1.0000
  H   H1071     1.0  0.95529  0.24605  0.96613  1.0000
  H   H1072     1.0  0.89740  0.05437  0.99362  1.0000
  H   H1073     1.0  0.90338  0.08851  0.99199  1.0000
  H   H1074     1.0  0.51767  0.16695  0.84396  1.0000
  H   H1075     1.0  0.62069  0.24827  0.79673  1.0000
  H   H1076     1.0  0.91640  0.24956  0.80623  1.0000
  H   H1077     1.0  0.68682  0.00117  0.64118  1.0000
  H   H1078     1.0  0.99790  0.14827  0.87653  1.0000
  C   C892      1.0  0.61995  0.24976  0.77500  1.0000
  C   C893      1.0  0.86774  0.05755  0.00565  1.0000
  S   S240      1.0  0.87821  0.12116  0.00481  1.0000
  C   C894      1.0  0.65393  0.43809  0.48317  1.0000
  S   S241      1.0  0.59513  0.35134  0.47379  1.0000
  S   S242      1.0  0.71112  0.48609  0.48370  1.0000
  C   C895      1.0  0.99926  0.35847  0.08186  1.0000
  H   H1079     1.0  0.83825  0.46582  0.13060  1.0000
  H   H1080     1.0  0.79644  0.47238  0.06208  1.0000
  S   S243      1.0  0.53924  0.35247  0.46649  1.0000
  C   C896      1.0  0.61517  0.25805  0.48849  1.0000
  H   H1081     1.0  0.58643  0.31093  0.44480  1.0000
  H   H1082     1.0  0.63035  0.25862  0.48814  1.0000
  H   H1083     1.0  0.63951  0.39405  0.47310  1.0000
  H   H1084     1.0  0.81397  0.43227  0.10854  1.0000
  C   C897      1.0  0.99347  0.35361  0.05721  1.0000
  Fe  Fe122     1.0  0.59885  0.32385  0.49938  1.0000
  S   S244      1.0  0.96903  0.35212  0.05457  1.0000
  C   C898      1.0  0.60400  0.27480  0.48933  1.0000
  N   N62       1.0  0.81715  0.45989  0.08833  1.0000
  H   H1085     1.0  0.57834  0.33267  0.39009  1.0000
  C   C899      1.0  0.82390  0.47141  0.13300  1.0000
  H   H1086     1.0  0.57577  0.28655  0.49008  1.0000
  H   H1087     1.0  0.54037  0.31703  0.39382  1.0000
  C   C900      1.0  0.82464  0.44054  0.09566  1.0000
  H   H1088     1.0  0.53615  0.31742  0.43036  1.0000
  H   H1089     1.0  0.82878  0.43279  0.07732  1.0000
  H   H1090     1.0  0.83758  0.44044  0.10675  1.0000
  H   H1091     1.0  0.66186  0.41819  0.45342  1.0000
  H   H1092     1.0  0.53359  0.28776  0.41635  1.0000
  C   C901      1.0  0.81869  0.48100  0.15609  1.0000
  H   H1093     1.0  0.57394  0.31183  0.37372  1.0000
  H   H1094     1.0  0.69224  0.42505  0.50183  1.0000
  Fe  Fe123     1.0  0.56481  0.34993  0.49086  1.0000
  C   C902      1.0  0.64006  0.40720  0.48238  1.0000
  H   H1095     1.0  0.82883  0.48260  0.17081  1.0000
  H   H1096     1.0  0.71363  0.43667  0.50098  1.0000
  C   C903      1.0  0.80058  0.48902  0.16000  1.0000
  C   C904      1.0  0.79268  0.47799  0.11762  1.0000
  C   C905      1.0  0.51783  0.35457  0.48670  1.0000
  Fe  Fe124     1.0  0.95595  0.34641  0.01648  1.0000
  C   C906      1.0  0.65276  0.42094  0.47128  1.0000
  C   C907      1.0  0.57196  0.31668  0.44125  1.0000
  C   C908      1.0  0.54690  0.26067  0.41996  1.0000
  C   C909      1.0  0.57809  0.31701  0.39285  1.0000
  H   H1097     1.0  0.84512  0.47104  0.08380  1.0000
  C   C910      1.0  0.78761  0.48747  0.14086  1.0000
  H   H1098     1.0  0.57246  0.33228  0.44062  1.0000
  C   C911      1.0  0.98750  0.25208  0.00997  1.0000
  H   H1099     1.0  0.83686  0.46418  0.05337  1.0000
  H   H1100     1.0  0.59290  0.31200  0.39545  1.0000
  H   H1101     1.0  0.56248  0.31214  0.45920  1.0000
  C   C912      1.0  0.81103  0.46954  0.11306  1.0000
  H   H1102     1.0  0.78980  0.45051  0.08078  1.0000
  H   H1103     1.0  0.79675  0.49698  0.17748  1.0000
  C   C913      1.0  0.54706  0.28035  0.41793  1.0000
  H   H1104     1.0  0.89917  0.42596  0.02789  1.0000
  C   C914      1.0  0.58059  0.25883  0.42248  1.0000
  C   C915      1.0  0.58444  0.27381  0.48966  1.0000
  C   C916      1.0  0.89645  0.40114  0.00655  1.0000
  C   C917      1.0  0.80178  0.45827  0.07019  1.0000
  C   C918      1.0  0.83226  0.47057  0.07265  1.0000
  H   H1105     1.0  0.59442  0.28460  0.42180  1.0000
  C   C919      1.0  0.54642  0.32059  0.41264  1.0000
  Fe  Fe125     1.0  0.67987  0.48263  0.48216  1.0000
  C   C920      1.0  0.58093  0.27846  0.42063  1.0000
  H   H1106     1.0  0.78211  0.47801  0.10321  1.0000
  N   N63       1.0  0.56498  0.31065  0.41618  1.0000
  S   S245      1.0  0.92846  0.33146  0.01966  1.0000
  H   H1107     1.0  0.80673  0.45055  0.05215  1.0000
  S   S246      1.0  0.67121  0.45425  0.46926  1.0000
  H   H1108     1.0  0.54759  0.33620  0.41120  1.0000
  C   C921      1.0  0.51840  0.27274  0.48399  1.0000
  C   C922      1.0  0.56418  0.28986  0.41811  1.0000
  S   S247      1.0  0.61491  0.29675  0.48888  1.0000
  H   H1109     1.0  0.59349  0.25037  0.42509  1.0000
  H   H1110     1.0  0.98884  0.36127  0.09827  1.0000
  H   H1111     1.0  0.54304  0.28637  0.49358  1.0000
  H   H1112     1.0  0.90907  0.39413  0.01385  1.0000
  C   C923      1.0  0.57619  0.25642  0.48797  1.0000
  H   H1113     1.0  0.97366  0.25879  0.00768  1.0000
  H   H1114     1.0  0.82729  0.48534  0.06753  1.0000
  H   H1115     1.0  0.56114  0.25591  0.48687  1.0000
  H   H1116     1.0  0.91229  0.27734  0.01124  1.0000
  H   H1117     1.0  0.52623  0.25996  0.47867  1.0000
  H   H1118     1.0  0.77372  0.49428  0.14362  1.0000
  C   C924      1.0  0.89080  0.41924  0.01449  1.0000
  C   C925      1.0  0.52793  0.28758  0.49241  1.0000
  S   S248      1.0  0.86731  0.45086  0.01781  1.0000
  H   H1119     1.0  0.53375  0.25360  0.41990  1.0000
  C   C926      1.0  0.51799  0.30390  0.49962  1.0000
  C   C927      1.0  0.62844  0.41037  0.50576  1.0000
  Fe  Fe126     1.0  0.57576  0.33856  0.54733  1.0000
  S   S249      1.0  0.60668  0.33852  0.53497  1.0000
  S   S250      1.0  0.56423  0.32970  0.58930  1.0000
  C   C928      1.0  0.51395  0.31660  0.59766  1.0000
  S   S251      1.0  0.56922  0.36650  0.52606  1.0000
  Fe  Fe127     1.0  0.61984  0.31618  0.75972  1.0000
  S   S252      1.0  0.60774  0.33822  0.78687  1.0000
  S   S253      1.0  0.62583  0.28702  0.77924  1.0000
  Fe  Fe128     1.0  0.61737  0.34277  0.70987  1.0000
  S   S254      1.0  0.60451  0.36638  0.73300  1.0000
  S   S255      1.0  0.62485  0.35058  0.66590  1.0000
  Fe  Fe129     1.0  0.62697  0.35814  0.76156  1.0000
  S   S256      1.0  0.64249  0.38289  0.77433  1.0000
  Fe  Fe130     1.0  0.58658  0.34430  0.75563  1.0000
  S   S257      1.0  0.55559  0.34797  0.77071  1.0000
  S   S258      1.0  0.64074  0.33556  0.73701  1.0000
  S   S259      1.0  0.59771  0.32117  0.73002  1.0000
  Fe  Fe131     1.0  0.95829  0.35026  0.95573  1.0000
  S   S260      1.0  0.97345  0.35900  0.91581  1.0000
  Fe  Fe132     1.0  0.93083  0.32176  0.80335  1.0000
  S   S261      1.0  0.93198  0.35298  0.79381  1.0000
  S   S262      1.0  0.94016  0.30516  0.84049  1.0000
  Fe  Fe133     1.0  0.91508  0.31506  0.75040  1.0000
  S   S263      1.0  0.91560  0.34567  0.73541  1.0000
  S   S264      1.0  0.90392  0.29255  0.72730  1.0000
  Fe  Fe134     1.0  0.94409  0.34486  0.75298  1.0000
  S   S265      1.0  0.97142  0.35521  0.73157  1.0000
  Fe  Fe135     1.0  0.90347  0.35113  0.77746  1.0000
  S   S266      1.0  0.87756  0.36894  0.79150  1.0000
  S   S267      1.0  0.94438  0.31375  0.76370  1.0000
  S   S268      1.0  0.90140  0.32043  0.79129  1.0000
  Fe  Fe136     1.0  0.74898  0.41785  0.75592  1.0000
  S   S269      1.0  0.74012  0.44844  0.75785  1.0000
  S   S270      1.0  0.73178  0.39153  0.76384  1.0000
  Fe  Fe137     1.0  0.78894  0.42684  0.73418  1.0000
  S   S271      1.0  0.78233  0.45805  0.73298  1.0000
  S   S272      1.0  0.81873  0.41660  0.72026  1.0000
  Fe  Fe138     1.0  0.76835  0.45184  0.77499  1.0000
  S   S273      1.0  0.77591  0.47306  0.80515  1.0000
  Fe  Fe139     1.0  0.75481  0.45237  0.71567  1.0000
  S   S274      1.0  0.73819  0.47164  0.68481  1.0000
  S   S275      1.0  0.77593  0.42079  0.77634  1.0000
  S   S276      1.0  0.76274  0.42159  0.71353  1.0000
  H   H1120     1.0  0.90585  0.35520  0.85242  1.0000
  H   H1121     1.0  0.89021  0.44288  0.84212  1.0000
  H   H1122     1.0  0.56183  0.37151  0.59240  1.0000
  H   H1123     1.0  0.58560  0.37511  0.67563  1.0000
  H   H1124     1.0  0.86812  0.34470  0.75032  1.0000
  H   H1125     1.0  0.92596  0.28505  0.92862  1.0000
  C   C929      1.0  0.78408  0.47352  0.83848  1.0000
  H   H1126     1.0  0.86360  0.30119  0.71481  1.0000
  H   H1127     1.0  0.99760  0.38698  0.92623  1.0000
  C   C930      1.0  0.71856  0.43473  0.55255  1.0000
  H   H1128     1.0  0.89191  0.29733  0.87590  1.0000
  C   C931      1.0  0.78513  0.45753  0.85672  1.0000
  C   C932      1.0  0.52671  0.36612  0.61178  1.0000
  H   H1129     1.0  0.85420  0.32523  0.76317  1.0000
  H   H1130     1.0  0.78047  0.44425  0.85112  1.0000
  C   C933      1.0  0.72461  0.48069  0.59393  1.0000
  C   C934      1.0  0.73317  0.47442  0.64961  1.0000
  C   C935      1.0  0.74263  0.46387  0.62966  1.0000
  C   C936      1.0  0.73844  0.46705  0.60217  1.0000
  H   H1131     1.0  0.75346  0.45350  0.63530  1.0000
  H   H1132     1.0  0.74622  0.45903  0.58708  1.0000
  C   C937      1.0  0.86103  0.38110  0.77079  1.0000
  C   C938      1.0  0.84287  0.38570  0.78228  1.0000
  C   C939      1.0  0.82955  0.39600  0.76687  1.0000
  C   C940      1.0  0.83445  0.40232  0.73997  1.0000
  C   C941      1.0  0.85259  0.39764  0.72845  1.0000
  C   C942      1.0  0.86575  0.38692  0.74365  1.0000
  H   H1133     1.0  0.83902  0.38115  0.80320  1.0000
  H   H1134     1.0  0.81555  0.39914  0.77585  1.0000
  H   H1135     1.0  0.85652  0.40243  0.70764  1.0000
  H   H1136     1.0  0.87971  0.38362  0.73457  1.0000
  C   C943      1.0  0.55775  0.37685  0.69554  1.0000
  C   C944      1.0  0.79011  0.49062  0.84661  1.0000
  S   S277      1.0  0.81695  0.47519  0.99933  1.0000
  H   H1137     1.0  0.97628  0.35613  0.78890  1.0000
  C   C945      1.0  0.87169  0.33586  0.69857  1.0000
  H   H1138     1.0  0.85087  0.42658  0.98139  1.0000
  Fe  Fe140     1.0  0.60007  0.36607  0.51128  1.0000
  C   C946      1.0  0.90398  0.27050  0.74595  1.0000
  C   C947      1.0  0.91095  0.26851  0.77155  1.0000
  C   C948      1.0  0.51058  0.31939  0.62505  1.0000
  Fe  Fe141     1.0  0.70305  0.49865  0.52374  1.0000
  C   C949      1.0  0.88548  0.39197  0.98995  1.0000
  H   H1139     1.0  0.91624  0.28053  0.78006  1.0000
  H   H1140     1.0  0.51404  0.36485  0.62627  1.0000
  C   C950      1.0  0.96847  0.34243  0.89352  1.0000
  C   C951      1.0  0.96824  0.34757  0.86580  1.0000
  C   C952      1.0  0.96067  0.33551  0.84888  1.0000
  C   C953      1.0  0.95327  0.31847  0.85976  1.0000
  C   C954      1.0  0.95511  0.31263  0.88694  1.0000
  C   C955      1.0  0.96274  0.32460  0.90380  1.0000
  H   H1141     1.0  0.97303  0.36120  0.85765  1.0000
  H   H1142     1.0  0.96004  0.33968  0.82766  1.0000
  H   H1143     1.0  0.95001  0.29917  0.89526  1.0000
  H   H1144     1.0  0.96371  0.32018  0.92498  1.0000
  C   C956      1.0  0.66737  0.38492  0.77209  1.0000
  C   C957      1.0  0.67977  0.36961  0.76701  1.0000
  C   C958      1.0  0.69940  0.37191  0.76471  1.0000
  C   C959      1.0  0.70691  0.38957  0.76699  1.0000
  C   C960      1.0  0.69452  0.40494  0.77188  1.0000
  C   C961      1.0  0.67487  0.40256  0.77469  1.0000
  H   H1145     1.0  0.67425  0.35593  0.76517  1.0000
  H   H1146     1.0  0.70886  0.35991  0.76112  1.0000
  H   H1147     1.0  0.70008  0.41858  0.77390  1.0000
  H   H1148     1.0  0.66541  0.41448  0.77877  1.0000
  C   C962      1.0  0.62220  0.26748  0.76099  1.0000
  C   C963      1.0  0.62106  0.26939  0.73295  1.0000
  H   H1149     1.0  0.62279  0.28300  0.72200  1.0000
  C   C964      1.0  0.51749  0.34439  0.76919  1.0000
  C   C965      1.0  0.53518  0.34312  0.75459  1.0000
  C   C966      1.0  0.53609  0.33818  0.72781  1.0000
  H   H1150     1.0  0.51663  0.34819  0.78991  1.0000
  H   H1151     1.0  0.54961  0.33708  0.71633  1.0000
  C   C967      1.0  0.91518  0.27453  0.92652  1.0000
  C   C968      1.0  0.86604  0.45540  0.86353  1.0000
  C   C969      1.0  0.88490  0.26833  0.91237  1.0000
  S   S278      1.0  0.72007  0.48413  0.55859  1.0000
  C   C970      1.0  0.58020  0.33631  0.61131  1.0000
  C   C971      1.0  0.59431  0.34868  0.60173  1.0000
  C   C972      1.0  0.60807  0.35289  0.61859  1.0000
  C   C973      1.0  0.60747  0.34508  0.64528  1.0000
  C   C974      1.0  0.59297  0.33321  0.65517  1.0000
  C   C975      1.0  0.57931  0.32880  0.63817  1.0000
  H   H1152     1.0  0.59453  0.35531  0.58145  1.0000
  H   H1153     1.0  0.61908  0.36233  0.61098  1.0000
  H   H1154     1.0  0.59241  0.32719  0.67573  1.0000
  H   H1155     1.0  0.56831  0.31934  0.64571  1.0000
  N   N64       1.0  0.85632  0.33055  0.71943  1.0000
  H   H1156     1.0  0.55889  0.28712  0.74046  1.0000
  N   N65       1.0  0.65671  0.39916  0.68708  1.0000
  C   C976      1.0  0.65989  0.37894  0.69596  1.0000
  C   C977      1.0  0.64598  0.40855  0.70936  1.0000
  C   C978      1.0  0.64473  0.40000  0.66383  1.0000
  C   C979      1.0  0.67491  0.40845  0.68069  1.0000
  C   C980      1.0  0.67856  0.42090  0.65719  1.0000
  C   C981      1.0  0.68916  0.40622  0.69921  1.0000
  C   C982      1.0  0.69550  0.43034  0.65272  1.0000
  C   C983      1.0  0.70605  0.41559  0.69450  1.0000
  C   C984      1.0  0.70920  0.42767  0.67133  1.0000
  H   H1157     1.0  0.66604  0.37676  0.71583  1.0000
  H   H1158     1.0  0.64645  0.37141  0.69905  1.0000
  H   H1159     1.0  0.66927  0.37158  0.68085  1.0000
  H   H1160     1.0  0.65406  0.40822  0.72762  1.0000
  H   H1161     1.0  0.63253  0.40152  0.71595  1.0000
  H   H1162     1.0  0.64262  0.42362  0.70340  1.0000
  H   H1163     1.0  0.65232  0.39367  0.64611  1.0000
  H   H1164     1.0  0.63166  0.39198  0.66891  1.0000
  H   H1165     1.0  0.63984  0.41465  0.65778  1.0000
  H   H1166     1.0  0.66846  0.42383  0.64219  1.0000
  H   H1167     1.0  0.68725  0.39751  0.71789  1.0000
  H   H1168     1.0  0.69796  0.44009  0.63501  1.0000
  H   H1169     1.0  0.71661  0.41367  0.70920  1.0000
  H   H1170     1.0  0.72220  0.43518  0.66806  1.0000
  H   H1171     1.0  0.92484  0.39078  0.89495  1.0000
  C   C985      1.0  0.91807  0.26414  0.00422  1.0000
  H   H1172     1.0  0.87702  0.32094  0.74720  1.0000
  C   C986      1.0  0.88864  0.29813  0.93134  1.0000
  C   C987      1.0  0.87217  0.30810  0.92274  1.0000
  C   C988      1.0  0.89537  0.30307  0.95591  1.0000
  C   C989      1.0  0.86313  0.32220  0.93766  1.0000
  C   C990      1.0  0.88625  0.31723  0.97061  1.0000
  C   C991      1.0  0.87023  0.32681  0.96149  1.0000
  C   C992      1.0  0.53206  0.38047  0.66625  1.0000
  C   C993      1.0  0.85106  0.31118  0.71516  1.0000
  C   C994      1.0  0.98586  0.28564  0.80216  1.0000
  H   H1173     1.0  0.92744  0.35294  0.86809  1.0000
  H   H1174     1.0  0.88872  0.38129  0.84138  1.0000
  H   H1175     1.0  0.79275  0.44621  0.89630  1.0000
  H   H1176     1.0  0.70754  0.41165  0.59169  1.0000
  H   H1177     1.0  0.90777  0.29636  0.96421  1.0000
  H   H1178     1.0  0.85060  0.32968  0.93073  1.0000
  C   C995      1.0  0.87442  0.42865  0.00539  1.0000
  H   H1179     1.0  0.86343  0.33794  0.97291  1.0000
  H   H1180     1.0  0.88480  0.38898  0.92766  1.0000
  C   C996      1.0  0.91533  0.36290  0.86407  1.0000
  S   S279      1.0  0.94696  0.28434  0.97630  1.0000
  H   H1181     1.0  0.61103  0.30929  0.59098  1.0000
  H   H1182     1.0  0.86076  0.45168  0.76213  1.0000
  H   H1183     1.0  0.88425  0.32598  0.69996  1.0000
  H   H1184     1.0  0.61764  0.25500  0.69719  1.0000
  H   H1185     1.0  0.62064  0.43020  0.53566  1.0000
  C   C997      1.0  0.88043  0.39190  0.90736  1.0000
  H   H1186     1.0  0.52854  0.37827  0.70993  1.0000
  H   H1187     1.0  0.81340  0.43544  0.78035  1.0000
  C   C998      1.0  0.60745  0.25533  0.61687  1.0000
  H   H1188     1.0  0.97396  0.29602  0.80617  1.0000
  H   H1189     1.0  0.62641  0.29835  0.55033  1.0000
  C   C999      1.0  0.69521  0.40755  0.58266  1.0000
  H   H1190     1.0  0.58545  0.27935  0.76839  1.0000
  C   C1000     1.0  0.66843  0.38740  0.58709  1.0000
  H   H1191     1.0  0.98711  0.27675  0.82142  1.0000
  H   H1192     1.0  0.64993  0.39088  0.55466  1.0000
  H   H1193     1.0  0.81845  0.47525  0.79674  1.0000
  H   H1194     1.0  0.87454  0.43961  0.80130  1.0000
  H   H1195     1.0  0.60502  0.25046  0.54928  1.0000
  H   H1196     1.0  0.82329  0.46451  0.83955  1.0000
  H   H1197     1.0  0.53373  0.30309  0.80262  1.0000
  S   S280      1.0  0.94675  0.36980  0.98665  1.0000
  H   H1198     1.0  0.59107  0.30235  0.55737  1.0000
  H   H1199     1.0  0.87319  0.45670  0.88172  1.0000
  H   H1200     1.0  0.52810  0.31305  0.58939  1.0000
  C   C1001     1.0  0.83941  0.34345  0.71867  1.0000
  C   C1002     1.0  0.83784  0.35898  0.69906  1.0000
  C   C1003     1.0  0.82377  0.34059  0.73795  1.0000
  C   C1004     1.0  0.82168  0.37090  0.69911  1.0000
  C   C1005     1.0  0.80777  0.35272  0.73795  1.0000
  C   C1006     1.0  0.80676  0.36788  0.71861  1.0000
  H   H1201     1.0  0.84899  0.36251  0.68376  1.0000
  H   H1202     1.0  0.82386  0.32904  0.75338  1.0000
  H   H1203     1.0  0.82095  0.38304  0.68454  1.0000
  H   H1204     1.0  0.79612  0.35052  0.75317  1.0000
  H   H1205     1.0  0.79454  0.37756  0.71899  1.0000
  N   N66       1.0  0.55723  0.28705  0.78386  1.0000
  C   C1007     1.0  0.54881  0.29916  0.80502  1.0000
  C   C1008     1.0  0.57797  0.28642  0.78553  1.0000
  C   C1009     1.0  0.55323  0.29602  0.75691  1.0000
  C   C1010     1.0  0.71492  0.49099  0.61396  1.0000
  C   C1011     1.0  0.59103  0.28721  0.56460  1.0000
  Fe  Fe142     1.0  0.94215  0.31502  0.98587  1.0000
  H   H1206     1.0  0.52022  0.33192  0.69464  1.0000
  H   H1207     1.0  0.96185  0.26163  0.71161  1.0000
  H   H1208     1.0  0.57814  0.28517  0.57857  1.0000
  S   S281      1.0  0.89157  0.36873  0.98054  1.0000
  H   H1209     1.0  0.55590  0.31284  0.80421  1.0000
  C   C1012     1.0  0.54903  0.26822  0.78728  1.0000
  C   C1013     1.0  0.68465  0.39346  0.59718  1.0000
  H   H1210     1.0  0.58370  0.30077  0.78437  1.0000
  C   C1014     1.0  0.97409  0.25306  0.71699  1.0000
  C   C1015     1.0  0.86365  0.41966  0.98826  1.0000
  H   H1211     1.0  0.55983  0.30989  0.75306  1.0000
  H   H1212     1.0  0.71620  0.44040  0.57283  1.0000
  H   H1213     1.0  0.68495  0.45304  0.56157  1.0000
  H   H1214     1.0  0.58218  0.27914  0.80491  1.0000
  C   C1016     1.0  0.71923  0.48794  0.64140  1.0000
  H   H1215     1.0  0.53558  0.35298  0.61497  1.0000
  H   H1216     1.0  0.68914  0.38714  0.61631  1.0000
  Fe  Fe143     1.0  0.92017  0.35401  0.98755  1.0000
  H   H1217     1.0  0.82171  0.46856  0.76305  1.0000
  C   C1017     1.0  0.84862  0.44271  0.76876  1.0000
  H   H1218     1.0  0.84599  0.41772  0.87598  1.0000
  H   H1219     1.0  0.71169  0.49621  0.65640  1.0000
  H   H1220     1.0  0.86163  0.40249  0.83647  1.0000
  C   C1018     1.0  0.86902  0.40132  0.98093  1.0000
  H   H1221     1.0  0.60872  0.26503  0.63217  1.0000
  H   H1222     1.0  0.53787  0.29863  0.75489  1.0000
  H   H1223     1.0  0.87670  0.35014  0.70111  1.0000
  C   C1019     1.0  0.51939  0.33524  0.71556  1.0000
  H   H1224     1.0  0.58958  0.27937  0.54650  1.0000
  H   H1225     1.0  0.81003  0.44373  0.81328  1.0000
  H   H1226     1.0  0.91215  0.28174  0.87486  1.0000
  C   C1020     1.0  0.72083  0.49572  0.75163  1.0000
  H   H1227     1.0  0.91163  0.26712  0.94669  1.0000
  C   C1021     1.0  0.52494  0.39997  0.61264  1.0000
  H   H1228     1.0  0.51976  0.27888  0.78792  1.0000
  H   H1229     1.0  0.52003  0.40234  0.59186  1.0000
  C   C1022     1.0  0.86634  0.44587  0.81773  1.0000
  H   H1230     1.0  0.98763  0.31676  0.77095  1.0000
  H   H1231     1.0  0.56262  0.37505  0.71577  1.0000
  H   H1232     1.0  0.62309  0.29114  0.61047  1.0000
  H   H1233     1.0  0.64258  0.45457  0.51553  1.0000
  C   C1023     1.0  0.88986  0.38306  0.88519  1.0000
  S   S282      1.0  0.93123  0.33599  0.95423  1.0000
  H   H1234     1.0  0.89179  0.25620  0.71532  1.0000
  C   C1024     1.0  0.99170  0.35502  0.75006  1.0000
  S   S283      1.0  0.56849  0.32198  0.51388  1.0000
  C   C1025     1.0  0.90401  0.29201  0.88748  1.0000
  H   H1235     1.0  0.67554  0.44738  0.53081  1.0000
  S   S284      1.0  0.97009  0.32857  0.98529  1.0000
  C   C1026     1.0  0.86494  0.40441  0.90393  1.0000
  C   C1027     1.0  0.56027  0.25117  0.78757  1.0000
  C   C1028     1.0  0.61814  0.25353  0.71895  1.0000
  N   N67       1.0  0.53755  0.38287  0.61544  1.0000
  C   C1029     1.0  0.83788  0.45970  0.83924  1.0000
  H   H1236     1.0  0.84089  0.30541  0.73151  1.0000
  C   C1030     1.0  0.82911  0.46923  0.78186  1.0000
  C   C1031     1.0  0.55264  0.38451  0.59300  1.0000
  C   C1032     1.0  0.57063  0.37691  0.67293  1.0000
  H   H1237     1.0  0.55007  0.29213  0.82563  1.0000
  C   C1033     1.0  0.51791  0.35445  0.51482  1.0000
  N   N68       1.0  0.70049  0.43090  0.54137  1.0000
  H   H1238     1.0  0.56158  0.39670  0.59466  1.0000
  H   H1239     1.0  0.86024  0.39425  0.96851  1.0000
  H   H1240     1.0  0.87965  0.26212  0.93273  1.0000
  H   H1241     1.0  0.59762  0.29421  0.61466  1.0000
  C   C1034     1.0  0.86417  0.33036  0.74618  1.0000
  H   H1242     1.0  0.84454  0.31080  0.69560  1.0000
  H   H1243     1.0  0.54676  0.38652  0.57281  1.0000
  C   C1035     1.0  0.79211  0.45869  0.88248  1.0000
  C   C1036     1.0  0.54479  0.38094  0.64271  1.0000
  H   H1244     1.0  0.86715  0.33544  0.67773  1.0000
  C   C1037     1.0  0.61010  0.29443  0.59966  1.0000
  H   H1245     1.0  0.85395  0.42806  0.77406  1.0000
  H   H1246     1.0  0.84046  0.44192  0.75066  1.0000
  C   C1038     1.0  0.99081  0.26251  0.71783  1.0000
  C   C1039     1.0  0.56435  0.37900  0.64685  1.0000
  H   H1247     1.0  0.92221  0.26382  0.91359  1.0000
  H   H1248     1.0  0.66799  0.41529  0.52899  1.0000
  S   S285      1.0  0.67178  0.49468  0.52205  1.0000
  N   N69       1.0  0.83679  0.45042  0.79164  1.0000
  Fe  Fe144     1.0  0.82125  0.49023  0.95736  1.0000
  C   C1040     1.0  0.84714  0.45202  0.81601  1.0000
  H   H1249     1.0  0.72342  0.48609  0.76977  1.0000
  H   H1250     1.0  0.84052  0.47944  0.77755  1.0000
  H   H1251     1.0  0.82580  0.42384  0.80752  1.0000
  H   H1252     1.0  0.85806  0.41105  0.92121  1.0000
  C   C1041     1.0  0.85815  0.40819  0.87847  1.0000
  C   C1042     1.0  0.68984  0.41585  0.55727  1.0000
  C   C1043     1.0  0.86699  0.39969  0.85629  1.0000
  C   C1044     1.0  0.79721  0.49175  0.87227  1.0000
  H   H1253     1.0  0.51200  0.39911  0.62663  1.0000
  C   C1045     1.0  0.66264  0.39546  0.56253  1.0000
  H   H1254     1.0  0.57513  0.37880  0.63032  1.0000
  C   C1046     1.0  0.82085  0.43782  0.79857  1.0000
  H   H1255     1.0  0.91327  0.30404  0.88873  1.0000
  H   H1256     1.0  0.71292  0.41205  0.51252  1.0000
  H   H1257     1.0  0.99100  0.27759  0.71281  1.0000
  C   C1047     1.0  0.88266  0.38738  0.85944  1.0000
  C   C1048     1.0  0.62492  0.28345  0.55853  1.0000
  H   H1258     1.0  0.66032  0.37640  0.59825  1.0000
  C   C1049     1.0  0.60710  0.26129  0.58887  1.0000
  H   H1259     1.0  0.91487  0.37949  0.92618  1.0000
  H   H1260     1.0  0.87243  0.27345  0.90143  1.0000
  H   H1261     1.0  0.83971  0.46728  0.88008  1.0000
  H   H1262     1.0  0.89239  0.35551  0.92614  1.0000
  C   C1050     1.0  0.92005  0.37713  0.90494  1.0000
  N   N70       1.0  0.90562  0.36914  0.88960  1.0000
  H   H1263     1.0  0.98141  0.27689  0.78641  1.0000
  C   C1051     1.0  0.89724  0.25473  0.73512  1.0000
  C   C1052     1.0  0.79825  0.47579  0.89057  1.0000
  H   H1264     1.0  0.52180  0.36644  0.59102  1.0000
  N   N71       1.0  0.89810  0.28349  0.91487  1.0000
  H   H1265     1.0  0.86618  0.30509  0.90433  1.0000
  C   C1053     1.0  0.89810  0.35228  0.90543  1.0000
  H   H1266     1.0  0.88649  0.34650  0.89532  1.0000
  H   H1267     1.0  0.53110  0.35337  0.52424  1.0000
  H   H1268     1.0  0.99809  0.29852  0.75112  1.0000
  C   C1054     1.0  0.68878  0.44860  0.54081  1.0000
  H   H1269     1.0  0.53235  0.41273  0.61681  1.0000
  H   H1270     1.0  0.90919  0.34091  0.90795  1.0000
  C   C1055     1.0  0.99008  0.35521  0.77825  1.0000
  H   H1271     1.0  0.93277  0.36752  0.90662  1.0000
  H   H1272     1.0  0.89181  0.25670  0.90101  1.0000
  C   C1056     1.0  0.84720  0.46135  0.86258  1.0000
  H   H1273     1.0  0.75721  0.48933  0.75832  1.0000
  H   H1274     1.0  0.92107  0.37501  0.85093  1.0000
  S   S286      1.0  0.80744  0.47629  0.92327  1.0000
  C   C1057     1.0  0.87558  0.44765  0.84118  1.0000
  H   H1275     1.0  0.69640  0.46032  0.52932  1.0000
  C   C1058     1.0  0.67315  0.40945  0.54784  1.0000
  H   H1276     1.0  0.62399  0.27527  0.54060  1.0000
  H   H1277     1.0  0.00032  0.39292  0.95966  1.0000
  C   C1059     1.0  0.93500  0.26372  0.98794  1.0000
  N   N72       1.0  0.60829  0.28126  0.57836  1.0000
  H   H1278     1.0  0.51698  0.38127  0.66486  1.0000
  H   H1279     1.0  0.72805  0.42192  0.55385  1.0000
  Fe  Fe145     1.0  0.84854  0.47455  0.99928  1.0000
  C   C1060     1.0  0.62953  0.42757  0.51757  1.0000
  H   H1280     1.0  0.72641  0.44577  0.53965  1.0000
  H   H1281     1.0  0.63817  0.27865  0.56788  1.0000
  H   H1282     1.0  0.52217  0.31793  0.63807  1.0000
  H   H1283     1.0  0.99542  0.31733  0.81952  1.0000
  S   S287      1.0  0.61331  0.39299  0.52224  1.0000
  S   S288      1.0  0.85310  0.48863  0.95742  1.0000
  C   C1061     1.0  0.91108  0.25093  0.78635  1.0000
  C   C1062     1.0  0.52916  0.26654  0.78900  1.0000
  H   H1284     1.0  0.89176  0.32100  0.98912  1.0000
  C   C1063     1.0  0.70502  0.42585  0.51309  1.0000
  C   C1064     1.0  0.53851  0.37868  0.69220  1.0000
  C   C1065     1.0  0.75419  0.49976  0.74126  1.0000
  H   H1285     1.0  0.74315  0.49809  0.79791  1.0000
  C   C1066     1.0  0.00031  0.30715  0.76815  1.0000
  H   H1286     1.0  0.72012  0.48663  0.73452  1.0000
  H   H1287     1.0  0.75501  0.49176  0.72286  1.0000
  C   C1067     1.0  0.64203  0.44142  0.50624  1.0000
  H   H1288     1.0  0.57551  0.25095  0.78562  1.0000
  H   H1289     1.0  0.52549  0.31543  0.50613  1.0000
  C   C1068     1.0  0.50167  0.33680  0.73009  1.0000
  H   H1290     1.0  0.50185  0.31646  0.55950  1.0000
  Fe  Fe146     1.0  0.58165  0.66766  0.46505  1.0000
  S   S289      1.0  0.57046  0.66378  0.42523  1.0000
  Fe  Fe147     1.0  0.61399  0.68794  0.29528  1.0000
  S   S290      1.0  0.60693  0.65765  0.30091  1.0000
  S   S291      1.0  0.62085  0.70342  0.33035  1.0000
  Fe  Fe148     1.0  0.60943  0.68983  0.23603  1.0000
  S   S292      1.0  0.60255  0.65915  0.23641  1.0000
  S   S293      1.0  0.60967  0.70962  0.19854  1.0000
  Fe  Fe149     1.0  0.58364  0.66546  0.27353  1.0000
  S   S294      1.0  0.55361  0.65764  0.28842  1.0000
  Fe  Fe150     1.0  0.62665  0.65414  0.26380  1.0000
  S   S295      1.0  0.64940  0.63139  0.27340  1.0000
  S   S296      1.0  0.58941  0.69621  0.27129  1.0000
  S   S297      1.0  0.63481  0.68437  0.25992  1.0000
  S   S298      1.0  0.90712  0.63222  0.02870  1.0000
  S   S299      1.0  0.92350  0.67372  0.03540  1.0000
  Fe  Fe151     1.0  0.89577  0.65982  0.04287  1.0000
  S   S300      1.0  0.87758  0.65960  0.08187  1.0000
  Fe  Fe152     1.0  0.93394  0.64730  0.01685  1.0000
  Fe  Fe153     1.0  0.91734  0.69571  0.19541  1.0000
  S   S301      1.0  0.92830  0.66597  0.19250  1.0000
  S   S302      1.0  0.91232  0.71332  0.15694  1.0000
  Fe  Fe154     1.0  0.91876  0.69352  0.25554  1.0000
  S   S303      1.0  0.93010  0.66345  0.25746  1.0000
  S   S304      1.0  0.91277  0.70644  0.29535  1.0000
  Fe  Fe155     1.0  0.94924  0.67305  0.22137  1.0000
  S   S305      1.0  0.97982  0.66399  0.21043  1.0000
  Fe  Fe156     1.0  0.90801  0.65896  0.22873  1.0000
  S   S306      1.0  0.89178  0.63159  0.23336  1.0000
  S   S307      1.0  0.93954  0.70343  0.22170  1.0000
  S   S308      1.0  0.89548  0.68842  0.22933  1.0000
  H   H1291     1.0  0.82806  0.51651  0.08688  1.0000
  S   S309      1.0  0.72419  0.53301  0.42831  1.0000
  H   H1292     1.0  0.52203  0.71100  0.18512  1.0000
  H   H1293     1.0  0.70055  0.54698  0.25064  1.0000
  H   H1294     1.0  0.90002  0.66879  0.30219  1.0000
  H   H1295     1.0  0.53685  0.69089  0.19412  1.0000
  H   H1296     1.0  0.94127  0.68532  0.13424  1.0000
  C   C1069     1.0  0.95218  0.67901  0.12090  1.0000
  Fe  Fe157     1.0  0.78688  0.59015  0.24085  1.0000
  S   S310      1.0  0.79436  0.55901  0.24574  1.0000
  S   S311      1.0  0.80331  0.61640  0.24673  1.0000
  Fe  Fe158     1.0  0.74790  0.58316  0.22246  1.0000
  S   S312      1.0  0.75327  0.55173  0.22477  1.0000
  S   S313      1.0  0.72103  0.59693  0.20635  1.0000
  Fe  Fe159     1.0  0.76455  0.55564  0.26535  1.0000
  S   S314      1.0  0.75292  0.53527  0.30110  1.0000
  Fe  Fe160     1.0  0.78230  0.55749  0.20489  1.0000
  S   S315      1.0  0.80031  0.54238  0.17120  1.0000
  S   S316      1.0  0.75797  0.58687  0.26321  1.0000
  S   S317      1.0  0.77602  0.58877  0.19983  1.0000
  C   C1070     1.0  0.79828  0.52224  0.08448  1.0000
  C   C1071     1.0  0.78183  0.52947  0.09844  1.0000
  C   C1072     1.0  0.78220  0.53611  0.12452  1.0000
  C   C1073     1.0  0.79906  0.53548  0.13735  1.0000
  C   C1074     1.0  0.81557  0.52848  0.12321  1.0000
  C   C1075     1.0  0.81523  0.52199  0.09704  1.0000
  H   H1297     1.0  0.65826  0.63502  0.32888  1.0000
  H   H1298     1.0  0.55107  0.70823  0.24368  1.0000
  H   H1299     1.0  0.82870  0.52777  0.13284  1.0000
  H   H1300     1.0  0.55176  0.72566  0.15931  1.0000
  C   C1076     1.0  0.73168  0.53335  0.39273  1.0000
  C   C1077     1.0  0.74082  0.54925  0.37999  1.0000
  C   C1078     1.0  0.74723  0.55020  0.35216  1.0000
  C   C1079     1.0  0.74491  0.53510  0.33649  1.0000
  C   C1080     1.0  0.73567  0.51927  0.34917  1.0000
  C   C1081     1.0  0.72899  0.51844  0.37689  1.0000
  H   H1301     1.0  0.74332  0.56082  0.39183  1.0000
  H   H1302     1.0  0.75439  0.56244  0.34302  1.0000
  N   N73       1.0  0.82437  0.56808  0.03537  1.0000
  C   C1082     1.0  0.86706  0.62788  0.23495  1.0000
  C   C1083     1.0  0.85352  0.64270  0.23616  1.0000
  C   C1084     1.0  0.83412  0.63893  0.23928  1.0000
  C   C1085     1.0  0.82793  0.62037  0.24052  1.0000
  C   C1086     1.0  0.84147  0.60560  0.23832  1.0000
  C   C1087     1.0  0.86089  0.60934  0.23584  1.0000
  H   H1303     1.0  0.85797  0.65702  0.23517  1.0000
  H   H1304     1.0  0.82383  0.65049  0.24102  1.0000
  H   H1305     1.0  0.83701  0.59124  0.23943  1.0000
  H   H1306     1.0  0.87117  0.59771  0.23512  1.0000
  S   S318      1.0  0.70152  0.52812  0.50234  1.0000
  H   H1307     1.0  0.72237  0.54811  0.26566  1.0000
  H   H1308     1.0  0.72213  0.50605  0.38614  1.0000
  H   H1309     1.0  0.64805  0.58801  0.24884  1.0000
  H   H1310     1.0  0.98179  0.68189  0.26108  1.0000
  H   H1311     1.0  0.66569  0.74788  0.31487  1.0000
  C   C1088     1.0  0.91301  0.73092  0.29833  1.0000
  C   C1089     1.0  0.91165  0.73706  0.32444  1.0000
  H   H1312     1.0  0.58432  0.72695  0.38410  1.0000
  H   H1313     1.0  0.91046  0.72692  0.34183  1.0000
  C   C1090     1.0  0.88458  0.67648  0.10234  1.0000
  C   C1091     1.0  0.89509  0.69163  0.09107  1.0000
  C   C1092     1.0  0.90279  0.70361  0.10792  1.0000
  C   C1093     1.0  0.90032  0.70016  0.13605  1.0000
  C   C1094     1.0  0.88908  0.68553  0.14732  1.0000
  C   C1095     1.0  0.88081  0.67398  0.13041  1.0000
  H   H1314     1.0  0.89732  0.69411  0.06937  1.0000
  H   H1315     1.0  0.91125  0.71502  0.09906  1.0000
  H   H1316     1.0  0.88685  0.68304  0.16906  1.0000
  H   H1317     1.0  0.87217  0.66263  0.13914  1.0000
  C   C1096     1.0  0.66997  0.62409  0.25381  1.0000
  C   C1097     1.0  0.68602  0.61764  0.26714  1.0000
  C   C1098     1.0  0.70199  0.60983  0.25279  1.0000
  C   C1099     1.0  0.70184  0.60786  0.22505  1.0000
  C   C1100     1.0  0.68585  0.61440  0.21169  1.0000
  C   C1101     1.0  0.67005  0.62261  0.22593  1.0000
  H   H1318     1.0  0.68599  0.61851  0.28876  1.0000
  H   H1319     1.0  0.71426  0.60505  0.26323  1.0000
  H   H1320     1.0  0.68560  0.61293  0.19023  1.0000
  H   H1321     1.0  0.65768  0.62719  0.21549  1.0000
  C   C1102     1.0  0.60803  0.73418  0.20133  1.0000
  C   C1103     1.0  0.60677  0.74507  0.49830  1.0000
  H   H1322     1.0  0.85209  0.68877  0.29786  1.0000
  H   H1323     1.0  0.65535  0.65010  0.45218  1.0000
  C   C1104     1.0  0.65307  0.58092  0.26720  1.0000
  C   C1105     1.0  0.53311  0.66020  0.27003  1.0000
  C   C1106     1.0  0.53407  0.66064  0.24176  1.0000
  H   H1324     1.0  0.68851  0.52713  0.29313  1.0000
  C   C1107     1.0  0.54150  0.73698  0.20832  1.0000
  H   H1325     1.0  0.54766  0.65984  0.23045  1.0000
  C   C1108     1.0  0.58298  0.67716  0.39944  1.0000
  C   C1109     1.0  0.59844  0.68725  0.40501  1.0000
  C   C1110     1.0  0.60987  0.69592  0.38381  1.0000
  C   C1111     1.0  0.60555  0.69479  0.35711  1.0000
  C   C1112     1.0  0.58944  0.68572  0.35168  1.0000
  C   C1113     1.0  0.57827  0.67675  0.37280  1.0000
  H   H1326     1.0  0.60184  0.68813  0.42554  1.0000
  H   H1327     1.0  0.62229  0.70300  0.38806  1.0000
  H   H1328     1.0  0.58567  0.68531  0.33114  1.0000
  H   H1329     1.0  0.56620  0.66925  0.36830  1.0000
  C   C1114     1.0  0.83645  0.65535  0.31809  1.0000
  C   C1115     1.0  0.82241  0.64231  0.31757  1.0000
  C   C1116     1.0  0.82712  0.62415  0.31027  1.0000
  H   H1330     1.0  0.83208  0.66930  0.32370  1.0000
  H   H1331     1.0  0.80776  0.64635  0.32247  1.0000
  H   H1332     1.0  0.81619  0.61421  0.30909  1.0000
  N   N74       1.0  0.60937  0.61748  0.41512  1.0000
  C   C1117     1.0  0.61046  0.63067  0.43652  1.0000
  C   C1118     1.0  0.59021  0.61930  0.40524  1.0000
  C   C1119     1.0  0.61190  0.59811  0.42806  1.0000
  C   C1120     1.0  0.62343  0.62209  0.39222  1.0000
  C   C1121     1.0  0.63692  0.60861  0.38185  1.0000
  C   C1122     1.0  0.62337  0.64043  0.37874  1.0000
  H   H1333     1.0  0.83511  0.57856  0.08368  1.0000
  H   H1334     1.0  0.80915  0.56396  0.07493  1.0000
  C   C1123     1.0  0.64783  0.73789  0.23567  1.0000
  H   H1335     1.0  0.60758  0.64555  0.42921  1.0000
  H   H1336     1.0  0.59984  0.62771  0.45386  1.0000
  H   H1337     1.0  0.62456  0.62968  0.44479  1.0000
  H   H1338     1.0  0.57906  0.61647  0.42193  1.0000
  H   H1339     1.0  0.58867  0.60947  0.38934  1.0000
  H   H1340     1.0  0.58691  0.63372  0.39617  1.0000
  H   H1341     1.0  0.60131  0.59534  0.44552  1.0000
  H   H1342     1.0  0.61003  0.58721  0.41379  1.0000
  H   H1343     1.0  0.62602  0.59585  0.43626  1.0000
  H   H1344     1.0  0.63796  0.59429  0.39055  1.0000
  H   H1345     1.0  0.69165  0.57321  0.49056  1.0000
  C   C1124     1.0  0.64169  0.58112  0.29128  1.0000
  C   C1125     1.0  0.55924  0.71775  0.17574  1.0000
  H   H1346     1.0  0.98453  0.62629  0.13696  1.0000
  H   H1347     1.0  0.66686  0.63436  0.49399  1.0000
  S   S319      1.0  0.57597  0.64637  0.49991  1.0000
  C   C1126     1.0  0.51734  0.66123  0.22820  1.0000
  H   H1348     1.0  0.55821  0.73248  0.43622  1.0000
  H   H1349     1.0  0.64020  0.72712  0.27593  1.0000
  H   H1350     1.0  0.87378  0.65980  0.35308  1.0000
  H   H1351     1.0  0.97527  0.70965  0.28926  1.0000
  H   H1352     1.0  0.89030  0.65319  0.28112  1.0000
  H   H1353     1.0  0.71161  0.56346  0.47190  1.0000
  S   S320      1.0  0.57047  0.69277  0.48595  1.0000
  H   H1354     1.0  0.98429  0.64151  0.16405  1.0000
  C   C1127     1.0  0.64939  0.61335  0.35933  1.0000
  H   H1355     1.0  0.62789  0.58825  0.29145  1.0000
  H   H1356     1.0  0.51178  0.73176  0.22095  1.0000
  C   C1128     1.0  0.83866  0.58851  0.06667  1.0000
  C   C1129     1.0  0.62526  0.57824  0.49441  1.0000
  H   H1357     1.0  0.76860  0.52983  0.08909  1.0000
  C   C1130     1.0  0.64888  0.63149  0.34667  1.0000
  H   H1358     1.0  0.57313  0.72412  0.17653  1.0000
  H   H1359     1.0  0.85073  0.60711  0.09223  1.0000
  H   H1360     1.0  0.89642  0.71729  0.02536  1.0000
  H   H1361     1.0  0.56285  0.70326  0.16959  1.0000
  H   H1362     1.0  0.52486  0.66353  0.41454  1.0000
  H   H1363     1.0  0.61392  0.73980  0.15839  1.0000
  C   C1131     1.0  0.53177  0.70505  0.20027  1.0000
  C   C1132     1.0  0.84770  0.60473  0.07179  1.0000
  C   C1133     1.0  0.98255  0.66145  0.11465  1.0000
  S   S321      1.0  0.67648  0.51051  0.45787  1.0000
  H   H1364     1.0  0.67653  0.57205  0.42133  1.0000
  C   C1134     1.0  0.80661  0.56686  0.05318  1.0000
  H   H1365     1.0  0.52364  0.70230  0.22021  1.0000
  H   H1366     1.0  0.56473  0.69468  0.21950  1.0000
  S   S322      1.0  0.64588  0.54463  0.49582  1.0000
  C   C1135     1.0  0.64822  0.57253  0.31510  1.0000
  H   H1367     1.0  0.52606  0.63511  0.34173  1.0000
  C   C1136     1.0  0.60377  0.74228  0.22608  1.0000
  N   N75       1.0  0.74786  0.64727  0.21149  1.0000
  C   C1137     1.0  0.75211  0.63266  0.23332  1.0000
  C   C1138     1.0  0.75296  0.63898  0.18525  1.0000
  C   C1139     1.0  0.76019  0.66330  0.21293  1.0000
  C   C1140     1.0  0.72781  0.65379  0.21511  1.0000
  C   C1141     1.0  0.72054  0.66110  0.23978  1.0000
  C   C1142     1.0  0.71498  0.65306  0.19474  1.0000
  C   C1143     1.0  0.70158  0.66695  0.24397  1.0000
  C   C1144     1.0  0.69611  0.65921  0.19903  1.0000
  C   C1145     1.0  0.68939  0.66598  0.22363  1.0000
  H   H1368     1.0  0.74211  0.62108  0.23420  1.0000
  H   H1369     1.0  0.76662  0.62633  0.23009  1.0000
  H   H1370     1.0  0.75129  0.63821  0.25362  1.0000
  H   H1371     1.0  0.76802  0.63388  0.18342  1.0000
  H   H1372     1.0  0.75101  0.64942  0.16775  1.0000
  H   H1373     1.0  0.74446  0.62652  0.18313  1.0000
  H   H1374     1.0  0.75822  0.66948  0.23283  1.0000
  H   H1375     1.0  0.77541  0.65885  0.21010  1.0000
  H   H1376     1.0  0.75727  0.67474  0.19704  1.0000
  H   H1377     1.0  0.72943  0.66210  0.25617  1.0000
  H   H1378     1.0  0.71899  0.64736  0.17554  1.0000
  H   H1379     1.0  0.69618  0.67201  0.26320  1.0000
  H   H1380     1.0  0.68644  0.65812  0.18349  1.0000
  H   H1381     1.0  0.67460  0.67013  0.22714  1.0000
  N   N76       1.0  0.90019  0.61604  0.15060  1.0000
  C   C1146     1.0  0.89998  0.63325  0.16542  1.0000
  C   C1147     1.0  0.88348  0.61687  0.13445  1.0000
  C   C1148     1.0  0.89816  0.59978  0.17112  1.0000
  C   C1149     1.0  0.91770  0.61509  0.13246  1.0000
  C   C1150     1.0  0.93197  0.60064  0.13567  1.0000
  C   C1151     1.0  0.92105  0.62923  0.11102  1.0000
  C   C1152     1.0  0.94842  0.60040  0.11822  1.0000
  C   C1153     1.0  0.93752  0.62887  0.09384  1.0000
  C   C1154     1.0  0.95116  0.61447  0.09733  1.0000
  H   H1382     1.0  0.90249  0.64611  0.15183  1.0000
  H   H1383     1.0  0.70364  0.56550  0.32992  1.0000
  H   H1384     1.0  0.91122  0.63225  0.17982  1.0000
  H   H1385     1.0  0.88394  0.60492  0.12129  1.0000
  H   H1386     1.0  0.88244  0.63008  0.12120  1.0000
  H   H1387     1.0  0.87004  0.61646  0.14758  1.0000
  H   H1388     1.0  0.88481  0.60113  0.18430  1.0000
  H   H1389     1.0  0.89792  0.58626  0.16145  1.0000
  H   H1390     1.0  0.90964  0.59893  0.18519  1.0000
  H   H1391     1.0  0.93076  0.58937  0.15146  1.0000
  H   H1392     1.0  0.91096  0.64079  0.10741  1.0000
  H   H1393     1.0  0.95906  0.58917  0.12081  1.0000
  H   H1394     1.0  0.93964  0.63979  0.07756  1.0000
  C   C1155     1.0  0.99044  0.73245  0.26796  1.0000
  C   C1156     1.0  0.52745  0.64884  0.37838  1.0000
  H   H1395     1.0  0.95071  0.74227  0.18927  1.0000
  C   C1157     1.0  0.83424  0.58520  0.04013  1.0000
  H   H1396     1.0  0.72384  0.56282  0.30681  1.0000
  C   C1158     1.0  0.66987  0.62791  0.47495  1.0000
  H   H1397     1.0  0.94276  0.74473  0.14272  1.0000
  H   H1398     1.0  0.51819  0.66100  0.20641  1.0000
  H   H1399     1.0  0.92660  0.74274  0.10629  1.0000
  C   C1159     1.0  0.96332  0.73661  0.29947  1.0000
  C   C1160     1.0  0.85277  0.61799  0.05067  1.0000
  H   H1400     1.0  0.61325  0.65131  0.38488  1.0000
  C   C1161     1.0  0.99304  0.63632  0.14640  1.0000
  C   C1162     1.0  0.83666  0.55121  0.04164  1.0000
  H   H1401     1.0  0.60942  0.73253  0.41311  1.0000
  H   H1402     1.0  0.57176  0.71761  0.22552  1.0000
  C   C1163     1.0  0.51529  0.66084  0.28441  1.0000
  H   H1403     1.0  0.79789  0.55520  0.04828  1.0000
  C   C1164     1.0  0.51805  0.64212  0.35785  1.0000
  C   C1165     1.0  0.83980  0.59893  0.01901  1.0000
  C   C1166     1.0  0.64142  0.56845  0.50367  1.0000
  H   H1404     1.0  0.70744  0.58217  0.30109  1.0000
  H   H1405     1.0  0.79782  0.58013  0.05104  1.0000
  N   N77       1.0  0.69782  0.55553  0.29155  1.0000
  C   C1167     1.0  0.69763  0.53585  0.30387  1.0000
  C   C1168     1.0  0.70811  0.55506  0.26438  1.0000
  C   C1169     1.0  0.70858  0.56699  0.30810  1.0000
  C   C1170     1.0  0.67835  0.56366  0.29079  1.0000
  C   C1171     1.0  0.67115  0.57238  0.26679  1.0000
  C   C1172     1.0  0.66631  0.56399  0.31498  1.0000
  C   C1173     1.0  0.52269  0.74190  0.21790  1.0000
  C   C1174     1.0  0.98023  0.66289  0.08638  1.0000
  H   H1406     1.0  0.85978  0.63057  0.05462  1.0000
  H   H1407     1.0  0.64732  0.72425  0.22759  1.0000
  H   H1408     1.0  0.96877  0.66930  0.15328  1.0000
  C   C1175     1.0  0.64381  0.73971  0.26336  1.0000
  H   H1409     1.0  0.51441  0.66083  0.30616  1.0000
  C   C1176     1.0  0.98285  0.64245  0.01232  1.0000
  H   H1410     1.0  0.71045  0.56944  0.25464  1.0000
  H   H1411     1.0  0.88674  0.74606  0.04886  1.0000
  H   H1412     1.0  0.00048  0.72314  0.25742  1.0000
  C   C1177     1.0  0.90234  0.73064  0.01817  1.0000
  H   H1413     1.0  0.67934  0.57329  0.24750  1.0000
  H   H1414     1.0  0.67095  0.55786  0.33402  1.0000
  H   H1415     1.0  0.91548  0.73954  0.25569  1.0000
  H   H1416     1.0  0.71204  0.52897  0.30296  1.0000
  H   H1417     1.0  0.63536  0.65908  0.34626  1.0000
  H   H1418     1.0  0.60168  0.73338  0.24460  1.0000
  C   C1178     1.0  0.52307  0.67500  0.49512  1.0000
  N   N78       1.0  0.54766  0.71758  0.20203  1.0000
  H   H1419     1.0  0.69266  0.53488  0.32566  1.0000
  N   N79       1.0  0.69461  0.58349  0.44842  1.0000
  C   C1179     1.0  0.68206  0.56886  0.44149  1.0000
  C   C1180     1.0  0.71050  0.58536  0.42724  1.0000
  C   C1181     1.0  0.70281  0.57667  0.47415  1.0000
  C   C1182     1.0  0.68377  0.60167  0.44988  1.0000
  C   C1183     1.0  0.67644  0.61086  0.42630  1.0000
  C   C1184     1.0  0.68002  0.61067  0.47436  1.0000
  H   H1420     1.0  0.66975  0.56735  0.45670  1.0000
  H   H1421     1.0  0.51160  0.67812  0.45625  1.0000
  H   H1422     1.0  0.64737  0.74704  0.34212  1.0000
  H   H1423     1.0  0.71983  0.57239  0.42716  1.0000
  H   H1424     1.0  0.95223  0.73055  0.31326  1.0000
  H   H1425     1.0  0.70572  0.58758  0.40649  1.0000
  C   C1185     1.0  0.91457  0.74422  0.27593  1.0000
  H   H1426     1.0  0.85015  0.55155  0.02857  1.0000
  H   H1427     1.0  0.71216  0.58715  0.48094  1.0000
  H   H1428     1.0  0.67842  0.60469  0.40709  1.0000
  H   H1429     1.0  0.54261  0.64682  0.37849  1.0000
  C   C1186     1.0  0.86544  0.68116  0.29141  1.0000
  H   H1430     1.0  0.65930  0.60286  0.35121  1.0000
  H   H1431     1.0  0.87655  0.69181  0.28945  1.0000
  C   C1187     1.0  0.96439  0.67221  0.07593  1.0000
  C   C1188     1.0  0.95040  0.68024  0.09314  1.0000
  C   C1189     1.0  0.63597  0.64503  0.35645  1.0000
  C   C1190     1.0  0.50835  0.67689  0.47792  1.0000
  H   H1432     1.0  0.53742  0.67420  0.48650  1.0000
  H   H1433     1.0  0.71942  0.59723  0.43065  1.0000
  C   C1191     1.0  0.97629  0.72479  0.28591  1.0000
  H   H1434     1.0  0.68452  0.60459  0.49349  1.0000
  H   H1435     1.0  0.73381  0.50740  0.33752  1.0000
  C   C1192     1.0  0.84589  0.61889  0.30373  1.0000
  N   N80       1.0  0.87015  0.66491  0.31057  1.0000
  Fe  Fe161     1.0  0.70703  0.51499  0.46212  1.0000
  H   H1436     1.0  0.89422  0.64579  0.31598  1.0000
  H   H1437     1.0  0.93814  0.68745  0.08498  1.0000
  H   H1438     1.0  0.56322  0.74149  0.38486  1.0000
  H   H1439     1.0  0.88624  0.63567  0.17724  1.0000
  S   S323      1.0  0.61431  0.72284  0.48677  1.0000
  H   H1440     1.0  0.57870  0.71739  0.42978  1.0000
  H   H1441     1.0  0.89471  0.74870  0.12744  1.0000
  C   C1193     1.0  0.96800  0.66978  0.13158  1.0000
  H   H1442     1.0  0.85720  0.67877  0.34500  1.0000
  C   C1194     1.0  0.66649  0.62823  0.42708  1.0000
  H   H1443     1.0  0.64784  0.73078  0.31706  1.0000
  C   C1195     1.0  0.57389  0.73178  0.43511  1.0000
  C   C1196     1.0  0.51735  0.65827  0.39871  1.0000
  H   H1444     1.0  0.76933  0.54136  0.13493  1.0000
  C   C1197     1.0  0.86003  0.63184  0.30388  1.0000
  Fe  Fe162     1.0  0.67090  0.52315  0.49801  1.0000
  H   H1445     1.0  0.87415  0.62690  0.29759  1.0000
  S   S324      1.0  0.79668  0.51387  0.05155  1.0000
  H   H1446     1.0  0.96380  0.61420  0.08362  1.0000
  H   H1447     1.0  0.66128  0.63518  0.40878  1.0000
  Fe  Fe163     1.0  0.81706  0.50370  0.01643  1.0000
  S   S325      1.0  0.61161  0.67123  0.47365  1.0000
  H   H1448     1.0  0.96295  0.67307  0.05429  1.0000
  H   H1449     1.0  0.68953  0.55478  0.44111  1.0000
  H   H1450     1.0  0.63925  0.57270  0.33375  1.0000
  C   C1198     1.0  0.62103  0.59714  0.50002  1.0000
  H   H1451     1.0  0.84944  0.60483  0.29756  1.0000
  C   C1199     1.0  0.55927  0.70916  0.22360  1.0000
  C   C1200     1.0  0.87070  0.67167  0.33794  1.0000
  C   C1201     1.0  0.66322  0.63673  0.45139  1.0000
  C   C1202     1.0  0.85569  0.65059  0.31096  1.0000
  H   H1452     1.0  0.86398  0.67651  0.27088  1.0000
  H   H1453     1.0  0.88183  0.68218  0.33830  1.0000
  C   C1203     1.0  0.84886  0.61508  0.02437  1.0000
  C   C1204     1.0  0.57855  0.74137  0.38778  1.0000
  C   C1205     1.0  0.88946  0.65776  0.30209  1.0000
  H   H1454     1.0  0.85304  0.62536  0.00793  1.0000
  H   H1455     1.0  0.57835  0.73283  0.45587  1.0000
  H   H1456     1.0  0.84026  0.54992  0.06306  1.0000
  H   H1457     1.0  0.99042  0.65700  0.07178  1.0000
  H   H1458     1.0  0.61582  0.57104  0.48312  1.0000
  H   H1459     1.0  0.60843  0.60439  0.49315  1.0000
  C   C1206     1.0  0.65042  0.74565  0.32003  1.0000
  Fe  Fe164     1.0  0.59982  0.69513  0.49775  1.0000
  H   H1460     1.0  0.61548  0.74049  0.30477  1.0000
  H   H1461     1.0  0.82968  0.53804  0.03826  1.0000
  H   H1462     1.0  0.52769  0.63483  0.49683  1.0000
  C   C1207     1.0  0.89685  0.74697  0.03141  1.0000
  C   C1208     1.0  0.60256  0.74646  0.41729  1.0000
  S   S326      1.0  0.96172  0.63314  0.02748  1.0000
  C   C1209     1.0  0.99987  0.63632  0.02301  1.0000
  C   C1210     1.0  0.61072  0.74589  0.17756  1.0000
  C   C1211     1.0  0.99597  0.67797  0.25351  1.0000
  N   N81       1.0  0.58190  0.74658  0.41531  1.0000
  S   S327      1.0  0.84823  0.50188  0.01920  1.0000
  C   C1212     1.0  0.99884  0.66906  0.22935  1.0000
  H   H1463     1.0  0.56939  0.74875  0.20013  1.0000
  H   H1464     1.0  0.99982  0.62622  0.04043  1.0000
  H   H1465     1.0  0.89045  0.56218  0.00651  1.0000
  H   H1466     1.0  0.00033  0.67143  0.15752  1.0000
  N   N82       1.0  0.99921  0.65187  0.12650  1.0000
  C   C1213     1.0  0.81928  0.56751  0.00704  1.0000
  H   H1467     1.0  0.60619  0.74927  0.43788  1.0000
  Fe  Fe165     1.0  0.60515  0.65194  0.51078  1.0000
  S   S328      1.0  0.59534  0.67616  0.53614  1.0000
  S   S329      1.0  0.53780  0.67182  0.54481  1.0000
  H   H1468     1.0  0.91390  0.59918  0.93291  1.0000
  H   H1469     1.0  0.70667  0.50271  0.75540  1.0000
  H   H1470     1.0  0.95906  0.72564  0.98768  1.0000
  H   H1471     1.0  0.72873  0.54897  0.74819  1.0000
  C   C1214     1.0  0.88557  0.59056  0.98918  1.0000
  S   S330      1.0  0.92589  0.65697  0.97515  1.0000
  H   H1472     1.0  0.73822  0.55145  0.83138  1.0000
  N   N83       1.0  0.73561  0.50978  0.74569  1.0000
  C   C1215     1.0  0.93392  0.60699  0.98101  1.0000
  C   C1216     1.0  0.97390  0.72885  0.98538  1.0000
  Fe  Fe166     1.0  0.89811  0.64367  0.98832  1.0000
  C   C1217     1.0  0.73301  0.55191  0.78924  1.0000
  Fe  Fe167     1.0  0.85016  0.51618  0.97734  1.0000
  H   H1473     1.0  0.65799  0.60354  0.53690  1.0000
  C   C1218     1.0  0.94419  0.56381  0.95546  1.0000
  H   H1474     1.0  0.83202  0.56686  0.99260  1.0000
  C   C1219     1.0  0.93740  0.58270  0.94997  1.0000
  N   N84       1.0  0.94648  0.59905  0.95925  1.0000
  C   C1220     1.0  0.96508  0.59431  0.97022  1.0000
  H   H1475     1.0  0.95681  0.56034  0.96573  1.0000
  C   C1221     1.0  0.87744  0.60187  0.96854  1.0000
  H   H1476     1.0  0.96373  0.58469  0.98897  1.0000
  H   H1477     1.0  0.73171  0.51127  0.70287  1.0000
  H   H1478     1.0  0.74258  0.53116  0.71368  1.0000
  C   C1222     1.0  0.51920  0.67373  0.52320  1.0000
  H   H1479     1.0  0.97513  0.58783  0.95497  1.0000
  S   S331      1.0  0.92081  0.71196  0.97634  1.0000
  C   C1223     1.0  0.63286  0.60645  0.51523  1.0000
  C   C1224     1.0  0.86581  0.59356  0.95166  1.0000
  C   C1225     1.0  0.88312  0.57097  0.99164  1.0000
  H   H1480     1.0  0.92028  0.61258  0.97362  1.0000
  H   H1481     1.0  0.70424  0.50151  0.60827  1.0000
  H   H1482     1.0  0.85947  0.60217  0.93561  1.0000
  H   H1483     1.0  0.89427  0.59674  0.00264  1.0000
  C   C1226     1.0  0.94945  0.61382  0.93667  1.0000
  C   C1227     1.0  0.52386  0.62153  0.53696  1.0000
  C   C1228     1.0  0.86296  0.57405  0.95458  1.0000
  C   C1229     1.0  0.87197  0.56257  0.97420  1.0000
  C   C1230     1.0  0.93436  0.54862  0.94831  1.0000
  H   H1484     1.0  0.71749  0.52792  0.72119  1.0000
  H   H1485     1.0  0.80184  0.50501  0.87794  1.0000
  H   H1486     1.0  0.81013  0.57991  0.00082  1.0000
  C   C1231     1.0  0.74025  0.51309  0.79469  1.0000
  S   S332      1.0  0.87318  0.53773  0.97339  1.0000
  S   S333      1.0  0.88236  0.62607  0.96183  1.0000
  C   C1232     1.0  0.98308  0.65532  0.98953  1.0000
  H   H1487     1.0  0.78942  0.50315  0.83289  1.0000
  H   H1488     1.0  0.85478  0.56774  0.94051  1.0000
  H   H1489     1.0  0.98319  0.69974  0.98538  1.0000
  C   C1233     1.0  0.91088  0.57006  0.92942  1.0000
  C   C1234     1.0  0.51772  0.62837  0.51203  1.0000
  H   H1490     1.0  0.95729  0.62578  0.94280  1.0000
  H   H1491     1.0  0.93067  0.59618  0.99797  1.0000
  S   S334      1.0  0.81864  0.51907  0.97458  1.0000
  H   H1492     1.0  0.76585  0.50977  0.73877  1.0000
  H   H1493     1.0  0.81137  0.55473  0.00442  1.0000
  Fe  Fe168     1.0  0.56654  0.67189  0.52185  1.0000
  H   H1494     1.0  0.95757  0.60799  0.91895  1.0000
  C   C1235     1.0  0.92042  0.58533  0.93674  1.0000
  C   C1236     1.0  0.91770  0.55174  0.93548  1.0000
  S   S335      1.0  0.88485  0.67062  0.00333  1.0000
  H   H1495     1.0  0.58431  0.73487  0.52642  1.0000
  H   H1496     1.0  0.89769  0.57240  0.91995  1.0000
  C   C1237     1.0  0.74113  0.52381  0.81684  1.0000
  C   C1238     1.0  0.73166  0.52065  0.71984  1.0000
  H   H1497     1.0  0.83748  0.59752  0.99808  1.0000
  C   C1239     1.0  0.73751  0.54319  0.81413  1.0000
  C   C1240     1.0  0.91496  0.73175  0.99508  1.0000
  H   H1498     1.0  0.97001  0.66008  0.98105  1.0000
  C   C1241     1.0  0.51116  0.61337  0.55673  1.0000
  H   H1499     1.0  0.97173  0.60708  0.97623  1.0000
  C   C1242     1.0  0.73594  0.52150  0.76892  1.0000
  H   H1500     1.0  0.74474  0.51698  0.83616  1.0000
  H   H1501     1.0  0.66546  0.57029  0.52673  1.0000
  H   H1502     1.0  0.73018  0.56701  0.78727  1.0000
  H   H1503     1.0  0.90976  0.53994  0.93080  1.0000
  C   C1243     1.0  0.59155  0.74715  0.51758  1.0000
  C   C1244     1.0  0.73222  0.54131  0.76686  1.0000
  H   H1504     1.0  0.51605  0.60805  0.57611  1.0000
  H   H1505     1.0  0.93598  0.62026  0.92975  1.0000
  H   H1506     1.0  0.94046  0.61880  0.98953  1.0000
  H   H1507     1.0  0.93944  0.53429  0.95324  1.0000
  H   H1508     1.0  0.87321  0.74641  0.97793  1.0000
  Fe  Fe169     1.0  0.91353  0.68277  0.99460  1.0000
  C   C1245     1.0  0.98748  0.71420  0.98404  1.0000
  H   H1509     1.0  0.53847  0.62283  0.54106  1.0000
  S   S336      1.0  0.62845  0.63034  0.52270  1.0000
  H   H1510     1.0  0.00057  0.67137  0.95932  1.0000
  C   C1246     1.0  0.65325  0.57774  0.51889  1.0000
  C   C1247     1.0  0.64890  0.59657  0.52476  1.0000
  C   C1248     1.0  0.97931  0.74754  0.98348  1.0000
  H   H1511     1.0  0.89690  0.74768  0.93898  1.0000
  C   C1249     1.0  0.00038  0.66172  0.97727  1.0000
  C   C1250     1.0  0.92252  0.74917  0.98592  1.0000
  H   H1512     1.0  0.93220  0.75015  0.96799  1.0000
  C   C1251     1.0  0.91709  0.77736  0.19361  1.0000
  H   H1513     1.0  0.73343  0.92887  0.39040  1.0000
  C   C1252     1.0  0.96432  0.75617  0.29509  1.0000
  C   C1253     1.0  0.78990  0.92592  0.10151  1.0000
  C   C1254     1.0  0.91656  0.78953  0.10781  1.0000
  C   C1255     1.0  0.50931  0.85527  0.45707  1.0000
  C   C1256     1.0  0.99157  0.75200  0.26337  1.0000
  C   C1257     1.0  0.91470  0.76364  0.27993  1.0000
  Fe  Fe170     1.0  0.74125  0.94464  0.29665  1.0000
  S   S337      1.0  0.74381  0.91301  0.30053  1.0000
  S   S338      1.0  0.72447  0.95439  0.33558  1.0000
  Fe  Fe171     1.0  0.75859  0.94526  0.23643  1.0000
  S   S339      1.0  0.76084  0.91356  0.23809  1.0000
  S   S340      1.0  0.77548  0.95964  0.19898  1.0000
  Fe  Fe172     1.0  0.73188  0.91379  0.26013  1.0000
  S   S341      1.0  0.71252  0.88976  0.25452  1.0000
  Fe  Fe173     1.0  0.77246  0.91510  0.27836  1.0000
  S   S342      1.0  0.79470  0.89335  0.29328  1.0000
  S   S343      1.0  0.72842  0.94549  0.25595  1.0000
  S   S344      1.0  0.77111  0.94674  0.27701  1.0000
  Fe  Fe174     1.0  0.61587  0.84902  0.44973  1.0000
  S   S345      1.0  0.63572  0.84742  0.41233  1.0000
  Fe  Fe175     1.0  0.56585  0.83786  0.26629  1.0000
  S   S346      1.0  0.57344  0.80688  0.26871  1.0000
  S   S347      1.0  0.53622  0.85131  0.27000  1.0000
  Fe  Fe176     1.0  0.60758  0.84925  0.26694  1.0000
  S   S348      1.0  0.61839  0.81911  0.26852  1.0000
  S   S349      1.0  0.62401  0.87563  0.27148  1.0000
  Fe  Fe177     1.0  0.59733  0.81494  0.23841  1.0000
  S   S350      1.0  0.60472  0.79849  0.20191  1.0000
  Fe  Fe178     1.0  0.59374  0.81334  0.29862  1.0000
  S   S351      1.0  0.59666  0.79601  0.33795  1.0000
  S   S352      1.0  0.58846  0.84579  0.23370  1.0000
  S   S353      1.0  0.58416  0.84351  0.29934  1.0000
  S   S354      1.0  0.93745  0.81845  0.03813  1.0000
  C   C1258     1.0  0.52714  0.87173  0.48657  1.0000
  Fe  Fe179     1.0  0.92442  0.84689  0.04567  1.0000
  S   S355      1.0  0.93088  0.86167  0.08164  1.0000
  S   S356      1.0  0.89558  0.83995  0.03553  1.0000
  Fe  Fe180     1.0  0.90186  0.85842  0.26804  1.0000
  S   S357      1.0  0.88808  0.83121  0.26444  1.0000
  S   S358      1.0  0.88461  0.88555  0.27587  1.0000
  Fe  Fe181     1.0  0.94137  0.84251  0.24656  1.0000
  S   S359      1.0  0.92972  0.81453  0.24042  1.0000
  S   S360      1.0  0.97197  0.84523  0.22958  1.0000
  Fe  Fe182     1.0  0.90498  0.83100  0.22455  1.0000
  S   S361      1.0  0.89050  0.82401  0.18842  1.0000
  Fe  Fe183     1.0  0.91422  0.81735  0.28085  1.0000
  S   S362      1.0  0.91466  0.79340  0.31317  1.0000
  S   S363      1.0  0.91763  0.85888  0.22696  1.0000
  S   S364      1.0  0.92703  0.84466  0.28829  1.0000
  H   H1514     1.0  0.00052  0.78748  0.29918  1.0000
  H   H1515     1.0  0.58072  0.89175  0.40764  1.0000
  C   C1259     1.0  0.55471  0.75145  0.20637  1.0000
  H   H1516     1.0  0.91570  0.77396  0.26281  1.0000
  H   H1517     1.0  0.77184  0.95560  0.43551  1.0000
  H   H1518     1.0  0.91686  0.89900  0.06079  1.0000
  C   C1260     1.0  0.51080  0.87410  0.50392  1.0000
  H   H1519     1.0  0.53325  0.87829  0.31526  1.0000
  H   H1520     1.0  0.97814  0.84710  0.28704  1.0000
  C   C1261     1.0  0.77144  0.92414  0.14556  1.0000
  C   C1262     1.0  0.91968  0.85102  0.11117  1.0000
  C   C1263     1.0  0.92788  0.85136  0.13572  1.0000
  C   C1264     1.0  0.91922  0.84258  0.15941  1.0000
  C   C1265     1.0  0.90201  0.83403  0.15873  1.0000
  C   C1266     1.0  0.89373  0.83378  0.13421  1.0000
  C   C1267     1.0  0.90267  0.84210  0.11038  1.0000
  H   H1521     1.0  0.94107  0.85815  0.13635  1.0000
  H   H1522     1.0  0.92601  0.84229  0.17807  1.0000
  H   H1523     1.0  0.88042  0.82715  0.13363  1.0000
  H   H1524     1.0  0.89617  0.84194  0.09158  1.0000
  H   H1525     1.0  0.55273  0.83130  0.35323  1.0000
  C   C1268     1.0  0.51613  0.82954  0.23910  1.0000
  C   C1269     1.0  0.51572  0.84409  0.25645  1.0000
  H   H1526     1.0  0.81710  0.91060  0.10277  1.0000
  H   H1527     1.0  0.52944  0.82255  0.23318  1.0000
  C   C1270     1.0  0.64726  0.77340  0.25580  1.0000
  C   C1271     1.0  0.64362  0.75752  0.27437  1.0000
  C   C1272     1.0  0.60246  0.76209  0.22683  1.0000
  C   C1273     1.0  0.60550  0.77370  0.20285  1.0000
  C   C1274     1.0  0.60953  0.76546  0.17833  1.0000
  H   H1528     1.0  0.61054  0.88099  0.38706  1.0000
  H   H1529     1.0  0.59937  0.76837  0.24586  1.0000
  H   H1530     1.0  0.61186  0.77433  0.15975  1.0000
  C   C1275     1.0  0.62729  0.83160  0.39135  1.0000
  C   C1276     1.0  0.62833  0.83582  0.36332  1.0000
  C   C1277     1.0  0.61924  0.82466  0.34679  1.0000
  C   C1278     1.0  0.60944  0.80902  0.35820  1.0000
  C   C1279     1.0  0.60947  0.80411  0.38599  1.0000
  C   C1280     1.0  0.61834  0.81542  0.40255  1.0000
  H   H1531     1.0  0.63560  0.84808  0.35447  1.0000
  H   H1532     1.0  0.61960  0.82840  0.32528  1.0000
  H   H1533     1.0  0.60225  0.79189  0.39490  1.0000
  H   H1534     1.0  0.61829  0.81159  0.42402  1.0000
  C   C1281     1.0  0.85955  0.88740  0.27983  1.0000
  C   C1282     1.0  0.84879  0.87197  0.28921  1.0000
  C   C1283     1.0  0.82899  0.87409  0.29300  1.0000
  C   C1284     1.0  0.81965  0.89157  0.28713  1.0000
  C   C1285     1.0  0.83038  0.90702  0.27761  1.0000
  C   C1286     1.0  0.85023  0.90494  0.27415  1.0000
  H   H1535     1.0  0.85575  0.85845  0.29403  1.0000
  H   H1536     1.0  0.82086  0.86208  0.30061  1.0000
  H   H1537     1.0  0.82346  0.92058  0.27302  1.0000
  H   H1538     1.0  0.85842  0.91700  0.26698  1.0000
  C   C1287     1.0  0.68774  0.88650  0.25809  1.0000
  C   C1288     1.0  0.68120  0.86833  0.25639  1.0000
  C   C1289     1.0  0.66179  0.86476  0.26017  1.0000
  C   C1290     1.0  0.64862  0.87936  0.26578  1.0000
  C   C1291     1.0  0.65515  0.89754  0.26750  1.0000
  C   C1292     1.0  0.67455  0.90114  0.26349  1.0000
  H   H1539     1.0  0.69124  0.85689  0.25216  1.0000
  H   H1540     1.0  0.65703  0.85071  0.25875  1.0000
  H   H1541     1.0  0.64508  0.90898  0.27161  1.0000
  H   H1542     1.0  0.67925  0.91527  0.26437  1.0000
  C   C1293     1.0  0.91204  0.75622  0.32838  1.0000
  C   C1294     1.0  0.70894  0.97809  0.40722  1.0000
  C   C1295     1.0  0.70928  0.96783  0.38390  1.0000
  C   C1296     1.0  0.72475  0.96828  0.36424  1.0000
  C   C1297     1.0  0.73987  0.97936  0.36834  1.0000
  C   C1298     1.0  0.99252  0.84452  0.24766  1.0000
  H   H1543     1.0  0.96603  0.81167  0.28122  1.0000
  C   C1299     1.0  0.79931  0.91836  0.05507  1.0000
  C   C1300     1.0  0.77906  0.98477  0.10907  1.0000
  C   C1301     1.0  0.79519  0.98173  0.12355  1.0000
  C   C1302     1.0  0.79375  0.97412  0.15084  1.0000
  C   C1303     1.0  0.77622  0.96939  0.16435  1.0000
  C   C1304     1.0  0.76008  0.97252  0.14994  1.0000
  C   C1305     1.0  0.76151  0.98022  0.12268  1.0000
  C   C1306     1.0  0.61016  0.77922  0.49484  1.0000
  N   N85       1.0  0.97966  0.78512  0.27083  1.0000
  H   H1544     1.0  0.74645  0.96916  0.15987  1.0000
  H   H1545     1.0  0.55308  0.81531  0.43911  1.0000
  H   H1546     1.0  0.63157  0.78891  0.30328  1.0000
  C   C1307     1.0  0.53080  0.77418  0.22172  1.0000
  H   H1547     1.0  0.75120  0.99833  0.39422  1.0000
  H   H1548     1.0  0.97757  0.80556  0.23662  1.0000
  H   H1549     1.0  0.93213  0.94362  0.02389  1.0000
  H   H1550     1.0  0.54755  0.87412  0.35859  1.0000
  C   C1308     1.0  0.72403  0.98924  0.41125  1.0000
  H   H1551     1.0  0.85765  0.90741  0.04354  1.0000
  C   C1309     1.0  0.94023  0.75283  0.18282  1.0000
  H   H1552     1.0  0.54023  0.87743  0.49118  1.0000
  H   H1553     1.0  0.57377  0.90729  0.37980  1.0000
  C   C1310     1.0  0.53747  0.83258  0.35353  1.0000
  C   C1311     1.0  0.52851  0.82750  0.33151  1.0000
  H   H1554     1.0  0.81782  0.94274  0.36796  1.0000
  H   H1555     1.0  0.69695  0.97745  0.42202  1.0000
  C   C1312     1.0  0.97846  0.76449  0.27668  1.0000
  C   C1313     1.0  0.99168  0.84565  0.27569  1.0000
  C   C1314     1.0  0.60439  0.88392  0.36714  1.0000
  N   N86       1.0  0.63865  0.75917  0.30362  1.0000
  H   H1556     1.0  0.55239  0.80540  0.39266  1.0000
  S   S365      1.0  0.62245  0.84716  0.49345  1.0000
  C   C1315     1.0  0.73943  0.98979  0.39152  1.0000
  C   C1316     1.0  0.80797  0.94744  0.07118  1.0000
  C   C1317     1.0  0.78533  0.91241  0.15689  1.0000
  N   N87       1.0  0.69015  0.89567  0.34488  1.0000
  C   C1318     1.0  0.70995  0.88946  0.34893  1.0000
  C   C1319     1.0  0.68114  0.88021  0.33292  1.0000
  C   C1320     1.0  0.69021  0.91219  0.32472  1.0000
  C   C1321     1.0  0.68063  0.90077  0.37105  1.0000
  C   C1322     1.0  0.68689  0.91606  0.38420  1.0000
  C   C1323     1.0  0.66568  0.89038  0.38487  1.0000
  C   C1324     1.0  0.67860  0.92076  0.40938  1.0000
  C   C1325     1.0  0.65758  0.89515  0.41013  1.0000
  C   C1326     1.0  0.66399  0.91030  0.42234  1.0000
  H   H1557     1.0  0.71060  0.87758  0.36482  1.0000
  H   H1558     1.0  0.71737  0.88462  0.32994  1.0000
  H   H1559     1.0  0.71823  0.90102  0.35512  1.0000
  H   H1560     1.0  0.66622  0.88405  0.32890  1.0000
  H   H1561     1.0  0.68163  0.86685  0.34609  1.0000
  H   H1562     1.0  0.68852  0.87692  0.31313  1.0000
  H   H1563     1.0  0.69799  0.92412  0.33080  1.0000
  H   H1564     1.0  0.69736  0.90865  0.30490  1.0000
  H   H1565     1.0  0.67560  0.91747  0.32112  1.0000
  H   H1566     1.0  0.69840  0.92441  0.37520  1.0000
  H   H1567     1.0  0.66009  0.87830  0.37690  1.0000
  H   H1568     1.0  0.68364  0.93248  0.41906  1.0000
  H   H1569     1.0  0.64641  0.88682  0.42052  1.0000
  H   H1570     1.0  0.65772  0.91382  0.44204  1.0000
  N   N88       1.0  0.85439  0.87329  0.19611  1.0000
  C   C1327     1.0  0.87400  0.87737  0.20106  1.0000
  C   C1328     1.0  0.84826  0.85787  0.21637  1.0000
  C   C1329     1.0  0.85440  0.86612  0.16891  1.0000
  C   C1330     1.0  0.84227  0.89070  0.19734  1.0000
  C   C1331     1.0  0.82595  0.89221  0.21563  1.0000
  C   C1332     1.0  0.84656  0.90682  0.17962  1.0000
  C   C1333     1.0  0.81489  0.90891  0.21623  1.0000
  C   C1334     1.0  0.83537  0.92346  0.18043  1.0000
  C   C1335     1.0  0.81959  0.92451  0.19876  1.0000
  H   H1571     1.0  0.87457  0.88323  0.22109  1.0000
  H   H1572     1.0  0.88331  0.86441  0.20091  1.0000
  H   H1573     1.0  0.88054  0.88757  0.18548  1.0000
  H   H1574     1.0  0.84853  0.86214  0.23736  1.0000
  H   H1575     1.0  0.85782  0.84508  0.21513  1.0000
  H   H1576     1.0  0.83387  0.85341  0.21335  1.0000
  H   H1577     1.0  0.86272  0.85255  0.16773  1.0000
  H   H1578     1.0  0.83981  0.86361  0.16395  1.0000
  H   H1579     1.0  0.86086  0.87597  0.15272  1.0000
  H   H1580     1.0  0.82158  0.88087  0.23016  1.0000
  H   H1581     1.0  0.85872  0.90673  0.16516  1.0000
  H   H1582     1.0  0.80276  0.90988  0.23080  1.0000
  H   H1583     1.0  0.83894  0.93568  0.16690  1.0000
  H   H1584     1.0  0.81096  0.93744  0.19948  1.0000
  S   S366      1.0  0.84321  0.94236  0.02035  1.0000
  C   C1336     1.0  0.89598  0.76357  0.11884  1.0000
  H   H1585     1.0  0.94801  0.90194  0.05737  1.0000
  H   H1586     1.0  0.65345  0.75240  0.19645  1.0000
  H   H1587     1.0  0.80061  0.92377  0.03334  1.0000
  H   H1588     1.0  0.75190  0.97993  0.35363  1.0000
  S   S367      1.0  0.83307  0.99081  0.04131  1.0000
  H   H1589     1.0  0.79823  0.89455  0.38246  1.0000
  H   H1590     1.0  0.82769  0.92170  0.35456  1.0000
  C   C1337     1.0  0.57398  0.89236  0.38825  1.0000
  S   S368      1.0  0.59840  0.87575  0.45166  1.0000
  C   C1338     1.0  0.96495  0.79622  0.28635  1.0000
  Fe  Fe184     1.0  0.83139  0.97200  0.00730  1.0000
  C   C1339     1.0  0.95256  0.90123  0.03619  1.0000
  H   H1591     1.0  0.99948  0.80673  0.27372  1.0000
  H   H1592     1.0  0.52677  0.78837  0.22687  1.0000
  N   N89       1.0  0.91562  0.76960  0.11891  1.0000
  H   H1593     1.0  0.89594  0.90810  0.04643  1.0000
  C   C1340     1.0  0.99828  0.79121  0.27749  1.0000
  C   C1341     1.0  0.50889  0.82949  0.33125  1.0000
  H   H1594     1.0  0.90592  0.79885  0.11817  1.0000
  H   H1595     1.0  0.50270  0.82556  0.31345  1.0000
  H   H1596     1.0  0.58825  0.85013  0.36469  1.0000
  H   H1597     1.0  0.65280  0.78385  0.21413  1.0000
  C   C1342     1.0  0.58219  0.85996  0.37973  1.0000
  C   C1343     1.0  0.97059  0.89339  0.02997  1.0000
  H   H1598     1.0  0.74886  0.98263  0.11201  1.0000
  H   H1599     1.0  0.88586  0.77237  0.13111  1.0000
  H   H1600     1.0  0.97324  0.86029  0.14938  1.0000
  N   N90       1.0  0.79735  0.92235  0.36204  1.0000
  C   C1344     1.0  0.79466  0.93089  0.33439  1.0000
  C   C1345     1.0  0.79729  0.90154  0.36176  1.0000
  C   C1346     1.0  0.78176  0.92904  0.38090  1.0000
  C   C1347     1.0  0.78466  0.94015  0.40265  1.0000
  C   C1348     1.0  0.76283  0.92503  0.37716  1.0000
  C   C1349     1.0  0.76946  0.94679  0.41940  1.0000
  C   C1350     1.0  0.74779  0.93163  0.39416  1.0000
  C   C1351     1.0  0.75109  0.94253  0.41518  1.0000
  H   H1601     1.0  0.79344  0.94654  0.33392  1.0000
  H   H1602     1.0  0.80651  0.92697  0.31964  1.0000
  H   H1603     1.0  0.78171  0.92606  0.32647  1.0000
  H   H1604     1.0  0.78443  0.89672  0.35353  1.0000
  H   H1605     1.0  0.80931  0.89598  0.34848  1.0000
  H   H1606     1.0  0.79846  0.94416  0.40695  1.0000
  H   H1607     1.0  0.75945  0.91717  0.36059  1.0000
  C   C1352     1.0  0.91049  0.90246  0.04124  1.0000
  H   H1608     1.0  0.93006  0.93038  0.05619  1.0000
  C   C1353     1.0  0.81635  0.92722  0.36900  1.0000
  Fe  Fe185     1.0  0.90952  0.81246  0.02369  1.0000
  H   H1609     1.0  0.61406  0.75591  0.33164  1.0000
  H   H1610     1.0  0.56725  0.79385  0.47430  1.0000
  S   S369      1.0  0.77993  0.99391  0.07408  1.0000
  H   H1611     1.0  0.98905  0.78386  0.22841  1.0000
  H   H1612     1.0  0.69740  0.95950  0.38104  1.0000
  N   N91       1.0  0.79305  0.93354  0.07297  1.0000
  S   S370      1.0  0.59093  0.83087  0.45657  1.0000
  N   N92       1.0  0.58403  0.87986  0.36888  1.0000
  H   H1613     1.0  0.81941  0.92103  0.38953  1.0000
  C   C1354     1.0  0.57385  0.77156  0.44784  1.0000
  C   C1355     1.0  0.55621  0.87920  0.34093  1.0000
  C   C1356     1.0  0.56552  0.77809  0.40167  1.0000
  H   H1614     1.0  0.96390  0.78516  0.23570  1.0000
  H   H1615     1.0  0.60682  0.89894  0.36054  1.0000
  H   H1616     1.0  0.75914  0.92853  0.15823  1.0000
  C   C1357     1.0  0.92136  0.76773  0.14704  1.0000
  C   C1358     1.0  0.52643  0.86231  0.46310  1.0000
  C   C1359     1.0  0.99591  0.85714  0.11849  1.0000
  H   H1617     1.0  0.90935  0.94038  0.04168  1.0000
  C   C1360     1.0  0.58571  0.88971  0.31830  1.0000
  C   C1361     1.0  0.80396  0.91420  0.11388  1.0000
  H   H1618     1.0  0.60922  0.75740  0.40286  1.0000
  Fe  Fe186     1.0  0.57386  0.85741  0.46236  1.0000
  H   H1619     1.0  0.55184  0.88978  0.27372  1.0000
  H   H1620     1.0  0.58538  0.89690  0.27539  1.0000
  H   H1621     1.0  0.95053  0.79271  0.28184  1.0000
  C   C1362     1.0  0.91349  0.76961  0.30629  1.0000
  H   H1622     1.0  0.91373  0.79123  0.08603  1.0000
  C   C1363     1.0  0.61608  0.76118  0.48711  1.0000
  C   C1364     1.0  0.57712  0.89233  0.29388  1.0000
  C   C1365     1.0  0.86059  0.90731  0.02186  1.0000
  H   H1623     1.0  0.61746  0.79148  0.48604  1.0000
  C   C1366     1.0  0.55826  0.88832  0.29289  1.0000
  S   S371      1.0  0.54681  0.85897  0.44131  1.0000
  H   H1624     1.0  0.82180  0.94101  0.07663  1.0000
  C   C1367     1.0  0.92761  0.75804  0.10015  1.0000
  H   H1625     1.0  0.60926  0.76494  0.29805  1.0000
  H   H1626     1.0  0.81020  0.95430  0.05042  1.0000
  H   H1627     1.0  0.60049  0.89270  0.31729  1.0000
  H   H1628     1.0  0.78922  0.90678  0.05738  1.0000
  H   H1629     1.0  0.62795  0.75973  0.47231  1.0000
  H   H1630     1.0  0.91116  0.76071  0.34876  1.0000
  H   H1631     1.0  0.55914  0.88842  0.39364  1.0000
  H   H1632     1.0  0.64693  0.78756  0.26201  1.0000
  H   H1633     1.0  0.81243  0.89852  0.15017  1.0000
  C   C1368     1.0  0.56641  0.78930  0.45411  1.0000
  H   H1634     1.0  0.58968  0.85680  0.39852  1.0000
  H   H1635     1.0  0.89117  0.76451  0.09794  1.0000
  C   C1369     1.0  0.65090  0.77145  0.22808  1.0000
  H   H1636     1.0  0.76243  0.94024  0.11119  1.0000
  H   H1637     1.0  0.81359  0.91232  0.05892  1.0000
  C   C1370     1.0  0.54781  0.88180  0.31638  1.0000
  C   C1371     1.0  0.77358  0.93083  0.11831  1.0000
  C   C1372     1.0  0.98834  0.86048  0.14445  1.0000
  C   C1373     1.0  0.94057  0.90766  0.01559  1.0000
  H   H1638     1.0  0.78361  0.90755  0.17814  1.0000
  C   C1374     1.0  0.92336  0.93333  0.03676  1.0000
  H   H1639     1.0  0.73934  0.94811  0.42780  1.0000
  H   H1640     1.0  0.87464  0.87976  0.02435  1.0000
  C   C1375     1.0  0.77594  0.94305  0.06203  1.0000
  H   H1641     1.0  0.97936  0.88835  0.04609  1.0000
  H   H1642     1.0  0.63825  0.77879  0.33477  1.0000
  H   H1643     1.0  0.65611  0.78264  0.30749  1.0000
  H   H1644     1.0  0.76393  0.93348  0.06379  1.0000
  H   H1645     1.0  0.53377  0.84309  0.39306  1.0000
  H   H1646     1.0  0.80419  0.95882  0.08475  1.0000
  H   H1647     1.0  0.77150  0.95592  0.07249  1.0000
  C   C1376     1.0  0.93108  0.76428  0.20160  1.0000
  H   H1648     1.0  0.80636  0.97196  0.16163  1.0000
  H   H1649     1.0  0.92307  0.76004  0.07910  1.0000
  C   C1377     1.0  0.55811  0.79581  0.40817  1.0000
  C   C1378     1.0  0.52681  0.83930  0.37575  1.0000
  H   H1650     1.0  0.56732  0.85635  0.38527  1.0000
  H   H1651     1.0  0.85757  0.80226  0.01281  1.0000
  C   C1379     1.0  0.55851  0.80141  0.43432  1.0000
  S   S372      1.0  0.89595  0.78490  0.03782  1.0000
  H   H1652     1.0  0.58018  0.76290  0.46375  1.0000
  C   C1380     1.0  0.57549  0.88288  0.34261  1.0000
  H   H1653     1.0  0.55985  0.78052  0.21120  1.0000
  N   N93       1.0  0.92154  0.91597  0.02277  1.0000
  C   C1381     1.0  0.80154  0.90739  0.14107  1.0000
  H   H1654     1.0  0.61268  0.87487  0.35284  1.0000
  H   H1655     1.0  0.53685  0.82234  0.31418  1.0000
  H   H1656     1.0  0.99691  0.85731  0.04846  1.0000
  H   H1657     1.0  0.93068  0.79516  0.10974  1.0000
  H   H1658     1.0  0.56522  0.77500  0.38080  1.0000
  C   C1382     1.0  0.91223  0.77905  0.16681  1.0000
  C   C1383     1.0  0.64140  0.77819  0.31252  1.0000
  C   C1384     1.0  0.97749  0.79006  0.24165  1.0000
  H   H1659     1.0  0.77846  0.94806  0.04030  1.0000
  H   H1660     1.0  0.97160  0.84459  0.02464  1.0000
  C   C1385     1.0  0.00043  0.85047  0.02998  1.0000
  H   H1661     1.0  0.90103  0.78916  0.16183  1.0000
  C   C1386     1.0  0.90405  0.76447  0.02180  1.0000
  C   C1387     1.0  0.65125  0.75375  0.21805  1.0000
  H   H1662     1.0  0.90975  0.78614  0.20827  1.0000
  C   C1388     1.0  0.87028  0.89162  0.01103  1.0000
  Fe  Fe187     1.0  0.60316  0.87318  0.49588  1.0000
  C   C1389     1.0  0.54939  0.76975  0.21287  1.0000
  C   C1390     1.0  0.98610  0.84325  0.01648  1.0000
  C   C1391     1.0  0.50716  0.84128  0.37577  1.0000
  H   H1663     1.0  0.80879  0.98539  0.11380  1.0000
  H   H1664     1.0  0.94262  0.76186  0.09925  1.0000
  H   H1665     1.0  0.95368  0.76441  0.30620  1.0000
  C   C1392     1.0  0.57354  0.76532  0.42148  1.0000
  H   H1666     1.0  0.96599  0.79379  0.30859  1.0000
  H   H1667     1.0  0.99413  0.86674  0.18438  1.0000
  C   C1393     1.0  0.93553  0.75447  0.15591  1.0000
  Fe  Fe188     1.0  0.59577  0.83062  0.50037  1.0000
  H   H1668     1.0  0.98661  0.85445  0.10309  1.0000
  C   C1394     1.0  0.51748  0.76030  0.22428  1.0000
  H   H1669     1.0  0.93461  0.76279  0.22247  1.0000
  C   C1395     1.0  0.61852  0.75489  0.30981  1.0000
  H   H1670     1.0  0.90932  0.88896  0.03185  1.0000
  Fe  Fe189     1.0  0.80226  0.99724  0.03743  1.0000
  H   H1671     1.0  0.50874  0.84784  0.43908  1.0000
  S   S373      1.0  0.67485  0.99688  0.48114  1.0000
  H   H1672     1.0  0.50308  0.76380  0.23154  1.0000
  C   C1396     1.0  0.00019  0.86408  0.16421  1.0000
  H   H1673     1.0  0.58562  0.75098  0.37171  1.0000
  H   H1674     1.0  0.00072  0.77311  0.02135  1.0000
  C   C1397     1.0  0.72077  0.96568  0.64565  1.0000
  H   H1675     1.0  0.74219  0.96437  0.67421  1.0000
  H   H1676     1.0  0.67228  0.91116  0.52824  1.0000
  H   H1677     1.0  0.54654  0.80032  0.54622  1.0000
  Fe  Fe190     1.0  0.94393  0.83114  0.99596  1.0000
  H   H1678     1.0  0.83134  0.82254  0.97354  1.0000
  C   C1398     1.0  0.65642  0.93761  0.52451  1.0000
  Fe  Fe191     1.0  0.90505  0.85143  0.99368  1.0000
  H   H1679     1.0  0.60992  0.94163  0.51220  1.0000
  H   H1680     1.0  0.68296  0.94415  0.60112  1.0000
  H   H1681     1.0  0.97109  0.89635  0.96154  1.0000
  C   C1399     1.0  0.99624  0.78116  0.00270  1.0000
  C   C1400     1.0  0.96592  0.89795  0.98239  1.0000
  H   H1682     1.0  0.66769  0.97992  0.62250  1.0000
  C   C1401     1.0  0.52463  0.82312  0.51640  1.0000
  S   S374      1.0  0.71103  0.98858  0.51925  1.0000
  C   C1402     1.0  0.51073  0.79251  0.57310  1.0000
  C   C1403     1.0  0.87412  0.89122  0.98306  1.0000
  S   S375      1.0  0.88644  0.87169  0.96878  1.0000
  H   H1683     1.0  0.91729  0.93209  0.98487  1.0000
  C   C1404     1.0  0.72976  0.97195  0.66709  1.0000
  S   S376      1.0  0.91673  0.82325  0.98054  1.0000
  S   S377      1.0  0.97271  0.82509  0.97560  1.0000
  H   H1684     1.0  0.86296  0.82844  0.93202  1.0000
  H   H1685     1.0  0.87868  0.81371  0.00118  1.0000
  C   C1405     1.0  0.52111  0.84087  0.55600  1.0000
  C   C1406     1.0  0.88432  0.79439  0.93889  1.0000
  C   C1407     1.0  0.86335  0.81376  0.99856  1.0000
  C   C1408     1.0  0.54266  0.81421  0.55433  1.0000
  H   H1686     1.0  0.70325  0.96534  0.56997  1.0000
  H   H1687     1.0  0.93982  0.91017  0.97124  1.0000
  S   S378      1.0  0.58780  0.80367  0.52556  1.0000
  H   H1688     1.0  0.99116  0.88543  0.99840  1.0000
  C   C1409     1.0  0.86665  0.77633  0.97491  1.0000
  H   H1689     1.0  0.67209  0.97464  0.58790  1.0000
  H   H1690     1.0  0.51154  0.82982  0.50868  1.0000
  C   C1410     1.0  0.59519  0.78128  0.51451  1.0000
  Fe  Fe192     1.0  0.68033  0.98159  0.52117  1.0000
  C   C1411     1.0  0.70948  0.97015  0.58798  1.0000
  C   C1412     1.0  0.58593  0.76517  0.52585  1.0000
  H   H1691     1.0  0.63669  0.96119  0.51993  1.0000
  H   H1692     1.0  0.71390  0.98490  0.58292  1.0000
  C   C1413     1.0  0.62595  0.91525  0.51490  1.0000
  H   H1693     1.0  0.85664  0.77502  0.99240  1.0000
  C   C1414     1.0  0.87041  0.79414  0.96113  1.0000
  H   H1694     1.0  0.68184  0.99511  0.59881  1.0000
  H   H1695     1.0  0.52661  0.80898  0.50838  1.0000
  C   C1415     1.0  0.86572  0.82887  0.95367  1.0000
  C   C1416     1.0  0.87600  0.75982  0.96676  1.0000
  C   C1417     1.0  0.99861  0.75214  0.98013  1.0000
  H   H1696     1.0  0.57441  0.76661  0.54118  1.0000
  H   H1697     1.0  0.70284  0.93925  0.62030  1.0000
  N   N94       1.0  0.52391  0.82168  0.54638  1.0000
  C   C1418     1.0  0.62366  0.93496  0.51500  1.0000
  C   C1419     1.0  0.85864  0.92257  0.97696  1.0000
  C   C1420     1.0  0.86811  0.90671  0.96607  1.0000
  H   H1698     1.0  0.85423  0.93445  0.96369  1.0000
  H   H1699     1.0  0.87095  0.90653  0.94438  1.0000
  C   C1421     1.0  0.69047  0.94913  0.61797  1.0000
  N   N95       1.0  0.69588  0.96899  0.61217  1.0000
  C   C1422     1.0  0.89363  0.77777  0.93098  1.0000
  C   C1423     1.0  0.70746  0.99831  0.66955  1.0000
  H   H1700     1.0  0.51144  0.88149  0.52199  1.0000
  C   C1424     1.0  0.70476  0.97561  0.63548  1.0000
  C   C1425     1.0  0.63884  0.94611  0.51936  1.0000
  H   H1701     1.0  0.68093  0.94747  0.63680  1.0000
  C   C1426     1.0  0.94787  0.90588  0.98834  1.0000
  H   H1702     1.0  0.52026  0.84036  0.57849  1.0000
  C   C1427     1.0  0.67861  0.98020  0.60519  1.0000
  S   S379      1.0  0.67511  0.95075  0.53426  1.0000
  H   H1703     1.0  0.83375  0.79775  0.98153  1.0000
  H   H1704     1.0  0.72247  0.96125  0.59087  1.0000
  C   C1428     1.0  0.91716  0.76547  0.99928  1.0000
  H   H1705     1.0  0.54332  0.81287  0.57669  1.0000
  H   H1706     1.0  0.90843  0.90855  0.98765  1.0000
  C   C1429     1.0  0.83955  0.80957  0.96791  1.0000
  H   H1707     1.0  0.88089  0.83151  0.95493  1.0000
  N   N96       1.0  0.86005  0.81136  0.96998  1.0000
  C   C1430     1.0  0.97725  0.89174  0.00313  1.0000
  H   H1708     1.0  0.55415  0.82369  0.54615  1.0000
  H   H1709     1.0  0.90435  0.77824  0.91420  1.0000
  H   H1710     1.0  0.98057  0.78254  0.00428  1.0000
  H   H1711     1.0  0.72671  0.95321  0.63669  1.0000
  H   H1712     1.0  0.85787  0.84161  0.96100  1.0000
  H   H1713     1.0  0.53284  0.85010  0.54807  1.0000
  H   H1714     1.0  0.88843  0.80724  0.92742  1.0000
  H   H1715     1.0  0.73047  0.99345  0.69503  1.0000
  H   H1716     1.0  0.52455  0.78677  0.57748  1.0000
  C   C1431     1.0  0.50806  0.80991  0.55750  1.0000
  H   H1717     1.0  0.92276  0.77887  0.99167  1.0000
  H   H1718     1.0  0.98009  0.78297  0.95609  1.0000
  C   C1432     1.0  0.88942  0.76053  0.94480  1.0000
  H   H1719     1.0  0.50798  0.84820  0.54938  1.0000
  C   C1433     1.0  0.65880  0.91792  0.52407  1.0000
  C   C1434     1.0  0.99054  0.83448  0.99246  1.0000
  S   S380      1.0  0.60574  0.90181  0.51261  1.0000
  H   H1720     1.0  0.83659  0.80700  0.94688  1.0000
  S   S381      1.0  0.80024  0.97803  0.00367  1.0000
  S   S382      1.0  0.83935  0.99521  0.97555  1.0000
  H   H1721     1.0  0.64570  0.89168  0.51924  1.0000
  S   S383      1.0  0.93313  0.86018  0.00461  1.0000
  C   C1435     1.0  0.69840  0.99224  0.64804  1.0000
  C   C1436     1.0  0.72312  0.98824  0.67900  1.0000
  C   C1437     1.0  0.99578  0.78220  0.95412  1.0000
  C   C1438     1.0  0.91046  0.92108  0.99898  1.0000
  C   C1439     1.0  0.85483  0.92293  0.00496  1.0000
  S   S384      1.0  0.57695  0.85644  0.50685  1.0000
  H   H1722     1.0  0.53649  0.83179  0.50723  1.0000
  H   H1723     1.0  0.96821  0.75840  0.98450  1.0000
  C   C1440     1.0  0.64375  0.90682  0.51889  1.0000
  H   H1724     1.0  0.85693  0.82724  0.00552  1.0000
  H   H1725     1.0  0.00036  0.77526  0.93528  1.0000
  H   H1726     1.0  0.00007  0.79709  0.95117  1.0000
  H   H1727     1.0  0.00108  0.79577  0.00282  1.0000
  H   H1728     1.0  0.89609  0.92692  0.00503  1.0000
