data_image0
_chemical_formula_structural       FeS2FeS2FeSFeHS2HFeS2CH3SCSFeSH2FeS2FeS2FeSFeS3H2C6H6C6H4CH3SH2C7H4C5H4CHCH3C4H3NCHC2HFeHC2HCHCH2CH3SC4SC2HC2FeHCH3CH9C2H2CHC2H5C2H4CNC3HCH2NH4C2HCSH2C2NCHCNHSHCH2C2H4CSH4CFeCHC2FeCH2C4NH3C2HSHCFeS2FeS2FeSFeS5FeSFeHFeS2HCH2CSFeS2FeS2FeSFeS3H3C6H5CHCNCSHC6H4C6H4C2HCHCHCH4C2H3C2NC9H13CNC6H8CHNHC4H3CHSC2HCHCH2CHCH6CHCH2FeH2C2H5C2H2NC2HCHCH2CHC2H4NHCH4CH2CH2C7H2CH3CHCH2CFeCH3CHFeS2FeS2FeSFeS3HFeS2C2H2CHFeS2FeS2FeS2FeS2FeSFeS3H2CHC8H8C6H6CSC2H2C7H5FeCHC2HNC9H14CSHSCH3CH2CH4FeH2FeCH5C3H2C4HCHNCHCH3CHC2HC2HNC9H12C4H4SNH7CN2C2SH4C4HCH8C4HNCHCFeS2FeS2FeSFeS3CFeS2FeSCHSH2CFeS3CFeSHCFeS2FeS2FeSFeS3H4C6H4CH2C4HC6H4C5H2CHC6H4C2H2CH2CHCHNHCH3CH3CH2C2H2C2NSHC2H3CHC2HFeH6C2H4C2H2C2H5CNC6HC2H11CH2NC9H10CNCHC2HC2H6NCHCH4NHC3HCSC3FeS2FeS2FeSFeS3FeS2FeSHFeSFeS6HSC2FeCN2H3CH2C6H4C4HC6H4C3H4C2H2CH2C2H3C3HC2SCH2CHFeC5HCHCH3CHCH6CH2CHC2H2CH3C2HC3NH4C2H3CHC2HSH4C3HC3HCHCHC3NHCHCH2CH4CHC3H2CNHNHC2H5CH2CH3CH3CH7CHCHCHC4FeS2FeS2FeCFeS3FeSHFeS2FeSFeS3HSCH3CSCHFeCHC8H4C2H5SC3SCH2C6H5CHCHC2H2C4H2NCH2CHC3SC2HCHCH4CH2CNSHCHCSC2HFeCH2CH3SH3NC6H2CH15CHCHCH2CH2CH3C3HCFeC3H2C2H2CSNH2CH2CH2CH3C2SCH2NHFeS2FeS2FeSFeS3FeS2FeS2FeSFeS3CSH2SFeH8CHCHC6H4C3HC3H3C3H2C6H5C4H3CHC3H3C2H4CH3C3HCNHCHCH2CHCH2C3HCH6CNC4H11CHNCH2C3HCHCH2CH2CHCNHC3H2C2HC3HCHC3HSHC2HC3H2C2H2NHC3H2CH3C2SC2H3C2H5CHCSC2HFeCHCH3C3HCHCH5CFeS2FeS2FeHFeCS2FeS2FeS2FeSFeS3HS2CFeHC6H4CHC2HC2HC3HNC5H2CH2C6H4CH6C2SC2H2CH3CH2SHCH3CH2CNC7H14C3HNH2CSCH3CH5C2H4CNCH4FeC5HCH2C4HCH2C3H2SHFeCNH2C3HCSHC2HCH3CHC3HC3H5CH6NC4HCH3C2HCHCNCH2NH5CHCH4C2HSHFeS2FeS2FeSFeS3FeS2FeS2FeSFeS3FeHSFeSH3S2FeSHC5H2CH3FeC6H6CHC5HNC6H4C2HC3NHCH2CHC2SHNC9H17CH2SH2FeH6C2H4C3H3CH5C3SCHSHCNHC2H3CNHFeHCH5C5H2NH3C2HCH7C4HCHC2HC3SCH4CH3CHCHC5HCSHCFeS2FeS2FeSFeS3FeS2FeS2FeSFeS3FeS2HFeSFeH2CFeS2FeS2C7SCH2CHC6H4C2H5CH4C6H5CHCHC2HCH2C2HCH2SCHNH6CHCH2C2HCH3CHNH3CHNC4HCH3CH8C2HC2HC4SHCH3SCH3CH2C2HC2HCH5C3H7CH2CH2CH3CNHCHCFeHN2HCHC3H2CHNHCH2C3HC2HC2FeS2FeS2FeSFeS3FeS2FeS2FeSFeS3HSHSFeSFeHFeS2HCFeHFeH2SC2H2C4HCHCH3SHC6H4C2SC2NHSC2H3C7H6NH2C4H2CHCH5CHCHC3H2CHC2HC2HC2HC3H4CHCHNC6HCH8C2H5NC3HC4H8CH4C2SHCH3SC2H3C2H4C2H2C2HFeHNC4HC4H10C3HNHCHC2HC2HCHCHC2HSFeS2FeSCFeSFeS3FeS2FeS2FeSFeS3FeS2FeSFeS2FeSFeCSH2CHC6H4CH2C6H4C3H5C5H3CH4C2NHC6H5C2SH3SCFeHCHCNC4HCSHCH12C3SH5C2NH9CHC2HCH2CSNHCH3CH3CH3C2HC4H3CNHC2HC2H3CH5C2SC3HCHCH3CH2CNCHCHC2H2C2HC3HC2HCH2C4H3C3H4CFeS2FeS2FeSFeS3CHSC2FeHSH2CFeS2FeS2FeSFeS3C2H2CHCHC6H5C6H7CH2C6H4C3H4C3H2SH2CHCHCHCH3SCHCNC2H3CHCHCH3C4H6C3H5C2HC2HNHC2HC3H2CHCHNHC2HCH5C2H5C2HC4FeH2C2H3NCHC2NH2CH7C2HC3SCH2CHC2H5CFeS2FeS2FeSFeS3FeS2FeS2FeSFeS3CSHCH2SHC7H4C6H4C4H3C6H4C2H5FeH2C2HNHC6H3NCHCH3C6HNH2CHCHCHNHSH2C3H3CH2C5H10C3H3CHCHCH3CH7CHCH4C2H4C2HCHSH2CHCHC2FeHCHCH3CHCSHCHCHFeS2FeS2FeSFeS3HSNHFeS2FeS2FeSFeS4CHC8H4C3HCHCHC6H4CHC6H6CH3C4H2CHFeNC9H14SHC2H3CHC4HCH5CH4C2H4C2H3C3H2CH6CH2CSCH4CH2C3H2NCHCHCH2NH4CH2CH3CHC3NCH3C5H6FeCHCFeS2FeS2FeSFeS3FeS2FeS2FeSFeS3HCSH2SH2CSHCH2C2HSC6H4C6H4C3HCH2C6H4C4NCHC2HCH4C6HNC9H16C4HC3H4CHC2HC3HNH5CHC2HCH2CFeCH3C3HNC9H14C3HCH2CNHCH3CH7C2HCHCH2FeNHCH3NCHC2H
_chemical_formula_sum              "Fe192 S384 H1728 C1440 N96"
_cell_length_a       63.0197
_cell_length_b       62.2209
_cell_length_c       61.8072
_cell_angle_alpha    85.8196
_cell_angle_beta     84.9853
_cell_angle_gamma    87.1348

_space_group_name_H-M_alt    "P 1"
_space_group_IT_number       1

loop_
  _space_group_symop_operation_xyz
  'x, y, z'

loop_
  _atom_site_type_symbol
  _atom_site_label
  _atom_site_symmetry_multiplicity
  _atom_site_fract_x
  _atom_site_fract_y
  _atom_site_fract_z
  _atom_site_occupancy
  Fe  Fe1       1.0  0.08857  0.38332  0.44423  1.0000
  S   S1        1.0  0.06078  0.40715  0.44265  1.0000
  S   S2        1.0  0.10231  0.37423  0.47658  1.0000
  Fe  Fe2       1.0  0.08761  0.37193  0.39654  1.0000
  S   S3        1.0  0.05979  0.39515  0.39189  1.0000
  S   S4        1.0  0.09914  0.35591  0.36519  1.0000
  Fe  Fe3       1.0  0.07655  0.41819  0.41010  1.0000
  S   S5        1.0  0.07432  0.45276  0.39617  1.0000
  Fe  Fe4       1.0  0.04677  0.38223  0.42473  1.0000
  H   H1        1.0  0.21197  0.25273  0.04400  1.0000
  S   S6        1.0  0.10576  0.39609  0.41255  1.0000
  S   S7        1.0  0.07318  0.35722  0.42841  1.0000
  H   H2        1.0  0.05002  0.18853  0.22730  1.0000
  Fe  Fe5       1.0  0.20758  0.24796  0.13005  1.0000
  S   S8        1.0  0.22343  0.21700  0.11898  1.0000
  S   S9        1.0  0.17270  0.24760  0.14283  1.0000
  C   C1        1.0  0.19701  0.30733  0.13309  1.0000
  H   H3        1.0  0.21297  0.30886  0.12397  1.0000
  H   H4        1.0  0.18031  0.34118  0.18896  1.0000
  H   H5        1.0  0.05376  0.34478  0.38001  1.0000
  S   S10       1.0  0.22114  0.26773  0.10039  1.0000
  C   C2        1.0  0.00274  0.33000  0.38011  1.0000
  S   S11       1.0  0.20168  0.08840  0.25968  1.0000
  Fe  Fe6       1.0  0.21181  0.10952  0.28445  1.0000
  S   S12       1.0  0.19184  0.13441  0.30344  1.0000
  H   H6        1.0  0.04958  0.32197  0.34979  1.0000
  H   H7        1.0  0.09153  0.45413  0.43853  1.0000
  Fe  Fe7       1.0  0.08559  0.25143  0.30196  1.0000
  S   S13       1.0  0.06518  0.22466  0.29402  1.0000
  S   S14       1.0  0.08379  0.26199  0.33663  1.0000
  Fe  Fe8       1.0  0.10748  0.25578  0.25590  1.0000
  S   S15       1.0  0.08815  0.23046  0.24416  1.0000
  S   S16       1.0  0.13601  0.27172  0.23745  1.0000
  Fe  Fe9       1.0  0.05979  0.24538  0.26356  1.0000
  S   S17       1.0  0.02763  0.25113  0.24880  1.0000
  Fe  Fe10      1.0  0.09488  0.21161  0.27543  1.0000
  S   S18       1.0  0.10443  0.17623  0.27190  1.0000
  S   S19       1.0  0.07876  0.27296  0.27244  1.0000
  S   S20       1.0  0.11565  0.23616  0.28622  1.0000
  H   H8        1.0  0.03073  0.35739  0.39353  1.0000
  H   H9        1.0  0.12075  0.28161  0.29711  1.0000
  C   C3        1.0  0.16778  0.14598  0.29405  1.0000
  C   C4        1.0  0.15987  0.16592  0.30136  1.0000
  C   C5        1.0  0.14069  0.17555  0.29444  1.0000
  C   C6        1.0  0.12894  0.16502  0.28054  1.0000
  C   C7        1.0  0.13678  0.14499  0.27334  1.0000
  C   C8        1.0  0.15620  0.13558  0.27991  1.0000
  H   H10       1.0  0.16857  0.17382  0.31258  1.0000
  H   H11       1.0  0.13471  0.19085  0.30030  1.0000
  H   H12       1.0  0.12775  0.13665  0.26269  1.0000
  H   H13       1.0  0.16198  0.12009  0.27437  1.0000
  H   H14       1.0  0.22484  0.11864  0.36420  1.0000
  H   H15       1.0  0.00654  0.14823  0.27853  1.0000
  C   C9        1.0  0.16376  0.25213  0.17014  1.0000
  C   C10       1.0  0.17620  0.26252  0.18349  1.0000
  C   C11       1.0  0.16770  0.26801  0.20431  1.0000
  C   C12       1.0  0.14688  0.26268  0.21216  1.0000
  C   C13       1.0  0.13481  0.25138  0.19921  1.0000
  C   C14       1.0  0.14314  0.24636  0.17820  1.0000
  H   H16       1.0  0.19207  0.26694  0.17748  1.0000
  H   H17       1.0  0.17713  0.27682  0.21418  1.0000
  H   H18       1.0  0.11870  0.24737  0.20496  1.0000
  H   H19       1.0  0.13336  0.23841  0.16793  1.0000
  C   C15       1.0  0.01517  0.17455  0.25454  1.0000
  H   H20       1.0  0.14232  0.18409  0.23633  1.0000
  H   H21       1.0  0.18281  0.23879  0.25785  1.0000
  H   H22       1.0  0.03801  0.49573  0.38693  1.0000
  S   S21       1.0  0.01345  0.37271  0.43485  1.0000
  H   H23       1.0  0.03631  0.30393  0.36967  1.0000
  H   H24       1.0  0.15481  0.20909  0.22937  1.0000
  C   C16       1.0  0.21538  0.22357  0.20840  1.0000
  C   C17       1.0  0.09330  0.33003  0.35776  1.0000
  C   C18       1.0  0.09336  0.32645  0.33554  1.0000
  C   C19       1.0  0.08949  0.30593  0.32885  1.0000
  C   C20       1.0  0.08633  0.28858  0.34430  1.0000
  C   C21       1.0  0.08599  0.29223  0.36652  1.0000
  C   C22       1.0  0.08924  0.31289  0.37325  1.0000
  H   H25       1.0  0.09627  0.33969  0.32346  1.0000
  H   H26       1.0  0.08913  0.30350  0.31175  1.0000
  H   H27       1.0  0.08353  0.27891  0.37861  1.0000
  H   H28       1.0  0.08929  0.31540  0.39040  1.0000
  C   C23       1.0  0.08406  0.47369  0.40975  1.0000
  C   C24       1.0  0.08349  0.49463  0.39973  1.0000
  C   C25       1.0  0.00079  0.39361  0.39698  1.0000
  C   C26       1.0  0.09727  0.48779  0.44147  1.0000
  C   C27       1.0  0.09101  0.47025  0.43068  1.0000
  H   H29       1.0  0.23918  0.17258  0.34036  1.0000
  H   H30       1.0  0.21400  0.16506  0.23435  1.0000
  H   H31       1.0  0.01555  0.20170  0.22954  1.0000
  H   H32       1.0  0.21036  0.29923  0.17360  1.0000
  C   C28       1.0  0.03807  0.38324  0.32768  1.0000
  H   H33       1.0  0.15187  0.17218  0.19804  1.0000
  C   C29       1.0  0.23049  0.15752  0.34472  1.0000
  H   H34       1.0  0.14685  0.33658  0.21160  1.0000
  H   H35       1.0  0.23609  0.13812  0.30770  1.0000
  H   H36       1.0  0.01623  0.40045  0.39459  1.0000
  C   C30       1.0  0.23257  0.19212  0.22548  1.0000
  C   C31       1.0  0.00623  0.18979  0.23917  1.0000
  C   C32       1.0  0.03970  0.36554  0.34280  1.0000
  C   C33       1.0  0.19641  0.34406  0.14245  1.0000
  H   H37       1.0  0.03410  0.16269  0.29252  1.0000
  H   H38       1.0  0.19610  0.35561  0.15538  1.0000
  H   H39       1.0  0.17886  0.17497  0.18638  1.0000
  N   N1        1.0  0.19423  0.32149  0.15156  1.0000
  C   C34       1.0  0.17340  0.31947  0.16450  1.0000
  H   H40       1.0  0.18255  0.29573  0.31399  1.0000
  C   C35       1.0  0.16864  0.30125  0.30477  1.0000
  C   C36       1.0  0.21339  0.18148  0.22734  1.0000
  H   H41       1.0  0.24691  0.18379  0.23086  1.0000
  Fe  Fe11      1.0  0.22492  0.06267  0.27272  1.0000
  H   H42       1.0  0.03285  0.19135  0.28669  1.0000
  C   C37       1.0  0.23488  0.14056  0.19448  1.0000
  C   C38       1.0  0.16639  0.18161  0.19829  1.0000
  H   H43       1.0  0.15890  0.29729  0.14439  1.0000
  C   C39       1.0  0.01817  0.39105  0.32170  1.0000
  H   H44       1.0  0.02037  0.46324  0.39961  1.0000
  C   C40       1.0  0.14974  0.32833  0.19670  1.0000
  H   H45       1.0  0.04048  0.47627  0.42250  1.0000
  H   H46       1.0  0.21630  0.23973  0.20066  1.0000
  C   C41       1.0  0.00427  0.46982  0.40292  1.0000
  H   H47       1.0  0.18182  0.20716  0.28466  1.0000
  H   H48       1.0  0.06509  0.15064  0.25479  1.0000
  H   H49       1.0  0.04601  0.50002  0.43459  1.0000
  S   S22       1.0  0.23239  0.08300  0.29978  1.0000
  C   C42       1.0  0.17659  0.24069  0.27457  1.0000
  C   C43       1.0  0.24646  0.22110  0.01350  1.0000
  C   C44       1.0  0.99984  0.38103  0.33067  1.0000
  C   C45       1.0  0.05056  0.19000  0.24507  1.0000
  S   S23       1.0  0.22111  0.02729  0.28553  1.0000
  C   C46       1.0  0.21943  0.24515  0.02988  1.0000
  C   C47       1.0  0.15708  0.30657  0.15860  1.0000
  H   H50       1.0  0.22411  0.15787  0.36204  1.0000
  C   C48       1.0  0.21134  0.24964  0.00933  1.0000
  C   C49       1.0  0.14283  0.28604  0.33159  1.0000
  Fe  Fe12      1.0  0.23012  0.10147  0.23894  1.0000
  H   H51       1.0  0.05796  0.17632  0.28458  1.0000
  C   C50       1.0  0.04081  0.17599  0.28148  1.0000
  H   H52       1.0  0.22012  0.01582  0.24013  1.0000
  H   H53       1.0  0.05379  0.36318  0.48154  1.0000
  H   H54       1.0  0.01098  0.22360  0.28660  1.0000
  C   C51       1.0  0.13792  0.30445  0.17166  1.0000
  H   H55       1.0  0.12937  0.27505  0.33535  1.0000
  H   H56       1.0  0.16672  0.21136  0.32252  1.0000
  H   H57       1.0  0.18232  0.22205  0.20455  1.0000
  H   H58       1.0  0.01693  0.40502  0.31026  1.0000
  H   H59       1.0  0.10277  0.48508  0.45758  1.0000
  H   H60       1.0  0.17443  0.30367  0.28730  1.0000
  H   H61       1.0  0.02380  0.48434  0.44575  1.0000
  H   H62       1.0  0.18325  0.34913  0.13202  1.0000
  H   H63       1.0  0.04033  0.13846  0.26294  1.0000
  C   C52       1.0  0.16886  0.26096  0.28085  1.0000
  C   C53       1.0  0.13436  0.31508  0.19078  1.0000
  H   H64       1.0  0.15531  0.28147  0.34295  1.0000
  H   H65       1.0  0.16941  0.27418  0.26848  1.0000
  C   C54       1.0  0.22416  0.15386  0.17920  1.0000
  H   H66       1.0  0.16316  0.19170  0.25183  1.0000
  C   C55       1.0  0.13398  0.29298  0.29476  1.0000
  C   C56       1.0  0.23237  0.11863  0.34728  1.0000
  H   H67       1.0  0.15286  0.24600  0.33399  1.0000
  H   H68       1.0  0.11977  0.31275  0.20120  1.0000
  H   H69       1.0  0.02395  0.31315  0.34521  1.0000
  H   H70       1.0  0.21181  0.34602  0.13226  1.0000
  H   H71       1.0  0.00709  0.40005  0.47069  1.0000
  C   C57       1.0  0.08258  0.40888  0.49708  1.0000
  C   C58       1.0  0.15957  0.24546  0.31734  1.0000
  H   H72       1.0  0.18513  0.31152  0.12100  1.0000
  H   H73       1.0  0.05236  0.39108  0.32079  1.0000
  H   H74       1.0  0.18054  0.15581  0.24541  1.0000
  H   H75       1.0  0.16022  0.14981  0.22881  1.0000
  C   C59       1.0  0.03265  0.49043  0.43036  1.0000
  N   N2        1.0  0.17410  0.18077  0.22039  1.0000
  C   C60       1.0  0.19606  0.21322  0.21048  1.0000
  C   C61       1.0  0.19456  0.19167  0.21950  1.0000
  C   C62       1.0  0.15997  0.26399  0.30240  1.0000
  H   H76       1.0  0.12723  0.30921  0.29880  1.0000
  C   C63       1.0  0.04766  0.15192  0.25257  1.0000
  H   H77       1.0  0.18748  0.14829  0.21789  1.0000
  H   H78       1.0  0.03758  0.32943  0.39962  1.0000
  N   N3        1.0  0.15148  0.28558  0.30845  1.0000
  H   H79       1.0  0.13921  0.29425  0.27709  1.0000
  H   H80       1.0  0.16304  0.31747  0.31011  1.0000
  H   H81       1.0  0.16196  0.19830  0.19201  1.0000
  H   H82       1.0  0.21269  0.32707  0.17855  1.0000
  C   C64       1.0  0.03694  0.34232  0.38620  1.0000
  C   C65       1.0  0.15795  0.19193  0.23506  1.0000
  H   H83       1.0  0.05555  0.36009  0.34676  1.0000
  C   C66       1.0  0.17574  0.15770  0.22846  1.0000
  S   S24       1.0  0.23315  0.25531  0.15096  1.0000
  H   H84       1.0  0.04564  0.14908  0.23531  1.0000
  H   H85       1.0  0.13631  0.30241  0.33559  1.0000
  C   C67       1.0  0.02131  0.35530  0.35275  1.0000
  C   C68       1.0  0.03372  0.31813  0.35799  1.0000
  N   N4        1.0  0.03813  0.17328  0.25823  1.0000
  C   C69       1.0  0.16750  0.22529  0.31092  1.0000
  H   H86       1.0  0.06772  0.18861  0.24821  1.0000
  C   C70       1.0  0.17596  0.22289  0.28959  1.0000
  N   N5        1.0  0.02346  0.33678  0.36902  1.0000
  H   H87       1.0  0.03489  0.41487  0.48941  1.0000
  S   S25       1.0  0.22357  0.11617  0.20529  1.0000
  H   H88       1.0  0.20891  0.14928  0.17465  1.0000
  C   C71       1.0  0.23704  0.23079  0.03210  1.0000
  H   H89       1.0  0.07939  0.41570  0.48109  1.0000
  H   H90       1.0  0.12604  0.29388  0.16727  1.0000
  C   C72       1.0  0.21190  0.31573  0.16562  1.0000
  C   C73       1.0  0.16892  0.33068  0.18371  1.0000
  H   H91       1.0  0.22462  0.18311  0.15801  1.0000
  H   H92       1.0  0.19568  0.29003  0.13886  1.0000
  H   H93       1.0  0.22776  0.31604  0.15612  1.0000
  H   H94       1.0  0.04464  0.20655  0.24904  1.0000
  C   C74       1.0  0.09414  0.38919  0.49937  1.0000
  S   S26       1.0  0.23927  0.12336  0.26333  1.0000
  H   H95       1.0  0.24281  0.10375  0.34618  1.0000
  H   H96       1.0  0.00492  0.31679  0.39298  1.0000
  H   H97       1.0  0.23363  0.15606  0.08531  1.0000
  H   H98       1.0  0.21910  0.11718  0.33674  1.0000
  C   C75       1.0  0.00227  0.40827  0.48526  1.0000
  Fe  Fe13      1.0  0.24835  0.27280  0.12073  1.0000
  C   C76       1.0  0.23366  0.21295  0.21568  1.0000
  H   H99       1.0  0.21639  0.15806  0.33491  1.0000
  C   C77       1.0  0.23309  0.17296  0.16965  1.0000
  C   C78       1.0  0.04088  0.35875  0.49363  1.0000
  Fe  Fe14      1.0  0.23944  0.23737  0.09112  1.0000
  C   C79       1.0  0.02392  0.34759  0.48772  1.0000
  H   H100      1.0  0.07847  0.49734  0.38342  1.0000
  H   H101      1.0  0.19767  0.26071  0.00785  1.0000
  C   C80       1.0  0.01836  0.41672  0.49588  1.0000
  C   C81       1.0  0.00176  0.24194  0.25784  1.0000
  C   C82       1.0  0.00093  0.16027  0.26663  1.0000
  C   C83       1.0  0.00127  0.36335  0.34588  1.0000
  N   N6        1.0  0.24462  0.13818  0.34076  1.0000
  H   H102      1.0  0.23400  0.17137  0.10873  1.0000
  H   H103      1.0  0.23674  0.18471  0.08212  1.0000
  H   H104      1.0  0.02366  0.34332  0.47105  1.0000
  C   C84       1.0  0.24130  0.16966  0.09187  1.0000
  C   C85       1.0  0.00033  0.49042  0.41137  1.0000
  H   H105      1.0  0.24478  0.13614  0.38533  1.0000
  S   S27       1.0  0.24807  0.22442  0.05750  1.0000
  H   H106      1.0  0.24881  0.22070  0.21333  1.0000
  C   C86       1.0  0.22108  0.00230  0.27309  1.0000
  Fe  Fe15      1.0  0.08975  0.42827  0.63545  1.0000
  S   S28       1.0  0.06134  0.43896  0.61737  1.0000
  S   S29       1.0  0.11291  0.44775  0.65089  1.0000
  Fe  Fe16      1.0  0.08372  0.38039  0.63140  1.0000
  S   S30       1.0  0.05533  0.38714  0.61197  1.0000
  S   S31       1.0  0.09507  0.34578  0.64019  1.0000
  Fe  Fe17      1.0  0.07352  0.41403  0.59408  1.0000
  S   S32       1.0  0.06948  0.42583  0.55901  1.0000
  Fe  Fe18      1.0  0.04537  0.41129  0.63638  1.0000
  S   S33       1.0  0.01127  0.41003  0.64977  1.0000
  S   S34       1.0  0.10326  0.40507  0.61096  1.0000
  S   S35       1.0  0.07242  0.40294  0.65695  1.0000
  S   S36       1.0  0.23437  0.26866  0.90972  1.0000
  S   S37       1.0  0.21154  0.22308  0.90524  1.0000
  Fe  Fe19      1.0  0.22225  0.25111  0.88277  1.0000
  S   S38       1.0  0.20200  0.26787  0.85715  1.0000
  Fe  Fe20      1.0  0.22635  0.23917  0.93159  1.0000
  H   H107      1.0  0.21413  0.02096  0.76589  1.0000
  Fe  Fe21      1.0  0.21340  0.10340  0.76298  1.0000
  S   S39       1.0  0.22859  0.09310  0.79398  1.0000
  S   S40       1.0  0.17875  0.11547  0.76399  1.0000
  H   H108      1.0  0.22140  0.13478  0.65331  1.0000
  C   C87       1.0  0.02707  0.38733  0.55505  1.0000
  H   H109      1.0  0.15553  0.17505  0.79810  1.0000
  H   H110      1.0  0.20696  0.14691  0.84458  1.0000
  C   C88       1.0  0.04150  0.36402  0.51513  1.0000
  S   S41       1.0  0.22628  0.07398  0.74619  1.0000
  Fe  Fe22      1.0  0.06940  0.23393  0.76079  1.0000
  S   S42       1.0  0.09054  0.24538  0.73123  1.0000
  S   S43       1.0  0.03732  0.22245  0.75191  1.0000
  Fe  Fe23      1.0  0.10378  0.24317  0.79167  1.0000
  S   S44       1.0  0.12589  0.25650  0.76424  1.0000
  S   S45       1.0  0.11524  0.23735  0.82581  1.0000
  Fe  Fe24      1.0  0.09671  0.27288  0.75085  1.0000
  S   S46       1.0  0.09287  0.30816  0.73899  1.0000
  Fe  Fe25      1.0  0.11765  0.22759  0.74736  1.0000
  S   S47       1.0  0.14589  0.20943  0.73063  1.0000
  S   S48       1.0  0.07479  0.26218  0.78004  1.0000
  S   S49       1.0  0.09628  0.21359  0.77512  1.0000
  H   H111      1.0  0.16407  0.15036  0.82790  1.0000
  H   H112      1.0  0.07145  0.47597  0.55192  1.0000
  H   H113      1.0  0.04755  0.33589  0.56036  1.0000
  C   C89       1.0  0.17034  0.14229  0.75602  1.0000
  C   C90       1.0  0.18451  0.15713  0.74566  1.0000
  C   C91       1.0  0.17694  0.17788  0.73846  1.0000
  C   C92       1.0  0.15526  0.18418  0.74206  1.0000
  C   C93       1.0  0.14125  0.16961  0.75316  1.0000
  C   C94       1.0  0.14873  0.14870  0.75990  1.0000
  H   H114      1.0  0.20117  0.15252  0.74272  1.0000
  H   H115      1.0  0.18785  0.18904  0.72980  1.0000
  H   H116      1.0  0.12449  0.17419  0.75585  1.0000
  H   H117      1.0  0.13764  0.13735  0.76795  1.0000
  H   H118      1.0  0.10195  0.49651  0.59340  1.0000
  C   C95       1.0  0.08420  0.26629  0.93435  1.0000
  H   H119      1.0  0.23071  0.11002  0.66649  1.0000
  C   C96       1.0  0.19303  0.22235  0.79878  1.0000
  N   N7        1.0  0.02659  0.36364  0.55424  1.0000
  C   C97       1.0  0.14488  0.32885  0.69711  1.0000
  S   S50       1.0  0.21035  0.24669  0.96506  1.0000
  H   H120      1.0  0.10054  0.38887  0.69588  1.0000
  C   C98       1.0  0.17959  0.25751  0.84637  1.0000
  C   C99       1.0  0.16866  0.27054  0.83102  1.0000
  C   C100      1.0  0.14952  0.26403  0.82375  1.0000
  C   C101      1.0  0.14088  0.24452  0.83203  1.0000
  C   C102      1.0  0.15207  0.23125  0.84701  1.0000
  C   C103      1.0  0.17154  0.23749  0.85380  1.0000
  H   H121      1.0  0.17477  0.28600  0.82505  1.0000
  H   H122      1.0  0.14105  0.27447  0.81232  1.0000
  H   H123      1.0  0.14559  0.21608  0.85341  1.0000
  H   H124      1.0  0.17996  0.22707  0.86528  1.0000
  C   C104      1.0  0.09330  0.33493  0.66762  1.0000
  C   C105      1.0  0.08559  0.34751  0.68467  1.0000
  C   C106      1.0  0.08542  0.33899  0.70638  1.0000
  C   C107      1.0  0.09246  0.31759  0.71131  1.0000
  C   C108      1.0  0.09939  0.30462  0.69426  1.0000
  C   C109      1.0  0.09998  0.31335  0.67250  1.0000
  H   H125      1.0  0.07969  0.36380  0.68118  1.0000
  H   H126      1.0  0.07981  0.34905  0.71944  1.0000
  H   H127      1.0  0.10488  0.28810  0.69786  1.0000
  H   H128      1.0  0.10586  0.30341  0.65942  1.0000
  C   C110      1.0  0.07999  0.41174  0.53640  1.0000
  C   C111      1.0  0.09177  0.39218  0.53878  1.0000
  H   H129      1.0  0.14024  0.15438  0.70700  1.0000
  C   C112      1.0  0.14536  0.32782  0.71964  1.0000
  H   H130      1.0  0.10798  0.36585  0.52218  1.0000
  C   C113      1.0  0.07554  0.42007  0.51550  1.0000
  H   H131      1.0  0.09540  0.38568  0.55482  1.0000
  C   C114      1.0  0.16656  0.18764  0.79878  1.0000
  H   H132      1.0  0.11727  0.37761  0.65905  1.0000
  H   H133      1.0  0.24583  0.21799  0.97887  1.0000
  H   H134      1.0  0.18926  0.17019  0.84875  1.0000
  H   H135      1.0  0.01700  0.42539  0.60496  1.0000
  C   C115      1.0  0.11445  0.47610  0.64964  1.0000
  C   C116      1.0  0.13158  0.48429  0.65889  1.0000
  H   H136      1.0  0.02909  0.39204  0.57176  1.0000
  H   H137      1.0  0.14323  0.47335  0.66619  1.0000
  H   H138      1.0  0.08599  0.48428  0.63331  1.0000
  C   C117      1.0  0.01016  0.34839  0.69182  1.0000
  C   C118      1.0  0.00443  0.24165  0.77825  1.0000
  N   N8        1.0  0.14949  0.27299  0.90800  1.0000
  C   C119      1.0  0.14994  0.28566  0.88664  1.0000
  C   C120      1.0  0.16318  0.28377  0.92197  1.0000
  C   C121      1.0  0.15921  0.25118  0.90474  1.0000
  C   C122      1.0  0.12718  0.27095  0.91732  1.0000
  C   C123      1.0  0.11186  0.26257  0.90500  1.0000
  C   C124      1.0  0.12007  0.27664  0.93872  1.0000
  C   C125      1.0  0.09071  0.26038  0.91341  1.0000
  C   C126      1.0  0.01031  0.23047  0.75966  1.0000
  C   C127      1.0  0.24179  0.00611  0.77987  1.0000
  H   H139      1.0  0.14324  0.27693  0.87389  1.0000
  H   H140      1.0  0.14083  0.30135  0.88797  1.0000
  H   H141      1.0  0.16650  0.28921  0.88001  1.0000
  H   H142      1.0  0.15678  0.30033  0.92516  1.0000
  H   H143      1.0  0.17971  0.28534  0.91410  1.0000
  H   H144      1.0  0.16501  0.27427  0.93776  1.0000
  H   H145      1.0  0.15996  0.24137  0.92049  1.0000
  H   H146      1.0  0.15016  0.24205  0.89409  1.0000
  H   H147      1.0  0.17573  0.25212  0.89687  1.0000
  H   H148      1.0  0.11617  0.25749  0.88873  1.0000
  H   H149      1.0  0.13061  0.28281  0.94943  1.0000
  H   H150      1.0  0.04401  0.26506  0.72943  1.0000
  H   H151      1.0  0.02319  0.36233  0.66091  1.0000
  C   C128      1.0  0.09885  0.27435  0.94698  1.0000
  N   N9        1.0  0.13379  0.38936  0.68458  1.0000
  C   C129      1.0  0.15177  0.40356  0.68588  1.0000
  C   C130      1.0  0.11406  0.39981  0.69479  1.0000
  C   C131      1.0  0.13824  0.36816  0.69622  1.0000
  C   C132      1.0  0.13961  0.36660  0.71910  1.0000
  C   C133      1.0  0.14128  0.34863  0.68547  1.0000
  C   C134      1.0  0.00053  0.17210  0.76286  1.0000
  H   H152      1.0  0.14894  0.41963  0.67706  1.0000
  H   H153      1.0  0.15422  0.40664  0.70295  1.0000
  H   H154      1.0  0.16694  0.39623  0.67850  1.0000
  H   H155      1.0  0.11591  0.40455  0.71145  1.0000
  H   H156      1.0  0.10920  0.41492  0.68535  1.0000
  H   H157      1.0  0.13779  0.38074  0.72835  1.0000
  H   H158      1.0  0.14028  0.34801  0.66817  1.0000
  H   H159      1.0  0.21619  0.17303  0.83737  1.0000
  C   C135      1.0  0.20203  0.16316  0.83743  1.0000
  H   H160      1.0  0.06178  0.49095  0.59654  1.0000
  N   N10       1.0  0.02735  0.29553  0.72179  1.0000
  H   H161      1.0  0.21575  0.20011  0.81230  1.0000
  C   C136      1.0  0.22284  0.00592  0.76966  1.0000
  C   C137      1.0  0.23843  0.22566  0.99295  1.0000
  C   C138      1.0  0.17310  0.22551  0.79070  1.0000
  C   C139      1.0  0.21678  0.12182  0.66592  1.0000
  H   H162      1.0  0.21969  0.13876  0.80631  1.0000
  H   H163      1.0  0.09373  0.27878  0.96334  1.0000
  H   H164      1.0  0.22484  0.14979  0.70937  1.0000
  C   C140      1.0  0.09889  0.38099  0.52029  1.0000
  H   H165      1.0  0.16926  0.12763  0.70882  1.0000
  S   S51       1.0  0.23980  0.12384  0.74837  1.0000
  C   C141      1.0  0.19210  0.14561  0.68620  1.0000
  C   C142      1.0  0.15742  0.17647  0.68454  1.0000
  H   H166      1.0  0.07934  0.25398  0.90360  1.0000
  C   C143      1.0  0.04652  0.35357  0.56232  1.0000
  H   H167      1.0  0.20270  0.11679  0.72016  1.0000
  C   C144      1.0  0.02510  0.35829  0.53147  1.0000
  H   H168      1.0  0.20828  0.16904  0.66325  1.0000
  H   H169      1.0  0.14718  0.31232  0.72867  1.0000
  C   C145      1.0  0.03214  0.30389  0.74263  1.0000
  H   H170      1.0  0.19406  0.10161  0.69892  1.0000
  C   C146      1.0  0.03893  0.33184  0.66970  1.0000
  H   H171      1.0  0.02580  0.43393  0.52302  1.0000
  H   H172      1.0  0.06778  0.26453  0.94082  1.0000
  H   H173      1.0  0.04756  0.35595  0.57986  1.0000
  H   H174      1.0  0.01249  0.16918  0.74956  1.0000
  H   H175      1.0  0.01927  0.31503  0.74924  1.0000
  H   H176      1.0  0.01204  0.39530  0.54973  1.0000
  C   C147      1.0  0.19368  0.16518  0.67292  1.0000
  H   H177      1.0  0.06104  0.36052  0.55358  1.0000
  C   C148      1.0  0.17828  0.14562  0.81702  1.0000
  H   H178      1.0  0.09998  0.47858  0.55160  1.0000
  H   H179      1.0  0.16774  0.24143  0.78456  1.0000
  Fe  Fe26      1.0  0.24413  0.06539  0.77555  1.0000
  H   H180      1.0  0.22598  0.16603  0.79858  1.0000
  H   H181      1.0  0.01658  0.24617  0.78817  1.0000
  C   C149      1.0  0.15992  0.20822  0.79073  1.0000
  C   C150      1.0  0.09942  0.49049  0.64022  1.0000
  H   H182      1.0  0.00755  0.33839  0.57052  1.0000
  H   H183      1.0  0.00997  0.36095  0.58641  1.0000
  H   H184      1.0  0.20329  0.11348  0.66020  1.0000
  H   H185      1.0  0.14647  0.31408  0.68871  1.0000
  H   H186      1.0  0.12711  0.40394  0.65292  1.0000
  C   C151      1.0  0.13078  0.38787  0.66117  1.0000
  C   C152      1.0  0.14286  0.34667  0.73060  1.0000
  H   H187      1.0  0.14538  0.38130  0.65204  1.0000
  H   H188      1.0  0.14302  0.34570  0.74817  1.0000
  N   N11       1.0  0.21082  0.13032  0.68752  1.0000
  C   C153      1.0  0.08445  0.48087  0.56138  1.0000
  C   C154      1.0  0.22923  0.14155  0.69413  1.0000
  H   H189      1.0  0.05509  0.37250  0.51890  1.0000
  C   C155      1.0  0.17207  0.14184  0.69803  1.0000
  H   H190      1.0  0.05263  0.30223  0.68193  1.0000
  C   C156      1.0  0.20697  0.11156  0.70342  1.0000
  H   H191      1.0  0.23527  0.15392  0.68155  1.0000
  H   H192      1.0  0.14440  0.21081  0.78442  1.0000
  C   C157      1.0  0.00327  0.41544  0.60708  1.0000
  H   H193      1.0  0.04716  0.31283  0.74050  1.0000
  C   C158      1.0  0.15507  0.15712  0.69711  1.0000
  C   C159      1.0  0.21277  0.15469  0.80042  1.0000
  H   H194      1.0  0.06020  0.28485  0.71486  1.0000
  H   H195      1.0  0.04984  0.33234  0.65509  1.0000
  H   H196      1.0  0.08507  0.46899  0.57574  1.0000
  H   H197      1.0  0.24309  0.13016  0.69700  1.0000
  N   N12       1.0  0.19466  0.16216  0.81536  1.0000
  H   H198      1.0  0.14447  0.18865  0.68474  1.0000
  C   C160      1.0  0.17662  0.18042  0.67230  1.0000
  H   H199      1.0  0.18459  0.12962  0.82355  1.0000
  H   H200      1.0  0.20768  0.15303  0.78386  1.0000
  H   H201      1.0  0.06670  0.43533  0.51348  1.0000
  H   H202      1.0  0.03427  0.29061  0.75548  1.0000
  C   C161      1.0  0.18684  0.18381  0.80712  1.0000
  H   H203      1.0  0.04045  0.39435  0.54446  1.0000
  H   H204      1.0  0.17300  0.14278  0.80081  1.0000
  C   C162      1.0  0.19996  0.20180  0.80668  1.0000
  H   H205      1.0  0.20311  0.23594  0.79899  1.0000
  H   H206      1.0  0.04112  0.27097  0.70117  1.0000
  C   C163      1.0  0.00847  0.35625  0.56955  1.0000
  C   C164      1.0  0.22081  0.23999  0.99072  1.0000
  C   C165      1.0  0.01328  0.42745  0.51477  1.0000
  C   C166      1.0  0.00667  0.18036  0.78159  1.0000
  C   C167      1.0  0.04031  0.31450  0.68535  1.0000
  C   C168      1.0  0.02643  0.31358  0.70481  1.0000
  C   C169      1.0  0.04391  0.27845  0.71643  1.0000
  H   H207      1.0  0.17837  0.19559  0.66267  1.0000
  H   H208      1.0  0.22137  0.10053  0.70427  1.0000
  C   C170      1.0  0.02398  0.34878  0.67296  1.0000
  H   H209      1.0  0.08828  0.49834  0.52271  1.0000
  H   H210      1.0  0.24170  0.30934  0.97327  1.0000
  H   H211      1.0  0.02324  0.18384  0.78269  1.0000
  C   C171      1.0  0.00649  0.28516  0.72506  1.0000
  H   H212      1.0  0.00685  0.27111  0.73727  1.0000
  C   C172      1.0  0.01130  0.33109  0.70753  1.0000
  H   H213      1.0  0.00202  0.27920  0.70959  1.0000
  H   H214      1.0  0.23759  0.28133  0.98050  1.0000
  C   C173      1.0  0.00782  0.34721  0.52483  1.0000
  Fe  Fe27      1.0  0.24448  0.20908  0.89613  1.0000
  C   C174      1.0  0.00742  0.34188  0.50325  1.0000
  H   H215      1.0  0.24103  0.29043  0.95262  1.0000
  H   H216      1.0  0.24784  0.13193  0.87222  1.0000
  H   H217      1.0  0.00028  0.33156  0.72191  1.0000
  C   C175      1.0  0.24662  0.29268  0.96888  1.0000
  H   H218      1.0  0.04672  0.50170  0.57448  1.0000
  Fe  Fe28      1.0  0.06730  0.60273  0.45214  1.0000
  S   S52       1.0  0.10153  0.59557  0.44094  1.0000
  S   S53       1.0  0.05466  0.61822  0.48288  1.0000
  Fe  Fe29      1.0  0.05152  0.58330  0.41318  1.0000
  S   S54       1.0  0.08434  0.57472  0.39873  1.0000
  S   S55       1.0  0.02315  0.57244  0.39848  1.0000
  Fe  Fe30      1.0  0.09038  0.56338  0.43306  1.0000
  S   S56       1.0  0.10352  0.53078  0.44545  1.0000
  Fe  Fe31      1.0  0.09192  0.60781  0.40765  1.0000
  S   S57       1.0  0.11250  0.63026  0.38489  1.0000
  S   S58       1.0  0.05688  0.56987  0.44679  1.0000
  S   S59       1.0  0.05834  0.61714  0.41958  1.0000
  H   H219      1.0  0.12070  0.72088  0.48630  1.0000
  Fe  Fe32      1.0  0.21174  0.71820  0.12911  1.0000
  S   S60       1.0  0.20944  0.75001  0.10967  1.0000
  S   S61       1.0  0.18271  0.70079  0.14453  1.0000
  C   C176      1.0  0.08930  0.51214  0.41066  1.0000
  C   C177      1.0  0.23449  0.80201  0.16900  1.0000
  H   H220      1.0  0.20601  0.64348  0.19326  1.0000
  H   H221      1.0  0.09823  0.60229  0.48886  1.0000
  C   C178      1.0  0.01783  0.71595  0.31435  1.0000
  H   H222      1.0  0.07621  0.56391  0.50082  1.0000
  Fe  Fe33      1.0  0.21215  0.86449  0.28738  1.0000
  S   S62       1.0  0.21142  0.87267  0.25157  1.0000
  S   S63       1.0  0.18488  0.84802  0.30732  1.0000
  Fe  Fe34      1.0  0.22749  0.90302  0.25850  1.0000
  S   S64       1.0  0.21869  0.93648  0.24316  1.0000
  S   S65       1.0  0.22598  0.89585  0.29467  1.0000
  Fe  Fe35      1.0  0.09614  0.77380  0.27510  1.0000
  S   S66       1.0  0.11759  0.74744  0.28878  1.0000
  S   S67       1.0  0.10495  0.80897  0.27067  1.0000
  Fe  Fe36      1.0  0.06683  0.74143  0.25787  1.0000
  S   S68       1.0  0.08776  0.71296  0.26896  1.0000
  S   S69       1.0  0.03799  0.73350  0.24014  1.0000
  Fe  Fe37      1.0  0.08761  0.72995  0.29984  1.0000
  S   S70       1.0  0.07529  0.71376  0.33245  1.0000
  Fe  Fe38      1.0  0.11583  0.73296  0.25661  1.0000
  S   S71       1.0  0.14876  0.72621  0.23949  1.0000
  S   S72       1.0  0.06589  0.75795  0.28893  1.0000
  S   S73       1.0  0.09504  0.75981  0.24282  1.0000
  H   H223      1.0  0.02033  0.51921  0.38386  1.0000
  H   H224      1.0  0.01593  0.76271  0.27098  1.0000
  C   C179      1.0  0.22032  0.96154  0.25507  1.0000
  H   H225      1.0  0.04451  0.68285  0.32372  1.0000
  C   C180      1.0  0.21990  0.98089  0.24174  1.0000
  C   C181      1.0  0.21040  0.71534  0.00876  1.0000
  C   C182      1.0  0.16450  0.83519  0.29573  1.0000
  C   C183      1.0  0.15942  0.84055  0.27434  1.0000
  C   C184      1.0  0.14147  0.83195  0.26658  1.0000
  C   C185      1.0  0.12883  0.81741  0.27988  1.0000
  C   C186      1.0  0.13448  0.81131  0.30091  1.0000
  C   C187      1.0  0.15207  0.82036  0.30886  1.0000
  H   H226      1.0  0.16871  0.85204  0.26411  1.0000
  H   H227      1.0  0.13710  0.83690  0.25036  1.0000
  H   H228      1.0  0.12476  0.80031  0.31139  1.0000
  H   H229      1.0  0.15580  0.81619  0.32545  1.0000
  H   H230      1.0  0.21458  0.76437  0.22928  1.0000
  H   H231      1.0  0.20376  0.77594  0.04347  1.0000
  H   H232      1.0  0.22164  0.98363  0.30383  1.0000
  H   H233      1.0  0.01349  0.58820  0.47546  1.0000
  C   C188      1.0  0.17180  0.70912  0.17013  1.0000
  C   C189      1.0  0.17938  0.72697  0.17906  1.0000
  C   C190      1.0  0.17115  0.73283  0.19977  1.0000
  C   C191      1.0  0.15521  0.72103  0.21184  1.0000
  C   C192      1.0  0.14734  0.70335  0.20280  1.0000
  C   C193      1.0  0.15550  0.69752  0.18195  1.0000
  H   H234      1.0  0.19163  0.73630  0.17004  1.0000
  H   H235      1.0  0.17754  0.74633  0.20661  1.0000
  H   H236      1.0  0.13572  0.69356  0.21230  1.0000
  H   H237      1.0  0.14956  0.68367  0.17519  1.0000
  H   H238      1.0  0.24590  0.63720  0.19730  1.0000
  H   H239      1.0  0.18532  0.77168  0.28222  1.0000
  C   C194      1.0  0.21792  0.72147  0.02818  1.0000
  S   S74       1.0  0.23473  0.72877  0.15139  1.0000
  C   C195      1.0  0.10765  0.66121  0.48246  1.0000
  C   C196      1.0  0.18650  0.79084  0.20773  1.0000
  H   H240      1.0  0.23658  0.72636  0.22502  1.0000
  H   H241      1.0  0.21085  0.71524  0.04382  1.0000
  C   C197      1.0  0.23548  0.71287  0.21512  1.0000
  C   C198      1.0  0.10148  0.65256  0.36940  1.0000
  C   C199      1.0  0.08082  0.66097  0.37464  1.0000
  C   C200      1.0  0.07309  0.67964  0.36307  1.0000
  C   C201      1.0  0.08570  0.68987  0.34583  1.0000
  C   C202      1.0  0.10622  0.68126  0.34028  1.0000
  C   C203      1.0  0.11414  0.66283  0.35220  1.0000
  H   H242      1.0  0.07089  0.65334  0.38783  1.0000
  H   H243      1.0  0.05725  0.68624  0.36758  1.0000
  H   H244      1.0  0.11614  0.68903  0.32712  1.0000
  H   H245      1.0  0.13018  0.65650  0.34808  1.0000
  H   H246      1.0  0.08878  0.52816  0.40270  1.0000
  Fe  Fe39      1.0  0.23700  0.73710  0.08782  1.0000
  C   C204      1.0  0.02522  0.68994  0.28731  1.0000
  H   H247      1.0  0.08640  0.52617  0.49330  1.0000
  C   C205      1.0  0.03065  0.50987  0.39528  1.0000
  C   C206      1.0  0.23434  0.73591  0.02730  1.0000
  H   H248      1.0  0.11955  0.85918  0.31623  1.0000
  N   N13       1.0  0.08542  0.73198  0.18462  1.0000
  C   C207      1.0  0.09300  0.72056  0.20458  1.0000
  C   C208      1.0  0.07587  0.75347  0.18995  1.0000
  C   C209      1.0  0.06805  0.71941  0.17769  1.0000
  C   C210      1.0  0.10369  0.73461  0.16801  1.0000
  C   C211      1.0  0.12070  0.74774  0.17163  1.0000
  C   C212      1.0  0.10558  0.72392  0.14830  1.0000
  C   C213      1.0  0.13815  0.75044  0.15626  1.0000
  C   C214      1.0  0.12336  0.72644  0.13324  1.0000
  C   C215      1.0  0.13956  0.73969  0.13719  1.0000
  H   H249      1.0  0.10598  0.72896  0.21106  1.0000
  H   H250      1.0  0.07990  0.71893  0.21787  1.0000
  H   H251      1.0  0.09952  0.70405  0.20132  1.0000
  H   H252      1.0  0.08705  0.76340  0.19733  1.0000
  H   H253      1.0  0.06167  0.75208  0.20199  1.0000
  H   H254      1.0  0.07066  0.76278  0.17513  1.0000
  H   H255      1.0  0.07350  0.70247  0.17491  1.0000
  H   H256      1.0  0.05437  0.71837  0.19046  1.0000
  H   H257      1.0  0.06161  0.72704  0.16263  1.0000
  H   H258      1.0  0.12097  0.75555  0.18666  1.0000
  H   H259      1.0  0.09375  0.71328  0.14426  1.0000
  H   H260      1.0  0.15117  0.76017  0.15955  1.0000
  H   H261      1.0  0.12486  0.71775  0.11856  1.0000
  H   H262      1.0  0.15361  0.74108  0.12578  1.0000
  C   C216      1.0  0.21460  0.68578  0.20179  1.0000
  S   S75       1.0  0.24381  0.74529  0.05106  1.0000
  H   H263      1.0  0.13382  0.68591  0.42256  1.0000
  S   S76       1.0  0.22562  0.79271  0.14505  1.0000
  C   C217      1.0  0.17607  0.78651  0.22879  1.0000
  H   H264      1.0  0.21231  0.75682  0.25773  1.0000
  H   H265      1.0  0.16515  0.79023  0.27306  1.0000
  H   H266      1.0  0.09111  0.85663  0.29161  1.0000
  C   C218      1.0  0.15338  0.78798  0.23057  1.0000
  H   H267      1.0  0.18351  0.79890  0.17361  1.0000
  H   H268      1.0  0.21906  0.98023  0.22439  1.0000
  C   C219      1.0  0.09131  0.65587  0.43930  1.0000
  H   H269      1.0  0.01100  0.72773  0.30218  1.0000
  H   H270      1.0  0.21490  0.83138  0.16673  1.0000
  H   H271      1.0  0.17509  0.76325  0.02337  1.0000
  H   H272      1.0  0.21103  0.79636  0.26562  1.0000
  Fe  Fe40      1.0  0.23385  0.76005  0.13109  1.0000
  H   H273      1.0  0.23503  0.65507  0.13991  1.0000
  H   H274      1.0  0.22152  0.94805  0.28802  1.0000
  Fe  Fe41      1.0  0.24415  0.85655  0.24911  1.0000
  C   C220      1.0  0.21971  0.79197  0.01509  1.0000
  H   H275      1.0  0.14493  0.65161  0.44277  1.0000
  H   H276      1.0  0.16513  0.76221  0.26706  1.0000
  H   H277      1.0  0.21400  0.80265  0.23693  1.0000
  H   H278      1.0  0.08706  0.64259  0.45170  1.0000
  H   H279      1.0  0.01837  0.70120  0.27470  1.0000
  C   C221      1.0  0.01145  0.52324  0.42709  1.0000
  C   C222      1.0  0.20288  0.76165  0.24362  1.0000
  C   C223      1.0  0.23604  0.66792  0.15134  1.0000
  H   H280      1.0  0.01730  0.56021  0.48538  1.0000
  H   H281      1.0  0.14394  0.78509  0.24586  1.0000
  C   C224      1.0  0.22632  0.82202  0.17605  1.0000
  C   C225      1.0  0.14204  0.79336  0.21232  1.0000
  C   C226      1.0  0.11714  0.69579  0.46471  1.0000
  C   C227      1.0  0.15283  0.79722  0.19185  1.0000
  H   H282      1.0  0.22441  0.68119  0.14692  1.0000
  C   C228      1.0  0.01647  0.57718  0.49003  1.0000
  H   H283      1.0  0.10387  0.64453  0.48225  1.0000
  N   N14       1.0  0.18872  0.78097  0.24769  1.0000
  C   C229      1.0  0.17544  0.77605  0.26835  1.0000
  H   H284      1.0  0.03497  0.71965  0.31419  1.0000
  C   C230      1.0  0.20201  0.79933  0.25091  1.0000
  H   H285      1.0  0.12477  0.79463  0.21423  1.0000
  H   H286      1.0  0.02128  0.68150  0.34228  1.0000
  H   H287      1.0  0.19197  0.81440  0.25294  1.0000
  C   C231      1.0  0.22131  0.96270  0.27749  1.0000
  H   H288      1.0  0.14401  0.80137  0.17774  1.0000
  C   C232      1.0  0.21620  0.70290  0.21494  1.0000
  C   C233      1.0  0.12878  0.64609  0.44060  1.0000
  H   H289      1.0  0.11760  0.67160  0.40683  1.0000
  C   C234      1.0  0.18743  0.77288  0.01474  1.0000
  C   C235      1.0  0.17503  0.79591  0.18955  1.0000
  H   H290      1.0  0.19900  0.67929  0.20202  1.0000
  N   N15       1.0  0.15429  0.91170  0.26922  1.0000
  C   C236      1.0  0.17201  0.90928  0.28370  1.0000
  C   C237      1.0  0.16341  0.90712  0.24695  1.0000
  C   C238      1.0  0.14617  0.93448  0.26894  1.0000
  C   C239      1.0  0.13659  0.89726  0.27621  1.0000
  C   C240      1.0  0.11948  0.89599  0.26290  1.0000
  C   C241      1.0  0.13578  0.88402  0.29602  1.0000
  C   C242      1.0  0.10322  0.88159  0.26851  1.0000
  C   C243      1.0  0.11934  0.86982  0.30153  1.0000
  C   C244      1.0  0.10327  0.86838  0.28768  1.0000
  H   H291      1.0  0.16680  0.91397  0.30043  1.0000
  H   H292      1.0  0.17866  0.89235  0.28481  1.0000
  H   H293      1.0  0.18542  0.91975  0.27762  1.0000
  H   H294      1.0  0.16766  0.88963  0.24594  1.0000
  H   H295      1.0  0.17812  0.91612  0.24199  1.0000
  H   H296      1.0  0.15229  0.91186  0.23430  1.0000
  H   H297      1.0  0.13903  0.93853  0.28535  1.0000
  H   H298      1.0  0.15919  0.94580  0.26394  1.0000
  H   H299      1.0  0.13371  0.93797  0.25735  1.0000
  H   H300      1.0  0.11874  0.90587  0.24785  1.0000
  H   H301      1.0  0.14805  0.88364  0.30723  1.0000
  H   H302      1.0  0.09070  0.88030  0.25776  1.0000
  C   C245      1.0  0.22147  0.98294  0.28642  1.0000
  C   C246      1.0  0.21042  0.64999  0.17629  1.0000
  C   C247      1.0  0.11245  0.67392  0.46279  1.0000
  C   C248      1.0  0.11764  0.67956  0.42245  1.0000
  H   H303      1.0  0.12966  0.63857  0.42469  1.0000
  H   H304      1.0  0.10561  0.69325  0.42162  1.0000
  H   H305      1.0  0.09062  0.64925  0.42315  1.0000
  H   H306      1.0  0.04264  0.69274  0.28598  1.0000
  S   S77       1.0  0.23719  0.70401  0.10539  1.0000
  N   N16       1.0  0.11259  0.66423  0.44159  1.0000
  H   H307      1.0  0.19765  0.66187  0.17116  1.0000
  H   H308      1.0  0.20222  0.70863  0.22476  1.0000
  H   H309      1.0  0.07854  0.66880  0.44095  1.0000
  H   H310      1.0  0.12523  0.63291  0.45332  1.0000
  H   H311      1.0  0.01569  0.60358  0.43118  1.0000
  H   H312      1.0  0.20369  0.79025  0.20511  1.0000
  H   H313      1.0  0.12092  0.70674  0.45070  1.0000
  C   C249      1.0  0.02729  0.67918  0.32509  1.0000
  N   N17       1.0  0.01521  0.69326  0.30953  1.0000
  N   N18       1.0  0.23154  0.65989  0.17436  1.0000
  C   C250      1.0  0.09625  0.50882  0.43154  1.0000
  C   C251      1.0  0.01051  0.73961  0.24801  1.0000
  S   S78       1.0  0.24420  0.84703  0.28485  1.0000
  H   H314      1.0  0.01007  0.71934  0.33069  1.0000
  H   H315      1.0  0.19333  0.74767  0.24073  1.0000
  H   H316      1.0  0.22662  0.84559  0.20010  1.0000
  H   H317      1.0  0.02535  0.53242  0.43067  1.0000
  C   C252      1.0  0.23256  0.67789  0.18861  1.0000
  C   C253      1.0  0.20348  0.78009  0.02613  1.0000
  C   C254      1.0  0.23290  0.83010  0.19499  1.0000
  C   C255      1.0  0.11706  0.70418  0.48515  1.0000
  H   H318      1.0  0.02669  0.66183  0.32198  1.0000
  C   C256      1.0  0.00405  0.75446  0.26350  1.0000
  H   H319      1.0  0.03270  0.58065  0.49427  1.0000
  H   H320      1.0  0.19757  0.70429  0.00965  1.0000
  H   H321      1.0  0.99943  0.71770  0.22640  1.0000
  H   H322      1.0  0.23243  0.79701  0.02408  1.0000
  H   H323      1.0  0.02314  0.67324  0.28275  1.0000
  H   H324      1.0  0.04385  0.52044  0.39788  1.0000
  H   H325      1.0  0.21021  0.63640  0.16557  1.0000
  H   H326      1.0  0.00206  0.53459  0.41651  1.0000
  C   C257      1.0  0.24326  0.74390  0.00678  1.0000
  C   C258      1.0  0.22052  0.00113  0.25062  1.0000
  C   C259      1.0  0.99979  0.58260  0.41220  1.0000
  C   C260      1.0  0.00058  0.59788  0.42762  1.0000
  H   H327      1.0  0.00182  0.51955  0.44273  1.0000
  N   N19       1.0  0.01832  0.50333  0.41605  1.0000
  C   C261      1.0  0.24803  0.81838  0.20685  1.0000
  H   H328      1.0  0.24668  0.62836  0.17010  1.0000
  C   C262      1.0  0.24779  0.64266  0.17971  1.0000
  Fe  Fe42      1.0  0.10070  0.57286  0.63389  1.0000
  S   S79       1.0  0.10795  0.60801  0.62860  1.0000
  S   S80       1.0  0.12301  0.54888  0.65026  1.0000
  Fe  Fe43      1.0  0.05843  0.57935  0.61460  1.0000
  S   S81       1.0  0.06112  0.61516  0.60846  1.0000
  S   S82       1.0  0.03268  0.55910  0.60535  1.0000
  Fe  Fe44      1.0  0.09472  0.60612  0.59610  1.0000
  S   S83       1.0  0.11026  0.61761  0.56340  1.0000
  Fe  Fe45      1.0  0.07391  0.61410  0.64152  1.0000
  S   S84       1.0  0.06148  0.63625  0.66808  1.0000
  S   S85       1.0  0.09109  0.57045  0.60035  1.0000
  S   S86       1.0  0.06757  0.57890  0.64884  1.0000
  C   C263      1.0  0.07276  0.54140  0.55283  1.0000
  Fe  Fe46      1.0  0.22621  0.86685  0.74086  1.0000
  S   S87       1.0  0.22033  0.87679  0.77520  1.0000
  S   S88       1.0  0.20470  0.84713  0.72309  1.0000
  Fe  Fe47      1.0  0.23209  0.90938  0.76154  1.0000
  S   S89       1.0  0.21385  0.94173  0.76555  1.0000
  C   C264      1.0  0.13387  0.50654  0.65878  1.0000
  H   H329      1.0  0.22860  0.85170  0.82514  1.0000
  S   S90       1.0  0.23535  0.89987  0.72700  1.0000
  H   H330      1.0  0.03770  0.74209  0.70648  1.0000
  H   H331      1.0  0.14551  0.91881  0.72469  1.0000
  C   C265      1.0  0.00845  0.74303  0.76641  1.0000
  Fe  Fe48      1.0  0.21885  0.71441  0.88095  1.0000
  S   S91       1.0  0.20225  0.73843  0.90261  1.0000
  S   S92       1.0  0.20634  0.69900  0.85264  1.0000
  S   S93       1.0  0.22159  0.79340  0.88308  1.0000
  C   C266      1.0  0.23472  0.80665  0.85971  1.0000
  Fe  Fe49      1.0  0.22190  0.72340  0.92914  1.0000
  S   S94       1.0  0.20895  0.71544  0.96430  1.0000
  H   H332      1.0  0.00775  0.55034  0.52586  1.0000
  C   C267      1.0  0.23574  0.73781  0.98739  1.0000
  Fe  Fe50      1.0  0.06813  0.74180  0.76337  1.0000
  S   S95       1.0  0.08191  0.70777  0.76793  1.0000
  S   S96       1.0  0.03384  0.75289  0.75665  1.0000
  Fe  Fe51      1.0  0.11301  0.76170  0.76213  1.0000
  S   S97       1.0  0.12960  0.72895  0.76525  1.0000
  S   S98       1.0  0.12938  0.79183  0.77022  1.0000
  Fe  Fe52      1.0  0.10699  0.71861  0.74184  1.0000
  S   S99       1.0  0.11898  0.69835  0.71356  1.0000
  Fe  Fe53      1.0  0.10340  0.72103  0.79092  1.0000
  S   S100      1.0  0.11114  0.70834  0.82487  1.0000
  S   S101      1.0  0.09267  0.75228  0.73627  1.0000
  S   S102      1.0  0.08721  0.75396  0.78865  1.0000
  H   H333      1.0  0.16229  0.64323  0.73405  1.0000
  H   H334      1.0  0.10398  0.65950  0.51754  1.0000
  H   H335      1.0  0.10776  0.83392  0.75058  1.0000
  H   H336      1.0  0.05187  0.70988  0.68770  1.0000
  C   C268      1.0  0.17990  0.70307  0.84501  1.0000
  C   C269      1.0  0.17576  0.69951  0.82362  1.0000
  C   C270      1.0  0.15487  0.70187  0.81706  1.0000
  C   C271      1.0  0.13782  0.70729  0.83202  1.0000
  C   C272      1.0  0.14199  0.71089  0.85341  1.0000
  C   C273      1.0  0.16298  0.70914  0.85981  1.0000
  H   H337      1.0  0.18872  0.69474  0.81207  1.0000
  H   H338      1.0  0.15184  0.69879  0.80064  1.0000
  H   H339      1.0  0.12886  0.71489  0.86513  1.0000
  H   H340      1.0  0.16592  0.71174  0.87638  1.0000
  C   C274      1.0  0.20403  0.78925  0.98038  1.0000
  H   H341      1.0  0.11211  0.84877  0.78568  1.0000
  H   H342      1.0  0.14819  0.88089  0.71739  1.0000
  C   C275      1.0  0.18752  0.77752  0.99226  1.0000
  C   C276      1.0  0.22538  0.82568  0.85029  1.0000
  C   C277      1.0  0.01812  0.59461  0.58109  1.0000
  C   C278      1.0  0.13583  0.57636  0.70449  1.0000
  H   H343      1.0  0.02022  0.71550  0.78564  1.0000
  C   C279      1.0  0.18429  0.83126  0.73656  1.0000
  C   C280      1.0  0.17791  0.83279  0.75865  1.0000
  C   C281      1.0  0.16128  0.82033  0.76868  1.0000
  C   C282      1.0  0.15108  0.80596  0.75689  1.0000
  C   C283      1.0  0.15765  0.80417  0.73487  1.0000
  C   C284      1.0  0.17405  0.81694  0.72471  1.0000
  H   H344      1.0  0.18568  0.84362  0.76800  1.0000
  H   H345      1.0  0.15618  0.82194  0.78566  1.0000
  H   H346      1.0  0.14980  0.79332  0.72558  1.0000
  H   H347      1.0  0.17886  0.81568  0.70760  1.0000
  C   C285      1.0  0.10878  0.63847  0.73730  1.0000
  C   C286      1.0  0.07654  0.55161  0.51418  1.0000
  C   C287      1.0  0.21468  0.98614  0.76510  1.0000
  C   C288      1.0  0.22560  0.96634  0.77013  1.0000
  C   C289      1.0  0.02841  0.70305  0.72420  1.0000
  H   H348      1.0  0.10395  0.58002  0.67853  1.0000
  H   H349      1.0  0.09177  0.61822  0.71973  1.0000
  C   C290      1.0  0.00622  0.72406  0.77986  1.0000
  H   H350      1.0  0.09433  0.64558  0.74518  1.0000
  C   C291      1.0  0.07794  0.65311  0.68065  1.0000
  C   C292      1.0  0.09871  0.65727  0.67204  1.0000
  C   C293      1.0  0.11109  0.67113  0.68229  1.0000
  C   C294      1.0  0.10282  0.68109  0.70113  1.0000
  C   C295      1.0  0.08213  0.67672  0.70985  1.0000
  C   C296      1.0  0.06979  0.66274  0.69970  1.0000
  H   H351      1.0  0.10511  0.65012  0.65728  1.0000
  H   H352      1.0  0.12712  0.67435  0.67548  1.0000
  H   H353      1.0  0.07594  0.68372  0.72473  1.0000
  H   H354      1.0  0.05395  0.65921  0.70675  1.0000
  C   C297      1.0  0.09425  0.61555  0.54175  1.0000
  C   C298      1.0  0.07274  0.62241  0.54363  1.0000
  H   H355      1.0  0.03438  0.68906  0.68352  1.0000
  H   H356      1.0  0.23127  0.80485  0.74938  1.0000
  C   C299      1.0  0.10335  0.60822  0.52193  1.0000
  H   H357      1.0  0.06566  0.62831  0.55877  1.0000
  H   H358      1.0  0.11998  0.60284  0.52043  1.0000
  C   C300      1.0  0.22008  0.79658  0.99256  1.0000
  H   H359      1.0  0.03417  0.60013  0.57982  1.0000
  C   C301      1.0  0.13771  0.60374  0.67479  1.0000
  H   H360      1.0  0.18508  0.81327  0.93420  1.0000
  N   N20       1.0  0.12575  0.59683  0.69571  1.0000
  H   H361      1.0  0.13436  0.87917  0.78776  1.0000
  C   C302      1.0  0.12632  0.61355  0.71153  1.0000
  H   H362      1.0  0.01206  0.64914  0.70556  1.0000
  H   H363      1.0  0.12596  0.85003  0.71667  1.0000
  H   H364      1.0  0.13128  0.61964  0.66818  1.0000
  C   C303      1.0  0.10382  0.59228  0.69078  1.0000
  H   H365      1.0  0.00859  0.60143  0.62567  1.0000
  H   H366      1.0  0.22588  0.81971  0.95192  1.0000
  H   H367      1.0  0.01519  0.62611  0.63592  1.0000
  C   C304      1.0  0.23582  0.83695  0.83212  1.0000
  H   H368      1.0  0.04535  0.70673  0.72547  1.0000
  H   H369      1.0  0.12751  0.57074  0.72038  1.0000
  C   C305      1.0  0.12842  0.64597  0.74125  1.0000
  C   C306      1.0  0.14707  0.63720  0.73099  1.0000
  H   H370      1.0  0.09540  0.60704  0.68390  1.0000
  H   H371      1.0  0.13530  0.56326  0.69313  1.0000
  C   C307      1.0  0.08226  0.53030  0.51000  1.0000
  C   C308      1.0  0.07859  0.51950  0.54922  1.0000
  N   N21       1.0  0.20380  0.79390  0.95653  1.0000
  S   S103      1.0  0.23560  0.69689  0.90832  1.0000
  H   H372      1.0  0.01697  0.62998  0.67279  1.0000
  C   C309      1.0  0.00755  0.61050  0.64061  1.0000
  C   C310      1.0  0.10175  0.51303  0.64009  1.0000
  H   H373      1.0  0.09417  0.58563  0.70544  1.0000
  H   H374      1.0  0.09011  0.52416  0.63302  1.0000
  H   H375      1.0  0.01737  0.60082  0.65225  1.0000
  C   C311      1.0  0.06114  0.50388  0.58313  1.0000
  H   H376      1.0  0.17464  0.77159  0.98425  1.0000
  C   C312      1.0  0.01362  0.57429  0.59120  1.0000
  C   C313      1.0  0.22364  0.80352  0.94615  1.0000
  H   H377      1.0  0.20199  0.78148  0.74371  1.0000
  Fe  Fe54      1.0  0.23065  0.75851  0.89267  1.0000
  H   H378      1.0  0.01554  0.74582  0.68972  1.0000
  H   H379      1.0  0.12912  0.65894  0.75197  1.0000
  H   H380      1.0  0.06786  0.57384  0.53884  1.0000
  H   H381      1.0  0.15288  0.57801  0.70706  1.0000
  H   H382      1.0  0.02405  0.57211  0.53098  1.0000
  H   H383      1.0  0.01993  0.70900  0.73921  1.0000
  C   C314      1.0  0.24493  0.96660  0.77964  1.0000
  C   C315      1.0  0.20113  0.77377  0.94575  1.0000
  H   H384      1.0  0.11400  0.50936  0.56868  1.0000
  H   H385      1.0  0.22336  0.80600  0.92810  1.0000
  H   H386      1.0  0.05863  0.51924  0.59135  1.0000
  H   H387      1.0  0.23791  0.79279  0.94921  1.0000
  C   C316      1.0  0.10759  0.62264  0.72255  1.0000
  C   C317      1.0  0.14613  0.62103  0.71656  1.0000
  H   H388      1.0  0.15497  0.60520  0.67631  1.0000
  H   H389      1.0  0.02718  0.68525  0.72497  1.0000
  C   C318      1.0  0.21919  0.72351  0.98827  1.0000
  C   C319      1.0  0.18567  0.80918  0.95203  1.0000
  H   H390      1.0  0.23329  0.80561  0.98510  1.0000
  H   H391      1.0  0.21326  0.76111  0.95044  1.0000
  H   H392      1.0  0.19967  0.98619  0.75784  1.0000
  H   H393      1.0  0.18526  0.76687  0.94993  1.0000
  H   H394      1.0  0.23350  0.66353  0.86675  1.0000
  C   C320      1.0  0.02119  0.73718  0.70468  1.0000
  N   N22       1.0  0.18308  0.77077  0.81892  1.0000
  C   C321      1.0  0.16525  0.75800  0.81333  1.0000
  C   C322      1.0  0.19637  0.75664  0.83324  1.0000
  C   C323      1.0  0.17357  0.78891  0.83135  1.0000
  C   C324      1.0  0.19652  0.77933  0.79964  1.0000
  C   C325      1.0  0.21389  0.79233  0.80227  1.0000
  C   C326      1.0  0.19279  0.77536  0.77793  1.0000
  H   H395      1.0  0.18693  0.82450  0.96001  1.0000
  C   C327      1.0  0.20551  0.78420  0.76014  1.0000
  C   C328      1.0  0.22204  0.79738  0.76330  1.0000
  H   H396      1.0  0.17118  0.74369  0.80443  1.0000
  H   H397      1.0  0.15546  0.75168  0.82809  1.0000
  H   H398      1.0  0.15409  0.76789  0.80320  1.0000
  H   H399      1.0  0.20425  0.74305  0.82434  1.0000
  H   H400      1.0  0.18668  0.74942  0.84764  1.0000
  H   H401      1.0  0.20906  0.76547  0.83979  1.0000
  H   H402      1.0  0.18582  0.79807  0.83822  1.0000
  H   H403      1.0  0.16426  0.80042  0.82077  1.0000
  H   H404      1.0  0.16256  0.78311  0.84541  1.0000
  H   H405      1.0  0.21785  0.79586  0.81825  1.0000
  H   H406      1.0  0.17977  0.76601  0.77415  1.0000
  C   C329      1.0  0.22631  0.80134  0.78434  1.0000
  H   H407      1.0  0.21009  0.83183  0.85715  1.0000
  H   H408      1.0  0.11236  0.69764  0.51993  1.0000
  N   N23       1.0  0.15779  0.90171  0.75292  1.0000
  C   C330      1.0  0.16191  0.90700  0.77522  1.0000
  C   C331      1.0  0.17882  0.89695  0.74108  1.0000
  C   C332      1.0  0.14776  0.92113  0.74200  1.0000
  C   C333      1.0  0.14383  0.88326  0.75263  1.0000
  C   C334      1.0  0.13288  0.87374  0.77181  1.0000
  C   C335      1.0  0.14052  0.87452  0.73266  1.0000
  C   C336      1.0  0.11984  0.85632  0.77089  1.0000
  C   C337      1.0  0.12760  0.85700  0.73198  1.0000
  C   C338      1.0  0.11727  0.84794  0.75105  1.0000
  H   H409      1.0  0.16937  0.89288  0.78430  1.0000
  H   H410      1.0  0.17314  0.92036  0.77487  1.0000
  H   H411      1.0  0.14709  0.91258  0.78468  1.0000
  H   H412      1.0  0.19031  0.90968  0.74263  1.0000
  H   H413      1.0  0.17798  0.89583  0.72333  1.0000
  H   H414      1.0  0.18587  0.88131  0.74746  1.0000
  H   H415      1.0  0.13181  0.92519  0.75026  1.0000
  H   H416      1.0  0.15776  0.93543  0.74208  1.0000
  H   H417      1.0  0.09657  0.52460  0.58690  1.0000
  H   H418      1.0  0.14726  0.51254  0.66598  1.0000
  C   C339      1.0  0.11235  0.69115  0.50412  1.0000
  N   N24       1.0  0.02020  0.71349  0.70402  1.0000
  C   C340      1.0  0.08333  0.51441  0.52717  1.0000
  H   H419      1.0  0.04434  0.62916  0.52689  1.0000
  C   C341      1.0  0.07179  0.55714  0.53555  1.0000
  C   C342      1.0  0.03496  0.70668  0.68542  1.0000
  H   H420      1.0  0.03137  0.71566  0.66985  1.0000
  C   C343      1.0  0.11906  0.52104  0.64943  1.0000
  C   C344      1.0  0.06067  0.62286  0.52554  1.0000
  H   H421      1.0  0.13676  0.59186  0.66228  1.0000
  H   H422      1.0  0.16105  0.61463  0.70917  1.0000
  H   H423      1.0  0.17009  0.80241  0.95813  1.0000
  H   H424      1.0  0.06937  0.54666  0.56910  1.0000
  H   H425      1.0  0.20271  0.77651  0.92768  1.0000
  H   H426      1.0  0.01111  0.74336  0.71875  1.0000
  N   N25       1.0  0.00010  0.58058  0.50842  1.0000
  C   C345      1.0  0.06984  0.61584  0.50564  1.0000
  H   H427      1.0  0.00489  0.62430  0.56648  1.0000
  C   C346      1.0  0.00763  0.56797  0.52785  1.0000
  H   H428      1.0  0.24289  0.63665  0.86264  1.0000
  H   H429      1.0  0.23915  0.81165  0.78676  1.0000
  H   H430      1.0  0.01504  0.60951  0.51520  1.0000
  H   H431      1.0  0.00087  0.69822  0.66885  1.0000
  N   N26       1.0  0.08074  0.50339  0.56790  1.0000
  H   H432      1.0  0.23938  0.67016  0.82570  1.0000
  C   C347      1.0  0.09105  0.60792  0.50405  1.0000
  C   C348      1.0  0.09907  0.50869  0.57973  1.0000
  C   C349      1.0  0.00077  0.63297  0.67942  1.0000
  H   H433      1.0  0.24267  0.74435  0.97185  1.0000
  C   C350      1.0  0.00163  0.60815  0.57324  1.0000
  S   S104      1.0  0.24647  0.73518  0.86988  1.0000
  C   C351      1.0  0.24825  0.65291  0.86526  1.0000
  C   C352      1.0  0.10764  0.66970  0.50277  1.0000
  C   C353      1.0  0.99907  0.60381  0.51247  1.0000
  Fe  Fe55      1.0  0.39079  0.40735  0.08251  1.0000
  S   S105      1.0  0.40056  0.37473  0.09669  1.0000
  S   S106      1.0  0.40202  0.42091  0.04912  1.0000
  Fe  Fe56      1.0  0.36574  0.41966  0.12355  1.0000
  S   S107      1.0  0.37311  0.38791  0.14191  1.0000
  S   S108      1.0  0.34526  0.44822  0.13455  1.0000
  Fe  Fe57      1.0  0.40641  0.39176  0.12609  1.0000
  S   S109      1.0  0.43599  0.38300  0.14362  1.0000
  Fe  Fe58      1.0  0.36653  0.37278  0.11119  1.0000
  S   S110      1.0  0.35425  0.33893  0.11003  1.0000
  S   S111      1.0  0.39954  0.42473  0.11062  1.0000
  S   S112      1.0  0.35632  0.40433  0.09412  1.0000
  Fe  Fe59      1.0  0.40100  0.08252  0.39727  1.0000
  S   S113      1.0  0.37482  0.10811  0.40336  1.0000
  S   S114      1.0  0.43274  0.08455  0.37713  1.0000
  Fe  Fe60      1.0  0.37668  0.04782  0.42415  1.0000
  S   S115      1.0  0.34896  0.07013  0.43285  1.0000
  H   H434      1.0  0.29153  0.18142  0.10167  1.0000
  Fe  Fe61      1.0  0.35225  0.08234  0.39750  1.0000
  S   S116      1.0  0.31992  0.08469  0.38323  1.0000
  Fe  Fe62      1.0  0.37340  0.09363  0.43802  1.0000
  S   S117      1.0  0.37089  0.11246  0.46820  1.0000
  S   S118      1.0  0.37857  0.05810  0.38856  1.0000
  S   S119      1.0  0.40108  0.07020  0.43218  1.0000
  S   S120      1.0  0.26746  0.24349  0.10996  1.0000
  S   S121      1.0  0.25871  0.30726  0.12209  1.0000
  S   S122      1.0  0.26623  0.20101  0.16128  1.0000
  H   H435      1.0  0.27185  0.19966  0.09012  1.0000
  S   S123      1.0  0.29282  0.09786  0.28607  1.0000
  C   C354      1.0  0.43916  0.33289  0.07779  1.0000
  C   C355      1.0  0.44895  0.36090  0.01332  1.0000
  Fe  Fe63      1.0  0.24979  0.22538  0.13841  1.0000
  C   C356      1.0  0.46400  0.02970  0.40448  1.0000
  N   N27       1.0  0.44587  0.01540  0.40397  1.0000
  N   N28       1.0  0.29693  0.02839  0.28600  1.0000
  H   H436      1.0  0.31802  0.13939  0.34930  1.0000
  H   H437      1.0  0.41532  0.33546  0.02043  1.0000
  H   H438      1.0  0.27979  0.16906  0.19358  1.0000
  C   C357      1.0  0.37328  0.49875  0.00513  1.0000
  H   H439      1.0  0.38939  0.33186  0.16662  1.0000
  H   H440      1.0  0.26008  0.20997  0.01496  1.0000
  C   C358      1.0  0.31348  0.08671  0.35580  1.0000
  C   C359      1.0  0.32827  0.09261  0.33844  1.0000
  C   C360      1.0  0.32177  0.09587  0.31713  1.0000
  C   C361      1.0  0.30054  0.09300  0.31296  1.0000
  C   C362      1.0  0.28600  0.08630  0.33020  1.0000
  C   C363      1.0  0.29237  0.08343  0.35151  1.0000
  H   H441      1.0  0.34454  0.09527  0.34153  1.0000
  H   H442      1.0  0.33320  0.10092  0.30387  1.0000
  H   H443      1.0  0.26979  0.08355  0.32716  1.0000
  H   H444      1.0  0.28084  0.07888  0.36486  1.0000
  C   C364      1.0  0.45547  0.08779  0.39117  1.0000
  C   C365      1.0  0.49853  0.39274  0.10136  1.0000
  C   C366      1.0  0.45335  0.09527  0.41204  1.0000
  C   C367      1.0  0.28836  0.29948  0.03307  1.0000
  H   H445      1.0  0.43766  0.09942  0.41939  1.0000
  C   C368      1.0  0.32750  0.33063  0.11328  1.0000
  C   C369      1.0  0.31015  0.34512  0.11731  1.0000
  C   C370      1.0  0.28922  0.33770  0.11992  1.0000
  C   C371      1.0  0.28539  0.31576  0.11856  1.0000
  C   C372      1.0  0.30274  0.30128  0.11450  1.0000
  C   C373      1.0  0.32366  0.30870  0.11189  1.0000
  H   H446      1.0  0.31285  0.36203  0.11840  1.0000
  H   H447      1.0  0.27593  0.34905  0.12301  1.0000
  H   H448      1.0  0.30006  0.28438  0.11341  1.0000
  H   H449      1.0  0.33695  0.29736  0.10874  1.0000
  C   C374      1.0  0.35888  0.47089  0.14040  1.0000
  C   C375      1.0  0.37917  0.46867  0.14810  1.0000
  C   C376      1.0  0.27392  0.28385  0.03036  1.0000
  H   H450      1.0  0.38590  0.34250  0.13936  1.0000
  H   H451      1.0  0.44691  0.33748  0.06192  1.0000
  H   H452      1.0  0.38667  0.45278  0.15070  1.0000
  H   H453      1.0  0.32978  0.02779  0.29372  1.0000
  C   C377      1.0  0.45997  0.38674  0.12725  1.0000
  C   C378      1.0  0.45981  0.39700  0.10638  1.0000
  H   H454      1.0  0.35429  0.36991  0.02459  1.0000
  H   H455      1.0  0.43379  0.29278  0.14920  1.0000
  C   C379      1.0  0.47947  0.37953  0.13519  1.0000
  H   H456      1.0  0.44485  0.40265  0.10015  1.0000
  H   H457      1.0  0.47966  0.37155  0.15133  1.0000
  C   C380      1.0  0.37451  0.39302  0.03573  1.0000
  C   C381      1.0  0.38802  0.40995  0.02963  1.0000
  H   H458      1.0  0.31033  0.02460  0.31711  1.0000
  H   H459      1.0  0.37220  0.38698  0.05256  1.0000
  H   H460      1.0  0.33348  0.49331  0.13140  1.0000
  C   C382      1.0  0.28398  0.10812  0.10754  1.0000
  C   C383      1.0  0.44287  0.37607  0.02907  1.0000
  C   C384      1.0  0.49123  0.48706  0.12122  1.0000
  H   H461      1.0  0.31406  0.05035  0.30291  1.0000
  C   C385      1.0  0.26047  0.13703  0.37683  1.0000
  C   C386      1.0  0.30223  0.04021  0.26465  1.0000
  S   S124      1.0  0.37843  0.01402  0.43946  1.0000
  C   C387      1.0  0.48406  0.35734  0.02809  1.0000
  H   H462      1.0  0.42733  0.38428  0.02978  1.0000
  H   H463      1.0  0.40705  0.46921  0.05962  1.0000
  C   C388      1.0  0.42404  0.30631  0.15641  1.0000
  H   H464      1.0  0.26327  0.12379  0.15680  1.0000
  Fe  Fe64      1.0  0.25900  0.09508  0.27657  1.0000
  C   C389      1.0  0.42924  0.02781  0.39213  1.0000
  C   C390      1.0  0.49875  0.38250  0.12225  1.0000
  C   C391      1.0  0.49199  0.09307  0.41333  1.0000
  C   C392      1.0  0.26982  0.14564  0.10406  1.0000
  C   C393      1.0  0.41006  0.31618  0.10000  1.0000
  H   H465      1.0  0.37962  0.06670  0.47641  1.0000
  C   C394      1.0  0.26812  0.28049  0.00960  1.0000
  H   H466      1.0  0.39804  0.28453  0.13348  1.0000
  C   C395      1.0  0.45687  0.38144  0.04396  1.0000
  H   H467      1.0  0.26560  0.15334  0.05934  1.0000
  H   H468      1.0  0.40499  0.36282  0.01771  1.0000
  H   H469      1.0  0.47884  0.40837  0.07756  1.0000
  C   C396      1.0  0.26410  0.16502  0.18974  1.0000
  H   H470      1.0  0.25617  0.15711  0.13494  1.0000
  C   C397      1.0  0.37836  0.07406  0.49180  1.0000
  H   H471      1.0  0.41394  0.10016  0.47279  1.0000
  H   H472      1.0  0.45168  0.39314  0.05575  1.0000
  H   H473      1.0  0.47081  0.03475  0.38774  1.0000
  H   H474      1.0  0.28854  0.14020  0.32670  1.0000
  H   H475      1.0  0.37524  0.44909  0.07480  1.0000
  H   H476      1.0  0.31748  0.03376  0.25660  1.0000
  C   C398      1.0  0.39784  0.33518  0.15024  1.0000
  H   H477      1.0  0.40569  0.49826  0.05840  1.0000
  H   H478      1.0  0.35663  0.45056  0.04516  1.0000
  C   C399      1.0  0.44767  0.33860  0.09650  1.0000
  H   H479      1.0  0.40128  0.43084  0.00306  1.0000
  C   C400      1.0  0.31352  0.03278  0.30060  1.0000
  C   C401      1.0  0.39153  0.29929  0.14131  1.0000
  H   H480      1.0  0.31204  0.13614  0.38934  1.0000
  H   H481      1.0  0.27546  0.13473  0.40709  1.0000
  C   C402      1.0  0.43756  0.33296  0.11704  1.0000
  H   H482      1.0  0.26355  0.03774  0.28433  1.0000
  H   H483      1.0  0.46879  0.11963  0.47628  1.0000
  H   H484      1.0  0.28968  0.03910  0.25325  1.0000
  C   C403      1.0  0.30185  0.13920  0.35692  1.0000
  C   C404      1.0  0.26802  0.12472  0.13944  1.0000
  H   H485      1.0  0.28103  0.09214  0.13972  1.0000
  C   C405      1.0  0.38938  0.48699  0.15332  1.0000
  C   C406      1.0  0.29527  0.00519  0.28272  1.0000
  C   C407      1.0  0.28460  0.13958  0.34409  1.0000
  N   N29       1.0  0.26477  0.16594  0.09109  1.0000
  H   H486      1.0  0.47770  0.07701  0.36525  1.0000
  H   H487      1.0  0.25889  0.15303  0.31060  1.0000
  H   H488      1.0  0.27736  0.05435  0.29975  1.0000
  H   H489      1.0  0.26773  0.00981  0.26337  1.0000
  C   C408      1.0  0.47746  0.37212  0.04346  1.0000
  C   C409      1.0  0.27628  0.03735  0.29566  1.0000
  H   H490      1.0  0.43244  0.02529  0.43524  1.0000
  H   H491      1.0  0.40292  0.48334  0.08417  1.0000
  H   H492      1.0  0.29066  0.16339  0.06603  1.0000
  C   C410      1.0  0.27412  0.18435  0.10033  1.0000
  H   H493      1.0  0.37759  0.30597  0.13272  1.0000
  C   C411      1.0  0.36117  0.46460  0.03479  1.0000
  C   C412      1.0  0.29713  0.31170  0.01497  1.0000
  H   H494      1.0  0.34994  0.46352  0.08036  1.0000
  S   S125      1.0  0.25257  0.07405  0.24987  1.0000
  H   H495      1.0  0.29273  0.30215  0.04923  1.0000
  H   H496      1.0  0.38477  0.29428  0.15805  1.0000
  H   H497      1.0  0.25678  0.26825  0.00841  1.0000
  H   H498      1.0  0.42146  0.15253  0.49594  1.0000
  C   C413      1.0  0.47905  0.40011  0.09356  1.0000
  C   C414      1.0  0.41870  0.32110  0.11947  1.0000
  C   C415      1.0  0.34919  0.49153  0.13727  1.0000
  H   H499      1.0  0.37084  0.01527  0.39361  1.0000
  C   C416      1.0  0.26400  0.14378  0.12679  1.0000
  C   C417      1.0  0.49416  0.08512  0.39261  1.0000
  C   C418      1.0  0.37091  0.48234  0.04263  1.0000
  H   H500      1.0  0.43507  0.31855  0.16045  1.0000
  C   C419      1.0  0.29852  0.13740  0.37952  1.0000
  H   H501      1.0  0.26671  0.18756  0.11682  1.0000
  C   C420      1.0  0.47011  0.35174  0.01319  1.0000
  H   H502      1.0  0.40954  0.34767  0.15175  1.0000
  C   C421      1.0  0.47155  0.09811  0.42295  1.0000
  C   C422      1.0  0.36445  0.38329  0.01987  1.0000
  C   C423      1.0  0.27787  0.13642  0.38947  1.0000
  N   N30       1.0  0.37542  0.48321  0.06568  1.0000
  H   H503      1.0  0.30838  0.32387  0.01714  1.0000
  C   C424      1.0  0.36756  0.46455  0.07996  1.0000
  H   H504      1.0  0.41414  0.01926  0.39275  1.0000
  C   C425      1.0  0.27300  0.16587  0.06781  1.0000
  H   H505      1.0  0.41627  0.30013  0.17237  1.0000
  H   H506      1.0  0.44190  0.09394  0.46639  1.0000
  C   C426      1.0  0.26330  0.13830  0.35373  1.0000
  H   H507      1.0  0.44435  0.33860  0.13093  1.0000
  H   H508      1.0  0.48846  0.37651  0.05480  1.0000
  H   H509      1.0  0.48683  0.42444  0.13764  1.0000
  H   H510      1.0  0.46990  0.10446  0.43881  1.0000
  C   C427      1.0  0.42031  0.32188  0.07953  1.0000
  H   H511      1.0  0.42495  0.04350  0.39923  1.0000
  C   C428      1.0  0.37347  0.09616  0.49253  1.0000
  C   C429      1.0  0.47593  0.08274  0.38145  1.0000
  C   C430      1.0  0.39879  0.48354  0.06699  1.0000
  H   H512      1.0  0.45893  0.04489  0.41237  1.0000
  H   H513      1.0  0.26713  0.27425  0.04443  1.0000
  C   C431      1.0  0.39106  0.41751  0.00776  1.0000
  N   N31       1.0  0.40817  0.31542  0.14140  1.0000
  H   H514      1.0  0.39507  0.30847  0.10011  1.0000
  N   N32       1.0  0.43492  0.12224  0.48451  1.0000
  H   H515      1.0  0.27060  0.02775  0.31076  1.0000
  C   C432      1.0  0.45536  0.13194  0.47620  1.0000
  C   C433      1.0  0.42962  0.10730  0.46829  1.0000
  H   H516      1.0  0.30392  0.05775  0.26638  1.0000
  H   H517      1.0  0.29171  0.09417  0.10014  1.0000
  H   H518      1.0  0.26917  0.18155  0.05870  1.0000
  H   H519      1.0  0.40478  0.48514  0.15985  1.0000
  H   H520      1.0  0.46189  0.34793  0.09515  1.0000
  C   C434      1.0  0.27800  0.10691  0.12984  1.0000
  H   H521      1.0  0.43481  0.03148  0.37471  1.0000
  H   H522      1.0  0.41519  0.14731  0.46913  1.0000
  C   C435      1.0  0.25044  0.13830  0.31693  1.0000
  H   H523      1.0  0.48234  0.44366  0.11570  1.0000
  H   H524      1.0  0.45484  0.13901  0.45913  1.0000
  H   H525      1.0  0.35030  0.45041  0.00715  1.0000
  C   C436      1.0  0.41788  0.13956  0.48555  1.0000
  H   H526      1.0  0.42818  0.11580  0.45197  1.0000
  H   H527      1.0  0.37130  0.46568  0.09707  1.0000
  H   H528      1.0  0.47689  0.02185  0.41389  1.0000
  C   C437      1.0  0.43722  0.01036  0.42678  1.0000
  H   H529      1.0  0.35064  0.00749  0.48876  1.0000
  H   H530      1.0  0.41325  0.31817  0.06495  1.0000
  H   H531      1.0  0.47428  0.44988  0.14357  1.0000
  H   H532      1.0  0.28491  0.12693  0.07757  1.0000
  H   H533      1.0  0.26329  0.13617  0.21153  1.0000
  H   H534      1.0  0.26065  0.12385  0.31266  1.0000
  H   H535      1.0  0.45942  0.14527  0.48590  1.0000
  C   C438      1.0  0.48694  0.44202  0.13276  1.0000
  H   H536      1.0  0.47641  0.48009  0.11852  1.0000
  C   C439      1.0  0.35746  0.46425  0.01283  1.0000
  H   H537      1.0  0.40242  0.13298  0.49237  1.0000
  C   C440      1.0  0.37694  0.49935  0.02707  1.0000
  H   H538      1.0  0.42639  0.07946  0.50044  1.0000
  C   C441      1.0  0.41322  0.34963  0.00867  1.0000
  C   C442      1.0  0.27997  0.12715  0.09472  1.0000
  C   C443      1.0  0.25478  0.14638  0.19995  1.0000
  C   C444      1.0  0.25334  0.17839  0.17455  1.0000
  Fe  Fe65      1.0  0.38814  0.40834  0.90442  1.0000
  S   S126      1.0  0.40305  0.39904  0.93537  1.0000
  S   S127      1.0  0.39072  0.44228  0.88847  1.0000
  Fe  Fe66      1.0  0.37370  0.36247  0.90028  1.0000
  S   S128      1.0  0.38820  0.34965  0.93085  1.0000
  S   S129      1.0  0.35452  0.34367  0.87892  1.0000
  Fe  Fe67      1.0  0.37405  0.37998  0.94464  1.0000
  C   C445      1.0  0.27553  0.26612  0.96409  1.0000
  Fe  Fe68      1.0  0.41629  0.36965  0.91914  1.0000
  S   S130      1.0  0.44911  0.36027  0.93000  1.0000
  S   S131      1.0  0.35766  0.39177  0.91497  1.0000
  S   S132      1.0  0.40329  0.38004  0.88707  1.0000
  Fe  Fe69      1.0  0.40028  0.04470  0.63037  1.0000
  S   S133      1.0  0.40728  0.07570  0.64399  1.0000
  H   H539      1.0  0.25978  0.19640  0.84627  1.0000
  Fe  Fe70      1.0  0.38910  0.06603  0.58707  1.0000
  S   S134      1.0  0.39445  0.09928  0.59704  1.0000
  S   S135      1.0  0.38298  0.05343  0.55479  1.0000
  Fe  Fe71      1.0  0.42386  0.08408  0.61108  1.0000
  S   S136      1.0  0.45516  0.10086  0.60473  1.0000
  Fe  Fe72      1.0  0.37723  0.08838  0.62940  1.0000
  S   S137      1.0  0.35604  0.11026  0.65086  1.0000
  S   S138      1.0  0.41978  0.05169  0.59887  1.0000
  S   S139      1.0  0.36916  0.05653  0.61802  1.0000
  H   H540      1.0  0.35191  0.27246  0.87253  1.0000
  S   S140      1.0  0.29810  0.26289  0.90951  1.0000
  C   C446      1.0  0.43181  0.08969  0.51203  1.0000
  H   H541      1.0  0.46997  0.46996  0.85434  1.0000
  H   H542      1.0  0.32255  0.04005  0.71685  1.0000
  H   H543      1.0  0.26484  0.03325  0.70979  1.0000
  C   C447      1.0  0.25366  0.16510  0.86183  1.0000
  S   S141      1.0  0.27286  0.08436  0.76301  1.0000
  C   C448      1.0  0.29670  0.00448  0.71813  1.0000
  H   H544      1.0  0.30167  0.04569  0.69856  1.0000
  Fe  Fe73      1.0  0.25566  0.11274  0.77876  1.0000
  C   C449      1.0  0.49601  0.05474  0.62913  1.0000
  H   H545      1.0  0.39202  0.47797  0.95680  1.0000
  C   C450      1.0  0.49775  0.09697  0.61071  1.0000
  C   C451      1.0  0.37186  0.10546  0.51269  1.0000
  C   C452      1.0  0.33181  0.10227  0.66519  1.0000
  C   C453      1.0  0.32428  0.11239  0.68417  1.0000
  C   C454      1.0  0.30441  0.10747  0.69521  1.0000
  C   C455      1.0  0.29159  0.09287  0.68693  1.0000
  C   C456      1.0  0.29911  0.08269  0.66800  1.0000
  C   C457      1.0  0.31928  0.08709  0.65736  1.0000
  H   H546      1.0  0.33382  0.12424  0.69025  1.0000
  H   H547      1.0  0.29878  0.11548  0.70972  1.0000
  H   H548      1.0  0.28926  0.07144  0.66141  1.0000
  H   H549      1.0  0.32480  0.07939  0.64264  1.0000
  C   C458      1.0  0.37981  0.07054  0.53117  1.0000
  C   C459      1.0  0.37509  0.09268  0.53200  1.0000
  H   H550      1.0  0.27511  0.29929  0.93489  1.0000
  H   H551      1.0  0.39241  0.01436  0.60409  1.0000
  H   H552      1.0  0.49041  0.08269  0.55475  1.0000
  H   H553      1.0  0.42365  0.38944  0.99187  1.0000
  H   H554      1.0  0.37362  0.09988  0.54751  1.0000
  S   S142      1.0  0.25818  0.22240  0.92459  1.0000
  C   C460      1.0  0.37602  0.22555  0.85643  1.0000
  C   C461      1.0  0.44666  0.42144  0.88953  1.0000
  C   C462      1.0  0.47813  0.08696  0.61365  1.0000
  S   S143      1.0  0.25479  0.23655  0.87271  1.0000
  C   C463      1.0  0.47728  0.06582  0.62293  1.0000
  H   H555      1.0  0.25526  0.11853  0.83523  1.0000
  H   H556      1.0  0.46218  0.05807  0.62541  1.0000
  C   C464      1.0  0.33766  0.32239  0.88867  1.0000
  C   C465      1.0  0.34127  0.30957  0.90766  1.0000
  C   C466      1.0  0.32883  0.29159  0.91384  1.0000
  C   C467      1.0  0.31220  0.28658  0.90155  1.0000
  C   C468      1.0  0.30818  0.29969  0.88287  1.0000
  C   C469      1.0  0.32108  0.31731  0.87632  1.0000
  H   H557      1.0  0.35413  0.31313  0.91717  1.0000
  H   H558      1.0  0.33228  0.28138  0.92814  1.0000
  H   H559      1.0  0.29558  0.29595  0.87313  1.0000
  H   H560      1.0  0.31826  0.32704  0.86153  1.0000
  H   H561      1.0  0.26614  0.04862  0.73300  1.0000
  C   C470      1.0  0.39068  0.48019  0.93946  1.0000
  H   H562      1.0  0.49095  0.40729  0.88258  1.0000
  C   C471      1.0  0.49645  0.36374  0.88074  1.0000
  H   H563      1.0  0.38339  0.41359  0.97503  1.0000
  C   C472      1.0  0.47370  0.36417  0.91458  1.0000
  C   C473      1.0  0.47615  0.36205  0.89212  1.0000
  H   H564      1.0  0.44123  0.40248  0.85265  1.0000
  H   H565      1.0  0.46257  0.35840  0.88367  1.0000
  C   C474      1.0  0.29775  0.02385  0.75052  1.0000
  C   C475      1.0  0.39129  0.46204  0.92709  1.0000
  C   C476      1.0  0.38989  0.46468  0.90460  1.0000
  C   C477      1.0  0.38820  0.48562  0.89456  1.0000
  H   H566      1.0  0.39270  0.44604  0.93502  1.0000
  H   H567      1.0  0.38709  0.48779  0.87716  1.0000
  N   N33       1.0  0.27003  0.28879  0.96903  1.0000
  C   C478      1.0  0.45142  0.49006  0.91723  1.0000
  H   H568      1.0  0.44701  0.45771  0.93117  1.0000
  H   H569      1.0  0.44525  0.38052  0.97333  1.0000
  C   C479      1.0  0.37384  0.24655  0.86305  1.0000
  H   H570      1.0  0.32019  0.25287  0.86852  1.0000
  C   C480      1.0  0.44185  0.33827  0.98346  1.0000
  C   C481      1.0  0.43899  0.09256  0.54953  1.0000
  C   C482      1.0  0.43021  0.37552  0.98278  1.0000
  S   S144      1.0  0.26997  0.14065  0.79359  1.0000
  C   C483      1.0  0.43297  0.08043  0.53323  1.0000
  C   C484      1.0  0.36335  0.48134  0.99807  1.0000
  H   H571      1.0  0.49840  0.36172  0.86343  1.0000
  C   C485      1.0  0.47682  0.43693  0.86789  1.0000
  H   H572      1.0  0.29895  0.31842  0.98084  1.0000
  C   C486      1.0  0.35362  0.25611  0.86729  1.0000
  H   H573      1.0  0.45656  0.34256  0.97303  1.0000
  H   H574      1.0  0.36041  0.48100  0.98107  1.0000
  H   H575      1.0  0.42417  0.43666  0.85643  1.0000
  H   H576      1.0  0.26994  0.26246  0.94823  1.0000
  C   C487      1.0  0.26267  0.14971  0.81985  1.0000
  H   H577      1.0  0.48551  0.44693  0.92701  1.0000
  H   H578      1.0  0.25891  0.02141  0.73699  1.0000
  C   C488      1.0  0.38111  0.40765  0.99187  1.0000
  N   N34       1.0  0.29250  0.02567  0.72752  1.0000
  S   S145      1.0  0.35737  0.37610  0.97826  1.0000
  H   H579      1.0  0.29793  0.30030  0.94971  1.0000
  C   C489      1.0  0.48012  0.46320  0.92190  1.0000
  H   H580      1.0  0.32704  0.01844  0.52701  1.0000
  C   C490      1.0  0.25916  0.17943  0.84398  1.0000
  S   S146      1.0  0.40233  0.01239  0.64883  1.0000
  C   C491      1.0  0.43978  0.44402  0.85755  1.0000
  C   C492      1.0  0.44280  0.12349  0.52364  1.0000
  H   H581      1.0  0.39183  0.21819  0.85317  1.0000
  Fe  Fe74      1.0  0.25443  0.09374  0.73416  1.0000
  C   C493      1.0  0.49147  0.09478  0.66970  1.0000
  H   H582      1.0  0.26882  0.18282  0.80953  1.0000
  H   H583      1.0  0.38585  0.04440  0.51014  1.0000
  C   C494      1.0  0.44395  0.11402  0.54477  1.0000
  H   H584      1.0  0.42838  0.06394  0.53725  1.0000
  H   H585      1.0  0.45630  0.40798  0.89723  1.0000
  H   H586      1.0  0.27617  0.32024  0.95307  1.0000
  S   S147      1.0  0.26577  0.08745  0.69916  1.0000
  H   H587      1.0  0.43623  0.45804  0.86771  1.0000
  H   H588      1.0  0.43006  0.33490  0.97181  1.0000
  H   H589      1.0  0.48306  0.08058  0.66689  1.0000
  N   N35       1.0  0.31750  0.21179  0.85567  1.0000
  C   C495      1.0  0.32170  0.19001  0.84738  1.0000
  C   C496      1.0  0.30503  0.20902  0.87712  1.0000
  C   C497      1.0  0.30433  0.22459  0.84015  1.0000
  C   C498      1.0  0.33706  0.22334  0.85813  1.0000
  C   C499      1.0  0.35796  0.21400  0.85399  1.0000
  C   C500      1.0  0.43671  0.11161  0.50657  1.0000
  H   H590      1.0  0.44616  0.14038  0.52092  1.0000
  H   H591      1.0  0.30116  0.05903  0.72313  1.0000
  C   C501      1.0  0.49364  0.42355  0.87599  1.0000
  H   H592      1.0  0.33066  0.19086  0.83102  1.0000
  H   H593      1.0  0.33065  0.17908  0.85879  1.0000
  H   H594      1.0  0.30658  0.18193  0.84559  1.0000
  H   H595      1.0  0.31460  0.19993  0.88936  1.0000
  H   H596      1.0  0.29030  0.20003  0.87614  1.0000
  H   H597      1.0  0.29990  0.22470  0.88388  1.0000
  H   H598      1.0  0.31371  0.22829  0.82432  1.0000
  H   H599      1.0  0.29014  0.21589  0.83672  1.0000
  H   H600      1.0  0.38144  0.00918  0.54573  1.0000
  H   H601      1.0  0.36080  0.19783  0.84884  1.0000
  H   H602      1.0  0.44811  0.12345  0.55779  1.0000
  H   H603      1.0  0.43025  0.41565  0.88964  1.0000
  H   H604      1.0  0.29808  0.24019  0.84641  1.0000
  H   H605      1.0  0.43932  0.08547  0.56604  1.0000
  H   H606      1.0  0.38784  0.25548  0.86494  1.0000
  C   C502      1.0  0.25213  0.14314  0.85849  1.0000
  H   H607      1.0  0.46417  0.41351  0.83703  1.0000
  C   C503      1.0  0.49109  0.13301  0.67374  1.0000
  H   H608      1.0  0.34600  0.02913  0.54314  1.0000
  C   C504      1.0  0.45711  0.40924  0.85384  1.0000
  H   H609      1.0  0.28796  0.01194  0.76069  1.0000
  H   H610      1.0  0.44558  0.43509  0.90022  1.0000
  C   C505      1.0  0.49154  0.36823  0.92551  1.0000
  H   H611      1.0  0.47643  0.34049  0.00150  1.0000
  H   H612      1.0  0.31478  0.01875  0.75184  1.0000
  C   C506      1.0  0.30511  0.04324  0.71595  1.0000
  H   H613      1.0  0.46355  0.11590  0.66763  1.0000
  H   H614      1.0  0.38462  0.00481  0.51720  1.0000
  H   H615      1.0  0.26809  0.25433  0.97639  1.0000
  C   C507      1.0  0.26405  0.17171  0.82318  1.0000
  C   C508      1.0  0.49487  0.47823  0.91346  1.0000
  C   C509      1.0  0.48042  0.11469  0.67015  1.0000
  H   H616      1.0  0.32207  0.01376  0.69290  1.0000
  C   C510      1.0  0.34432  0.01892  0.52933  1.0000
  Fe  Fe75      1.0  0.26592  0.25143  0.90180  1.0000
  C   C511      1.0  0.48180  0.45837  0.86024  1.0000
  C   C512      1.0  0.25627  0.13551  0.83754  1.0000
  C   C513      1.0  0.45848  0.46920  0.92403  1.0000
  H   H617      1.0  0.44529  0.44981  0.84064  1.0000
  H   H618      1.0  0.46721  0.39582  0.86081  1.0000
  C   C514      1.0  0.33550  0.24473  0.86490  1.0000
  C   C515      1.0  0.26963  0.03240  0.72675  1.0000
  H   H619      1.0  0.36798  0.12254  0.51342  1.0000
  H   H620      1.0  0.48983  0.36963  0.94292  1.0000
  C   C516      1.0  0.28027  0.30286  0.95102  1.0000
  S   S148      1.0  0.25226  0.03041  0.78724  1.0000
  N   N36       1.0  0.45543  0.42826  0.86717  1.0000
  H   H621      1.0  0.29465  0.03943  0.75830  1.0000
  H   H622      1.0  0.29309  0.26270  0.96316  1.0000
  C   C517      1.0  0.38168  0.06138  0.51100  1.0000
  H   H623      1.0  0.35221  0.02804  0.51502  1.0000
  H   H624      1.0  0.41861  0.37263  0.97084  1.0000
  C   C518      1.0  0.36816  0.39023  0.99788  1.0000
  H   H625      1.0  0.48236  0.14847  0.67423  1.0000
  H   H626      1.0  0.49526  0.03854  0.63659  1.0000
  C   C519      1.0  0.27670  0.29263  0.99078  1.0000
  H   H627      1.0  0.43444  0.49358  0.91951  1.0000
  H   H628      1.0  0.44508  0.32301  0.99337  1.0000
  H   H629      1.0  0.49841  0.11341  0.60372  1.0000
  C   C520      1.0  0.29150  0.30839  0.99408  1.0000
  C   C521      1.0  0.48802  0.49925  0.90688  1.0000
  S   S149      1.0  0.24916  0.17388  0.88855  1.0000
  C   C522      1.0  0.38824  0.50109  0.92955  1.0000
  H   H630      1.0  0.45751  0.00975  0.62355  1.0000
  H   H631      1.0  0.40177  0.34553  0.99695  1.0000
  N   N37       1.0  0.43396  0.35599  0.99735  1.0000
  H   H632      1.0  0.49829  0.09629  0.51965  1.0000
  Fe  Fe76      1.0  0.39019  0.55859  0.13258  1.0000
  S   S150      1.0  0.38652  0.59406  0.13847  1.0000
  S   S151      1.0  0.39232  0.53040  0.15739  1.0000
  Fe  Fe77      1.0  0.39779  0.56658  0.08397  1.0000
  S   S152      1.0  0.39473  0.60250  0.08540  1.0000
  S   S153      1.0  0.40409  0.54829  0.05396  1.0000
  Fe  Fe78      1.0  0.41492  0.59694  0.11360  1.0000
  S   S154      1.0  0.44342  0.61760  0.11357  1.0000
  Fe  Fe79      1.0  0.36655  0.59665  0.10961  1.0000
  S   S155      1.0  0.33432  0.61302  0.10260  1.0000
  S   S156      1.0  0.41993  0.56154  0.11018  1.0000
  S   S157      1.0  0.36827  0.56076  0.10588  1.0000
  Fe  Fe80      1.0  0.38298  0.90866  0.39307  1.0000
  S   S158      1.0  0.38807  0.87728  0.37730  1.0000
  S   S159      1.0  0.38131  0.94068  0.37407  1.0000
  Fe  Fe81      1.0  0.37500  0.88766  0.43881  1.0000
  S   S160      1.0  0.37876  0.85426  0.42705  1.0000
  S   S161      1.0  0.36787  0.89946  0.47250  1.0000
  Fe  Fe82      1.0  0.40702  0.86714  0.40594  1.0000
  S   S162      1.0  0.43906  0.84878  0.40447  1.0000
  Fe  Fe83      1.0  0.35947  0.86738  0.39937  1.0000
  S   S163      1.0  0.33063  0.85191  0.38845  1.0000
  S   S164      1.0  0.40442  0.89957  0.41964  1.0000
  S   S165      1.0  0.35332  0.89953  0.41326  1.0000
  C   C523      1.0  0.33015  0.56417  0.04250  1.0000
  S   S166      1.0  0.28945  0.69894  0.13909  1.0000
  H   H633      1.0  0.30454  0.86725  0.26031  1.0000
  H   H634      1.0  0.45108  0.89851  0.45187  1.0000
  S   S167      1.0  0.28923  0.88697  0.30162  1.0000
  Fe  Fe84      1.0  0.26016  0.71710  0.12646  1.0000
  H   H635      1.0  0.47862  0.51880  0.11115  1.0000
  H   H636      1.0  0.26510  0.97189  0.25705  1.0000
  H   H637      1.0  0.48613  0.99963  0.38636  1.0000
  H   H638      1.0  0.32170  0.53092  0.04776  1.0000
  H   H639      1.0  0.43278  0.86820  0.44583  1.0000
  H   H640      1.0  0.46553  0.94108  0.36511  1.0000
  H   H641      1.0  0.26414  0.94369  0.31563  1.0000
  H   H642      1.0  0.40112  0.55216  0.19709  1.0000
  C   C524      1.0  0.33193  0.84251  0.28041  1.0000
  H   H643      1.0  0.45397  0.54734  0.21600  1.0000
  C   C525      1.0  0.47157  0.61763  0.17266  1.0000
  H   H644      1.0  0.37324  0.98651  0.36779  1.0000
  C   C526      1.0  0.31942  0.86108  0.36397  1.0000
  C   C527      1.0  0.29875  0.85531  0.36046  1.0000
  C   C528      1.0  0.28924  0.86283  0.34134  1.0000
  C   C529      1.0  0.30045  0.87606  0.32552  1.0000
  C   C530      1.0  0.32128  0.88136  0.32878  1.0000
  C   C531      1.0  0.33069  0.87407  0.34796  1.0000
  H   H645      1.0  0.28997  0.84517  0.37274  1.0000
  H   H646      1.0  0.27319  0.85857  0.33901  1.0000
  H   H647      1.0  0.33020  0.89127  0.31642  1.0000
  H   H648      1.0  0.34671  0.87836  0.35033  1.0000
  C   C532      1.0  0.37887  0.96101  0.39237  1.0000
  C   C533      1.0  0.28745  0.94008  0.33932  1.0000
  C   C534      1.0  0.27756  0.97666  0.26655  1.0000
  H   H649      1.0  0.43427  0.56685  0.22619  1.0000
  C   C535      1.0  0.38057  0.97226  0.42889  1.0000
  C   C536      1.0  0.38097  0.95589  0.41449  1.0000
  C   C537      1.0  0.43742  0.55395  0.21460  1.0000
  H   H650      1.0  0.26775  0.78907  0.20903  1.0000
  H   H651      1.0  0.38303  0.96820  0.44584  1.0000
  H   H652      1.0  0.38324  0.93937  0.42059  1.0000
  C   C538      1.0  0.46164  0.86457  0.40383  1.0000
  C   C539      1.0  0.45996  0.88689  0.39930  1.0000
  C   C540      1.0  0.48160  0.85469  0.40778  1.0000
  H   H653      1.0  0.44484  0.89464  0.39571  1.0000
  H   H654      1.0  0.48309  0.83738  0.41097  1.0000
  C   C541      1.0  0.32238  0.63712  0.11281  1.0000
  C   C542      1.0  0.33134  0.64797  0.12858  1.0000
  C   C543      1.0  0.32109  0.66689  0.13640  1.0000
  C   C544      1.0  0.30192  0.67529  0.12841  1.0000
  C   C545      1.0  0.29297  0.66446  0.11260  1.0000
  C   C546      1.0  0.30312  0.64543  0.10492  1.0000
  H   H655      1.0  0.34612  0.64175  0.13481  1.0000
  H   H656      1.0  0.32812  0.67515  0.14864  1.0000
  H   H657      1.0  0.27826  0.67073  0.10630  1.0000
  H   H658      1.0  0.29602  0.63714  0.09277  1.0000
  H   H659      1.0  0.29754  0.84969  0.24099  1.0000
  C   C547      1.0  0.48356  0.90518  0.45217  1.0000
  C   C548      1.0  0.30787  0.96719  0.28707  1.0000
  C   C549      1.0  0.46951  0.58406  0.12918  1.0000
  C   C550      1.0  0.46820  0.60504  0.11946  1.0000
  H   H660      1.0  0.44282  0.63326  0.16195  1.0000
  H   H661      1.0  0.45524  0.57516  0.13273  1.0000
  H   H662      1.0  0.25587  0.75519  0.00594  1.0000
  C   C551      1.0  0.48075  0.60485  0.05377  1.0000
  H   H663      1.0  0.35194  0.77109  0.21628  1.0000
  C   C552      1.0  0.40713  0.56663  0.03128  1.0000
  C   C553      1.0  0.41386  0.58737  0.03352  1.0000
  C   C554      1.0  0.48682  0.61666  0.11533  1.0000
  H   H664      1.0  0.42075  0.60308  0.17296  1.0000
  H   H665      1.0  0.41962  0.59128  0.04861  1.0000
  H   H666      1.0  0.26823  0.71369  0.20201  1.0000
  C   C555      1.0  0.49020  0.60938  0.01428  1.0000
  C   C556      1.0  0.24921  0.79003  0.18120  1.0000
  H   H667      1.0  0.44915  0.00087  0.43624  1.0000
  H   H668      1.0  0.29081  0.92337  0.33590  1.0000
  H   H669      1.0  0.31888  0.95495  0.29361  1.0000
  H   H670      1.0  0.33279  0.52217  0.00991  1.0000
  C   C557      1.0  0.29837  0.82652  0.27859  1.0000
  H   H671      1.0  0.32423  0.85893  0.23936  1.0000
  H   H672      1.0  0.46866  0.60358  0.06744  1.0000
  H   H673      1.0  0.33633  0.82970  0.29297  1.0000
  C   C558      1.0  0.34513  0.78379  0.22623  1.0000
  C   C559      1.0  0.37968  0.50764  0.15013  1.0000
  C   C560      1.0  0.25195  0.68840  0.18930  1.0000
  H   H674      1.0  0.45752  0.54081  0.17684  1.0000
  C   C561      1.0  0.27219  0.95163  0.32747  1.0000
  N   N38       1.0  0.43366  0.56238  0.19208  1.0000
  H   H675      1.0  0.35881  0.61779  0.05691  1.0000
  C   C562      1.0  0.48955  0.86436  0.47312  1.0000
  H   H676      1.0  0.46007  0.83709  0.44594  1.0000
  C   C563      1.0  0.49231  0.50941  0.11680  1.0000
  H   H677      1.0  0.48134  0.63108  0.16693  1.0000
  H   H678      1.0  0.43124  0.53047  0.18120  1.0000
  C   C564      1.0  0.46620  0.89200  0.45695  1.0000
  H   H679      1.0  0.29096  0.83894  0.28938  1.0000
  C   C565      1.0  0.29299  0.97208  0.35788  1.0000
  H   H680      1.0  0.40436  0.57990  0.20196  1.0000
  H   H681      1.0  0.45737  0.84467  0.34971  1.0000
  C   C566      1.0  0.34723  0.61878  0.01684  1.0000
  C   C567      1.0  0.29185  0.96109  0.27490  1.0000
  C   C568      1.0  0.47473  0.60701  0.03241  1.0000
  H   H682      1.0  0.37803  0.85387  0.48169  1.0000
  C   C569      1.0  0.48777  0.82718  0.34743  1.0000
  H   H683      1.0  0.42268  0.00082  0.42780  1.0000
  H   H684      1.0  0.31578  0.78679  0.21069  1.0000
  H   H685      1.0  0.36810  0.50388  0.09218  1.0000
  H   H686      1.0  0.42690  0.54044  0.22033  1.0000
  H   H687      1.0  0.43379  0.84195  0.50151  1.0000
  H   H688      1.0  0.30034  0.98098  0.36937  1.0000
  C   C570      1.0  0.27920  0.99838  0.27033  1.0000
  N   N39       1.0  0.31393  0.93711  0.36780  1.0000
  C   C571      1.0  0.33256  0.93084  0.35290  1.0000
  C   C572      1.0  0.32197  0.94897  0.38523  1.0000
  C   C573      1.0  0.30430  0.91724  0.37835  1.0000
  C   C574      1.0  0.29811  0.94984  0.35518  1.0000
  H   H689      1.0  0.32555  0.56711  0.05934  1.0000
  H   H690      1.0  0.32793  0.92222  0.33911  1.0000
  H   H691      1.0  0.34133  0.94519  0.34593  1.0000
  H   H692      1.0  0.34417  0.91993  0.36151  1.0000
  H   H693      1.0  0.33091  0.96329  0.37848  1.0000
  H   H694      1.0  0.33360  0.93883  0.39453  1.0000
  H   H695      1.0  0.30881  0.95412  0.39719  1.0000
  H   H696      1.0  0.30002  0.90601  0.36642  1.0000
  H   H697      1.0  0.31548  0.90762  0.38865  1.0000
  H   H698      1.0  0.28960  0.92117  0.38889  1.0000
  H   H699      1.0  0.37243  0.78425  0.24465  1.0000
  C   C575      1.0  0.38266  0.86263  0.49490  1.0000
  H   H700      1.0  0.42429  0.88014  0.47122  1.0000
  N   N40       1.0  0.31744  0.83459  0.26530  1.0000
  C   C576      1.0  0.44024  0.54539  0.17694  1.0000
  H   H701      1.0  0.30009  0.81513  0.23287  1.0000
  H   H702      1.0  0.37222  0.59545  0.04368  1.0000
  C   C577      1.0  0.43592  0.98010  0.39112  1.0000
  C   C578      1.0  0.41030  0.56670  0.19149  1.0000
  C   C579      1.0  0.48093  0.59871  0.18170  1.0000
  H   H703      1.0  0.48979  0.55928  0.14396  1.0000
  C   C580      1.0  0.32480  0.79261  0.22309  1.0000
  H   H704      1.0  0.32083  0.62785  0.05006  1.0000
  C   C581      1.0  0.35664  0.79126  0.24220  1.0000
  H   H705      1.0  0.31503  0.60164  0.06090  1.0000
  H   H706      1.0  0.34665  0.84886  0.27145  1.0000
  C   C582      1.0  0.47295  0.98941  0.38528  1.0000
  H   H707      1.0  0.47682  0.56637  0.19406  1.0000
  H   H708      1.0  0.25559  0.77462  0.17593  1.0000
  C   C583      1.0  0.31071  0.85335  0.25084  1.0000
  H   H709      1.0  0.34812  0.63518  0.02273  1.0000
  C   C584      1.0  0.46872  0.87101  0.46742  1.0000
  N   N41       1.0  0.45072  0.85657  0.47276  1.0000
  H   H710      1.0  0.34507  0.98371  0.46084  1.0000
  C   C585      1.0  0.32728  0.81720  0.25208  1.0000
  C   C586      1.0  0.45599  0.83524  0.46383  1.0000
  C   C587      1.0  0.43730  0.60116  0.17628  1.0000
  H   H711      1.0  0.35194  0.52569  0.13963  1.0000
  H   H712      1.0  0.44230  0.82444  0.46656  1.0000
  C   C588      1.0  0.37514  0.98248  0.38485  1.0000
  C   C589      1.0  0.43058  0.86505  0.46382  1.0000
  H   H713      1.0  0.47292  0.87965  0.35353  1.0000
  C   C590      1.0  0.47778  0.97005  0.37532  1.0000
  C   C591      1.0  0.44629  0.58165  0.18575  1.0000
  C   C592      1.0  0.46857  0.58092  0.18805  1.0000
  H   H714      1.0  0.45783  0.60709  0.03060  1.0000
  C   C593      1.0  0.44087  0.96091  0.38100  1.0000
  H   H715      1.0  0.30252  0.81194  0.28917  1.0000
  C   C594      1.0  0.47805  0.89923  0.39870  1.0000
  C   C595      1.0  0.34503  0.57504  0.00612  1.0000
  C   C596      1.0  0.31596  0.80897  0.23584  1.0000
  H   H716      1.0  0.40591  0.57092  0.17462  1.0000
  S   S168      1.0  0.25762  0.82818  0.23022  1.0000
  H   H717      1.0  0.47665  0.91647  0.39520  1.0000
  C   C597      1.0  0.30965  0.98888  0.29102  1.0000
  C   C598      1.0  0.33440  0.53834  0.01484  1.0000
  H   H718      1.0  0.36354  0.61468  0.00938  1.0000
  C   C599      1.0  0.48912  0.57510  0.13552  1.0000
  C   C600      1.0  0.37731  0.99379  0.42136  1.0000
  C   C601      1.0  0.34583  0.97705  0.47749  1.0000
  H   H719      1.0  0.30681  0.61062  0.03439  1.0000
  H   H720      1.0  0.48149  0.92082  0.44348  1.0000
  C   C602      1.0  0.40090  0.56124  0.01130  1.0000
  C   C603      1.0  0.33831  0.58081  0.02758  1.0000
  H   H721      1.0  0.48082  0.81187  0.34571  1.0000
  H   H722      1.0  0.28580  0.82212  0.26833  1.0000
  N   N42       1.0  0.34044  0.60273  0.03481  1.0000
  H   H723      1.0  0.48591  0.63294  0.10788  1.0000
  C   C604      1.0  0.25331  0.70566  0.20229  1.0000
  C   C605      1.0  0.31985  0.61099  0.04536  1.0000
  C   C606      1.0  0.32810  0.54332  0.03611  1.0000
  H   H724      1.0  0.25223  0.67435  0.14805  1.0000
  H   H725      1.0  0.41771  0.85334  0.46696  1.0000
  C   C607      1.0  0.27784  0.98355  0.34574  1.0000
  H   H726      1.0  0.37146  0.51801  0.06618  1.0000
  H   H727      1.0  0.43699  0.55089  0.15994  1.0000
  H   H728      1.0  0.34300  0.94430  0.46938  1.0000
  C   C608      1.0  0.48333  0.86537  0.35169  1.0000
  C   C609      1.0  0.47453  0.84565  0.34948  1.0000
  S   S169      1.0  0.26142  0.74964  0.10793  1.0000
  C   C610      1.0  0.35658  0.60167  0.05087  1.0000
  C   C611      1.0  0.45173  0.99507  0.39341  1.0000
  H   H729      1.0  0.35213  0.59077  0.06543  1.0000
  H   H730      1.0  0.25572  0.98226  0.32124  1.0000
  H   H731      1.0  0.35769  0.81260  0.26715  1.0000
  C   C612      1.0  0.25604  0.79826  0.19995  1.0000
  C   C613      1.0  0.34793  0.80768  0.25503  1.0000
  H   H732      1.0  0.29040  0.94424  0.27203  1.0000
  H   H733      1.0  0.32424  0.85597  0.28959  1.0000
  H   H734      1.0  0.33596  0.62005  0.00387  1.0000
  H   H735      1.0  0.39584  0.54519  0.00939  1.0000
  H   H736      1.0  0.32238  0.99243  0.30061  1.0000
  C   C614      1.0  0.41249  0.60328  0.01642  1.0000
  H   H737      1.0  0.41661  0.61962  0.01857  1.0000
  C   C615      1.0  0.46175  0.95595  0.37302  1.0000
  S   S170      1.0  0.26025  0.88752  0.25223  1.0000
  C   C616      1.0  0.37404  0.99883  0.39943  1.0000
  C   C617      1.0  0.37941  0.88504  0.49434  1.0000
  H   H738      1.0  0.42838  0.94986  0.37934  1.0000
  Fe  Fe85      1.0  0.25814  0.87896  0.28831  1.0000
  C   C618      1.0  0.49793  0.88944  0.40280  1.0000
  H   H739      1.0  0.38480  0.51313  0.03176  1.0000
  C   C619      1.0  0.35969  0.50987  0.14180  1.0000
  H   H740      1.0  0.49269  0.84879  0.48139  1.0000
  H   H741      1.0  0.46954  0.82641  0.47131  1.0000
  H   H742      1.0  0.26436  0.64808  0.17594  1.0000
  C   C620      1.0  0.44983  0.61884  0.16995  1.0000
  C   C621      1.0  0.44663  0.85343  0.49674  1.0000
  C   C622      1.0  0.34463  0.95492  0.48226  1.0000
  H   H743      1.0  0.41952  0.98315  0.39712  1.0000
  C   C623      1.0  0.34876  0.99068  0.49389  1.0000
  H   H744      1.0  0.26616  0.68371  0.17932  1.0000
  C   C624      1.0  0.26744  0.97333  0.33062  1.0000
  H   H745      1.0  0.28834  0.68641  0.00418  1.0000
  H   H746      1.0  0.27399  0.00042  0.34823  1.0000
  H   H747      1.0  0.49408  0.96595  0.36936  1.0000
  H   H748      1.0  0.49805  0.59754  0.18287  1.0000
  H   H749      1.0  0.34766  0.50354  0.07369  1.0000
  C   C625      1.0  0.36521  0.50302  0.07473  1.0000
  Fe  Fe86      1.0  0.41084  0.59094  0.90151  1.0000
  S   S171      1.0  0.41601  0.57543  0.93443  1.0000
  S   S172      1.0  0.44097  0.59148  0.87913  1.0000
  Fe  Fe87      1.0  0.36332  0.59881  0.91257  1.0000
  S   S173      1.0  0.36495  0.58352  0.94645  1.0000
  S   S174      1.0  0.32993  0.61010  0.90448  1.0000
  Fe  Fe88      1.0  0.39435  0.60215  0.94656  1.0000
  H   H750      1.0  0.35054  0.83905  0.78464  1.0000
  Fe  Fe89      1.0  0.38645  0.55785  0.93127  1.0000
  C   C626      1.0  0.35780  0.87323  0.73994  1.0000
  S   S175      1.0  0.39140  0.61952  0.91387  1.0000
  S   S176      1.0  0.38258  0.57135  0.89709  1.0000
  Fe  Fe90      1.0  0.38921  0.86808  0.62889  1.0000
  S   S177      1.0  0.37624  0.87842  0.59696  1.0000
  S   S178      1.0  0.36757  0.84998  0.65446  1.0000
  Fe  Fe91      1.0  0.43242  0.88714  0.61491  1.0000
  S   S179      1.0  0.42262  0.89932  0.58205  1.0000
  S   S180      1.0  0.46374  0.89822  0.62429  1.0000
  Fe  Fe92      1.0  0.39178  0.90947  0.59999  1.0000
  S   S181      1.0  0.37551  0.94125  0.59020  1.0000
  Fe  Fe93      1.0  0.40801  0.86728  0.58177  1.0000
  S   S182      1.0  0.41008  0.84881  0.55151  1.0000
  S   S183      1.0  0.40257  0.90009  0.63307  1.0000
  S   S184      1.0  0.42016  0.85399  0.61349  1.0000
  H   H751      1.0  0.44207  0.61866  0.91492  1.0000
  S   S185      1.0  0.29603  0.90288  0.70998  1.0000
  S   S186      1.0  0.29682  0.70853  0.89885  1.0000
  C   C627      1.0  0.37737  0.99833  0.53328  1.0000
  Fe  Fe94      1.0  0.26191  0.71946  0.89889  1.0000
  H   H752      1.0  0.39309  0.86290  0.69664  1.0000
  C   C628      1.0  0.34767  0.86471  0.66983  1.0000
  C   C629      1.0  0.34797  0.88714  0.66992  1.0000
  C   C630      1.0  0.33206  0.89851  0.68241  1.0000
  C   C631      1.0  0.31561  0.88762  0.69474  1.0000
  C   C632      1.0  0.31512  0.86519  0.69445  1.0000
  C   C633      1.0  0.33117  0.85378  0.68209  1.0000
  H   H753      1.0  0.36060  0.89573  0.66061  1.0000
  H   H754      1.0  0.33259  0.91585  0.68259  1.0000
  H   H755      1.0  0.30238  0.85665  0.70366  1.0000
  H   H756      1.0  0.33081  0.83642  0.68198  1.0000
  C   C634      1.0  0.29302  0.62812  0.96696  1.0000
  H   H757      1.0  0.32825  0.98475  0.55519  1.0000
  C   C635      1.0  0.38363  0.95626  0.62924  1.0000
  C   C636      1.0  0.38137  0.96124  0.60709  1.0000
  H   H758      1.0  0.45603  0.99018  0.65869  1.0000
  C   C637      1.0  0.31242  0.00101  0.70061  1.0000
  C   C638      1.0  0.47520  0.61974  0.92092  1.0000
  H   H759      1.0  0.38068  0.94025  0.63641  1.0000
  C   C639      1.0  0.46601  0.50570  0.90815  1.0000
  C   C640      1.0  0.34907  0.95979  0.52010  1.0000
  C   C641      1.0  0.39740  0.86273  0.53006  1.0000
  H   H760      1.0  0.38283  0.98622  0.58109  1.0000
  N   N43       1.0  0.28344  0.68880  0.97003  1.0000
  C   C642      1.0  0.31901  0.82974  0.76022  1.0000
  C   C643      1.0  0.38486  0.89621  0.51181  1.0000
  C   C644      1.0  0.39377  0.88509  0.52965  1.0000
  C   C645      1.0  0.30454  0.96321  0.70145  1.0000
  C   C646      1.0  0.27526  0.68964  0.99322  1.0000
  H   H761      1.0  0.28386  0.61372  0.96929  1.0000
  H   H762      1.0  0.39809  0.89388  0.54295  1.0000
  C   C647      1.0  0.48710  0.88152  0.62437  1.0000
  H   H763      1.0  0.38528  0.51980  0.89919  1.0000
  H   H764      1.0  0.47333  0.85327  0.61424  1.0000
  C   C648      1.0  0.32108  0.63755  0.90423  1.0000
  C   C649      1.0  0.33540  0.65420  0.90203  1.0000
  C   C650      1.0  0.32774  0.67587  0.90065  1.0000
  C   C651      1.0  0.30575  0.68110  0.90168  1.0000
  C   C652      1.0  0.29145  0.66446  0.90455  1.0000
  C   C653      1.0  0.29908  0.64279  0.90556  1.0000
  H   H765      1.0  0.35237  0.65037  0.90089  1.0000
  H   H766      1.0  0.33895  0.68864  0.89849  1.0000
  H   H767      1.0  0.27454  0.66825  0.90581  1.0000
  H   H768      1.0  0.28792  0.62999  0.90734  1.0000
  C   C654      1.0  0.28374  0.62516  0.84592  1.0000
  H   H769      1.0  0.34425  0.86756  0.78397  1.0000
  H   H770      1.0  0.32204  0.61084  0.95623  1.0000
  H   H771      1.0  0.33016  0.81573  0.76369  1.0000
  H   H772      1.0  0.26911  0.61735  0.84424  1.0000
  H   H773      1.0  0.43095  0.54777  0.89402  1.0000
  H   H774      1.0  0.31226  0.82810  0.74438  1.0000
  C   C655      1.0  0.38083  0.86015  0.70987  1.0000
  C   C656      1.0  0.46224  0.60027  0.89243  1.0000
  S   S187      1.0  0.26034  0.85556  0.74364  1.0000
  C   C657      1.0  0.45824  0.61324  0.91000  1.0000
  C   C658      1.0  0.35467  0.83693  0.72915  1.0000
  H   H775      1.0  0.35323  0.88645  0.75001  1.0000
  H   H776      1.0  0.47190  0.63036  0.93395  1.0000
  C   C659      1.0  0.25597  0.82958  0.82364  1.0000
  H   H777      1.0  0.34767  0.82139  0.73011  1.0000
  H   H778      1.0  0.38247  0.91356  0.51142  1.0000
  H   H779      1.0  0.45979  0.99578  0.59886  1.0000
  C   C660      1.0  0.33767  0.85164  0.78199  1.0000
  H   H780      1.0  0.48651  0.58341  0.87256  1.0000
  H   H781      1.0  0.38156  0.89198  0.72089  1.0000
  S   S188      1.0  0.27063  0.84420  0.80216  1.0000
  H   H782      1.0  0.30585  0.67348  0.85152  1.0000
  C   C661      1.0  0.48328  0.59342  0.88615  1.0000
  H   H783      1.0  0.29907  0.86585  0.76985  1.0000
  H   H784      1.0  0.30684  0.86825  0.74116  1.0000
  H   H785      1.0  0.37613  0.82792  0.70178  1.0000
  C   C662      1.0  0.48771  0.86019  0.61846  1.0000
  H   H786      1.0  0.31854  0.88432  0.75937  1.0000
  H   H787      1.0  0.48963  0.59621  0.96174  1.0000
  C   C663      1.0  0.48222  0.97157  0.62669  1.0000
  N   N44       1.0  0.31323  0.89190  0.61213  1.0000
  C   C664      1.0  0.28987  0.89652  0.61399  1.0000
  C   C665      1.0  0.31796  0.87183  0.62571  1.0000
  C   C666      1.0  0.32340  0.90973  0.62159  1.0000
  C   C667      1.0  0.32066  0.88917  0.58902  1.0000
  C   C668      1.0  0.33405  0.90395  0.57642  1.0000
  C   C669      1.0  0.31428  0.87141  0.57830  1.0000
  C   C670      1.0  0.34159  0.90035  0.55497  1.0000
  H   H788      1.0  0.43286  0.97701  0.65335  1.0000
  H   H789      1.0  0.34176  0.87950  0.52866  1.0000
  H   H790      1.0  0.28560  0.91132  0.60376  1.0000
  H   H791      1.0  0.28104  0.88307  0.60867  1.0000
  H   H792      1.0  0.28369  0.89904  0.63113  1.0000
  H   H793      1.0  0.33531  0.86719  0.62406  1.0000
  H   H794      1.0  0.30926  0.85785  0.62152  1.0000
  H   H795      1.0  0.31331  0.87373  0.64329  1.0000
  H   H796      1.0  0.31932  0.92572  0.61339  1.0000
  H   H797      1.0  0.31809  0.91086  0.63916  1.0000
  H   H798      1.0  0.34110  0.90726  0.62053  1.0000
  H   H799      1.0  0.33955  0.91807  0.58296  1.0000
  H   H800      1.0  0.30359  0.85983  0.58653  1.0000
  H   H801      1.0  0.32652  0.67884  0.95577  1.0000
  C   C671      1.0  0.30239  0.61208  0.84684  1.0000
  C   C672      1.0  0.46119  0.61264  0.98929  1.0000
  C   C673      1.0  0.48579  0.86493  0.56219  1.0000
  H   H802      1.0  0.28845  0.72306  0.96682  1.0000
  N   N45       1.0  0.35403  0.99681  0.53313  1.0000
  H   H803      1.0  0.26192  0.78433  0.85789  1.0000
  H   H804      1.0  0.48662  0.53624  0.87897  1.0000
  C   C674      1.0  0.28311  0.64834  0.97051  1.0000
  S   S189      1.0  0.26628  0.90066  0.76700  1.0000
  C   C675      1.0  0.32259  0.64333  0.85034  1.0000
  H   H805      1.0  0.45326  0.82627  0.55005  1.0000
  H   H806      1.0  0.48479  0.93939  0.61386  1.0000
  H   H807      1.0  0.25256  0.68019  0.96097  1.0000
  C   C676      1.0  0.25280  0.98633  0.78473  1.0000
  H   H808      1.0  0.48584  0.64710  0.99180  1.0000
  H   H809      1.0  0.49063  0.57898  0.98626  1.0000
  H   H810      1.0  0.45321  0.95519  0.60187  1.0000
  H   H811      1.0  0.45585  0.96117  0.66125  1.0000
  H   H812      1.0  0.37824  0.51182  0.99346  1.0000
  C   C677      1.0  0.34726  0.85344  0.74309  1.0000
  C   C678      1.0  0.39167  0.85149  0.51273  1.0000
  H   H813      1.0  0.30540  0.82836  0.77300  1.0000
  H   H814      1.0  0.31710  0.85413  0.54905  1.0000
  H   H815      1.0  0.45007  0.94157  0.62880  1.0000
  H   H816      1.0  0.35108  0.95202  0.53601  1.0000
  C   C679      1.0  0.39284  0.99311  0.63321  1.0000
  N   N46       1.0  0.32955  0.85058  0.76032  1.0000
  C   C680      1.0  0.31288  0.86800  0.75753  1.0000
  H   H817      1.0  0.30357  0.70794  0.94687  1.0000
  H   H818      1.0  0.45738  0.61504  0.97196  1.0000
  H   H819      1.0  0.32473  0.84915  0.79537  1.0000
  H   H820      1.0  0.26740  0.98622  0.79274  1.0000
  Fe  Fe95      1.0  0.25504  0.86723  0.77740  1.0000
  C   C681      1.0  0.32177  0.86807  0.55676  1.0000
  C   C682      1.0  0.32174  0.62114  0.84916  1.0000
  C   C683      1.0  0.31456  0.62642  0.95978  1.0000
  C   C684      1.0  0.31621  0.98063  0.69248  1.0000
  C   C685      1.0  0.43563  0.53117  0.90044  1.0000
  H   H821      1.0  0.39152  0.96820  0.65933  1.0000
  C   C686      1.0  0.31655  0.66522  0.95954  1.0000
  H   H822      1.0  0.39416  0.83414  0.51313  1.0000
  H   H823      1.0  0.26281  0.67778  0.99813  1.0000
  C   C687      1.0  0.38948  0.97216  0.64228  1.0000
  C   C688      1.0  0.40546  0.59809  0.99669  1.0000
  C   C689      1.0  0.26521  0.69187  0.95630  1.0000
  C   C690      1.0  0.37123  0.84036  0.71284  1.0000
  H   H824      1.0  0.45240  0.85918  0.56995  1.0000
  C   C691      1.0  0.25446  0.65999  0.82640  1.0000
  H   H825      1.0  0.32833  0.97832  0.67916  1.0000
  H   H826      1.0  0.26575  0.66573  0.81256  1.0000
  C   C692      1.0  0.37419  0.87653  0.72344  1.0000
  C   C693      1.0  0.45263  0.99530  0.61598  1.0000
  C   C694      1.0  0.46578  0.54283  0.91695  1.0000
  H   H827      1.0  0.48724  0.63732  0.96506  1.0000
  H   H828      1.0  0.28078  0.80466  0.82655  1.0000
  S   S190      1.0  0.40251  0.61818  0.97580  1.0000
  H   H829      1.0  0.33764  0.65020  0.85270  1.0000
  Fe  Fe96      1.0  0.26899  0.88948  0.73302  1.0000
  C   C695      1.0  0.46725  0.85365  0.56146  1.0000
  N   N47       1.0  0.45911  0.52809  0.90128  1.0000
  H   H830      1.0  0.42697  0.52911  0.91690  1.0000
  H   H831      1.0  0.42942  0.51984  0.88963  1.0000
  C   C696      1.0  0.45059  0.97584  0.65135  1.0000
  C   C697      1.0  0.26659  0.68424  0.85053  1.0000
  C   C698      1.0  0.30403  0.65656  0.84969  1.0000
  H   H832      1.0  0.38528  0.98222  0.53697  1.0000
  C   C699      1.0  0.34535  0.98842  0.55513  1.0000
  S   S191      1.0  0.38677  0.52335  0.94591  1.0000
  H   H833      1.0  0.35220  0.58633  0.99388  1.0000
  C   C700      1.0  0.49477  0.59512  0.97860  1.0000
  C   C701      1.0  0.28905  0.96606  0.71860  1.0000
  H   H834      1.0  0.48425  0.87894  0.57167  1.0000
  C   C702      1.0  0.40020  0.57695  0.99397  1.0000
  H   H835      1.0  0.39488  0.57273  0.97879  1.0000
  H   H836      1.0  0.30182  0.59474  0.84622  1.0000
  H   H837      1.0  0.25718  0.70810  0.95754  1.0000
  C   C703      1.0  0.28392  0.64779  0.84763  1.0000
  H   H838      1.0  0.25122  0.69379  0.85026  1.0000
  C   C704      1.0  0.48669  0.82772  0.53931  1.0000
  C   C705      1.0  0.49621  0.61259  0.91496  1.0000
  C   C706      1.0  0.33558  0.88239  0.54519  1.0000
  H   H839      1.0  0.35262  0.91128  0.54608  1.0000
  C   C707      1.0  0.38426  0.98230  0.59819  1.0000
  C   C708      1.0  0.26519  0.81047  0.83297  1.0000
  C   C709      1.0  0.29450  0.66757  0.96663  1.0000
  H   H840      1.0  0.27289  0.68645  0.86646  1.0000
  H   H841      1.0  0.31096  0.70676  0.97471  1.0000
  H   H842      1.0  0.48343  0.54286  0.91705  1.0000
  H   H843      1.0  0.35432  0.97369  0.56123  1.0000
  H   H844      1.0  0.45898  0.53827  0.93380  1.0000
  C   C710      1.0  0.44769  0.95723  0.61922  1.0000
  H   H845      1.0  0.26634  0.64886  0.97595  1.0000
  H   H846      1.0  0.33605  0.61089  0.85065  1.0000
  H   H847      1.0  0.46092  0.84682  0.50464  1.0000
  H   H848      1.0  0.28005  0.95240  0.72557  1.0000
  H   H849      1.0  0.30751  0.94743  0.69516  1.0000
  H   H850      1.0  0.44158  0.86892  0.50406  1.0000
  N   N48       1.0  0.45870  0.97477  0.62817  1.0000
  C   C711      1.0  0.46771  0.83504  0.55020  1.0000
  C   C712      1.0  0.49218  0.63366  0.98182  1.0000
  C   C713      1.0  0.32635  0.64488  0.95636  1.0000
  C   C714      1.0  0.25451  0.79889  0.85073  1.0000
  H   H851      1.0  0.34302  0.64346  0.95027  1.0000
  C   C715      1.0  0.29732  0.70736  0.96436  1.0000
  H   H852      1.0  0.43012  0.96049  0.61985  1.0000
  H   H853      1.0  0.25345  0.95155  0.78381  1.0000
  H   H854      1.0  0.27067  0.69024  0.93886  1.0000
  C   C716      1.0  0.34307  0.55408  0.99995  1.0000
  C   C717      1.0  0.49311  0.95269  0.61893  1.0000
  H   H855      1.0  0.46613  0.52265  0.86733  1.0000
  C   C718      1.0  0.28517  0.98633  0.72689  1.0000
  H   H856      1.0  0.46020  0.55977  0.91289  1.0000
  C   C719      1.0  0.49498  0.98754  0.63358  1.0000
  N   N49       1.0  0.48450  0.61261  0.99147  1.0000
  C   C720      1.0  0.38988  0.99823  0.61124  1.0000
  H   H857      1.0  0.46273  0.55056  0.87293  1.0000
  H   H858      1.0  0.43505  0.99752  0.61548  1.0000
  N   N50       1.0  0.26378  0.66113  0.84749  1.0000
  H   H859      1.0  0.26772  0.70572  0.99669  1.0000
  H   H860      1.0  0.25523  0.65185  0.88122  1.0000
  H   H861      1.0  0.45242  0.62600  0.99778  1.0000
  H   H862      1.0  0.34664  0.00021  0.56765  1.0000
  H   H863      1.0  0.27746  0.69178  0.83729  1.0000
  C   C721      1.0  0.46912  0.53450  0.87923  1.0000
  H   H864      1.0  0.27308  0.98765  0.74033  1.0000
  C   C722      1.0  0.34992  0.98254  0.51589  1.0000
  H   H865      1.0  0.34851  0.54994  0.98354  1.0000
  H   H866      1.0  0.45439  0.59702  0.99566  1.0000
  H   H867      1.0  0.34572  0.92898  0.50689  1.0000
  H   H868      1.0  0.48704  0.81310  0.53074  1.0000
  C   C723      1.0  0.38720  0.50378  0.90700  1.0000
  C   C724      1.0  0.34622  0.94631  0.50350  1.0000
  H   H869      1.0  0.25036  0.64334  0.82352  1.0000
  S   S192      1.0  0.24900  0.74530  0.92083  1.0000
  H   H870      1.0  0.48775  0.00199  0.64021  1.0000
  Fe  Fe97      1.0  0.59159  0.36914  0.11988  1.0000
  S   S193      1.0  0.61310  0.39710  0.11328  1.0000
  S   S194      1.0  0.60165  0.33579  0.13390  1.0000
  Fe  Fe98      1.0  0.55436  0.39301  0.09808  1.0000
  S   S195      1.0  0.57336  0.42227  0.08933  1.0000
  S   S196      1.0  0.52213  0.39681  0.08446  1.0000
  Fe  Fe99      1.0  0.60046  0.39939  0.08038  1.0000
  S   S197      1.0  0.62055  0.40350  0.04885  1.0000
  Fe  Fe100     1.0  0.58375  0.41759  0.12292  1.0000
  S   S198      1.0  0.58041  0.44776  0.14133  1.0000
  S   S199      1.0  0.58083  0.37030  0.08612  1.0000
  S   S200      1.0  0.56298  0.38947  0.13266  1.0000
  Fe  Fe101     1.0  0.58612  0.06389  0.43790  1.0000
  S   S201      1.0  0.57581  0.09794  0.42844  1.0000
  S   S202      1.0  0.60008  0.05171  0.46932  1.0000
  Fe  Fe102     1.0  0.57409  0.04855  0.39532  1.0000
  S   S203      1.0  0.56279  0.08147  0.38241  1.0000
  S   S204      1.0  0.57036  0.01891  0.37780  1.0000
  Fe  Fe103     1.0  0.59261  0.09208  0.39547  1.0000
  S   S205      1.0  0.61405  0.11832  0.38007  1.0000
  Fe  Fe104     1.0  0.54717  0.08404  0.41631  1.0000
  S   S206      1.0  0.51425  0.09747  0.42768  1.0000
  S   S207      1.0  0.60495  0.05895  0.40590  1.0000
  S   S208      1.0  0.55642  0.05026  0.42819  1.0000
  Fe  Fe105     1.0  0.71164  0.26505  0.12059  1.0000
  H   H871      1.0  0.71613  0.29884  0.19085  1.0000
  S   S209      1.0  0.69762  0.29953  0.11831  1.0000
  Fe  Fe106     1.0  0.71415  0.21601  0.13150  1.0000
  S   S210      1.0  0.69594  0.18580  0.14123  1.0000
  H   H872      1.0  0.71602  0.18773  0.32245  1.0000
  H   H873      1.0  0.65608  0.14385  0.43612  1.0000
  H   H874      1.0  0.59811  0.00343  0.47572  1.0000
  S   S211      1.0  0.70626  0.23677  0.10128  1.0000
  S   S212      1.0  0.70586  0.07895  0.27044  1.0000
  Fe  Fe107     1.0  0.71869  0.10072  0.29305  1.0000
  S   S213      1.0  0.70175  0.11931  0.32030  1.0000
  H   H875      1.0  0.60248  0.12400  0.45224  1.0000
  C   C725      1.0  0.64439  0.48898  0.13509  1.0000
  C   C726      1.0  0.70083  0.16520  0.16188  1.0000
  C   C727      1.0  0.70599  0.13079  0.19400  1.0000
  C   C728      1.0  0.69364  0.12868  0.17660  1.0000
  C   C729      1.0  0.69099  0.14569  0.16083  1.0000
  H   H876      1.0  0.68592  0.11372  0.17530  1.0000
  H   H877      1.0  0.68118  0.14367  0.14766  1.0000
  C   C730      1.0  0.63350  0.09555  0.43608  1.0000
  H   H878      1.0  0.65095  0.33000  0.01181  1.0000
  H   H879      1.0  0.63375  0.27690  0.03440  1.0000
  H   H880      1.0  0.72907  0.14433  0.10065  1.0000
  Fe  Fe108     1.0  0.74163  0.23547  0.09304  1.0000
  C   C731      1.0  0.63851  0.11642  0.36362  1.0000
  C   C732      1.0  0.64655  0.09763  0.35379  1.0000
  C   C733      1.0  0.66580  0.09800  0.33998  1.0000
  C   C734      1.0  0.67710  0.11705  0.33636  1.0000
  C   C735      1.0  0.66904  0.13548  0.34648  1.0000
  C   C736      1.0  0.64989  0.13523  0.35975  1.0000
  H   H881      1.0  0.63783  0.08300  0.35659  1.0000
  H   H882      1.0  0.67198  0.08357  0.33243  1.0000
  H   H883      1.0  0.67757  0.15024  0.34388  1.0000
  H   H884      1.0  0.64380  0.14985  0.36703  1.0000
  H   H885      1.0  0.63644  0.31659  0.08657  1.0000
  H   H886      1.0  0.54155  0.47696  0.13709  1.0000
  C   C737      1.0  0.64082  0.13451  0.47924  1.0000
  H   H887      1.0  0.63294  0.35787  0.02832  1.0000
  C   C738      1.0  0.61615  0.13016  0.44128  1.0000
  C   C739      1.0  0.63069  0.48498  0.15370  1.0000
  C   C740      1.0  0.60834  0.48885  0.09449  1.0000
  C   C741      1.0  0.72308  0.22798  0.03392  1.0000
  C   C742      1.0  0.60316  0.48576  0.02080  1.0000
  H   H888      1.0  0.60775  0.01354  0.40182  1.0000
  N   N51       1.0  0.63594  0.11686  0.44475  1.0000
  C   C743      1.0  0.62846  0.32585  0.13052  1.0000
  C   C744      1.0  0.64505  0.33966  0.12420  1.0000
  C   C745      1.0  0.66615  0.33127  0.12102  1.0000
  C   C746      1.0  0.67088  0.30899  0.12381  1.0000
  C   C747      1.0  0.65435  0.29512  0.13022  1.0000
  C   C748      1.0  0.63323  0.30357  0.13371  1.0000
  H   H889      1.0  0.64163  0.35683  0.12189  1.0000
  H   H890      1.0  0.67886  0.34212  0.11617  1.0000
  H   H891      1.0  0.65780  0.27793  0.13246  1.0000
  H   H892      1.0  0.62048  0.29277  0.13867  1.0000
  C   C749      1.0  0.55160  0.47491  0.07206  1.0000
  C   C750      1.0  0.54707  0.46318  0.05479  1.0000
  H   H893      1.0  0.69736  0.22253  0.01445  1.0000
  C   C751      1.0  0.58885  0.47124  0.12597  1.0000
  C   C752      1.0  0.60091  0.46999  0.10597  1.0000
  C   C753      1.0  0.64195  0.09546  0.48069  1.0000
  N   N52       1.0  0.50816  0.45088  0.13453  1.0000
  H   H894      1.0  0.73414  0.32336  0.20992  1.0000
  C   C754      1.0  0.71866  0.16604  0.03903  1.0000
  H   H895      1.0  0.60510  0.45444  0.09964  1.0000
  H   H896      1.0  0.61446  0.49817  0.18203  1.0000
  C   C755      1.0  0.71328  0.16761  0.17931  1.0000
  H   H897      1.0  0.71306  0.22746  0.04904  1.0000
  C   C756      1.0  0.58174  0.40161  0.03265  1.0000
  C   C757      1.0  0.60389  0.40075  0.02809  1.0000
  S   S214      1.0  0.73927  0.02268  0.28359  1.0000
  H   H898      1.0  0.57477  0.40412  0.04885  1.0000
  N   N53       1.0  0.65575  0.12836  0.25711  1.0000
  C   C758      1.0  0.65545  0.10519  0.25292  1.0000
  C   C759      1.0  0.65539  0.14098  0.23576  1.0000
  C   C760      1.0  0.67614  0.13231  0.26613  1.0000
  C   C761      1.0  0.63770  0.13397  0.27299  1.0000
  C   C762      1.0  0.62171  0.15021  0.26827  1.0000
  C   C763      1.0  0.63572  0.12304  0.29400  1.0000
  C   C764      1.0  0.60483  0.15497  0.28370  1.0000
  C   C765      1.0  0.61871  0.12784  0.30921  1.0000
  C   C766      1.0  0.60333  0.14379  0.30411  1.0000
  H   H899      1.0  0.64000  0.10134  0.24698  1.0000
  H   H900      1.0  0.66839  0.10054  0.24042  1.0000
  H   H901      1.0  0.65792  0.09438  0.26769  1.0000
  H   H902      1.0  0.64074  0.13830  0.22766  1.0000
  H   H903      1.0  0.66910  0.13616  0.22421  1.0000
  H   H904      1.0  0.65667  0.15854  0.23746  1.0000
  H   H905      1.0  0.67662  0.14929  0.27056  1.0000
  H   H906      1.0  0.67880  0.12176  0.28103  1.0000
  H   H907      1.0  0.69006  0.12916  0.25421  1.0000
  H   H908      1.0  0.62187  0.15951  0.25282  1.0000
  H   H909      1.0  0.64736  0.11068  0.29890  1.0000
  H   H910      1.0  0.59280  0.16740  0.27984  1.0000
  H   H911      1.0  0.61742  0.11919  0.32513  1.0000
  H   H912      1.0  0.59025  0.14746  0.31606  1.0000
  H   H913      1.0  0.67091  0.31210  0.07667  1.0000
  H   H914      1.0  0.65173  0.12812  0.41395  1.0000
  H   H915      1.0  0.65769  0.36520  0.05441  1.0000
  C   C767      1.0  0.66091  0.32134  0.02318  1.0000
  H   H916      1.0  0.64117  0.08005  0.47386  1.0000
  H   H917      1.0  0.70446  0.18245  0.07828  1.0000
  S   S215      1.0  0.73495  0.12226  0.26630  1.0000
  H   H918      1.0  0.72061  0.18278  0.18052  1.0000
  H   H919      1.0  0.55123  0.40019  0.01975  1.0000
  Fe  Fe109     1.0  0.72438  0.09898  0.24387  1.0000
  H   H920      1.0  0.54066  0.46452  0.02124  1.0000
  H   H921      1.0  0.71374  0.29331  0.16319  1.0000
  H   H922      1.0  0.60958  0.49079  0.03526  1.0000
  H   H923      1.0  0.73345  0.27870  0.17850  1.0000
  H   H924      1.0  0.74004  0.21830  0.31549  1.0000
  H   H925      1.0  0.63954  0.15027  0.47076  1.0000
  C   C768      1.0  0.67205  0.31120  0.05919  1.0000
  C   C769      1.0  0.54194  0.05890  0.49218  1.0000
  H   H926      1.0  0.61351  0.33292  0.08110  1.0000
  H   H927      1.0  0.51220  0.42823  0.16228  1.0000
  H   H928      1.0  0.51372  0.37670  0.12836  1.0000
  H   H929      1.0  0.69967  0.28942  0.06055  1.0000
  C   C770      1.0  0.52386  0.43948  0.11965  1.0000
  C   C771      1.0  0.74500  0.23053  0.03408  1.0000
  C   C772      1.0  0.55294  0.49728  0.06927  1.0000
  H   H930      1.0  0.54598  0.44578  0.05699  1.0000
  H   H931      1.0  0.63599  0.36441  0.07520  1.0000
  H   H932      1.0  0.55432  0.46668  0.08770  1.0000
  C   C773      1.0  0.52679  0.06997  0.48003  1.0000
  H   H933      1.0  0.63037  0.09713  0.41856  1.0000
  H   H934      1.0  0.61813  0.48773  0.07931  1.0000
  H   H935      1.0  0.71262  0.14343  0.07889  1.0000
  H   H936      1.0  0.70448  0.16586  0.00847  1.0000
  H   H937      1.0  0.61333  0.29336  0.00441  1.0000
  C   C774      1.0  0.71415  0.22540  0.01417  1.0000
  C   C775      1.0  0.52750  0.48554  0.13153  1.0000
  C   C776      1.0  0.56836  0.39929  0.01614  1.0000
  S   S216      1.0  0.70757  0.10825  0.21328  1.0000
  C   C777      1.0  0.72544  0.29487  0.17546  1.0000
  H   H938      1.0  0.57474  0.49255  0.14975  1.0000
  S   S217      1.0  0.71597  0.24446  0.15135  1.0000
  H   H939      1.0  0.74130  0.34552  0.16036  1.0000
  C   C778      1.0  0.72917  0.14622  0.08255  1.0000
  N   N54       1.0  0.74126  0.31122  0.16790  1.0000
  H   H940      1.0  0.61763  0.14736  0.44430  1.0000
  C   C779      1.0  0.65740  0.32296  0.04608  1.0000
  C   C780      1.0  0.73749  0.17320  0.00360  1.0000
  H   H941      1.0  0.72569  0.20082  0.07602  1.0000
  H   H942      1.0  0.61156  0.35589  0.04885  1.0000
  H   H943      1.0  0.61983  0.08710  0.44490  1.0000
  C   C781      1.0  0.71568  0.15045  0.19553  1.0000
  N   N55       1.0  0.63976  0.33646  0.05624  1.0000
  H   H944      1.0  0.54042  0.44422  0.12101  1.0000
  Fe  Fe110     1.0  0.73650  0.05882  0.27293  1.0000
  H   H945      1.0  0.61174  0.13014  0.42420  1.0000
  C   C782      1.0  0.59660  0.06693  0.49241  1.0000
  H   H946      1.0  0.70374  0.16237  0.04818  1.0000
  H   H947      1.0  0.72022  0.18410  0.10058  1.0000
  H   H948      1.0  0.64765  0.47653  0.12369  1.0000
  H   H949      1.0  0.62017  0.30946  0.06607  1.0000
  H   H950      1.0  0.53072  0.44897  0.15932  1.0000
  C   C783      1.0  0.65406  0.12712  0.43172  1.0000
  C   C784      1.0  0.62486  0.34629  0.04056  1.0000
  C   C785      1.0  0.58382  0.49148  0.13415  1.0000
  C   C786      1.0  0.64874  0.35430  0.06667  1.0000
  C   C787      1.0  0.50880  0.47445  0.12906  1.0000
  H   H951      1.0  0.61746  0.33386  0.03199  1.0000
  H   H952      1.0  0.50343  0.45513  0.16891  1.0000
  N   N56       1.0  0.73633  0.16776  0.07382  1.0000
  H   H953      1.0  0.73014  0.15161  0.33259  1.0000
  H   H954      1.0  0.49977  0.09215  0.48031  1.0000
  H   H955      1.0  0.62345  0.46946  0.15678  1.0000
  C   C788      1.0  0.67774  0.30835  0.01421  1.0000
  C   C789      1.0  0.73716  0.16942  0.04972  1.0000
  H   H956      1.0  0.65984  0.34836  0.07897  1.0000
  C   C790      1.0  0.62698  0.32326  0.07312  1.0000
  H   H957      1.0  0.52392  0.42169  0.12335  1.0000
  H   H958      1.0  0.73980  0.13313  0.07567  1.0000
  H   H959      1.0  0.72477  0.15250  0.20922  1.0000
  H   H960      1.0  0.52024  0.44264  0.10236  1.0000
  H   H961      1.0  0.74716  0.12044  0.32498  1.0000
  H   H962      1.0  0.50988  0.08128  0.38498  1.0000
  H   H963      1.0  0.66928  0.11773  0.43410  1.0000
  C   C791      1.0  0.68873  0.29820  0.05008  1.0000
  C   C792      1.0  0.63970  0.11544  0.46816  1.0000
  C   C793      1.0  0.72098  0.18446  0.08250  1.0000
  C   C794      1.0  0.58688  0.08765  0.49163  1.0000
  H   H964      1.0  0.60370  0.45214  0.03196  1.0000
  C   C795      1.0  0.69154  0.29671  0.02763  1.0000
  H   H965      1.0  0.64814  0.08491  0.43715  1.0000
  C   C796      1.0  0.65537  0.25854  0.01327  1.0000
  C   C797      1.0  0.72985  0.33256  0.16490  1.0000
  H   H966      1.0  0.58089  0.09457  0.47669  1.0000
  C   C798      1.0  0.54405  0.47382  0.03460  1.0000
  C   C799      1.0  0.59981  0.46404  0.01895  1.0000
  C   C800      1.0  0.61265  0.39717  0.00704  1.0000
  S   S218      1.0  0.74683  0.26498  0.11055  1.0000
  C   C801      1.0  0.51383  0.44568  0.15722  1.0000
  H   H967      1.0  0.55422  0.04873  0.48408  1.0000
  H   H968      1.0  0.72888  0.01284  0.23982  1.0000
  H   H969      1.0  0.71869  0.33273  0.15181  1.0000
  H   H970      1.0  0.66452  0.25163  0.02636  1.0000
  C   C802      1.0  0.51124  0.08341  0.49011  1.0000
  H   H971      1.0  0.71986  0.33700  0.17974  1.0000
  H   H972      1.0  0.73895  0.30605  0.13398  1.0000
  H   H973      1.0  0.70456  0.28664  0.02064  1.0000
  C   C803      1.0  0.63809  0.27281  0.01779  1.0000
  H   H974      1.0  0.52719  0.06829  0.46269  1.0000
  C   C804      1.0  0.71889  0.16795  0.01632  1.0000
  H   H975      1.0  0.74588  0.13119  0.36171  1.0000
  C   C805      1.0  0.62561  0.50122  0.16789  1.0000
  C   C806      1.0  0.64309  0.13366  0.50161  1.0000
  C   C807      1.0  0.73298  0.18510  0.32400  1.0000
  C   C808      1.0  0.74127  0.16439  0.32969  1.0000
  C   C809      1.0  0.54554  0.49623  0.03154  1.0000
  H   H976      1.0  0.50025  0.35046  0.02751  1.0000
  C   C810      1.0  0.59851  0.50091  0.00392  1.0000
  S   S219      1.0  0.74811  0.07965  0.29753  1.0000
  H   H977      1.0  0.62978  0.39631  0.00346  1.0000
  C   C811      1.0  0.74644  0.20230  0.32014  1.0000
  Fe  Fe111     1.0  0.56646  0.37870  0.89650  1.0000
  S   S220      1.0  0.60009  0.38461  0.88184  1.0000
  S   S221      1.0  0.53940  0.37082  0.87701  1.0000
  Fe  Fe112     1.0  0.57575  0.38931  0.94120  1.0000
  S   S222      1.0  0.60952  0.39627  0.93053  1.0000
  S   S223      1.0  0.55985  0.39414  0.97453  1.0000
  Fe  Fe113     1.0  0.59689  0.41389  0.90136  1.0000
  S   S224      1.0  0.61208  0.44581  0.89303  1.0000
  Fe  Fe114     1.0  0.61032  0.36628  0.91230  1.0000
  S   S225      1.0  0.64127  0.34709  0.91827  1.0000
  S   S226      1.0  0.56278  0.40947  0.91350  1.0000
  S   S227      1.0  0.57695  0.35795  0.92538  1.0000
  Fe  Fe115     1.0  0.61597  0.04714  0.60708  1.0000
  S   S228      1.0  0.62775  0.08055  0.59964  1.0000
  S   S229      1.0  0.63627  0.01715  0.60174  1.0000
  Fe  Fe116     1.0  0.57095  0.06257  0.62174  1.0000
  S   S230      1.0  0.57901  0.09722  0.61580  1.0000
  S   S231      1.0  0.53873  0.05003  0.63381  1.0000
  Fe  Fe117     1.0  0.59645  0.08692  0.58474  1.0000
  S   S232      1.0  0.58982  0.10555  0.55311  1.0000
  Fe  Fe118     1.0  0.60936  0.08740  0.63153  1.0000
  S   S233      1.0  0.61949  0.10554  0.65925  1.0000
  S   S234      1.0  0.58631  0.05286  0.58973  1.0000
  S   S235      1.0  0.59978  0.05345  0.63988  1.0000
  Fe  Fe119     1.0  0.72730  0.22348  0.93394  1.0000
  S   S236      1.0  0.70355  0.21165  0.91265  1.0000
  S   S237      1.0  0.71480  0.22105  0.97010  1.0000
  H   H978      1.0  0.63511  0.49617  0.93068  1.0000
  Fe  Fe120     1.0  0.70896  0.24243  0.89199  1.0000
  S   S238      1.0  0.68117  0.26164  0.87795  1.0000
  Fe  Fe121     1.0  0.73155  0.19765  0.89243  1.0000
  H   H979      1.0  0.69112  0.10021  0.84104  1.0000
  H   H980      1.0  0.69909  0.36271  0.89148  1.0000
  C   C812      1.0  0.74545  0.06531  0.83371  1.0000
  Fe  Fe122     1.0  0.72358  0.10776  0.77266  1.0000
  S   S239      1.0  0.73285  0.11986  0.73819  1.0000
  S   S240      1.0  0.70451  0.13052  0.79492  1.0000
  Fe  Fe123     1.0  0.72323  0.08791  0.72832  1.0000
  S   S241      1.0  0.70782  0.07759  0.69885  1.0000
  S   S242      1.0  0.71095  0.07722  0.76232  1.0000
  C   C813      1.0  0.71660  0.04402  0.85011  1.0000
  C   C814      1.0  0.71370  0.01454  0.70362  1.0000
  C   C815      1.0  0.51427  0.36798  0.89169  1.0000
  C   C816      1.0  0.72876  0.15640  0.85561  1.0000
  C   C817      1.0  0.71089  0.16619  0.84639  1.0000
  C   C818      1.0  0.70365  0.15815  0.82773  1.0000
  C   C819      1.0  0.71452  0.14067  0.81784  1.0000
  S   S243      1.0  0.73666  0.16382  0.88070  1.0000
  C   C820      1.0  0.59027  0.49445  0.98522  1.0000
  H   H981      1.0  0.70221  0.17944  0.85408  1.0000
  H   H982      1.0  0.68949  0.16545  0.82101  1.0000
  C   C821      1.0  0.74420  0.18269  0.78984  1.0000
  H   H983      1.0  0.49944  0.05479  0.55455  1.0000
  C   C822      1.0  0.64406  0.09781  0.67028  1.0000
  C   C823      1.0  0.64985  0.10761  0.68859  1.0000
  C   C824      1.0  0.66933  0.10174  0.69760  1.0000
  C   C825      1.0  0.68327  0.08614  0.68820  1.0000
  C   C826      1.0  0.67741  0.07635  0.66992  1.0000
  C   C827      1.0  0.65790  0.08205  0.66108  1.0000
  H   H984      1.0  0.63928  0.11985  0.69580  1.0000
  H   H985      1.0  0.67363  0.10940  0.71167  1.0000
  H   H986      1.0  0.68811  0.06436  0.66246  1.0000
  H   H987      1.0  0.65371  0.07445  0.64693  1.0000
  C   C828      1.0  0.59244  0.09054  0.52987  1.0000
  C   C829      1.0  0.60192  0.06974  0.53067  1.0000
  H   H988      1.0  0.72794  0.28021  0.84600  1.0000
  H   H989      1.0  0.56585  0.47624  0.93286  1.0000
  H   H990      1.0  0.52086  0.07717  0.67135  1.0000
  H   H991      1.0  0.60811  0.06288  0.54554  1.0000
  H   H992      1.0  0.66913  0.22388  0.96034  1.0000
  C   C830      1.0  0.56078  0.48760  0.88911  1.0000
  H   H993      1.0  0.51173  0.47361  0.91207  1.0000
  H   H994      1.0  0.53949  0.04618  0.55859  1.0000
  H   H995      1.0  0.53156  0.09357  0.61431  1.0000
  H   H996      1.0  0.68032  0.04254  0.70373  1.0000
  C   C831      1.0  0.65236  0.32411  0.90562  1.0000
  C   C832      1.0  0.64166  0.31362  0.89085  1.0000
  C   C833      1.0  0.65096  0.29480  0.88195  1.0000
  C   C834      1.0  0.67096  0.28641  0.88774  1.0000
  C   C835      1.0  0.68192  0.29735  0.90194  1.0000
  C   C836      1.0  0.67253  0.31594  0.91104  1.0000
  H   H997      1.0  0.62613  0.31984  0.88650  1.0000
  H   H998      1.0  0.64243  0.28650  0.87083  1.0000
  H   H999      1.0  0.69749  0.29137  0.90620  1.0000
  H   H1000     1.0  0.68098  0.32414  0.92229  1.0000
  H   H1001     1.0  0.73745  0.17535  0.98602  1.0000
  C   C837      1.0  0.72685  0.22588  0.99423  1.0000
  H   H1002     1.0  0.69964  0.04144  0.73473  1.0000
  C   C838      1.0  0.59172  0.45740  0.00029  1.0000
  H   H1003     1.0  0.60612  0.39099  0.97463  1.0000
  C   C839      1.0  0.59548  0.46930  0.89179  1.0000
  C   C840      1.0  0.57363  0.46845  0.88969  1.0000
  H   H1004     1.0  0.62885  0.00731  0.66206  1.0000
  C   C841      1.0  0.60441  0.48925  0.89330  1.0000
  H   H1005     1.0  0.56675  0.45310  0.88827  1.0000
  H   H1006     1.0  0.62137  0.48992  0.89446  1.0000
  C   C842      1.0  0.69698  0.02391  0.73842  1.0000
  C   C843      1.0  0.60411  0.05806  0.51196  1.0000
  H   H1007     1.0  0.58752  0.49077  0.94003  1.0000
  C   C844      1.0  0.72830  0.08127  0.87589  1.0000
  H   H1008     1.0  0.52531  0.37356  0.92270  1.0000
  H   H1009     1.0  0.59314  0.01451  0.62126  1.0000
  S   S244      1.0  0.73484  0.22729  0.86977  1.0000
  C   C845      1.0  0.71075  0.07022  0.82060  1.0000
  H   H1010     1.0  0.71721  0.03165  0.69845  1.0000
  N   N57       1.0  0.57786  0.46480  0.96340  1.0000
  H   H1011     1.0  0.70607  0.12567  0.89958  1.0000
  H   H1012     1.0  0.55117  0.44713  0.95563  1.0000
  H   H1013     1.0  0.66516  0.00735  0.64370  1.0000
  H   H1014     1.0  0.72796  0.00763  0.71151  1.0000
  H   H1015     1.0  0.62492  0.26042  0.93954  1.0000
  H   H1016     1.0  0.71545  0.05826  0.80832  1.0000
  C   C846      1.0  0.71694  0.08180  0.85698  1.0000
  H   H1017     1.0  0.50630  0.48160  0.85339  1.0000
  C   C847      1.0  0.70055  0.09823  0.85489  1.0000
  H   H1018     1.0  0.69930  0.04364  0.85554  1.0000
  H   H1019     1.0  0.68974  0.25642  0.95592  1.0000
  C   C848      1.0  0.52792  0.09994  0.55300  1.0000
  C   C849      1.0  0.67766  0.26354  0.94516  1.0000
  H   H1020     1.0  0.67477  0.24229  0.98911  1.0000
  C   C850      1.0  0.51897  0.45136  0.86682  1.0000
  H   H1021     1.0  0.54546  0.46448  0.97775  1.0000
  H   H1022     1.0  0.74859  0.27222  0.86308  1.0000
  H   H1023     1.0  0.51521  0.11111  0.54673  1.0000
  C   C851      1.0  0.51441  0.43058  0.87520  1.0000
  H   H1024     1.0  0.64169  0.28338  0.93397  1.0000
  N   N58       1.0  0.65600  0.25600  0.95186  1.0000
  H   H1025     1.0  0.62287  0.28482  0.96711  1.0000
  H   H1026     1.0  0.73093  0.17611  0.78188  1.0000
  H   H1027     1.0  0.58782  0.44402  0.93748  1.0000
  C   C852      1.0  0.59348  0.44945  0.95270  1.0000
  H   H1028     1.0  0.60692  0.00483  0.51290  1.0000
  N   N59       1.0  0.54817  0.11065  0.67728  1.0000
  C   C853      1.0  0.51066  0.08570  0.51251  1.0000
  C   C854      1.0  0.55857  0.08914  0.67341  1.0000
  C   C855      1.0  0.55856  0.12662  0.66122  1.0000
  C   C856      1.0  0.58655  0.47237  0.98289  1.0000
  H   H1029     1.0  0.73372  0.09671  0.90498  1.0000
  C   C857      1.0  0.68515  0.34891  0.86561  1.0000
  H   H1030     1.0  0.74096  0.17773  0.80736  1.0000
  H   H1031     1.0  0.67052  0.35883  0.86746  1.0000
  H   H1032     1.0  0.58967  0.44034  0.99955  1.0000
  C   C858      1.0  0.50265  0.46535  0.85968  1.0000
  H   H1033     1.0  0.56987  0.11520  0.70149  1.0000
  H   H1034     1.0  0.54472  0.10441  0.71204  1.0000
  H   H1035     1.0  0.54627  0.13243  0.70317  1.0000
  H   H1036     1.0  0.57622  0.08914  0.67397  1.0000
  H   H1037     1.0  0.55563  0.08401  0.65711  1.0000
  H   H1038     1.0  0.57631  0.12478  0.66043  1.0000
  H   H1039     1.0  0.69320  0.06930  0.82410  1.0000
  H   H1040     1.0  0.55459  0.14355  0.66517  1.0000
  C   C859      1.0  0.51653  0.08575  0.61663  1.0000
  C   C860      1.0  0.51169  0.37037  0.91409  1.0000
  H   H1041     1.0  0.52804  0.10237  0.57066  1.0000
  C   C861      1.0  0.73970  0.13904  0.84559  1.0000
  C   C862      1.0  0.67656  0.02532  0.70739  1.0000
  H   H1042     1.0  0.74502  0.30986  0.82528  1.0000
  C   C863      1.0  0.68754  0.33364  0.85010  1.0000
  C   C864      1.0  0.58491  0.09948  0.51032  1.0000
  C   C865      1.0  0.73274  0.13136  0.82668  1.0000
  C   C866      1.0  0.52585  0.07459  0.52544  1.0000
  S   S245      1.0  0.74305  0.02931  0.78396  1.0000
  H   H1043     1.0  0.60908  0.45688  0.94808  1.0000
  C   C867      1.0  0.69654  0.11359  0.87034  1.0000
  H   H1044     1.0  0.55747  0.06830  0.55445  1.0000
  H   H1045     1.0  0.52048  0.14618  0.67926  1.0000
  H   H1046     1.0  0.65982  0.22725  0.93402  1.0000
  S   S246      1.0  0.73110  0.25512  0.91407  1.0000
  C   C868      1.0  0.63228  0.27690  0.97942  1.0000
  H   H1047     1.0  0.68318  0.25902  0.92843  1.0000
  H   H1048     1.0  0.55367  0.12483  0.64460  1.0000
  H   H1049     1.0  0.74274  0.20061  0.78788  1.0000
  C   C869      1.0  0.72261  0.32158  0.86220  1.0000
  H   H1050     1.0  0.56106  0.49464  0.95361  1.0000
  H   H1051     1.0  0.67475  0.33183  0.83980  1.0000
  C   C870      1.0  0.55241  0.11592  0.69946  1.0000
  C   C871      1.0  0.54105  0.06366  0.56051  1.0000
  H   H1052     1.0  0.64592  0.11319  0.53093  1.0000
  C   C872      1.0  0.55783  0.45354  0.96989  1.0000
  C   C873      1.0  0.64957  0.26203  0.97432  1.0000
  H   H1053     1.0  0.55281  0.07650  0.68591  1.0000
  C   C874      1.0  0.71981  0.33761  0.87762  1.0000
  H   H1054     1.0  0.53963  0.06574  0.57835  1.0000
  H   H1055     1.0  0.72558  0.03893  0.86446  1.0000
  H   H1056     1.0  0.54349  0.10528  0.54492  1.0000
  H   H1057     1.0  0.68467  0.12658  0.86791  1.0000
  H   H1058     1.0  0.71244  0.00596  0.68864  1.0000
  C   C875      1.0  0.59923  0.39431  0.99063  1.0000
  C   C876      1.0  0.64159  0.26542  0.93552  1.0000
  C   C877      1.0  0.70604  0.32029  0.84822  1.0000
  H   H1059     1.0  0.59645  0.43452  0.96321  1.0000
  H   H1060     1.0  0.61200  0.04225  0.51254  1.0000
  H   H1061     1.0  0.52711  0.41958  0.88068  1.0000
  H   H1062     1.0  0.54392  0.48703  0.88731  1.0000
  H   H1063     1.0  0.67413  0.01891  0.69149  1.0000
  H   H1064     1.0  0.55429  0.05258  0.52275  1.0000
  H   H1065     1.0  0.53521  0.45656  0.86571  1.0000
  C   C878      1.0  0.57707  0.39568  0.99507  1.0000
  H   H1066     1.0  0.70703  0.30860  0.83604  1.0000
  H   H1067     1.0  0.68287  0.02243  0.75048  1.0000
  C   C879      1.0  0.70130  0.35100  0.87921  1.0000
  H   H1068     1.0  0.74122  0.11797  0.81920  1.0000
  H   H1069     1.0  0.67807  0.28136  0.94554  1.0000
  C   C880      1.0  0.54170  0.06122  0.51453  1.0000
  H   H1070     1.0  0.66127  0.02542  0.71786  1.0000
  H   H1071     1.0  0.56023  0.43928  0.98145  1.0000
  H   H1072     1.0  0.64662  0.26011  0.91892  1.0000
  C   C881      1.0  0.64473  0.11384  0.51349  1.0000
  N   N60       1.0  0.52471  0.07712  0.54916  1.0000
  H   H1073     1.0  0.71429  0.08643  0.81265  1.0000
  C   C882      1.0  0.51568  0.06456  0.62581  1.0000
  H   H1074     1.0  0.64568  0.07944  0.51234  1.0000
  C   C883      1.0  0.65642  0.23218  0.95100  1.0000
  Fe  Fe124     1.0  0.74398  0.06277  0.76581  1.0000
  H   H1075     1.0  0.72027  0.03153  0.83806  1.0000
  N   N61       1.0  0.69388  0.01304  0.71839  1.0000
  N   N62       1.0  0.72223  0.06574  0.84055  1.0000
  H   H1076     1.0  0.64087  0.22560  0.95755  1.0000
  C   C884      1.0  0.72430  0.09686  0.89111  1.0000
  H   H1077     1.0  0.74065  0.06901  0.87887  1.0000
  C   C885      1.0  0.70857  0.11309  0.88823  1.0000
  C   C886      1.0  0.57291  0.48248  0.94689  1.0000
  C   C887      1.0  0.66110  0.25325  0.99188  1.0000
  H   H1078     1.0  0.57753  0.11556  0.50962  1.0000
  H   H1079     1.0  0.73147  0.33991  0.88892  1.0000
  C   C888      1.0  0.52486  0.11159  0.67534  1.0000
  H   H1080     1.0  0.71118  0.01727  0.74658  1.0000
  N   N63       1.0  0.74165  0.30663  0.86044  1.0000
  H   H1081     1.0  0.64326  0.14841  0.50989  1.0000
  C   C889      1.0  0.73496  0.28404  0.86107  1.0000
  H   H1082     1.0  0.68011  0.30729  0.99672  1.0000
  H   H1083     1.0  0.72275  0.28071  0.87481  1.0000
  C   C890      1.0  0.74730  0.00364  0.77284  1.0000
  C   C891      1.0  0.51334  0.09310  0.67227  1.0000
  C   C892      1.0  0.51294  0.13153  0.67647  1.0000
  H   H1084     1.0  0.50274  0.07001  0.57735  1.0000
  C   C893      1.0  0.50343  0.07093  0.55929  1.0000
  C   C894      1.0  0.64451  0.09483  0.50298  1.0000
  H   H1085     1.0  0.74727  0.30414  0.89448  1.0000
  C   C895      1.0  0.74864  0.22918  0.99428  1.0000
  C   C896      1.0  0.62665  0.28207  0.00090  1.0000
  Fe  Fe125     1.0  0.60793  0.60448  0.12318  1.0000
  S   S247      1.0  0.57598  0.62039  0.11606  1.0000
  S   S248      1.0  0.63659  0.61490  0.13914  1.0000
  Fe  Fe126     1.0  0.60006  0.56401  0.10029  1.0000
  S   S249      1.0  0.56822  0.57668  0.09073  1.0000
  S   S250      1.0  0.61396  0.53231  0.08872  1.0000
  Fe  Fe127     1.0  0.58379  0.60804  0.08285  1.0000
  S   S251      1.0  0.57700  0.62566  0.05115  1.0000
  Fe  Fe128     1.0  0.56272  0.58744  0.12450  1.0000
  S   S252      1.0  0.53164  0.57584  0.14147  1.0000
  S   S253      1.0  0.61635  0.59455  0.08927  1.0000
  S   S254      1.0  0.59386  0.57254  0.13487  1.0000
  Fe  Fe129     1.0  0.55192  0.89227  0.41163  1.0000
  S   S255      1.0  0.56283  0.85757  0.41640  1.0000
  S   S256      1.0  0.52020  0.90569  0.40105  1.0000
  Fe  Fe130     1.0  0.59445  0.90803  0.42230  1.0000
  S   S257      1.0  0.60906  0.87472  0.42791  1.0000
  S   S258      1.0  0.61269  0.93726  0.42610  1.0000
  Fe  Fe131     1.0  0.59361  0.86775  0.39787  1.0000
  S   S259      1.0  0.60792  0.85188  0.36772  1.0000
  Fe  Fe132     1.0  0.57720  0.86789  0.44589  1.0000
  S   S260      1.0  0.57197  0.85070  0.47924  1.0000
  S   S261      1.0  0.58145  0.90171  0.39096  1.0000
  S   S262      1.0  0.56391  0.90189  0.44245  1.0000
  H   H1086     1.0  0.68880  0.53337  0.12569  1.0000
  S   S263      1.0  0.71534  0.74751  0.10828  1.0000
  H   H1087     1.0  0.66823  0.90653  0.17741  1.0000
  S   S264      1.0  0.72114  0.73316  0.16001  1.0000
  Fe  Fe133     1.0  0.70647  0.71952  0.13213  1.0000
  S   S265      1.0  0.67236  0.70961  0.13032  1.0000
  Fe  Fe134     1.0  0.73249  0.75932  0.13549  1.0000
  H   H1088     1.0  0.61244  0.95342  0.35139  1.0000
  Fe  Fe135     1.0  0.71803  0.87069  0.29893  1.0000
  S   S266      1.0  0.70157  0.88096  0.26886  1.0000
  S   S267      1.0  0.70304  0.87394  0.33335  1.0000
  H   H1089     1.0  0.60452  0.58740  0.04748  1.0000
  C   C897      1.0  0.54952  0.54188  0.02392  1.0000
  Fe  Fe136     1.0  0.73059  0.90005  0.25864  1.0000
  H   H1090     1.0  0.59663  0.93456  0.48331  1.0000
  Fe  Fe137     1.0  0.72013  0.85280  0.25420  1.0000
  H   H1091     1.0  0.66490  0.84783  0.19745  1.0000
  H   H1092     1.0  0.51084  0.88235  0.35519  1.0000
  S   S268      1.0  0.73450  0.84096  0.28525  1.0000
  C   C898      1.0  0.73796  0.97852  0.28369  1.0000
  C   C899      1.0  0.57225  0.61183  0.01094  1.0000
  H   H1093     1.0  0.65739  0.55626  0.17353  1.0000
  H   H1094     1.0  0.64748  0.63525  0.08914  1.0000
  C   C900      1.0  0.72856  0.80175  0.17073  1.0000
  C   C901      1.0  0.68315  0.96636  0.30699  1.0000
  C   C902      1.0  0.73216  0.82656  0.19906  1.0000
  C   C903      1.0  0.71411  0.81843  0.21110  1.0000
  H   H1095     1.0  0.65645  0.88183  0.20970  1.0000
  C   C904      1.0  0.71103  0.79307  0.18319  1.0000
  H   H1096     1.0  0.61181  0.93736  0.37656  1.0000
  C   C905      1.0  0.50382  0.89795  0.45752  1.0000
  H   H1097     1.0  0.69608  0.91121  0.17150  1.0000
  H   H1098     1.0  0.57522  0.53357  0.06987  1.0000
  H   H1099     1.0  0.69080  0.55902  0.13625  1.0000
  S   S269      1.0  0.73561  0.69902  0.12274  1.0000
  H   H1100     1.0  0.61059  0.56166  0.01873  1.0000
  C   C906      1.0  0.67684  0.86668  0.34257  1.0000
  C   C907      1.0  0.66949  0.86960  0.36431  1.0000
  C   C908      1.0  0.64840  0.86520  0.37212  1.0000
  C   C909      1.0  0.63458  0.85734  0.35836  1.0000
  C   C910      1.0  0.64201  0.85402  0.33669  1.0000
  C   C911      1.0  0.66303  0.85885  0.32874  1.0000
  H   H1101     1.0  0.68017  0.87536  0.37518  1.0000
  H   H1102     1.0  0.64297  0.86761  0.38889  1.0000
  H   H1103     1.0  0.63147  0.84784  0.32596  1.0000
  H   H1104     1.0  0.66855  0.85644  0.31199  1.0000
  C   C912      1.0  0.59989  0.96028  0.41437  1.0000
  C   C913      1.0  0.59803  0.88047  0.49243  1.0000
  S   S270      1.0  0.70330  0.82949  0.23554  1.0000
  C   C914      1.0  0.57195  0.97666  0.39316  1.0000
  C   C915      1.0  0.58088  0.95865  0.40460  1.0000
  N   N64       1.0  0.65911  0.54688  0.14038  1.0000
  H   H1105     1.0  0.57309  0.94352  0.40566  1.0000
  S   S271      1.0  0.74614  0.89146  0.28953  1.0000
  C   C916      1.0  0.73073  0.99785  0.24962  1.0000
  C   C917      1.0  0.70530  0.85291  0.14666  1.0000
  H   H1106     1.0  0.67639  0.86653  0.22452  1.0000
  H   H1107     1.0  0.56690  0.86963  0.35987  1.0000
  H   H1108     1.0  0.70009  0.93562  0.30480  1.0000
  C   C918      1.0  0.73342  0.76130  0.22557  1.0000
  C   C919      1.0  0.64649  0.64127  0.13593  1.0000
  C   C920      1.0  0.63394  0.65914  0.12884  1.0000
  C   C921      1.0  0.64216  0.67991  0.12715  1.0000
  C   C922      1.0  0.66305  0.68303  0.13228  1.0000
  C   C923      1.0  0.67576  0.66511  0.13894  1.0000
  C   C924      1.0  0.66744  0.64436  0.14093  1.0000
  H   H1109     1.0  0.61779  0.65704  0.12499  1.0000
  H   H1110     1.0  0.63221  0.69367  0.12196  1.0000
  H   H1111     1.0  0.69181  0.66730  0.14307  1.0000
  H   H1112     1.0  0.67724  0.63067  0.14655  1.0000
  H   H1113     1.0  0.60152  0.51779  0.00516  1.0000
  H   H1114     1.0  0.68782  0.53532  0.15461  1.0000
  N   N65       1.0  0.68889  0.88526  0.19589  1.0000
  H   H1115     1.0  0.55648  0.50555  0.08325  1.0000
  H   H1116     1.0  0.62064  0.67638  0.03908  1.0000
  C   C925      1.0  0.73551  0.99826  0.27128  1.0000
  C   C926      1.0  0.58255  0.60828  0.03011  1.0000
  C   C927      1.0  0.59643  0.59022  0.03281  1.0000
  C   C928      1.0  0.73911  0.81850  0.17878  1.0000
  H   H1117     1.0  0.65872  0.57357  0.11587  1.0000
  H   H1118     1.0  0.65956  0.93883  0.38244  1.0000
  C   C929      1.0  0.73635  0.78078  0.25742  1.0000
  H   H1119     1.0  0.71546  0.69991  0.07520  1.0000
  C   C930      1.0  0.59093  0.51037  0.12250  1.0000
  H   H1120     1.0  0.53436  0.60756  0.04353  1.0000
  H   H1121     1.0  0.74049  0.83936  0.20506  1.0000
  H   H1122     1.0  0.62410  0.98148  0.42115  1.0000
  H   H1123     1.0  0.61888  0.64396  0.06452  1.0000
  H   H1124     1.0  0.54627  0.88255  0.34516  1.0000
  C   C931      1.0  0.59983  0.57560  0.01652  1.0000
  H   H1125     1.0  0.69366  0.97450  0.29453  1.0000
  C   C932      1.0  0.64891  0.52590  0.14509  1.0000
  H   H1126     1.0  0.51725  0.90804  0.45305  1.0000
  C   C933      1.0  0.67717  0.83449  0.16825  1.0000
  C   C934      1.0  0.50768  0.58685  0.13167  1.0000
  C   C935      1.0  0.50657  0.60750  0.12117  1.0000
  H   H1127     1.0  0.52076  0.61675  0.11827  1.0000
  H   H1128     1.0  0.72817  0.75274  0.05326  1.0000
  C   C936      1.0  0.68672  0.94450  0.31277  1.0000
  H   H1129     1.0  0.71470  0.86982  0.21216  1.0000
  C   C937      1.0  0.70408  0.86904  0.16140  1.0000
  C   C938      1.0  0.64854  0.64933  0.07772  1.0000
  H   H1130     1.0  0.70260  0.78038  0.17704  1.0000
  C   C939      1.0  0.68945  0.86823  0.18025  1.0000
  C   C940      1.0  0.65298  0.55688  0.11917  1.0000
  H   H1131     1.0  0.71009  0.89790  0.21705  1.0000
  C   C941      1.0  0.67599  0.85037  0.18327  1.0000
  C   C942      1.0  0.67291  0.88195  0.21486  1.0000
  H   H1132     1.0  0.63539  0.55797  0.11885  1.0000
  C   C943      1.0  0.68375  0.90657  0.18474  1.0000
  C   C944      1.0  0.69185  0.83570  0.15006  1.0000
  C   C945      1.0  0.60015  0.99832  0.40267  1.0000
  H   H1133     1.0  0.72473  0.97785  0.22383  1.0000
  H   H1134     1.0  0.62753  0.96045  0.37331  1.0000
  H   H1135     1.0  0.57517  0.55561  0.05021  1.0000
  H   H1136     1.0  0.68959  0.79534  0.21218  1.0000
  C   C946      1.0  0.50532  0.86665  0.35262  1.0000
  H   H1137     1.0  0.56206  0.53526  0.01207  1.0000
  C   C947      1.0  0.72382  0.77157  0.24342  1.0000
  H   H1138     1.0  0.67734  0.65828  0.08896  1.0000
  N   N66       1.0  0.64095  0.93335  0.35595  1.0000
  C   C948      1.0  0.63234  0.91473  0.34639  1.0000
  C   C949      1.0  0.65296  0.92528  0.37472  1.0000
  C   C950      1.0  0.65058  0.68606  0.04903  1.0000
  C   C951      1.0  0.65536  0.94503  0.33940  1.0000
  C   C952      1.0  0.65236  0.96742  0.33335  1.0000
  C   C953      1.0  0.67318  0.93398  0.32883  1.0000
  H   H1139     1.0  0.68272  0.91968  0.19622  1.0000
  C   C954      1.0  0.71004  0.88589  0.20451  1.0000
  H   H1140     1.0  0.70113  0.68117  0.03380  1.0000
  H   H1141     1.0  0.64504  0.90286  0.34092  1.0000
  H   H1142     1.0  0.62136  0.90558  0.35839  1.0000
  H   H1143     1.0  0.62346  0.92011  0.33204  1.0000
  H   H1144     1.0  0.66653  0.91405  0.36992  1.0000
  H   H1145     1.0  0.64262  0.91639  0.38759  1.0000
  H   H1146     1.0  0.54143  0.87487  0.37390  1.0000
  H   H1147     1.0  0.65059  0.70015  0.03772  1.0000
  C   C955      1.0  0.73572  0.95865  0.27465  1.0000
  C   C956      1.0  0.50685  0.87759  0.46801  1.0000
  H   H1148     1.0  0.63954  0.97732  0.34073  1.0000
  H   H1149     1.0  0.72286  0.89028  0.19171  1.0000
  H   H1150     1.0  0.71507  0.88188  0.15815  1.0000
  H   H1151     1.0  0.67301  0.89493  0.22636  1.0000
  H   H1152     1.0  0.56156  0.62584  0.00879  1.0000
  N   N67       1.0  0.54250  0.84844  0.35311  1.0000
  C   C957      1.0  0.54875  0.83251  0.37076  1.0000
  C   C958      1.0  0.55436  0.84276  0.33238  1.0000
  C   C959      1.0  0.54945  0.86983  0.35821  1.0000
  H   H1153     1.0  0.58618  0.52982  0.04265  1.0000
  C   C960      1.0  0.73378  0.74423  0.03906  1.0000
  C   C961      1.0  0.60941  0.98016  0.41359  1.0000
  C   C962      1.0  0.51925  0.84798  0.35118  1.0000
  C   C963      1.0  0.57297  0.53800  0.05249  1.0000
  H   H1154     1.0  0.72358  0.75437  0.21455  1.0000
  H   H1155     1.0  0.54704  0.81558  0.36687  1.0000
  H   H1156     1.0  0.56582  0.83362  0.37390  1.0000
  H   H1157     1.0  0.53887  0.83511  0.38625  1.0000
  H   H1158     1.0  0.55119  0.82623  0.32814  1.0000
  H   H1159     1.0  0.57196  0.84322  0.33332  1.0000
  H   H1160     1.0  0.54995  0.85420  0.31864  1.0000
  H   H1161     1.0  0.66730  0.82062  0.17119  1.0000
  C   C964      1.0  0.50982  0.82830  0.34804  1.0000
  H   H1162     1.0  0.63570  0.56713  0.15793  1.0000
  H   H1163     1.0  0.73770  0.94370  0.28447  1.0000
  H   H1164     1.0  0.66137  0.57799  0.15338  1.0000
  H   H1165     1.0  0.58722  0.52585  0.12911  1.0000
  C   C965      1.0  0.49967  0.86713  0.40756  1.0000
  C   C966      1.0  0.51079  0.51979  0.11989  1.0000
  S   S272      1.0  0.73611  0.79381  0.14409  1.0000
  H   H1166     1.0  0.51492  0.85946  0.41083  1.0000
  C   C967      1.0  0.73087  0.95823  0.25304  1.0000
  H   H1167     1.0  0.65926  0.54749  0.10520  1.0000
  H   H1168     1.0  0.54266  0.51608  0.12971  1.0000
  H   H1169     1.0  0.51941  0.81353  0.34644  1.0000
  S   S273      1.0  0.72780  0.93353  0.24094  1.0000
  C   C968      1.0  0.52837  0.50787  0.12716  1.0000
  C   C969      1.0  0.59665  0.96894  0.47734  1.0000
  H   H1170     1.0  0.69544  0.68834  0.09398  1.0000
  H   H1171     1.0  0.72875  0.78904  0.27110  1.0000
  H   H1172     1.0  0.67685  0.91705  0.33290  1.0000
  C   C970      1.0  0.72843  0.97794  0.24059  1.0000
  C   C971      1.0  0.70363  0.80165  0.20306  1.0000
  H   H1173     1.0  0.70659  0.77279  0.24620  1.0000
  H   H1174     1.0  0.59937  0.88696  0.47568  1.0000
  H   H1175     1.0  0.53353  0.53923  0.01853  1.0000
  H   H1176     1.0  0.51888  0.53821  0.05770  1.0000
  C   C972      1.0  0.63447  0.52144  0.16373  1.0000
  C   C973      1.0  0.68264  0.54346  0.13917  1.0000
  H   H1177     1.0  0.71495  0.76436  0.01730  1.0000
  H   H1178     1.0  0.62958  0.53334  0.17524  1.0000
  C   C974      1.0  0.65307  0.56258  0.15712  1.0000
  C   C975      1.0  0.51191  0.60905  0.01892  1.0000
  H   H1179     1.0  0.55744  0.97528  0.38531  1.0000
  Fe  Fe138     1.0  0.74505  0.72745  0.09989  1.0000
  H   H1180     1.0  0.50673  0.60369  0.07428  1.0000
  N   N68       1.0  0.68547  0.69603  0.06167  1.0000
  C   C976      1.0  0.69602  0.69745  0.03920  1.0000
  C   C977      1.0  0.67752  0.71791  0.06739  1.0000
  C   C978      1.0  0.70202  0.68874  0.07664  1.0000
  C   C979      1.0  0.66736  0.68155  0.06283  1.0000
  H   H1181     1.0  0.71714  0.85333  0.13281  1.0000
  C   C980      1.0  0.66575  0.66277  0.07737  1.0000
  C   C981      1.0  0.60353  0.50905  0.10283  1.0000
  C   C982      1.0  0.72630  0.75079  0.01862  1.0000
  C   C983      1.0  0.62243  0.94684  0.36452  1.0000
  H   H1182     1.0  0.68558  0.70538  0.02711  1.0000
  H   H1183     1.0  0.71046  0.70716  0.03797  1.0000
  H   H1184     1.0  0.69340  0.82282  0.13902  1.0000
  H   H1185     1.0  0.66651  0.72555  0.05571  1.0000
  H   H1186     1.0  0.69081  0.72905  0.06757  1.0000
  H   H1187     1.0  0.66877  0.71733  0.08389  1.0000
  H   H1188     1.0  0.70911  0.67254  0.07304  1.0000
  H   H1189     1.0  0.53705  0.53817  0.07855  1.0000
  H   H1190     1.0  0.53548  0.56070  0.05920  1.0000
  H   H1191     1.0  0.66349  0.51155  0.11584  1.0000
  C   C984      1.0  0.53507  0.54276  0.06108  1.0000
  C   C985      1.0  0.63236  0.65425  0.06396  1.0000
  C   C986      1.0  0.51773  0.60697  0.04033  1.0000
  H   H1192     1.0  0.59300  0.96855  0.46055  1.0000
  N   N69       1.0  0.55182  0.53237  0.04641  1.0000
  H   H1193     1.0  0.54322  0.50340  0.01545  1.0000
  C   C987      1.0  0.58609  0.86233  0.49845  1.0000
  H   H1194     1.0  0.51150  0.53715  0.11682  1.0000
  C   C988      1.0  0.63337  0.67258  0.04964  1.0000
  C   C989      1.0  0.66612  0.97781  0.31736  1.0000
  H   H1195     1.0  0.66362  0.99489  0.31298  1.0000
  C   C990      1.0  0.65333  0.50912  0.13074  1.0000
  C   C991      1.0  0.59957  0.98855  0.48595  1.0000
  H   H1196     1.0  0.52277  0.87193  0.47184  1.0000
  C   C992      1.0  0.55006  0.50866  0.04889  1.0000
  H   H1197     1.0  0.52452  0.61093  0.00598  1.0000
  C   C993      1.0  0.59867  0.94979  0.49026  1.0000
  H   H1198     1.0  0.55131  0.55969  0.02268  1.0000
  C   C994      1.0  0.50218  0.60490  0.05770  1.0000
  C   C995      1.0  0.58157  0.99651  0.39220  1.0000
  H   H1199     1.0  0.74170  0.97862  0.30043  1.0000
  S   S274      1.0  0.74771  0.87271  0.24128  1.0000
  Fe  Fe139     1.0  0.54825  0.60147  0.92295  1.0000
  S   S275      1.0  0.56328  0.59414  0.88992  1.0000
  S   S276      1.0  0.51712  0.62025  0.92962  1.0000
  Fe  Fe140     1.0  0.58155  0.57409  0.94627  1.0000
  S   S277      1.0  0.59902  0.56420  0.91523  1.0000
  C   C996      1.0  0.59991  0.78494  0.67285  1.0000
  Fe  Fe141     1.0  0.59451  0.59929  0.90389  1.0000
  S   S278      1.0  0.62172  0.61731  0.88500  1.0000
  Fe  Fe142     1.0  0.56640  0.56003  0.90453  1.0000
  S   S279      1.0  0.55311  0.53106  0.89123  1.0000
  S   S280      1.0  0.57908  0.60940  0.93585  1.0000
  S   S281      1.0  0.54944  0.56725  0.93668  1.0000
  Fe  Fe143     1.0  0.57821  0.86350  0.61808  1.0000
  S   S282      1.0  0.60970  0.85279  0.60139  1.0000
  S   S283      1.0  0.55033  0.84192  0.62096  1.0000
  Fe  Fe144     1.0  0.59364  0.90706  0.62611  1.0000
  S   S284      1.0  0.62626  0.90010  0.61008  1.0000
  S   S285      1.0  0.58269  0.93829  0.64020  1.0000
  Fe  Fe145     1.0  0.60905  0.88597  0.58463  1.0000
  S   S286      1.0  0.61794  0.89629  0.54947  1.0000
  Fe  Fe146     1.0  0.62390  0.86796  0.62862  1.0000
  S   S287      1.0  0.65259  0.85286  0.64465  1.0000
  S   S288      1.0  0.57650  0.89554  0.59920  1.0000
  S   S289      1.0  0.59231  0.87588  0.64665  1.0000
  Fe  Fe147     1.0  0.70862  0.87663  0.74895  1.0000
  S   S290      1.0  0.71482  0.89649  0.77674  1.0000
  S   S291      1.0  0.67614  0.88263  0.73553  1.0000
  Fe  Fe148     1.0  0.73138  0.86598  0.79033  1.0000
  S   S292      1.0  0.73201  0.85409  0.82602  1.0000
  Fe  Fe149     1.0  0.70975  0.69958  0.91702  1.0000
  S   S293      1.0  0.69689  0.73218  0.92635  1.0000
  S   S294      1.0  0.68599  0.67366  0.92863  1.0000
  Fe  Fe150     1.0  0.71274  0.74518  0.89455  1.0000
  S   S295      1.0  0.69465  0.76638  0.87004  1.0000
  Fe  Fe151     1.0  0.72787  0.73535  0.94102  1.0000
  C   C997      1.0  0.50550  0.85781  0.55140  1.0000
  S   S296      1.0  0.72379  0.71226  0.88395  1.0000
  H   H1200     1.0  0.73089  0.98698  0.80073  1.0000
  H   H1201     1.0  0.60085  0.95935  0.57631  1.0000
  C   C998      1.0  0.62352  0.83747  0.72239  1.0000
  H   H1202     1.0  0.64418  0.70060  0.92032  1.0000
  C   C999      1.0  0.72077  0.83006  0.83817  1.0000
  C   C1000     1.0  0.72541  0.82285  0.85941  1.0000
  C   C1001     1.0  0.71746  0.80347  0.86940  1.0000
  C   C1002     1.0  0.70436  0.79129  0.85839  1.0000
  C   C1003     1.0  0.69912  0.79882  0.83743  1.0000
  C   C1004     1.0  0.70756  0.81792  0.82720  1.0000
  H   H1203     1.0  0.63568  0.93961  0.67828  1.0000
  H   H1204     1.0  0.72135  0.79805  0.88568  1.0000
  H   H1205     1.0  0.68873  0.78969  0.82891  1.0000
  H   H1206     1.0  0.70361  0.82343  0.81097  1.0000
  C   C1005     1.0  0.50018  0.59923  0.89765  1.0000
  H   H1207     1.0  0.66262  0.72014  0.86464  1.0000
  H   H1208     1.0  0.66918  0.56985  0.97272  1.0000
  C   C1006     1.0  0.65891  0.86111  0.66999  1.0000
  C   C1007     1.0  0.67883  0.85485  0.67758  1.0000
  C   C1008     1.0  0.68436  0.86125  0.69767  1.0000
  C   C1009     1.0  0.66988  0.87379  0.71041  1.0000
  C   C1010     1.0  0.64993  0.87996  0.70286  1.0000
  C   C1011     1.0  0.64450  0.87376  0.68269  1.0000
  H   H1209     1.0  0.69006  0.84503  0.66785  1.0000
  H   H1210     1.0  0.69978  0.85641  0.70333  1.0000
  H   H1211     1.0  0.63859  0.88956  0.71270  1.0000
  H   H1212     1.0  0.62903  0.87848  0.67714  1.0000
  C   C1012     1.0  0.59784  0.96006  0.62962  1.0000
  C   C1013     1.0  0.61880  0.95678  0.62064  1.0000
  C   C1014     1.0  0.63062  0.97431  0.61194  1.0000
  H   H1213     1.0  0.58102  0.96630  0.55742  1.0000
  H   H1214     1.0  0.59253  0.85298  0.72789  1.0000
  H   H1215     1.0  0.65228  0.72650  0.92518  1.0000
  H   H1216     1.0  0.62617  0.94089  0.62104  1.0000
  H   H1217     1.0  0.64693  0.97175  0.60529  1.0000
  C   C1015     1.0  0.64292  0.95408  0.67097  1.0000
  C   C1016     1.0  0.62358  0.71480  0.88360  1.0000
  C   C1017     1.0  0.58490  0.85379  0.52015  1.0000
  C   C1018     1.0  0.59480  0.86397  0.53595  1.0000
  C   C1019     1.0  0.60637  0.88239  0.52995  1.0000
  H   H1218     1.0  0.52341  0.93564  0.61227  1.0000
  H   H1219     1.0  0.59326  0.77674  0.65966  1.0000
  H   H1220     1.0  0.59378  0.85741  0.55267  1.0000
  C   C1020     1.0  0.68931  0.99007  0.72403  1.0000
  H   H1221     1.0  0.59089  0.77982  0.68853  1.0000
  H   H1222     1.0  0.64253  0.75450  0.87324  1.0000
  H   H1223     1.0  0.72427  0.77063  0.80892  1.0000
  H   H1224     1.0  0.51244  0.59585  0.97663  1.0000
  C   C1021     1.0  0.66187  0.71664  0.88261  1.0000
  C   C1022     1.0  0.63820  0.52038  0.95324  1.0000
  N   N70       1.0  0.65764  0.57734  0.94093  1.0000
  H   H1225     1.0  0.54658  0.83998  0.55215  1.0000
  C   C1023     1.0  0.63892  0.63387  0.89694  1.0000
  C   C1024     1.0  0.63535  0.63877  0.91871  1.0000
  C   C1025     1.0  0.64995  0.65098  0.92803  1.0000
  C   C1026     1.0  0.66801  0.65892  0.91561  1.0000
  C   C1027     1.0  0.67141  0.65440  0.89370  1.0000
  C   C1028     1.0  0.65694  0.64187  0.88445  1.0000
  H   H1226     1.0  0.62139  0.63304  0.92841  1.0000
  H   H1227     1.0  0.64716  0.65442  0.94499  1.0000
  H   H1228     1.0  0.68537  0.66019  0.88401  1.0000
  H   H1229     1.0  0.65984  0.63816  0.86758  1.0000
  H   H1230     1.0  0.62577  0.59104  0.93946  1.0000
  C   C1029     1.0  0.51537  0.95027  0.61794  1.0000
  C   C1030     1.0  0.62166  0.69210  0.88551  1.0000
  S   S297      1.0  0.74266  0.75149  0.90967  1.0000
  H   H1231     1.0  0.63290  0.68170  0.89394  1.0000
  H   H1232     1.0  0.65307  0.82095  0.71247  1.0000
  H   H1233     1.0  0.65405  0.75521  0.89834  1.0000
  S   S298      1.0  0.74034  0.70214  0.93315  1.0000
  C   C1031     1.0  0.60708  0.96980  0.52109  1.0000
  Fe  Fe152     1.0  0.74600  0.90355  0.75769  1.0000
  H   H1234     1.0  0.62837  0.00029  0.54102  1.0000
  C   C1032     1.0  0.50705  0.84780  0.61801  1.0000
  H   H1235     1.0  0.51629  0.59362  0.89288  1.0000
  C   C1033     1.0  0.63645  0.82389  0.70941  1.0000
  N   N71       1.0  0.67618  0.93251  0.65890  1.0000
  C   C1034     1.0  0.67990  0.92335  0.68115  1.0000
  C   C1035     1.0  0.66409  0.91711  0.64805  1.0000
  C   C1036     1.0  0.69735  0.93430  0.64644  1.0000
  C   C1037     1.0  0.66381  0.95335  0.66024  1.0000
  H   H1236     1.0  0.50751  0.83134  0.61338  1.0000
  C   C1038     1.0  0.67175  0.97326  0.65086  1.0000
  S   S299      1.0  0.73891  0.88517  0.72924  1.0000
  H   H1237     1.0  0.51760  0.88355  0.58273  1.0000
  C   C1039     1.0  0.57530  0.59697  0.99483  1.0000
  H   H1238     1.0  0.66480  0.92046  0.69138  1.0000
  H   H1239     1.0  0.68892  0.90748  0.68086  1.0000
  H   H1240     1.0  0.68919  0.93430  0.68977  1.0000
  H   H1241     1.0  0.66062  0.92364  0.63143  1.0000
  H   H1242     1.0  0.64860  0.91333  0.65717  1.0000
  H   H1243     1.0  0.67302  0.90129  0.64640  1.0000
  H   H1244     1.0  0.70777  0.94493  0.65415  1.0000
  H   H1245     1.0  0.70607  0.91829  0.64568  1.0000
  H   H1246     1.0  0.69574  0.94057  0.62928  1.0000
  H   H1247     1.0  0.63972  0.95748  0.56184  1.0000
  H   H1248     1.0  0.68728  0.97440  0.64213  1.0000
  H   H1249     1.0  0.55609  0.86144  0.56574  1.0000
  C   C1040     1.0  0.74327  0.96445  0.77728  1.0000
  C   C1041     1.0  0.68144  0.94599  0.73585  1.0000
  C   C1042     1.0  0.53443  0.87594  0.53015  1.0000
  S   S300      1.0  0.72272  0.84566  0.76414  1.0000
  H   H1250     1.0  0.67553  0.72447  0.88849  1.0000
  H   H1251     1.0  0.51973  0.83255  0.53128  1.0000
  H   H1252     1.0  0.65788  0.55585  0.90206  1.0000
  H   H1253     1.0  0.53878  0.89578  0.56602  1.0000
  H   H1254     1.0  0.65340  0.59134  0.90854  1.0000
  C   C1043     1.0  0.51722  0.98502  0.63239  1.0000
  C   C1044     1.0  0.64393  0.54142  0.95579  1.0000
  N   N72       1.0  0.64123  0.72453  0.89324  1.0000
  H   H1255     1.0  0.57747  0.68726  0.85871  1.0000
  H   H1256     1.0  0.68043  0.59284  0.95804  1.0000
  H   H1257     1.0  0.53862  0.86225  0.51972  1.0000
  H   H1258     1.0  0.63009  0.84489  0.73554  1.0000
  H   H1259     1.0  0.68025  0.58121  0.91271  1.0000
  H   H1260     1.0  0.57270  0.98372  0.63731  1.0000
  H   H1261     1.0  0.50987  0.63407  0.98017  1.0000
  H   H1262     1.0  0.52279  0.88689  0.52173  1.0000
  H   H1263     1.0  0.67017  0.60599  0.92335  1.0000
  C   C1045     1.0  0.65273  0.54658  0.91688  1.0000
  H   H1264     1.0  0.63340  0.94036  0.54163  1.0000
  C   C1046     1.0  0.59022  0.69491  0.86553  1.0000
  C   C1047     1.0  0.65149  0.55518  0.93770  1.0000
  H   H1265     1.0  0.71194  0.94447  0.74908  1.0000
  C   C1048     1.0  0.63893  0.58991  0.95043  1.0000
  H   H1266     1.0  0.68867  0.56623  0.95009  1.0000
  H   H1267     1.0  0.72914  0.74189  0.80938  1.0000
  C   C1049     1.0  0.59164  0.71727  0.86324  1.0000
  S   S301      1.0  0.72401  0.74973  0.97437  1.0000
  N   N73       1.0  0.59854  0.80873  0.66881  1.0000
  H   H1268     1.0  0.60499  0.80875  0.63381  1.0000
  C   C1050     1.0  0.63418  0.95758  0.54520  1.0000
  H   H1269     1.0  0.53940  0.88509  0.63344  1.0000
  H   H1270     1.0  0.60828  0.74453  0.86962  1.0000
  H   H1271     1.0  0.64297  0.60666  0.95316  1.0000
  C   C1051     1.0  0.66574  0.58938  0.92047  1.0000
  H   H1272     1.0  0.62563  0.75563  0.89860  1.0000
  H   H1273     1.0  0.63242  0.58267  0.96645  1.0000
  H   H1274     1.0  0.66481  0.69901  0.88588  1.0000
  C   C1052     1.0  0.67470  0.57647  0.95611  1.0000
  H   H1275     1.0  0.60421  0.66491  0.87831  1.0000
  H   H1276     1.0  0.57990  0.72696  0.85457  1.0000
  H   H1277     1.0  0.62440  0.72192  0.92513  1.0000
  C   C1053     1.0  0.60808  0.72719  0.87206  1.0000
  C   C1054     1.0  0.60524  0.68235  0.87660  1.0000
  H   H1278     1.0  0.60533  0.93489  0.52117  1.0000
  C   C1055     1.0  0.64043  0.71811  0.91692  1.0000
  C   C1056     1.0  0.73961  0.98522  0.78505  1.0000
  C   C1057     1.0  0.64063  0.74849  0.89070  1.0000
  C   C1058     1.0  0.58879  0.98099  0.63012  1.0000
  H   H1279     1.0  0.58722  0.50707  0.97275  1.0000
  H   H1280     1.0  0.53456  0.84605  0.57837  1.0000
  H   H1281     1.0  0.57031  0.80762  0.65130  1.0000
  C   C1059     1.0  0.64684  0.52554  0.91452  1.0000
  N   N74       1.0  0.52570  0.86875  0.55245  1.0000
  H   H1282     1.0  0.57383  0.83293  0.66171  1.0000
  C   C1060     1.0  0.66652  0.95898  0.72499  1.0000
  C   C1061     1.0  0.67035  0.98067  0.71897  1.0000
  H   H1283     1.0  0.56498  0.81034  0.67983  1.0000
  C   C1062     1.0  0.59720  0.95867  0.55904  1.0000
  C   C1063     1.0  0.59405  0.83299  0.70064  1.0000
  H   H1284     1.0  0.57630  0.83933  0.52467  1.0000
  H   H1285     1.0  0.54943  0.88468  0.53037  1.0000
  H   H1286     1.0  0.64206  0.54697  0.97205  1.0000
  C   C1064     1.0  0.63875  0.99253  0.66223  1.0000
  H   H1287     1.0  0.57765  0.83744  0.69804  1.0000
  H   H1288     1.0  0.61220  0.83252  0.64568  1.0000
  H   H1289     1.0  0.65182  0.95218  0.72137  1.0000
  H   H1290     1.0  0.63912  0.80465  0.68224  1.0000
  H   H1291     1.0  0.56662  0.59936  0.98048  1.0000
  C   C1065     1.0  0.62829  0.81473  0.69205  1.0000
  C   C1066     1.0  0.62146  0.99521  0.61230  1.0000
  S   S302      1.0  0.59269  0.55986  0.97798  1.0000
  C   C1067     1.0  0.61155  0.81474  0.64830  1.0000
  C   C1068     1.0  0.57596  0.81520  0.66543  1.0000
  C   C1069     1.0  0.60680  0.81891  0.68715  1.0000
  H   H1292     1.0  0.61664  0.77856  0.67365  1.0000
  C   C1070     1.0  0.60241  0.84207  0.71796  1.0000
  H   H1293     1.0  0.62835  0.80837  0.64828  1.0000
  C   C1071     1.0  0.65928  0.99248  0.65187  1.0000
  H   H1294     1.0  0.59855  0.52361  0.89432  1.0000
  H   H1295     1.0  0.64768  0.51941  0.89845  1.0000
  H   H1296     1.0  0.50016  0.51047  0.90099  1.0000
  C   C1072     1.0  0.73114  0.75644  0.81833  1.0000
  H   H1297     1.0  0.54460  0.96417  0.62410  1.0000
  H   H1298     1.0  0.51203  0.90046  0.55861  1.0000
  C   C1073     1.0  0.52510  0.87808  0.62914  1.0000
  N   N75       1.0  0.61336  0.96959  0.54368  1.0000
  C   C1074     1.0  0.50531  0.83896  0.53977  1.0000
  H   H1299     1.0  0.67841  0.92920  0.74060  1.0000
  C   C1075     1.0  0.70415  0.97631  0.73496  1.0000
  H   H1300     1.0  0.61807  0.90390  0.50312  1.0000
  C   C1076     1.0  0.54140  0.85343  0.56252  1.0000
  C   C1077     1.0  0.52583  0.85684  0.62311  1.0000
  H   H1301     1.0  0.71887  0.98231  0.73928  1.0000
  H   H1302     1.0  0.61433  0.97334  0.67917  1.0000
  C   C1078     1.0  0.60371  0.95016  0.51184  1.0000
  C   C1079     1.0  0.70028  0.95462  0.74068  1.0000
  H   H1303     1.0  0.62025  0.99083  0.56810  1.0000
  C   C1080     1.0  0.56967  0.50751  0.89112  1.0000
  C   C1081     1.0  0.59151  0.50829  0.89323  1.0000
  C   C1082     1.0  0.52330  0.88799  0.56550  1.0000
  H   H1304     1.0  0.65814  0.98975  0.71054  1.0000
  C   C1083     1.0  0.60471  0.98910  0.50748  1.0000
  C   C1084     1.0  0.50577  0.89026  0.62998  1.0000
  H   H1305     1.0  0.72106  0.75468  0.83398  1.0000
  C   C1085     1.0  0.52738  0.96636  0.62464  1.0000
  H   H1306     1.0  0.50525  0.90652  0.63513  1.0000
  H   H1307     1.0  0.63250  0.51024  0.96733  1.0000
  C   C1086     1.0  0.63061  0.97338  0.67181  1.0000
  C   C1087     1.0  0.61562  0.99150  0.55110  1.0000
  C   C1088     1.0  0.63965  0.51246  0.93265  1.0000
  C   C1089     1.0  0.60048  0.99850  0.62119  1.0000
  H   H1308     1.0  0.59648  0.94123  0.55640  1.0000
  H   H1309     1.0  0.73733  0.95048  0.78695  1.0000
  H   H1310     1.0  0.73520  0.83232  0.86827  1.0000
  C   C1090     1.0  0.73358  0.74019  0.99981  1.0000
  C   C1091     1.0  0.58914  0.57888  0.99761  1.0000
  C   C1092     1.0  0.60842  0.89023  0.50807  1.0000
  H   H1311     1.0  0.64667  0.96481  0.53342  1.0000
  H   H1312     1.0  0.74773  0.77935  0.84855  1.0000
  H   H1313     1.0  0.52663  0.99752  0.63771  1.0000
  H   H1314     1.0  0.60039  0.00134  0.55088  1.0000
  C   C1093     1.0  0.74836  0.72275  0.00177  1.0000
  Fe  Fe153     1.0  0.87602  0.40923  0.40240  1.0000
  S   S303      1.0  0.86533  0.37832  0.42041  1.0000
  S   S304      1.0  0.85772  0.44060  0.40891  1.0000
  Fe  Fe154     1.0  0.91585  0.38769  0.38195  1.0000
  S   S305      1.0  0.90841  0.35516  0.39788  1.0000
  S   S306      1.0  0.94787  0.39355  0.36429  1.0000
  Fe  Fe155     1.0  0.87521  0.36290  0.38889  1.0000
  S   S307      1.0  0.85877  0.33339  0.38008  1.0000
  Fe  Fe156     1.0  0.89945  0.37299  0.42775  1.0000
  S   S308      1.0  0.91451  0.36066  0.45832  1.0000
  S   S309      1.0  0.88327  0.39439  0.37013  1.0000
  S   S310      1.0  0.90924  0.40496  0.41244  1.0000
  C   C1094     1.0  0.80764  0.14472  0.21750  1.0000
  H   H1315     1.0  0.83942  0.17481  0.17713  1.0000
  S   S311      1.0  0.76870  0.24892  0.16974  1.0000
  C   C1095     1.0  0.79013  0.13220  0.21567  1.0000
  C   C1096     1.0  0.75102  0.30569  0.14615  1.0000
  Fe  Fe157     1.0  0.76344  0.09952  0.26918  1.0000
  H   H1316     1.0  0.99428  0.33316  0.49852  1.0000
  S   S312      1.0  0.79773  0.10933  0.26989  1.0000
  H   H1317     1.0  0.77239  0.10638  0.32506  1.0000
  H   H1318     1.0  0.95382  0.17819  0.24727  1.0000
  C   C1097     1.0  0.80829  0.16636  0.20837  1.0000
  Fe  Fe158     1.0  0.85392  0.22043  0.27756  1.0000
  S   S313      1.0  0.87819  0.20909  0.25162  1.0000
  S   S314      1.0  0.82521  0.20163  0.29197  1.0000
  Fe  Fe159     1.0  0.87142  0.26599  0.27451  1.0000
  S   S315      1.0  0.89606  0.25802  0.24727  1.0000
  S   S316      1.0  0.87197  0.30047  0.28433  1.0000
  Fe  Fe160     1.0  0.86994  0.24085  0.23369  1.0000
  S   S317      1.0  0.86372  0.24101  0.19786  1.0000
  Fe  Fe161     1.0  0.90213  0.22740  0.26761  1.0000
  S   S318      1.0  0.93514  0.21499  0.27724  1.0000
  S   S319      1.0  0.84492  0.25157  0.25906  1.0000
  S   S320      1.0  0.87831  0.23596  0.29548  1.0000
  C   C1098     1.0  0.96035  0.22638  0.26982  1.0000
  C   C1099     1.0  0.96391  0.24062  0.25139  1.0000
  H   H1319     1.0  0.88840  0.30770  0.44202  1.0000
  H   H1320     1.0  0.84020  0.33668  0.42694  1.0000
  C   C1100     1.0  0.97753  0.22035  0.28243  1.0000
  H   H1321     1.0  0.95094  0.24533  0.24143  1.0000
  C   C1101     1.0  0.97909  0.16153  0.26391  1.0000
  H   H1322     1.0  0.97499  0.20936  0.29670  1.0000
  C   C1102     1.0  0.80545  0.13571  0.27364  1.0000
  C   C1103     1.0  0.79085  0.15339  0.27380  1.0000
  C   C1104     1.0  0.79733  0.17375  0.27852  1.0000
  C   C1105     1.0  0.81851  0.17678  0.28267  1.0000
  C   C1106     1.0  0.83329  0.15928  0.28171  1.0000
  C   C1107     1.0  0.82677  0.13885  0.27720  1.0000
  H   H1323     1.0  0.77448  0.15134  0.27069  1.0000
  H   H1324     1.0  0.78578  0.18720  0.27916  1.0000
  H   H1325     1.0  0.84958  0.16131  0.28519  1.0000
  H   H1326     1.0  0.83820  0.12527  0.27704  1.0000
  H   H1327     1.0  0.97037  0.36233  0.43362  1.0000
  C   C1108     1.0  0.79553  0.24776  0.17626  1.0000
  C   C1109     1.0  0.79949  0.25188  0.19752  1.0000
  C   C1110     1.0  0.82035  0.25066  0.20403  1.0000
  C   C1111     1.0  0.83755  0.24510  0.18939  1.0000
  C   C1112     1.0  0.83370  0.24163  0.16785  1.0000
  C   C1113     1.0  0.81273  0.24283  0.16130  1.0000
  H   H1328     1.0  0.78630  0.25590  0.20916  1.0000
  H   H1329     1.0  0.82300  0.25367  0.22052  1.0000
  H   H1330     1.0  0.84695  0.23752  0.15632  1.0000
  H   H1331     1.0  0.80990  0.23981  0.14480  1.0000
  H   H1332     1.0  0.95512  0.37028  0.47255  1.0000
  H   H1333     1.0  0.91939  0.48339  0.38224  1.0000
  H   H1334     1.0  0.96837  0.15095  0.27377  1.0000
  C   C1114     1.0  0.83481  0.18830  0.18769  1.0000
  H   H1335     1.0  0.86577  0.48530  0.46186  1.0000
  H   H1336     1.0  0.93772  0.42292  0.49244  1.0000
  C   C1115     1.0  0.86306  0.32419  0.35350  1.0000
  C   C1116     1.0  0.85871  0.30280  0.35004  1.0000
  C   C1117     1.0  0.86173  0.29512  0.32902  1.0000
  C   C1118     1.0  0.86877  0.30892  0.31124  1.0000
  C   C1119     1.0  0.87323  0.33023  0.31474  1.0000
  C   C1120     1.0  0.87052  0.33781  0.33577  1.0000
  H   H1337     1.0  0.85286  0.29217  0.36364  1.0000
  H   H1338     1.0  0.85815  0.27870  0.32652  1.0000
  H   H1339     1.0  0.87870  0.34102  0.30109  1.0000
  H   H1340     1.0  0.87390  0.35431  0.33818  1.0000
  C   C1121     1.0  0.87239  0.46423  0.40541  1.0000
  C   C1122     1.0  0.86343  0.48342  0.41361  1.0000
  C   C1123     1.0  0.89271  0.46426  0.39432  1.0000
  H   H1341     1.0  0.84769  0.48349  0.42214  1.0000
  H   H1342     1.0  0.89965  0.44963  0.38771  1.0000
  H   H1343     1.0  0.80685  0.20896  0.21519  1.0000
  H   H1344     1.0  0.95867  0.32778  0.29393  1.0000
  C   C1124     1.0  0.76460  0.12273  0.32261  1.0000
  C   C1125     1.0  0.96597  0.38948  0.38432  1.0000
  C   C1126     1.0  0.96027  0.37718  0.40358  1.0000
  H   H1345     1.0  0.92960  0.39884  0.48212  1.0000
  H   H1346     1.0  0.75610  0.16917  0.10055  1.0000
  S   S321      1.0  0.74928  0.21300  0.12213  1.0000
  H   H1347     1.0  0.94472  0.37089  0.40655  1.0000
  H   H1348     1.0  0.89078  0.31624  0.47642  1.0000
  C   C1127     1.0  0.89990  0.36331  0.48359  1.0000
  H   H1349     1.0  0.87489  0.32269  0.42139  1.0000
  C   C1128     1.0  0.83962  0.33341  0.44498  1.0000
  H   H1350     1.0  0.96216  0.42883  0.45845  1.0000
  C   C1129     1.0  0.78635  0.31248  0.21664  1.0000
  H   H1351     1.0  0.92570  0.25880  0.29218  1.0000
  C   C1130     1.0  0.96750  0.37764  0.48111  1.0000
  H   H1352     1.0  0.90656  0.27700  0.30477  1.0000
  H   H1353     1.0  0.82178  0.31127  0.48281  1.0000
  H   H1354     1.0  0.94392  0.31052  0.26798  1.0000
  S   S322      1.0  0.75752  0.23140  0.05876  1.0000
  C   C1131     1.0  0.93189  0.34134  0.34111  1.0000
  H   H1355     1.0  0.96230  0.26725  0.28540  1.0000
  C   C1132     1.0  0.93547  0.30729  0.31261  1.0000
  N   N76       1.0  0.96375  0.40131  0.48159  1.0000
  C   C1133     1.0  0.92138  0.30643  0.33191  1.0000
  C   C1134     1.0  0.98619  0.39804  0.38118  1.0000
  H   H1356     1.0  0.97168  0.29302  0.28912  1.0000
  H   H1357     1.0  0.96487  0.27486  0.31241  1.0000
  H   H1358     1.0  0.92725  0.26357  0.32007  1.0000
  C   C1135     1.0  0.77290  0.16193  0.19583  1.0000
  H   H1359     1.0  0.91099  0.29325  0.33634  1.0000
  C   C1136     1.0  0.77882  0.30494  0.18026  1.0000
  H   H1360     1.0  0.80967  0.29986  0.19285  1.0000
  C   C1137     1.0  0.76507  0.31902  0.22125  1.0000
  H   H1361     1.0  0.85980  0.28174  0.44879  1.0000
  H   H1362     1.0  0.76335  0.31720  0.13964  1.0000
  H   H1363     1.0  0.84907  0.19813  0.18815  1.0000
  C   C1138     1.0  0.79550  0.13611  0.33616  1.0000
  C   C1139     1.0  0.83705  0.31214  0.48931  1.0000
  C   C1140     1.0  0.75766  0.23130  0.01412  1.0000
  C   C1141     1.0  0.75590  0.17665  0.01353  1.0000
  H   H1364     1.0  0.80212  0.14592  0.34812  1.0000
  H   H1365     1.0  0.82293  0.19903  0.17946  1.0000
  H   H1366     1.0  0.88203  0.33617  0.44406  1.0000
  H   H1367     1.0  0.75939  0.16862  0.18747  1.0000
  H   H1368     1.0  0.95362  0.45588  0.39698  1.0000
  H   H1369     1.0  0.84007  0.16327  0.23745  1.0000
  C   C1142     1.0  0.87795  0.36827  0.48511  1.0000
  C   C1143     1.0  0.75702  0.31178  0.18430  1.0000
  C   C1144     1.0  0.81948  0.19869  0.22275  1.0000
  H   H1370     1.0  0.75978  0.32421  0.23728  1.0000
  H   H1371     1.0  0.99056  0.40806  0.36658  1.0000
  H   H1372     1.0  0.98632  0.35684  0.35253  1.0000
  H   H1373     1.0  0.83287  0.20929  0.22460  1.0000
  H   H1374     1.0  0.97992  0.40726  0.44945  1.0000
  C   C1145     1.0  0.98049  0.41024  0.49331  1.0000
  C   C1146     1.0  0.85608  0.31421  0.47535  1.0000
  H   H1375     1.0  0.78515  0.29859  0.16510  1.0000
  C   C1147     1.0  0.98452  0.24820  0.24540  1.0000
  C   C1148     1.0  0.76360  0.13156  0.35999  1.0000
  H   H1376     1.0  0.80141  0.11916  0.33967  1.0000
  N   N77       1.0  0.82658  0.18010  0.20983  1.0000
  H   H1377     1.0  0.98305  0.37322  0.47232  1.0000
  C   C1149     1.0  0.96450  0.41096  0.45886  1.0000
  C   C1150     1.0  0.79023  0.17466  0.19770  1.0000
  H   H1378     1.0  0.98717  0.25880  0.23083  1.0000
  C   C1151     1.0  0.76344  0.16025  0.33147  1.0000
  C   C1152     1.0  0.84472  0.16873  0.22026  1.0000
  C   C1153     1.0  0.77667  0.17826  0.32786  1.0000
  H   H1379     1.0  0.99231  0.32378  0.36857  1.0000
  H   H1380     1.0  0.82289  0.32949  0.45023  1.0000
  C   C1154     1.0  0.98442  0.19066  0.23637  1.0000
  H   H1381     1.0  0.90862  0.32245  0.36032  1.0000
  C   C1155     1.0  0.87545  0.31457  0.48553  1.0000
  H   H1382     1.0  0.85097  0.15456  0.21130  1.0000
  N   N78       1.0  0.93778  0.28980  0.29742  1.0000
  H   H1383     1.0  0.85827  0.17951  0.22074  1.0000
  C   C1156     1.0  0.86562  0.49695  0.49394  1.0000
  C   C1157     1.0  0.97085  0.17675  0.24886  1.0000
  H   H1384     1.0  0.99407  0.34365  0.38824  1.0000
  C   C1158     1.0  0.92370  0.27157  0.30403  1.0000
  H   H1385     1.0  0.79374  0.17688  0.32870  1.0000
  H   H1386     1.0  0.76828  0.14298  0.37161  1.0000
  H   H1387     1.0  0.91631  0.30648  0.27605  1.0000
  H   H1388     1.0  0.78394  0.01336  0.25722  1.0000
  H   H1389     1.0  0.93281  0.28550  0.26386  1.0000
  C   C1159     1.0  0.94587  0.34269  0.32239  1.0000
  C   C1160     1.0  0.91981  0.32321  0.34593  1.0000
  H   H1390     1.0  0.76978  0.11509  0.36521  1.0000
  H   H1391     1.0  0.86969  0.37125  0.47051  1.0000
  H   H1392     1.0  0.81287  0.19324  0.23938  1.0000
  H   H1393     1.0  0.93017  0.35454  0.35173  1.0000
  H   H1394     1.0  0.78931  0.19115  0.19080  1.0000
  C   C1161     1.0  0.76821  0.19889  0.32215  1.0000
  C   C1162     1.0  0.79319  0.30546  0.19621  1.0000
  H   H1395     1.0  0.95501  0.35700  0.31867  1.0000
  C   C1163     1.0  0.96651  0.46537  0.40109  1.0000
  C   C1164     1.0  0.94773  0.32593  0.30834  1.0000
  C   C1165     1.0  0.96011  0.28094  0.29607  1.0000
  C   C1166     1.0  0.90387  0.48341  0.39123  1.0000
  Fe  Fe162     1.0  0.75101  0.24281  0.14036  1.0000
  H   H1396     1.0  0.77881  0.21221  0.31880  1.0000
  H   H1397     1.0  0.95195  0.40467  0.44964  1.0000
  C   C1167     1.0  0.93256  0.29848  0.27541  1.0000
  C   C1168     1.0  0.97486  0.37245  0.41912  1.0000
  H   H1398     1.0  0.87095  0.44698  0.47454  1.0000
  H   H1399     1.0  0.80257  0.14122  0.31956  1.0000
  H   H1400     1.0  0.82028  0.13708  0.22642  1.0000
  N   N79       1.0  0.85526  0.31593  0.45139  1.0000
  C   C1169     1.0  0.84851  0.29531  0.44420  1.0000
  H   H1401     1.0  0.84279  0.34871  0.45219  1.0000
  C   C1170     1.0  0.87608  0.32081  0.43931  1.0000
  C   C1171     1.0  0.96208  0.48568  0.40894  1.0000
  N   N80       1.0  0.77182  0.13813  0.33740  1.0000
  H   H1402     1.0  0.78988  0.11581  0.22299  1.0000
  H   H1403     1.0  0.76833  0.12830  0.30528  1.0000
  C   C1172     1.0  0.77285  0.14072  0.20478  1.0000
  H   H1404     1.0  0.79755  0.31256  0.22901  1.0000
  H   H1405     1.0  0.83238  0.29118  0.45159  1.0000
  H   H1406     1.0  0.84788  0.29606  0.42616  1.0000
  H   H1407     1.0  0.75840  0.28907  0.14672  1.0000
  H   H1408     1.0  0.77463  0.23328  0.01402  1.0000
  H   H1409     1.0  0.96727  0.36982  0.49789  1.0000
  H   H1410     1.0  0.76959  0.15881  0.07651  1.0000
  C   C1173     1.0  0.75719  0.17086  0.08242  1.0000
  C   C1174     1.0  0.87009  0.45934  0.48616  1.0000
  H   H1411     1.0  0.99100  0.44184  0.39158  1.0000
  C   C1175     1.0  0.99525  0.38035  0.41569  1.0000
  C   C1176     1.0  0.98757  0.45748  0.39807  1.0000
  C   C1177     1.0  0.97864  0.49811  0.41402  1.0000
  S   S323      1.0  0.75414  0.07725  0.24469  1.0000
  C   C1178     1.0  0.86712  0.48095  0.47904  1.0000
  H   H1412     1.0  0.98429  0.38746  0.32642  1.0000
  H   H1413     1.0  0.77011  0.18151  0.00356  1.0000
  C   C1179     1.0  0.94175  0.40536  0.49167  1.0000
  H   H1414     1.0  0.76289  0.18738  0.07773  1.0000
  C   C1180     1.0  0.99804  0.22826  0.27664  1.0000
  C   C1181     1.0  0.75583  0.17496  0.03623  1.0000
  H   H1415     1.0  0.75935  0.13088  0.20343  1.0000
  H   H1416     1.0  0.97782  0.20282  0.22506  1.0000
  H   H1417     1.0  0.94568  0.49204  0.41076  1.0000
  H   H1418     1.0  0.77043  0.17877  0.04275  1.0000
  H   H1419     1.0  0.92739  0.35541  0.50154  1.0000
  C   C1182     1.0  0.75056  0.31861  0.20540  1.0000
  Fe  Fe163     1.0  0.92445  0.39299  0.58317  1.0000
  S   S324      1.0  0.91223  0.40618  0.61483  1.0000
  S   S325      1.0  0.95834  0.39802  0.56993  1.0000
  Fe  Fe164     1.0  0.88180  0.37701  0.57527  1.0000
  S   S326      1.0  0.86589  0.38841  0.60662  1.0000
  S   S327      1.0  0.86282  0.36393  0.55036  1.0000
  Fe  Fe165     1.0  0.88385  0.41849  0.59759  1.0000
  S   S328      1.0  0.86730  0.45129  0.60121  1.0000
  Fe  Fe166     1.0  0.89554  0.37488  0.62141  1.0000
  S   S329      1.0  0.89589  0.36068  0.65640  1.0000
  S   S330      1.0  0.89754  0.40808  0.56519  1.0000
  S   S331      1.0  0.91006  0.36073  0.59068  1.0000
  Fe  Fe167     1.0  0.87754  0.20715  0.75434  1.0000
  S   S332      1.0  0.88073  0.22454  0.78449  1.0000
  S   S333      1.0  0.87096  0.17151  0.76149  1.0000
  Fe  Fe168     1.0  0.88439  0.24880  0.72479  1.0000
  S   S334      1.0  0.88754  0.26867  0.75312  1.0000
  S   S335      1.0  0.88384  0.26226  0.68956  1.0000
  Fe  Fe169     1.0  0.90857  0.24058  0.76519  1.0000
  S   S336      1.0  0.93925  0.24584  0.78127  1.0000
  Fe  Fe170     1.0  0.85968  0.25053  0.76955  1.0000
  S   S337      1.0  0.82751  0.26432  0.78317  1.0000
  S   S338      1.0  0.90672  0.22146  0.73593  1.0000
  S   S339      1.0  0.85526  0.23240  0.74028  1.0000
  C   C1183     1.0  0.95644  0.44741  0.62660  1.0000
  S   S340      1.0  0.78841  0.25210  0.88154  1.0000
  H   H1420     1.0  0.97437  0.38523  0.64609  1.0000
  C   C1184     1.0  0.99142  0.18495  0.79848  1.0000
  H   H1421     1.0  0.89751  0.40661  0.66999  1.0000
  H   H1422     1.0  0.79752  0.19911  0.83932  1.0000
  S   S341      1.0  0.79125  0.12611  0.72999  1.0000
  H   H1423     1.0  0.85614  0.48962  0.56150  1.0000
  C   C1185     1.0  0.91050  0.46603  0.65272  1.0000
  C   C1186     1.0  0.81731  0.25820  0.81044  1.0000
  C   C1187     1.0  0.79537  0.25528  0.81507  1.0000
  C   C1188     1.0  0.78647  0.25211  0.83673  1.0000
  C   C1189     1.0  0.79932  0.25278  0.85403  1.0000
  C   C1190     1.0  0.82128  0.25555  0.84936  1.0000
  C   C1191     1.0  0.83031  0.25788  0.82769  1.0000
  H   H1424     1.0  0.78522  0.25537  0.80182  1.0000
  H   H1425     1.0  0.76964  0.24963  0.83994  1.0000
  H   H1426     1.0  0.83135  0.25613  0.86260  1.0000
  H   H1427     1.0  0.84719  0.26033  0.82437  1.0000
  C   C1192     1.0  0.84791  0.15979  0.75352  1.0000
  C   C1193     1.0  0.83981  0.14141  0.76546  1.0000
  C   C1194     1.0  0.82222  0.13107  0.75886  1.0000
  C   C1195     1.0  0.81285  0.13877  0.73991  1.0000
  C   C1196     1.0  0.82099  0.15714  0.72800  1.0000
  C   C1197     1.0  0.83821  0.16776  0.73489  1.0000
  H   H1428     1.0  0.84728  0.13503  0.77982  1.0000
  H   H1429     1.0  0.81631  0.11685  0.76808  1.0000
  H   H1430     1.0  0.81400  0.16314  0.71323  1.0000
  H   H1431     1.0  0.84439  0.18170  0.72537  1.0000
  C   C1198     1.0  0.96650  0.24028  0.77206  1.0000
  C   C1199     1.0  0.97243  0.22959  0.75315  1.0000
  C   C1200     1.0  0.86653  0.36862  0.50568  1.0000
  C   C1201     1.0  0.98266  0.24638  0.78444  1.0000
  H   H1432     1.0  0.96030  0.22489  0.74332  1.0000
  H   H1433     1.0  0.94314  0.14721  0.75096  1.0000
  H   H1434     1.0  0.97830  0.25465  0.79910  1.0000
  C   C1202     1.0  0.89437  0.33288  0.66476  1.0000
  C   C1203     1.0  0.89028  0.31752  0.65039  1.0000
  C   C1204     1.0  0.88753  0.29586  0.65815  1.0000
  C   C1205     1.0  0.88916  0.28930  0.68022  1.0000
  C   C1206     1.0  0.89421  0.30451  0.69435  1.0000
  C   C1207     1.0  0.89651  0.32621  0.68671  1.0000
  H   H1435     1.0  0.88867  0.32242  0.63344  1.0000
  H   H1436     1.0  0.88381  0.28421  0.64704  1.0000
  H   H1437     1.0  0.89617  0.29963  0.71123  1.0000
  H   H1438     1.0  0.89992  0.33794  0.69788  1.0000
  C   C1208     1.0  0.87719  0.36483  0.52469  1.0000
  C   C1209     1.0  0.79862  0.19689  0.82199  1.0000
  H   H1439     1.0  0.97080  0.48290  0.64292  1.0000
  H   H1440     1.0  0.82249  0.31098  0.52231  1.0000
  H   H1441     1.0  0.95429  0.42981  0.62690  1.0000
  H   H1442     1.0  0.89032  0.31503  0.51562  1.0000
  H   H1443     1.0  0.78254  0.14395  0.77819  1.0000
  Fe  Fe171     1.0  0.76486  0.10380  0.74404  1.0000
  H   H1444     1.0  0.83627  0.30670  0.64023  1.0000
  H   H1445     1.0  0.90751  0.35771  0.53772  1.0000
  C   C1210     1.0  0.88406  0.47287  0.60203  1.0000
  C   C1211     1.0  0.96468  0.44564  0.66405  1.0000
  H   H1446     1.0  0.94011  0.17542  0.74140  1.0000
  N   N81       1.0  0.76544  0.17452  0.78069  1.0000
  H   H1447     1.0  0.84513  0.36184  0.67533  1.0000
  C   C1212     1.0  0.75589  0.30785  0.87823  1.0000
  C   C1213     1.0  0.93284  0.15270  0.79291  1.0000
  C   C1214     1.0  0.97346  0.40038  0.59203  1.0000
  C   C1215     1.0  0.96749  0.39012  0.61243  1.0000
  C   C1216     1.0  0.97915  0.39295  0.63028  1.0000
  C   C1217     1.0  0.75433  0.31160  0.83949  1.0000
  H   H1448     1.0  0.95380  0.38011  0.61450  1.0000
  H   H1449     1.0  0.77991  0.16992  0.74816  1.0000
  H   H1450     1.0  0.93946  0.39735  0.50840  1.0000
  N   N82       1.0  0.94014  0.16969  0.77625  1.0000
  C   C1218     1.0  0.99135  0.41301  0.58941  1.0000
  H   H1451     1.0  0.87370  0.43674  0.51375  1.0000
  C   C1219     1.0  0.99211  0.42940  0.52331  1.0000
  H   H1452     1.0  0.88449  0.49299  0.55621  1.0000
  H   H1453     1.0  0.94636  0.45487  0.61400  1.0000
  H   H1454     1.0  0.98137  0.45082  0.66042  1.0000
  C   C1220     1.0  0.81665  0.20331  0.80895  1.0000
  C   C1221     1.0  0.93526  0.16307  0.75464  1.0000
  C   C1222     1.0  0.78210  0.18750  0.81285  1.0000
  C   C1223     1.0  0.96305  0.17311  0.77778  1.0000
  C   C1224     1.0  0.76750  0.15100  0.78606  1.0000
  C   C1225     1.0  0.85644  0.31281  0.52136  1.0000
  H   H1455     1.0  0.93441  0.41599  0.66177  1.0000
  N   N83       1.0  0.95019  0.45584  0.64812  1.0000
  H   H1456     1.0  0.76896  0.18203  0.82395  1.0000
  H   H1457     1.0  0.84944  0.37177  0.50691  1.0000
  C   C1226     1.0  0.83580  0.31411  0.65560  1.0000
  H   H1458     1.0  0.96612  0.42779  0.66371  1.0000
  C   C1227     1.0  0.92775  0.45055  0.65460  1.0000
  H   H1459     1.0  0.75080  0.08175  0.82835  1.0000
  C   C1228     1.0  0.92741  0.18990  0.78025  1.0000
  H   H1460     1.0  0.80515  0.29882  0.74524  1.0000
  N   N84       1.0  0.82753  0.29832  0.71675  1.0000
  H   H1461     1.0  0.87151  0.46386  0.54012  1.0000
  S   S342      1.0  0.75572  0.09279  0.77904  1.0000
  H   H1462     1.0  0.91781  0.16122  0.75387  1.0000
  H   H1463     1.0  0.99624  0.19191  0.81277  1.0000
  C   C1229     1.0  0.76587  0.17821  0.75661  1.0000
  C   C1230     1.0  0.86729  0.49176  0.51653  1.0000
  C   C1231     1.0  0.80916  0.30841  0.72956  1.0000
  H   H1464     1.0  0.95998  0.42243  0.52086  1.0000
  H   H1465     1.0  0.99452  0.34234  0.53602  1.0000
  H   H1466     1.0  0.82948  0.21053  0.81606  1.0000
  C   C1232     1.0  0.99417  0.22466  0.74709  1.0000
  H   H1467     1.0  0.75188  0.17137  0.75012  1.0000
  H   H1468     1.0  0.76972  0.29595  0.87682  1.0000
  C   C1233     1.0  0.87032  0.46951  0.52327  1.0000
  C   C1234     1.0  0.78285  0.18494  0.79009  1.0000
  C   C1235     1.0  0.80167  0.19133  0.77736  1.0000
  C   C1236     1.0  0.81823  0.20037  0.78676  1.0000
  C   C1237     1.0  0.83640  0.33304  0.69508  1.0000
  H   H1469     1.0  0.92779  0.19500  0.79706  1.0000
  H   H1470     1.0  0.75405  0.14249  0.78046  1.0000
  H   H1471     1.0  0.79475  0.30976  0.72025  1.0000
  H   H1472     1.0  0.93345  0.20342  0.76904  1.0000
  H   H1473     1.0  0.94224  0.13728  0.79073  1.0000
  H   H1474     1.0  0.86029  0.28972  0.72064  1.0000
  H   H1475     1.0  0.80415  0.18924  0.76015  1.0000
  H   H1476     1.0  0.83252  0.20496  0.77679  1.0000
  H   H1477     1.0  0.87642  0.47205  0.65477  1.0000
  H   H1478     1.0  0.93444  0.15732  0.80972  1.0000
  C   C1238     1.0  0.92240  0.42898  0.66114  1.0000
  C   C1239     1.0  0.91906  0.48787  0.59710  1.0000
  C   C1240     1.0  0.87536  0.49283  0.60852  1.0000
  H   H1479     1.0  0.91285  0.48266  0.64717  1.0000
  H   H1480     1.0  0.97545  0.16245  0.74574  1.0000
  H   H1481     1.0  0.76477  0.01501  0.74309  1.0000
  C   C1241     1.0  0.83177  0.31088  0.69563  1.0000
  H   H1482     1.0  0.85654  0.31331  0.53887  1.0000
  C   C1242     1.0  0.99696  0.40574  0.62759  1.0000
  H   H1483     1.0  0.99850  0.21602  0.73267  1.0000
  C   C1243     1.0  0.83727  0.31172  0.51196  1.0000
  H   H1484     1.0  0.85134  0.31442  0.73223  1.0000
  H   H1485     1.0  0.99333  0.29626  0.73116  1.0000
  H   H1486     1.0  0.94560  0.48795  0.63267  1.0000
  C   C1244     1.0  0.84648  0.29804  0.72935  1.0000
  H   H1487     1.0  0.83728  0.34103  0.70989  1.0000
  H   H1488     1.0  0.93597  0.48604  0.59246  1.0000
  H   H1489     1.0  0.98816  0.43738  0.53825  1.0000
  H   H1490     1.0  0.85843  0.49473  0.61305  1.0000
  H   H1491     1.0  0.76879  0.30055  0.83759  1.0000
  H   H1492     1.0  0.76593  0.19571  0.75145  1.0000
  H   H1493     1.0  0.99579  0.42131  0.57385  1.0000
  C   C1245     1.0  0.96996  0.18125  0.79676  1.0000
  H   H1494     1.0  0.75342  0.13127  0.85276  1.0000
  C   C1246     1.0  0.89926  0.36077  0.52310  1.0000
  H   H1495     1.0  0.76295  0.32391  0.87787  1.0000
  H   H1496     1.0  0.84433  0.34513  0.64051  1.0000
  H   H1497     1.0  0.91029  0.18823  0.77784  1.0000
  H   H1498     1.0  0.91263  0.45522  0.59074  1.0000
  C   C1247     1.0  0.90119  0.42334  0.66571  1.0000
  C   C1248     1.0  0.84031  0.33579  0.65570  1.0000
  H   H1499     1.0  0.95876  0.18523  0.81027  1.0000
  H   H1500     1.0  0.84367  0.28930  0.74563  1.0000
  H   H1501     1.0  0.82918  0.28484  0.67387  1.0000
  H   H1502     1.0  0.74964  0.05488  0.81990  1.0000
  C   C1249     1.0  0.83172  0.30170  0.67520  1.0000
  C   C1250     1.0  0.82262  0.27550  0.71454  1.0000
  H   H1503     1.0  0.91567  0.14954  0.79198  1.0000
  C   C1251     1.0  0.84070  0.34520  0.67540  1.0000
  H   H1504     1.0  0.80821  0.27433  0.70559  1.0000
  S   S343      1.0  0.75606  0.07241  0.73135  1.0000
  H   H1505     1.0  0.86826  0.43427  0.66616  1.0000
  H   H1506     1.0  0.81247  0.32482  0.73400  1.0000
  C   C1252     1.0  0.90590  0.47049  0.59606  1.0000
  H   H1507     1.0  0.81955  0.26658  0.73075  1.0000
  C   C1253     1.0  0.97907  0.16848  0.76086  1.0000
  H   H1508     1.0  0.83631  0.26661  0.70596  1.0000
  C   C1254     1.0  0.95363  0.47940  0.64637  1.0000
  C   C1255     1.0  0.88934  0.46015  0.65711  1.0000
  Fe  Fe172     1.0  0.75675  0.23761  0.89329  1.0000
  H   H1509     1.0  0.99297  0.36377  0.56482  1.0000
  C   C1256     1.0  0.87549  0.31384  0.50820  1.0000
  H   H1510     1.0  0.97342  0.45031  0.62110  1.0000
  C   C1257     1.0  0.88469  0.43887  0.66351  1.0000
  H   H1511     1.0  0.75866  0.22951  0.97914  1.0000
  H   H1512     1.0  0.95920  0.44970  0.68092  1.0000
  H   H1513     1.0  0.94774  0.48693  0.66167  1.0000
  C   C1258     1.0  0.97591  0.42079  0.51295  1.0000
  H   H1514     1.0  0.76793  0.14719  0.80386  1.0000
  C   C1259     1.0  0.91049  0.35953  0.50260  1.0000
  S   S344      1.0  0.75505  0.20705  0.91519  1.0000
  H   H1515     1.0  0.75535  0.05878  0.84687  1.0000
  C   C1260     1.0  0.87166  0.45363  0.50822  1.0000
  H   H1516     1.0  0.99858  0.36167  0.69424  1.0000
  C   C1261     1.0  0.86846  0.50111  0.55480  1.0000
  H   H1517     1.0  0.75974  0.32844  0.83832  1.0000
  Fe  Fe173     1.0  0.91111  0.59413  0.43334  1.0000
  S   S345      1.0  0.87811  0.60856  0.43926  1.0000
  S   S346      1.0  0.93829  0.60965  0.44601  1.0000
  Fe  Fe174     1.0  0.89661  0.55612  0.41156  1.0000
  S   S347      1.0  0.86222  0.56743  0.41583  1.0000
  S   S348      1.0  0.90938  0.52631  0.39510  1.0000
  Fe  Fe175     1.0  0.87413  0.60044  0.40500  1.0000
  S   S349      1.0  0.85637  0.62420  0.38248  1.0000
  Fe  Fe176     1.0  0.86972  0.57455  0.44949  1.0000
  S   S350      1.0  0.84805  0.56490  0.47923  1.0000
  S   S351      1.0  0.90804  0.58864  0.39832  1.0000
  S   S352      1.0  0.90311  0.56065  0.44599  1.0000
  H   H1518     1.0  0.84831  0.54265  0.32655  1.0000
  S   S353      1.0  0.77251  0.69755  0.17261  1.0000
  N   N85       1.0  0.79977  0.92701  0.26158  1.0000
  H   H1519     1.0  0.79440  0.95506  0.29590  1.0000
  Fe  Fe177     1.0  0.88425  0.69785  0.27392  1.0000
  S   S354      1.0  0.90406  0.70879  0.24321  1.0000
  S   S355      1.0  0.89354  0.66528  0.29050  1.0000
  Fe  Fe178     1.0  0.86064  0.74208  0.27659  1.0000
  S   S356      1.0  0.87939  0.75626  0.24709  1.0000
  S   S357      1.0  0.83386  0.75992  0.29599  1.0000
  Fe  Fe179     1.0  0.87319  0.72501  0.23278  1.0000
  S   S358      1.0  0.86143  0.72831  0.19870  1.0000
  Fe  Fe180     1.0  0.90851  0.73882  0.26016  1.0000
  S   S359      1.0  0.93890  0.75513  0.26719  1.0000
  S   S360      1.0  0.85319  0.71152  0.26200  1.0000
  S   S361      1.0  0.88983  0.72708  0.29101  1.0000
  S   S362      1.0  0.79690  0.85476  0.27058  1.0000
  C   C1262     1.0  0.79369  0.96264  0.27970  1.0000
  H   H1520     1.0  0.79270  0.80230  0.21889  1.0000
  C   C1263     1.0  0.87789  0.58296  0.31072  1.0000
  C   C1264     1.0  0.86137  0.58279  0.32791  1.0000
  C   C1265     1.0  0.82378  0.78616  0.28816  1.0000
  C   C1266     1.0  0.83567  0.80043  0.27397  1.0000
  C   C1267     1.0  0.82734  0.82146  0.26883  1.0000
  C   C1268     1.0  0.80684  0.82819  0.27733  1.0000
  C   C1269     1.0  0.79484  0.81377  0.29121  1.0000
  C   C1270     1.0  0.80340  0.79298  0.29683  1.0000
  H   H1521     1.0  0.85139  0.79541  0.26720  1.0000
  H   H1522     1.0  0.83674  0.83251  0.25807  1.0000
  H   H1523     1.0  0.77911  0.81878  0.29800  1.0000
  H   H1524     1.0  0.79412  0.78209  0.30789  1.0000
  C   C1271     1.0  0.96632  0.74865  0.25943  1.0000
  C   C1272     1.0  0.97278  0.73358  0.24415  1.0000
  C   C1273     1.0  0.78970  0.98500  0.27825  1.0000
  H   H1525     1.0  0.86289  0.51345  0.48760  1.0000
  C   C1274     1.0  0.98213  0.75903  0.26903  1.0000
  H   H1526     1.0  0.96088  0.72543  0.23659  1.0000
  C   C1275     1.0  0.86181  0.54398  0.33678  1.0000
  H   H1527     1.0  0.97739  0.77075  0.28082  1.0000
  C   C1276     1.0  0.79637  0.70757  0.18053  1.0000
  C   C1277     1.0  0.80733  0.72379  0.16797  1.0000
  C   C1278     1.0  0.82725  0.72990  0.17370  1.0000
  C   C1279     1.0  0.83605  0.72049  0.19249  1.0000
  C   C1280     1.0  0.82473  0.70483  0.20548  1.0000
  C   C1281     1.0  0.80517  0.69820  0.19933  1.0000
  H   H1528     1.0  0.80080  0.73116  0.15350  1.0000
  H   H1529     1.0  0.83590  0.74198  0.16351  1.0000
  H   H1530     1.0  0.83135  0.69736  0.21991  1.0000
  H   H1531     1.0  0.79685  0.68562  0.20914  1.0000
  C   C1282     1.0  0.79944  0.91673  0.28409  1.0000
  H   H1532     1.0  0.87688  0.54044  0.32669  1.0000
  C   C1283     1.0  0.86824  0.63723  0.35821  1.0000
  C   C1284     1.0  0.88800  0.63007  0.34857  1.0000
  C   C1285     1.0  0.89583  0.63931  0.32812  1.0000
  C   C1286     1.0  0.88430  0.65614  0.31734  1.0000
  C   C1287     1.0  0.86505  0.66405  0.32745  1.0000
  C   C1288     1.0  0.85696  0.65446  0.34768  1.0000
  H   H1533     1.0  0.89700  0.61703  0.35650  1.0000
  H   H1534     1.0  0.91070  0.63304  0.32038  1.0000
  H   H1535     1.0  0.85596  0.67691  0.31926  1.0000
  H   H1536     1.0  0.84167  0.66011  0.35499  1.0000
  H   H1537     1.0  0.98218  0.61850  0.44956  1.0000
  H   H1538     1.0  0.84443  0.64929  0.47701  1.0000
  C   C1289     1.0  0.83112  0.69506  0.12014  1.0000
  H   H1539     1.0  0.79436  0.67281  0.11553  1.0000
  H   H1540     1.0  0.79598  0.95486  0.22533  1.0000
  H   H1541     1.0  0.83384  0.92910  0.25770  1.0000
  C   C1290     1.0  0.98164  0.60626  0.43807  1.0000
  C   C1291     1.0  0.96201  0.59895  0.43345  1.0000
  C   C1292     1.0  0.96137  0.58292  0.41884  1.0000
  C   C1293     1.0  0.98019  0.57504  0.40792  1.0000
  H   H1542     1.0  0.98471  0.71374  0.28540  1.0000
  H   H1543     1.0  0.94638  0.57665  0.41576  1.0000
  C   C1294     1.0  0.98266  0.67252  0.32504  1.0000
  H   H1544     1.0  0.89180  0.59960  0.28140  1.0000
  Fe  Fe181     1.0  0.76115  0.86258  0.27314  1.0000
  N   N86       1.0  0.88646  0.77882  0.32870  1.0000
  C   C1295     1.0  0.89048  0.78093  0.30468  1.0000
  C   C1296     1.0  0.86540  0.78967  0.33465  1.0000
  C   C1297     1.0  0.90285  0.79066  0.33833  1.0000
  C   C1298     1.0  0.88754  0.75561  0.33617  1.0000
  C   C1299     1.0  0.90750  0.74387  0.33637  1.0000
  C   C1300     1.0  0.86897  0.74363  0.34191  1.0000
  C   C1301     1.0  0.90878  0.72181  0.34268  1.0000
  C   C1302     1.0  0.87045  0.72153  0.34805  1.0000
  C   C1303     1.0  0.89028  0.71066  0.34852  1.0000
  H   H1545     1.0  0.87807  0.77297  0.29675  1.0000
  H   H1546     1.0  0.89033  0.79810  0.29822  1.0000
  H   H1547     1.0  0.90618  0.77329  0.29904  1.0000
  H   H1548     1.0  0.85255  0.78373  0.32571  1.0000
  H   H1549     1.0  0.86531  0.80734  0.33021  1.0000
  H   H1550     1.0  0.86080  0.78726  0.35243  1.0000
  H   H1551     1.0  0.91931  0.78641  0.33152  1.0000
  H   H1552     1.0  0.90085  0.80843  0.33485  1.0000
  H   H1553     1.0  0.90203  0.78733  0.35632  1.0000
  H   H1554     1.0  0.92225  0.75136  0.33071  1.0000
  H   H1555     1.0  0.85306  0.75075  0.34105  1.0000
  H   H1556     1.0  0.92415  0.71314  0.34233  1.0000
  H   H1557     1.0  0.85609  0.71260  0.35188  1.0000
  H   H1558     1.0  0.89127  0.69342  0.35278  1.0000
  S   S363      1.0  0.76329  0.74183  0.12473  1.0000
  H   H1559     1.0  0.76697  0.92201  0.25782  1.0000
  C   C1304     1.0  0.79599  0.95075  0.26074  1.0000
  C   C1305     1.0  0.82084  0.92159  0.25021  1.0000
  H   H1560     1.0  0.86434  0.62928  0.28142  1.0000
  H   H1561     1.0  0.81794  0.79149  0.22755  1.0000
  H   H1562     1.0  0.83534  0.63009  0.31092  1.0000
  C   C1306     1.0  0.95691  0.69720  0.29715  1.0000
  H   H1563     1.0  0.85578  0.71313  0.10072  1.0000
  C   C1307     1.0  0.94809  0.68093  0.31127  1.0000
  C   C1308     1.0  0.95295  0.56318  0.47975  1.0000
  C   C1309     1.0  0.89497  0.50256  0.39954  1.0000
  C   C1310     1.0  0.84688  0.61656  0.31062  1.0000
  H   H1564     1.0  0.78351  0.92190  0.23289  1.0000
  C   C1311     1.0  0.75605  0.71635  0.02217  1.0000
  H   H1565     1.0  0.89747  0.62450  0.47979  1.0000
  H   H1566     1.0  0.80171  0.89882  0.28416  1.0000
  H   H1567     1.0  0.92083  0.55906  0.49362  1.0000
  H   H1568     1.0  0.89549  0.56473  0.34746  1.0000
  H   H1569     1.0  0.88082  0.55440  0.37156  1.0000
  C   C1312     1.0  0.75560  0.76039  0.22144  1.0000
  H   H1570     1.0  0.94690  0.70673  0.28624  1.0000
  H   H1571     1.0  0.81040  0.69022  0.07167  1.0000
  H   H1572     1.0  0.93131  0.67773  0.31127  1.0000
  H   H1573     1.0  0.84169  0.58201  0.37042  1.0000
  C   C1313     1.0  0.87875  0.59943  0.29405  1.0000
  C   C1314     1.0  0.84222  0.56690  0.36168  1.0000
  H   H1574     1.0  0.78383  0.91998  0.29346  1.0000
  H   H1575     1.0  0.86082  0.53074  0.34998  1.0000
  H   H1576     1.0  0.83333  0.60217  0.34028  1.0000
  H   H1577     1.0  0.82603  0.72917  0.08863  1.0000
  C   C1315     1.0  0.88034  0.56697  0.35782  1.0000
  C   C1316     1.0  0.99471  0.72923  0.23839  1.0000
  H   H1578     1.0  0.82484  0.67012  0.08782  1.0000
  H   H1579     1.0  0.97399  0.51383  0.41963  1.0000
  H   H1580     1.0  0.81829  0.76044  0.20807  1.0000
  C   C1317     1.0  0.96091  0.66868  0.32524  1.0000
  C   C1318     1.0  0.86324  0.61615  0.29398  1.0000
  C   C1319     1.0  0.86206  0.69008  0.15112  1.0000
  H   H1581     1.0  0.88044  0.58301  0.36463  1.0000
  H   H1582     1.0  0.82719  0.56619  0.35363  1.0000
  C   C1320     1.0  0.78307  0.91712  0.25057  1.0000
  H   H1583     1.0  0.78467  0.89916  0.25199  1.0000
  H   H1584     1.0  0.82431  0.90379  0.25093  1.0000
  H   H1585     1.0  0.79657  0.73862  0.24971  1.0000
  H   H1586     1.0  0.89060  0.57065  0.31035  1.0000
  H   H1587     1.0  0.81244  0.92234  0.29306  1.0000
  H   H1588     1.0  0.78716  0.99375  0.29288  1.0000
  C   C1321     1.0  0.80056  0.76027  0.21064  1.0000
  H   H1589     1.0  0.79697  0.76148  0.26559  1.0000
  H   H1590     1.0  0.88179  0.70926  0.12803  1.0000
  C   C1322     1.0  0.84258  0.68037  0.15547  1.0000
  S   S364      1.0  0.75915  0.71839  0.06623  1.0000
  C   C1323     1.0  0.79025  0.98505  0.23922  1.0000
  H   H1591     1.0  0.76772  0.70305  0.02337  1.0000
  H   H1592     1.0  0.79834  0.72584  0.08786  1.0000
  H   H1593     1.0  0.78176  0.69423  0.10002  1.0000
  H   H1594     1.0  0.84235  0.55340  0.37457  1.0000
  C   C1324     1.0  0.80032  0.79128  0.23127  1.0000
  H   H1595     1.0  0.87231  0.64929  0.46882  1.0000
  H   H1596     1.0  0.84968  0.67951  0.49792  1.0000
  C   C1325     1.0  0.82231  0.68779  0.08409  1.0000
  C   C1326     1.0  0.86661  0.70168  0.13127  1.0000
  C   C1327     1.0  0.93683  0.56297  0.49664  1.0000
  H   H1597     1.0  0.78740  0.69823  0.12726  1.0000
  H   H1598     1.0  0.93174  0.61204  0.49156  1.0000
  N   N87       1.0  0.81497  0.69878  0.10405  1.0000
  C   C1328     1.0  0.82726  0.68275  0.14030  1.0000
  H   H1599     1.0  0.83758  0.69398  0.07629  1.0000
  C   C1329     1.0  0.81193  0.72226  0.09817  1.0000
  H   H1600     1.0  0.80866  0.73140  0.11301  1.0000
  C   C1330     1.0  0.84593  0.60027  0.32747  1.0000
  H   H1601     1.0  0.87346  0.68899  0.16338  1.0000
  H   H1602     1.0  0.94934  0.55966  0.46356  1.0000
  N   N88       1.0  0.86125  0.56552  0.34575  1.0000
  H   H1603     1.0  0.83895  0.67172  0.17113  1.0000
  H   H1604     1.0  0.81223  0.67547  0.14524  1.0000
  H   H1605     1.0  0.82175  0.92724  0.23269  1.0000
  H   H1606     1.0  0.95394  0.65598  0.33617  1.0000
  C   C1331     1.0  0.79441  0.96273  0.24043  1.0000
  H   H1607     1.0  0.87831  0.67830  0.49347  1.0000
  H   H1608     1.0  0.86775  0.51715  0.41735  1.0000
  C   C1332     1.0  0.75855  0.77969  0.25366  1.0000
  H   H1609     1.0  0.79646  0.74314  0.21024  1.0000
  H   H1610     1.0  0.79703  0.79842  0.24719  1.0000
  H   H1611     1.0  0.81954  0.75489  0.24736  1.0000
  C   C1333     1.0  0.79376  0.69062  0.11214  1.0000
  H   H1612     1.0  0.79406  0.76969  0.19649  1.0000
  C   C1334     1.0  0.97860  0.70112  0.29679  1.0000
  C   C1335     1.0  0.85150  0.70398  0.11586  1.0000
  C   C1336     1.0  0.80176  0.75550  0.24930  1.0000
  N   N89       1.0  0.79243  0.76917  0.23156  1.0000
  C   C1337     1.0  0.76888  0.76978  0.23534  1.0000
  H   H1613     1.0  0.97952  0.56312  0.39611  1.0000
  H   H1614     1.0  0.75259  0.82539  0.16916  1.0000
  H   H1615     1.0  0.78839  0.99378  0.22362  1.0000
  C   C1338     1.0  0.78786  0.99615  0.25810  1.0000
  C   C1339     1.0  0.90048  0.62759  0.49619  1.0000
  C   C1340     1.0  0.86030  0.64259  0.48149  1.0000
  C   C1341     1.0  0.97354  0.56870  0.48332  1.0000
  C   C1342     1.0  0.99221  0.68888  0.31063  1.0000
  H   H1616     1.0  0.99162  0.66236  0.33624  1.0000
  H   H1617     1.0  0.88497  0.58018  0.49879  1.0000
  H   H1618     1.0  0.76185  0.75235  0.20716  1.0000
  H   H1619     1.0  0.86009  0.62479  0.48039  1.0000
  H   H1620     1.0  0.76755  0.78679  0.26521  1.0000
  H   H1621     1.0  0.98505  0.56909  0.46930  1.0000
  Fe  Fe182     1.0  0.75143  0.71524  0.14827  1.0000
  C   C1343     1.0  0.87476  0.50250  0.41087  1.0000
  H   H1622     1.0  0.99327  0.61383  0.49831  1.0000
  C   C1344     1.0  0.74887  0.72706  0.04093  1.0000
  Fe  Fe183     1.0  0.93071  0.60536  0.58857  1.0000
  S   S365      1.0  0.90143  0.62427  0.60084  1.0000
  S   S366      1.0  0.95944  0.61909  0.56961  1.0000
  Fe  Fe184     1.0  0.91483  0.56223  0.60759  1.0000
  S   S367      1.0  0.88399  0.57706  0.62182  1.0000
  S   S368      1.0  0.92797  0.52782  0.60826  1.0000
  Fe  Fe185     1.0  0.88437  0.59664  0.58962  1.0000
  S   S369      1.0  0.85518  0.60158  0.57106  1.0000
  Fe  Fe186     1.0  0.90368  0.60345  0.63194  1.0000
  S   S370      1.0  0.90289  0.61354  0.66668  1.0000
  S   S371      1.0  0.91352  0.57974  0.57477  1.0000
  S   S372      1.0  0.93443  0.58673  0.62041  1.0000
  Fe  Fe187     1.0  0.88588  0.71896  0.73206  1.0000
  S   S373      1.0  0.89226  0.69698  0.76130  1.0000
  S   S374      1.0  0.88799  0.70906  0.69716  1.0000
  Fe  Fe188     1.0  0.87467  0.75766  0.75954  1.0000
  S   S375      1.0  0.88104  0.73833  0.79077  1.0000
  S   S376      1.0  0.86286  0.79246  0.76337  1.0000
  Fe  Fe189     1.0  0.91015  0.72459  0.77153  1.0000
  S   S377      1.0  0.94217  0.71520  0.78507  1.0000
  Fe  Fe190     1.0  0.86270  0.71277  0.77782  1.0000
  S   S378      1.0  0.83379  0.69523  0.79396  1.0000
  S   S379      1.0  0.90521  0.74593  0.74130  1.0000
  S   S380      1.0  0.85499  0.73278  0.74755  1.0000
  H   H1623     1.0  0.75030  0.74186  0.85371  1.0000
  C   C1345     1.0  0.96245  0.63081  0.68011  1.0000
  S   S381      1.0  0.77590  0.83190  0.72891  1.0000
  H   H1624     1.0  0.84972  0.66615  0.66116  1.0000
  H   H1625     1.0  0.84158  0.53266  0.54353  1.0000
  S   S382      1.0  0.76333  0.87480  0.77360  1.0000
  H   H1626     1.0  0.76940  0.84094  0.84880  1.0000
  H   H1627     1.0  0.93720  0.69780  0.69862  1.0000
  C   C1346     1.0  0.75605  0.77944  0.83193  1.0000
  S   S383      1.0  0.78815  0.71606  0.88677  1.0000
  H   H1628     1.0  0.83784  0.63195  0.75786  1.0000
  C   C1347     1.0  0.97860  0.57413  0.50419  1.0000
  H   H1629     1.0  0.75785  0.72504  0.83194  1.0000
  H   H1630     1.0  0.85357  0.67445  0.75824  1.0000
  C   C1348     1.0  0.77415  0.77490  0.76349  1.0000
  C   C1349     1.0  0.99816  0.64409  0.69841  1.0000
  H   H1631     1.0  0.82309  0.65339  0.77036  1.0000
  S   S384      1.0  0.76096  0.93593  0.74708  1.0000
  C   C1350     1.0  0.82172  0.69997  0.82031  1.0000
  C   C1351     1.0  0.83198  0.71114  0.83490  1.0000
  C   C1352     1.0  0.82172  0.71501  0.85551  1.0000
  C   C1353     1.0  0.80084  0.70855  0.86149  1.0000
  C   C1354     1.0  0.79073  0.69696  0.84708  1.0000
  C   C1355     1.0  0.80125  0.69248  0.82669  1.0000
  H   H1632     1.0  0.84801  0.71632  0.83052  1.0000
  H   H1633     1.0  0.83005  0.72297  0.86701  1.0000
  H   H1634     1.0  0.77489  0.69136  0.85173  1.0000
  H   H1635     1.0  0.79333  0.68347  0.81567  1.0000
  C   C1356     1.0  0.83853  0.80297  0.75381  1.0000
  C   C1357     1.0  0.82852  0.82134  0.76282  1.0000
  C   C1358     1.0  0.80892  0.82989  0.75594  1.0000
  C   C1359     1.0  0.79984  0.82092  0.73903  1.0000
  C   C1360     1.0  0.81029  0.80307  0.72942  1.0000
  C   C1361     1.0  0.82931  0.79382  0.73710  1.0000
  H   H1636     1.0  0.83589  0.82896  0.77526  1.0000
  H   H1637     1.0  0.80115  0.84372  0.76333  1.0000
  H   H1638     1.0  0.80351  0.79621  0.71613  1.0000
  H   H1639     1.0  0.83712  0.77996  0.72970  1.0000
  C   C1362     1.0  0.96738  0.72665  0.77800  1.0000
  C   C1363     1.0  0.98580  0.71597  0.78563  1.0000
  C   C1364     1.0  0.97623  0.59220  0.65480  1.0000
  H   H1640     1.0  0.84376  0.68160  0.69632  1.0000
  C   C1365     1.0  0.96958  0.74579  0.76481  1.0000
  H   H1641     1.0  0.98428  0.70124  0.79597  1.0000
  H   H1642     1.0  0.95559  0.75426  0.75890  1.0000
  C   C1366     1.0  0.90027  0.64043  0.67449  1.0000
  C   C1367     1.0  0.90090  0.64421  0.69656  1.0000
  C   C1368     1.0  0.89814  0.66525  0.70362  1.0000
  C   C1369     1.0  0.89405  0.68266  0.68873  1.0000
  C   C1370     1.0  0.89406  0.67897  0.66656  1.0000
  C   C1371     1.0  0.89729  0.65796  0.65942  1.0000
  H   H1643     1.0  0.90344  0.63074  0.70828  1.0000
  H   H1644     1.0  0.89894  0.66797  0.72059  1.0000
  H   H1645     1.0  0.89113  0.69238  0.65489  1.0000
  H   H1646     1.0  0.89689  0.65528  0.64236  1.0000
  C   C1372     1.0  0.85493  0.58908  0.54641  1.0000
  C   C1373     1.0  0.83535  0.58282  0.54052  1.0000
  C   C1374     1.0  0.83368  0.57533  0.51996  1.0000
  C   C1375     1.0  0.85467  0.66806  0.74183  1.0000
  N   N90       1.0  0.98511  0.61381  0.64977  1.0000
  C   C1376     1.0  0.87302  0.58762  0.53150  1.0000
  H   H1647     1.0  0.82128  0.58409  0.55182  1.0000
  C   C1377     1.0  0.89161  0.64161  0.53157  1.0000
  C   C1378     1.0  0.84058  0.62007  0.69260  1.0000
  H   H1648     1.0  0.88814  0.59276  0.53579  1.0000
  C   C1379     1.0  0.82596  0.64541  0.75470  1.0000
  H   H1649     1.0  0.97586  0.65721  0.72295  1.0000
  H   H1650     1.0  0.77303  0.78225  0.83366  1.0000
  H   H1651     1.0  0.98962  0.55082  0.59902  1.0000
  H   H1652     1.0  0.88189  0.52533  0.61533  1.0000
  C   C1380     1.0  0.78319  0.74304  0.79594  1.0000
  C   C1381     1.0  0.84385  0.51980  0.53178  1.0000
  C   C1382     1.0  0.98076  0.60114  0.57528  1.0000
  C   C1383     1.0  0.97672  0.58008  0.58351  1.0000
  C   C1384     1.0  0.96166  0.57411  0.52096  1.0000
  C   C1385     1.0  0.99034  0.70091  0.68323  1.0000
  H   H1653     1.0  0.96085  0.57415  0.58409  1.0000
  N   N91       1.0  0.81783  0.89482  0.73010  1.0000
  C   C1386     1.0  0.79758  0.88988  0.72126  1.0000
  C   C1387     1.0  0.81302  0.89778  0.75369  1.0000
  C   C1388     1.0  0.82497  0.91548  0.71908  1.0000
  C   C1389     1.0  0.83491  0.87779  0.72696  1.0000
  C   C1390     1.0  0.83266  0.85959  0.71478  1.0000
  C   C1391     1.0  0.85457  0.87907  0.73632  1.0000
  C   C1392     1.0  0.84882  0.84342  0.71291  1.0000
  C   C1393     1.0  0.87052  0.86267  0.73451  1.0000
  C   C1394     1.0  0.86756  0.84479  0.72301  1.0000
  H   H1654     1.0  0.79128  0.87452  0.72900  1.0000
  H   H1655     1.0  0.78489  0.90267  0.72430  1.0000
  H   H1656     1.0  0.79954  0.88872  0.70332  1.0000
  H   H1657     1.0  0.80956  0.88214  0.76289  1.0000
  H   H1658     1.0  0.79892  0.90904  0.75679  1.0000
  H   H1659     1.0  0.82631  0.90479  0.76106  1.0000
  H   H1660     1.0  0.82889  0.91392  0.70133  1.0000
  H   H1661     1.0  0.81235  0.92862  0.72102  1.0000
  H   H1662     1.0  0.83940  0.92104  0.72578  1.0000
  H   H1663     1.0  0.81832  0.85701  0.70712  1.0000
  H   H1664     1.0  0.85765  0.89263  0.74537  1.0000
  H   H1665     1.0  0.84649  0.82932  0.70419  1.0000
  H   H1666     1.0  0.88518  0.86365  0.74229  1.0000
  H   H1667     1.0  0.87966  0.83177  0.72216  1.0000
  H   H1668     1.0  0.75417  0.71446  0.98748  1.0000
  H   H1669     1.0  0.84082  0.60278  0.69126  1.0000
  C   C1395     1.0  0.98222  0.71111  0.72018  1.0000
  C   C1396     1.0  0.84513  0.63358  0.67399  1.0000
  C   C1397     1.0  0.84181  0.66447  0.69585  1.0000
  C   C1398     1.0  0.99310  0.56670  0.59160  1.0000
  H   H1670     1.0  0.81509  0.68616  0.75221  1.0000
  C   C1399     1.0  0.92598  0.62360  0.52346  1.0000
  C   C1400     1.0  0.76675  0.75889  0.80070  1.0000
  C   C1401     1.0  0.83639  0.62865  0.71293  1.0000
  H   H1671     1.0  0.94810  0.62587  0.67378  1.0000
  H   H1672     1.0  0.88096  0.53819  0.53705  1.0000
  H   H1673     1.0  0.84899  0.62679  0.65837  1.0000
  H   H1674     1.0  0.83119  0.50800  0.53615  1.0000
  C   C1402     1.0  0.81848  0.67961  0.73587  1.0000
  H   H1675     1.0  0.77189  0.97840  0.72964  1.0000
  C   C1403     1.0  0.76270  0.98022  0.74507  1.0000
  C   C1404     1.0  0.91052  0.50756  0.60434  1.0000
  H   H1676     1.0  0.86697  0.65458  0.74172  1.0000
  C   C1405     1.0  0.85142  0.57458  0.50474  1.0000
  C   C1406     1.0  0.79022  0.75916  0.75938  1.0000
  C   C1407     1.0  0.79483  0.74336  0.77562  1.0000
  H   H1677     1.0  0.84089  0.52775  0.51553  1.0000
  N   N92       1.0  0.86466  0.64788  0.50369  1.0000
  H   H1678     1.0  0.77052  0.78718  0.75079  1.0000
  H   H1679     1.0  0.94924  0.70996  0.73265  1.0000
  H   H1680     1.0  0.86072  0.68115  0.72999  1.0000
  H   H1681     1.0  0.83119  0.64753  0.51488  1.0000
  H   H1682     1.0  0.83336  0.61719  0.72667  1.0000
  C   C1408     1.0  0.96073  0.70729  0.71882  1.0000
  H   H1683     1.0  0.82460  0.69337  0.72503  1.0000
  C   C1409     1.0  0.87118  0.58074  0.51049  1.0000
  C   C1410     1.0  0.84679  0.63976  0.51884  1.0000
  H   H1684     1.0  0.98819  0.60743  0.52704  1.0000
  C   C1411     1.0  0.91162  0.63422  0.53786  1.0000
  H   H1685     1.0  0.95568  0.62686  0.63721  1.0000
  H   H1686     1.0  0.87905  0.53379  0.50921  1.0000
  C   C1412     1.0  0.98998  0.75394  0.75913  1.0000
  Fe  Fe191     1.0  0.75326  0.71785  0.90068  1.0000
  C   C1413     1.0  0.88155  0.52533  0.52532  1.0000
  H   H1687     1.0  0.94422  0.64555  0.70671  1.0000
  H   H1688     1.0  0.94153  0.61807  0.52834  1.0000
  H   H1689     1.0  0.79914  0.75922  0.74357  1.0000
  C   C1414     1.0  0.83683  0.65123  0.71515  1.0000
  C   C1415     1.0  0.97784  0.64855  0.70824  1.0000
  C   C1416     1.0  0.84553  0.65575  0.67559  1.0000
  H   H1690     1.0  0.96399  0.57894  0.53702  1.0000
  N   N93       1.0  0.83360  0.78237  0.83065  1.0000
  C   C1417     1.0  0.82733  0.76723  0.81507  1.0000
  C   C1418     1.0  0.85209  0.79431  0.82047  1.0000
  C   C1419     1.0  0.84074  0.76918  0.84991  1.0000
  C   C1420     1.0  0.81565  0.79791  0.83605  1.0000
  C   C1421     1.0  0.80590  0.81049  0.81922  1.0000
  C   C1422     1.0  0.80760  0.80139  0.85782  1.0000
  C   C1423     1.0  0.78936  0.82574  0.82383  1.0000
  C   C1424     1.0  0.79099  0.81664  0.86224  1.0000
  C   C1425     1.0  0.78205  0.82891  0.84530  1.0000
  H   H1691     1.0  0.82439  0.77534  0.79890  1.0000
  H   H1692     1.0  0.84008  0.75464  0.81159  1.0000
  H   H1693     1.0  0.81282  0.75875  0.82171  1.0000
  H   H1694     1.0  0.84819  0.80417  0.80552  1.0000
  H   H1695     1.0  0.86578  0.78319  0.81542  1.0000
  H   H1696     1.0  0.85771  0.80551  0.83177  1.0000
  H   H1697     1.0  0.82736  0.76017  0.85863  1.0000
  H   H1698     1.0  0.85359  0.75699  0.84523  1.0000
  H   H1699     1.0  0.84745  0.77927  0.86158  1.0000
  H   H1700     1.0  0.81102  0.80865  0.80234  1.0000
  H   H1701     1.0  0.81384  0.79261  0.87178  1.0000
  H   H1702     1.0  0.78210  0.83520  0.81073  1.0000
  H   H1703     1.0  0.78503  0.81907  0.87895  1.0000
  H   H1704     1.0  0.91614  0.63683  0.55396  1.0000
  C   C1426     1.0  0.88858  0.51018  0.60969  1.0000
  C   C1427     1.0  0.95396  0.70045  0.69971  1.0000
  C   C1428     1.0  0.97313  0.62556  0.63259  1.0000
  H   H1705     1.0  0.86554  0.67694  0.52065  1.0000
  C   C1429     1.0  0.98293  0.62594  0.66967  1.0000
  H   H1706     1.0  0.78743  0.73023  0.80764  1.0000
  H   H1707     1.0  0.80311  0.67518  0.73020  1.0000
  C   C1430     1.0  0.96874  0.69719  0.68199  1.0000
  N   N94       1.0  0.83389  0.66075  0.73655  1.0000
  H   H1708     1.0  0.81065  0.63867  0.75134  1.0000
  C   C1431     1.0  0.76009  0.74117  0.83784  1.0000
  H   H1709     1.0  0.88113  0.64984  0.54338  1.0000
  H   H1710     1.0  0.97502  0.61724  0.61713  1.0000
  H   H1711     1.0  0.96333  0.69183  0.66717  1.0000
  C   C1432     1.0  0.96003  0.64200  0.69906  1.0000
  H   H1712     1.0  0.89793  0.51771  0.52438  1.0000
  H   H1713     1.0  0.92847  0.56865  0.53020  1.0000
  H   H1714     1.0  0.80745  0.73119  0.77245  1.0000
  H   H1715     1.0  0.99148  0.76867  0.74880  1.0000
  H   H1716     1.0  0.77690  0.74226  0.84169  1.0000
  H   H1717     1.0  0.98648  0.71693  0.73515  1.0000
  H   H1718     1.0  0.81839  0.57053  0.51567  1.0000
  C   C1433     1.0  0.76269  0.77495  0.78388  1.0000
  C   C1434     1.0  0.75509  0.96179  0.75734  1.0000
  H   H1719     1.0  0.84542  0.62218  0.51782  1.0000
  C   C1435     1.0  0.86452  0.67170  0.50396  1.0000
  H   H1720     1.0  0.97819  0.58231  0.64034  1.0000
  C   C1436     1.0  0.94117  0.56841  0.51721  1.0000
  H   H1721     1.0  0.95886  0.59317  0.65999  1.0000
  H   H1722     1.0  0.97878  0.64219  0.62885  1.0000
  Fe  Fe192     1.0  0.75384  0.85601  0.74677  1.0000
  N   N95       1.0  0.75384  0.75885  0.82188  1.0000
  H   H1723     1.0  0.99763  0.57119  0.54301  1.0000
  C   C1437     1.0  0.88539  0.63860  0.51047  1.0000
  H   H1724     1.0  0.84858  0.64239  0.53616  1.0000
  H   H1725     1.0  0.75044  0.78758  0.78629  1.0000
  H   H1726     1.0  0.86730  0.51452  0.56591  1.0000
  N   N96       1.0  0.86537  0.50904  0.53196  1.0000
  C   C1438     1.0  0.99775  0.70805  0.70248  1.0000
  H   H1727     1.0  0.98437  0.58308  0.66812  1.0000
  C   C1439     1.0  0.75861  0.00105  0.75261  1.0000
  C   C1440     1.0  0.92041  0.62023  0.50274  1.0000
  H   H1728     1.0  0.74927  0.79363  0.82245  1.0000
