data_image0
_chemical_formula_structural       H2S2C3SH3C3SFeH2CH2CHCHSH2CSCHC2FeC3HFeC2FeC2SCH2C2H5NSCHCHCH2NSC2H2SH2CH5CFeCFeH2C3H2FeS2FeS2FeSFeS3CFeS2FeSFeHSNCH2CHCH7CHC2HC2H2CHC7H4CHCHC2H2C2NC5HC2HCHCH3CHC4HNC3H2CSCHC4HNC2H2CSNC5HSH2CHCH5CHC2HCHCH3CHCHNC2HCH3CH2CHC2HCH3CH2NHCSC4HFeCH2C3H4CHCFeH3CH9C2H2CH5C2H2C2H2SH2CH6NHCS2HFeSHNHC2HFeSHSHFeSFeS3CH2FeS2FeSFeSFeS3FeS2FeS2FeSFeS3CHSCH3S2H3C6H3C7H4C6H4FeHC4HCH2C8H3C2HC6H5C6H3C6H3NC9H14SCH2C2HFeSH2CSH2C2HCNC9H17C2SH2CHC2H2CH3CHC2H4SCHCHFeHNFeHC3SCHCHCHSN2C4H9C2H2CHCFeCHCH6CHSH4CH2C4NH2CFeHC3HC5H3CSCH3CHCH2CNH2CH2NH5SH4CH2C3H3CSH2S2FeSH2SH2S3HFeS2C6H4C6HSH3C4H2CHC6H2C6H4C2FeHFeSCFeCFeCH4CHSH2C3SH2FeH2NHNCHC3H3CH5SCHSCH2C3H3SCSCHC4H2C3HFeHCHCH3CNFeC3HCHCHCHCH5CHSFeS2HC2FeSFeCH3SH2CH3FeS2FeC2HSHCH2C4H2SCH3CH2CHC6H4C5H5CH4NC2SNH2C4HC2NCHCHCSH2SHCH9C3HCHSHCHCH2CHCHC3FeSCH2FeS2FeS2FeHFeS4FeS2FeSHFeSFeS3H3FeSCNH5CH2C7H4C6H3C2HCHCHC6H3CH2CSCH2C7H4NHCH2CH6C2H3SH3CHCHCH2CSCH2CHC2HNCHC3H2C2HCH7C3SCH4CH6CH4C4HCH2CHCNHC3SC2H4NH4C3HSCH2SHC2HC4HCH3CSHSH3SFeS2CHFeSFeCS2NFeS2FeS2FeSFeS3H2FeS2C2H2CFeSCSHCSHC2HC6H4NH2C5H2CSC4H4C2HC3SH2C6H4C6H4CH2CHCFeH3CHCH3C3SC2SHCH2FeHCH2CH2CHC2HC3H2CH9NCHCH4FeHC3H2C2SCH4CHCH2C2HNHCSNC9H13CHC2HNHC2SCFeH3FeCHCH2C3NH2CHCHC4HC2HSHCFeC3HSHCHCSH2FeH2CH2CH2CHS2HCH3CH3CH2C2HSCHCH2FeH3FeHSH2NHC4HCHCHC3HCH2CHC7H4CH2CHCH4NH2SC2H3SH2CHCHCHNSHCHSC3H2CH3CH2C4H2SCH2NCH2C2H2C2FeSH3CHSH2FeS2FeSFeHFeS3H2FeCSFeH3S2FeS2FeSHFeSFeS3CNSH2CHSC7H4C6H4C6H4C6H6C3HSH2C2HC2HNHFeHCHCHCH3C4H2CHFeH3CHSHCH2C4HCH2CHC2H3CH5CHC2HSC2HCH4FeHNC5H4CH2C2HSH2CHC2SH2CHC3FeCNHC2HCNCHCHC2HC3SCHSC3HCHFeC2HC2HNSCHCH5CSHSH6CH3C2H3C2H3CH2NCHC2HCH9CH2C2H2CH3C5HNHCHC2SCH2NFeH2CSFeSHFeS2FeS2FeSFeS3FeHS2HCHCSCHC6H4C3HC2HSH2C6H4SHCFeC7H5CH2C2H2C4S2C2H2S2C3HCHNC2H5C2FeHCHCHSHCHCNC2H4C4SC3H4CNC9H14SHC3SFeCFeH5FeHCHCH3C2H2C2H2C3H3N2FeSCHCH2SHCH7CH3CH7C3H2SCHCS2FeSCFeSFeHSHSCSHFeSC7H5CH3NC5H3SFeH2CH5C6H2NHCHSH3C2SH2SH2C3SFeCFeC2H2SH2FeHCNC9H14FeHCH5SH2CH2CNHCHCH2C2HSHCNH2CSH5FeHC2HCH6C2H3SHNFeS2FeSCHCFeSHSFeHCH2NHCFeH2FeS2FeS2FeSFeS3FeS3FeSFeS3FeSFeSFeCS2HNCHSHC6H4C2H2C4H4C5HCH4CHC3HCH2CHC2H3CHC7H4C6H5C5H2C5H2SC2NC9H12CH2SH5SHCHCFeCH4CH6CH2SHCSH2C3HSCH3CH2CHC2H6C2HSFeC3SC2H2CH2CNCHC5NHNCH2CH4CHNH2C4HSH2C4HCNH2C2H2CH6C2NCHC3H2CHCHFeCH2C2H5CHCHCH2CHC2H3SC3HC3H4CH3SH2CHCH3CHC3H2Fe2S2HSHFeSFeS2H2FeSCH2FeSCFeSCFeS2FeSFeCSHCHFeS2FeS2FeSFeS3FeCSCH2SCH2FeHC3HCHCHC3NH3C6H4C6H4CNH2C6H4S2NC2H2C6H5SHSH4SHCHCH2CSC5HCHSH3NC9H14CHCH2CFeC2H2CH4CSCH5SC2H2CH2NC9H13CNH2C4H2SHCHC2SHFeCH2SH3CHC2H4C2NC4HCH2SCH2CH2CHCHC2NHCH4CHC2H4C2HC2HC2HSHSHC3FeS2HCHFeSHSCFeSFeS2FeSFeS3C4SH3FeH4C7H4C2SHC8H7CH4CH2CHNCHCH2CSCNC7H14CH5C2H3C3HCHC2H4NC2HC6HCFeH2S3HCH4CHCHCH2CHC2HC3SFeH3CHNHC2HNC3H2CH4C2HCHCH3FeH3CH3CHCH6C5H2Fe2S2FeHFeSHS2FeS2FeSCFeSFeS3FeCSFeHSC2SHC2HCSHC2H3CNH3CHC8H4C6H6C2H3CNH5CHC2H2CH2CH3CSCHCH2CSC2H5C3H4CHC2H2CHC2H3CHCH2CH2FeH2C4NH3C4HC3HFeS2FeS2FeCFeS3HCHSFeS2FeS2FeSFeS3FeS2FeSHFeCFeS3FeS2FeSFeSFeS3FeCSCH3SC2SH2C6H6C6H4C6H4C6H4C6H4C6H4C6H3CHCNH2C3HCHNC9H14NC9H14NC9H7CHCSHCHCH3CH3CHCHCFeHCHCH2NH6C2H2CH2C2H2CH2C2HCH3CH2CH7CHC2H2CH2C2H3CHCH3CSFeCH2CH3C2HC3H2C2NH2C2SH2CHCH3FeHNCH2CHNSH5CHC2H2C3H2CNH2CHSCHC2H2SC2HCH3SCHC3H4NCHCH4C2HCNHC3HC2HCH4FeSHFeS2FeSFeSH2FeS2FeSCFeSFeS3HC3H3C6H4CHCH3C2HNSHC5HCH2C2H2C3H2CH2CH2CH2C3HSH3C6H2FeC3H2SCHC2SH2C2HCHSH5CFeHCH5SCFe2NC9H11CHCNHC3H6CH3SC2HCH4CHNCH2SHSH2C2H3SNHSC2FeS2FeSHFeSFeS3FeS2FeSFeSFeCS2FeS2HNFeSFeS3C4H5CHC6H4C6H6C4H2C2HC5H3CH3CNCHC6H2CHCH2CH2C2H2CFeC2HCSCH6CHSC3SHCHC3HSCNHSHCH2SH5CH2CHCHNH3C3NC9H16C6HCSCH2C2HCHCHCH2CSCHCH5CHCH2CNC9H13FeH7CHCH2CH2C2H2SH2CFeS2FeSHSCHCH2C2H2CFeS2FeS2FeSFeS3FeS2FeS2FeSFeS3CH2S2CSFeSFeS2FeH2C3HCHFeC6H4C6H3C6H4C2H2CHC5H4CH2CH2C4FeH2C3HC2H3CH3C6H4C6H5CSH3CHC3H4SCH2CH3SH4C3HNC3H2CH3CHCHNH5C4SH4C2HCH2CHNSHCHFe2H7NC9H18CNCHCHCHSC3HCH5CH3FeH2FeSC2SH2CNH2C2HC2H2CH2CHCHCH2CH2CHNHCHNHC2H2C2NH2CHC3H3CHC2HCSCH2CHCH2C3HC3H2CHCSHC3HC5HCH5NH2S2CFeS2FeS2FeSFeS3C3HFeSHSFeSFeCFeS2FeS2FeSFeS2HCHC6H4CH2C3HCH2NC6H4C6H5CH3SH3C5HCH5CHC3H2SH2CHC3HC2HCH6C2H4C2H2NCH3CH2CH2C2H2NCHSH2CHCH2CNCH2CH5CH3C2HCHC3SH5CHC3H3CHFeSHCHNC2H2CHCHC3HNC2H2NCHC3HCSHCH3SC3H3CH2CH3CH2SHC4HFeHSHCHSC2H4C2HCHNHCHC2H6CH5FeHFeSCHNHCSC3H2CHCH2CHCHC4H3CH3CHC2S2CSNHSHC3HFeS2CHCFeS2FeSFeSCHFeS2FeS2FeSFeS3FeS2FeS2FeSFeS3H2FeHC6H2C6H4C2H3FeHCH2CH3C4SH2C3HC3SH2C2HN2HC7H4CHC7H4CH5CH2C6H4CH4CHCHCHCSHCFeHCH2C3H5CHC4H3SCH4CNHC2HC2H2C3H5SHSCH2C2H2CH3C3HCH3SCHSHFeH2CHSHCSHNC2HCHFeC2HFeHSHCSHCHCHC3HNH4CNCHC2H2C3H7FeCHC4H3NCH3CH3CSCHC2HCHC2HFeCSCHNSH2SH3CHSCHC2HCHSCHFeS2FeS2FeSFeS3FeS2FeS2FeSFeHS2C6H3C6H4C2HC4H3SC6H4SFeHCH2CH3FeHC2H4C2HNH2C2HCSH7SH2SHCH2NH3C8NHCHFeCH6CH4C2NC9H6CH5CH2C6H2CH3C3H2C3SH3CNCFeHC2H4S2H2FeCH3SH2C2H2CH4CHFeH3C2HCH3CHCH3NSFeSHCSHSCFe2CH6CHCHCH3CFeH2SC3HNC2HC5HCHSHNH2CH2CH4CH3C3HCH4C3
_chemical_formula_sum              "H2592 S576 C2160 Fe288 N144"
_cell_length_a       72.2561
_cell_length_b       72.2166
_cell_length_c       72.5039
_cell_angle_alpha    75.0502
_cell_angle_beta     75.1781
_cell_angle_gamma    74.7145

_space_group_name_H-M_alt    "P 1"
_space_group_IT_number       1

loop_
  _space_group_symop_operation_xyz
  'x, y, z'

loop_
  _atom_site_type_symbol
  _atom_site_label
  _atom_site_symmetry_multiplicity
  _atom_site_fract_x
  _atom_site_fract_y
  _atom_site_fract_z
  _atom_site_occupancy
  H   H1        1.0  0.01460  0.47154  0.22951  1.0000
  H   H2        1.0  0.22416  0.39283  0.23079  1.0000
  S   S1        1.0  0.26203  0.39172  0.20539  1.0000
  S   S2        1.0  0.30134  0.42359  0.18216  1.0000
  C   C1        1.0  0.25920  0.41753  0.22808  1.0000
  C   C2        1.0  0.01560  0.46875  0.18306  1.0000
  C   C3        1.0  0.18384  0.46750  0.14162  1.0000
  S   S3        1.0  0.00182  0.46385  0.16853  1.0000
  H   H3        1.0  0.26561  0.48539  0.14644  1.0000
  H   H4        1.0  0.23206  0.46878  0.12913  1.0000
  H   H5        1.0  0.17790  0.46207  0.17853  1.0000
  C   C4        1.0  0.19724  0.45214  0.19814  1.0000
  C   C5        1.0  0.31130  0.44071  0.10676  1.0000
  C   C6        1.0  0.21599  0.47439  0.13078  1.0000
  S   S4        1.0  0.32206  0.43881  0.21956  1.0000
  Fe  Fe1       1.0  0.12522  0.46724  0.21136  1.0000
  H   H6        1.0  0.18167  0.47160  0.12629  1.0000
  H   H7        1.0  0.32396  0.44705  0.09960  1.0000
  C   C7        1.0  0.03814  0.47748  0.20513  1.0000
  H   H8        1.0  0.05591  0.43856  0.21193  1.0000
  H   H9        1.0  0.22213  0.47274  0.00702  1.0000
  C   C8        1.0  0.29394  0.44776  0.09955  1.0000
  H   H10       1.0  0.24765  0.47211  0.20827  1.0000
  C   C9        1.0  0.27763  0.43938  0.10853  1.0000
  H   H11       1.0  0.17454  0.45669  0.14965  1.0000
  S   S5        1.0  0.25594  0.44807  0.09942  1.0000
  H   H12       1.0  0.28146  0.46937  0.21213  1.0000
  H   H13       1.0  0.05910  0.48191  0.17818  1.0000
  C   C10       1.0  0.29574  0.41762  0.13265  1.0000
  S   S6        1.0  0.31647  0.37694  0.17806  1.0000
  C   C11       1.0  0.02003  0.47222  0.21404  1.0000
  H   H14       1.0  0.29631  0.40606  0.14551  1.0000
  C   C12       1.0  0.31220  0.42568  0.12334  1.0000
  C   C13       1.0  0.20838  0.45422  0.16283  1.0000
  Fe  Fe2       1.0  0.29320  0.39485  0.19721  1.0000
  C   C14       1.0  0.00875  0.46797  0.20306  1.0000
  C   C15       1.0  0.07094  0.43103  0.21425  1.0000
  C   C16       1.0  0.27805  0.47332  0.19769  1.0000
  H   H15       1.0  0.20346  0.42996  0.14271  1.0000
  Fe  Fe3       1.0  0.25431  0.47945  0.08409  1.0000
  C   C17       1.0  0.25909  0.47475  0.19552  1.0000
  C   C18       1.0  0.10781  0.40986  0.22370  1.0000
  Fe  Fe4       1.0  0.32622  0.40537  0.16473  1.0000
  C   C19       1.0  0.21641  0.44487  0.20087  1.0000
  C   C20       1.0  0.29288  0.47650  0.18129  1.0000
  S   S7        1.0  0.14841  0.44010  0.21707  1.0000
  C   C21       1.0  0.19315  0.45676  0.17945  1.0000
  H   H16       1.0  0.29334  0.45942  0.08678  1.0000
  H   H17       1.0  0.07963  0.44269  0.20964  1.0000
  C   C22       1.0  0.28928  0.48095  0.16212  1.0000
  C   C23       1.0  0.22773  0.44645  0.16621  1.0000
  H   H18       1.0  0.18535  0.45383  0.21063  1.0000
  H   H19       1.0  0.24647  0.43552  0.18722  1.0000
  H   H20       1.0  0.10785  0.41868  0.20919  1.0000
  H   H21       1.0  0.24004  0.44381  0.15433  1.0000
  H   H22       1.0  0.26600  0.41775  0.13208  1.0000
  N   N1        1.0  0.20477  0.45939  0.14274  1.0000
  S   S8        1.0  0.10731  0.47253  0.18868  1.0000
  C   C24       1.0  0.21134  0.44172  0.13398  1.0000
  H   H23       1.0  0.27341  0.41975  0.21975  1.0000
  C   C25       1.0  0.25003  0.40484  0.22374  1.0000
  H   H24       1.0  0.29310  0.47707  0.12378  1.0000
  C   C26       1.0  0.23160  0.44177  0.18498  1.0000
  H   H25       1.0  0.31304  0.45248  0.14540  1.0000
  H   H26       1.0  0.21945  0.44136  0.21537  1.0000
  N   N2        1.0  0.30558  0.48326  0.14507  1.0000
  S   S9        1.0  0.31060  0.38932  0.22027  1.0000
  C   C27       1.0  0.22905  0.48509  0.00025  1.0000
  C   C28       1.0  0.27857  0.42426  0.12505  1.0000
  H   H27       1.0  0.24016  0.48055  0.17526  1.0000
  H   H28       1.0  0.20893  0.44511  0.11877  1.0000
  S   S10       1.0  0.05167  0.48275  0.21962  1.0000
  H   H29       1.0  0.17806  0.48108  0.14760  1.0000
  H   H30       1.0  0.21309  0.47928  0.11573  1.0000
  C   C29       1.0  0.04511  0.47803  0.18520  1.0000
  H   H31       1.0  0.03932  0.47421  0.15878  1.0000
  H   H32       1.0  0.22728  0.43544  0.13295  1.0000
  H   H33       1.0  0.99479  0.46405  0.21007  1.0000
  H   H34       1.0  0.30737  0.47500  0.18371  1.0000
  H   H35       1.0  0.07669  0.42057  0.20419  1.0000
  C   C30       1.0  0.32009  0.46445  0.14529  1.0000
  Fe  Fe5       1.0  0.32113  0.41650  0.20334  1.0000
  C   C31       1.0  0.03388  0.47366  0.17423  1.0000
  Fe  Fe6       1.0  0.08283  0.48773  0.20940  1.0000
  H   H36       1.0  0.13910  0.39964  0.21626  1.0000
  H   H37       1.0  0.32587  0.47567  0.22499  1.0000
  C   C32       1.0  0.26978  0.48223  0.16039  1.0000
  C   C33       1.0  0.25495  0.47935  0.17692  1.0000
  C   C34       1.0  0.12599  0.39886  0.22753  1.0000
  H   H38       1.0  0.21215  0.48758  0.13735  1.0000
  H   H39       1.0  0.06264  0.39535  0.23213  1.0000
  Fe  Fe7       1.0  0.18657  0.41066  0.34131  1.0000
  S   S11       1.0  0.17974  0.38169  0.34280  1.0000
  S   S12       1.0  0.17902  0.42492  0.36694  1.0000
  Fe  Fe8       1.0  0.20596  0.41529  0.29877  1.0000
  S   S13       1.0  0.20147  0.38663  0.29624  1.0000
  S   S14       1.0  0.22134  0.43547  0.27446  1.0000
  Fe  Fe9       1.0  0.17145  0.39594  0.31373  1.0000
  S   S15       1.0  0.14396  0.39569  0.30485  1.0000
  Fe  Fe10      1.0  0.21031  0.37511  0.32518  1.0000
  S   S16       1.0  0.23381  0.34817  0.33083  1.0000
  S   S17       1.0  0.17539  0.42555  0.31409  1.0000
  S   S18       1.0  0.21768  0.40301  0.32610  1.0000
  C   C35       1.0  0.12832  0.42073  0.27463  1.0000
  Fe  Fe11      1.0  0.22069  0.27258  0.42469  1.0000
  S   S19       1.0  0.23348  0.24054  0.42668  1.0000
  S   S20       1.0  0.20039  0.28835  0.40399  1.0000
  Fe  Fe12      1.0  0.25892  0.24676  0.43448  1.0000
  S   S21       1.0  0.28913  0.23035  0.42360  1.0000
  Fe  Fe13      1.0  0.22053  0.23772  0.45844  1.0000
  H   H40       1.0  0.14178  0.37969  0.24910  1.0000
  S   S22       1.0  0.24754  0.27949  0.42945  1.0000
  N   N3        1.0  0.15905  0.47195  0.26528  1.0000
  C   C36       1.0  0.29205  0.20576  0.43611  1.0000
  H   H41       1.0  0.27874  0.11123  0.47874  1.0000
  H   H42       1.0  0.16277  0.45630  0.38733  1.0000
  C   C37       1.0  0.18848  0.47809  0.33525  1.0000
  H   H43       1.0  0.27438  0.34065  0.24177  1.0000
  C   C38       1.0  0.31030  0.19285  0.43323  1.0000
  H   H44       1.0  0.26191  0.20848  0.45104  1.0000
  H   H45       1.0  0.21483  0.34168  0.38922  1.0000
  H   H46       1.0  0.06181  0.42956  0.26288  1.0000
  H   H47       1.0  0.17357  0.26474  0.43524  1.0000
  H   H48       1.0  0.16513  0.38353  0.41093  1.0000
  H   H49       1.0  0.24493  0.46065  0.27057  1.0000
  H   H50       1.0  0.24241  0.48036  0.28228  1.0000
  C   C39       1.0  0.16294  0.41373  0.24700  1.0000
  H   H51       1.0  0.19829  0.22481  0.43179  1.0000
  C   C40       1.0  0.13778  0.47319  0.31885  1.0000
  C   C41       1.0  0.20361  0.33228  0.42889  1.0000
  H   H52       1.0  0.29779  0.38337  0.27507  1.0000
  C   C42       1.0  0.29703  0.06127  0.41786  1.0000
  C   C43       1.0  0.28132  0.05246  0.42844  1.0000
  H   H53       1.0  0.27778  0.44951  0.31497  1.0000
  H   H54       1.0  0.27177  0.04938  0.42080  1.0000
  C   C44       1.0  0.16020  0.22043  0.44671  1.0000
  H   H55       1.0  0.19588  0.44843  0.33054  1.0000
  C   C45       1.0  0.27306  0.10151  0.47283  1.0000
  C   C46       1.0  0.22503  0.33025  0.35009  1.0000
  C   C47       1.0  0.23765  0.31732  0.36181  1.0000
  C   C48       1.0  0.23032  0.30403  0.37824  1.0000
  C   C49       1.0  0.21046  0.30341  0.38266  1.0000
  C   C50       1.0  0.19806  0.31576  0.37043  1.0000
  C   C51       1.0  0.20527  0.32933  0.35431  1.0000
  H   H56       1.0  0.25297  0.31794  0.35854  1.0000
  H   H57       1.0  0.24001  0.29440  0.38753  1.0000
  H   H58       1.0  0.18273  0.31516  0.37368  1.0000
  H   H59       1.0  0.19555  0.33897  0.34508  1.0000
  C   C52       1.0  0.14479  0.40733  0.28032  1.0000
  H   H60       1.0  0.23266  0.46580  0.31376  1.0000
  C   C53       1.0  0.16208  0.40382  0.26646  1.0000
  H   H61       1.0  0.17471  0.39323  0.27066  1.0000
  C   C54       1.0  0.23180  0.42436  0.25445  1.0000
  C   C55       1.0  0.22232  0.41213  0.24979  1.0000
  H   H62       1.0  0.32256  0.19790  0.42286  1.0000
  H   H63       1.0  0.20787  0.41036  0.25787  1.0000
  C   C56       1.0  0.16941  0.48247  0.36713  1.0000
  C   C57       1.0  0.12928  0.43091  0.25521  1.0000
  N   N4        1.0  0.18911  0.35960  0.40384  1.0000
  C   C58       1.0  0.20727  0.35728  0.38866  1.0000
  C   C59       1.0  0.19412  0.35217  0.42338  1.0000
  C   C60       1.0  0.17583  0.34823  0.40143  1.0000
  C   C61       1.0  0.24864  0.12888  0.46115  1.0000
  C   C62       1.0  0.18997  0.36418  0.43733  1.0000
  H   H64       1.0  0.16196  0.34974  0.41252  1.0000
  C   C63       1.0  0.01865  0.17861  0.46150  1.0000
  C   C64       1.0  0.18770  0.23227  0.42201  1.0000
  H   H65       1.0  0.29959  0.06487  0.40210  1.0000
  C   C65       1.0  0.29410  0.41474  0.26750  1.0000
  H   H66       1.0  0.15316  0.25770  0.45302  1.0000
  C   C66       1.0  0.15437  0.47782  0.28437  1.0000
  H   H67       1.0  0.01160  0.19445  0.45995  1.0000
  H   H68       1.0  0.21786  0.36517  0.39035  1.0000
  H   H69       1.0  0.24767  0.10745  0.43751  1.0000
  C   C67       1.0  0.32056  0.33578  0.28667  1.0000
  H   H70       1.0  0.20426  0.36309  0.37369  1.0000
  C   C68       1.0  0.28512  0.34314  0.29427  1.0000
  C   C69       1.0  0.30241  0.34433  0.26075  1.0000
  C   C70       1.0  0.29697  0.16699  0.45755  1.0000
  C   C71       1.0  0.30898  0.06605  0.42759  1.0000
  H   H71       1.0  0.15989  0.25996  0.40886  1.0000
  N   N5        1.0  0.25884  0.45247  0.29534  1.0000
  C   C72       1.0  0.25026  0.14884  0.45485  1.0000
  C   C73       1.0  0.06346  0.43598  0.24704  1.0000
  C   C74       1.0  0.28997  0.05219  0.45863  1.0000
  H   H72       1.0  0.23077  0.44444  0.30681  1.0000
  H   H73       1.0  0.20814  0.33100  0.47476  1.0000
  C   C75       1.0  0.31269  0.17339  0.44378  1.0000
  S   S23       1.0  0.29982  0.14290  0.47118  1.0000
  C   C76       1.0  0.14505  0.18819  0.47199  1.0000
  H   H74       1.0  0.17530  0.38555  0.38559  1.0000
  C   C77       1.0  0.27622  0.19901  0.44934  1.0000
  C   C78       1.0  0.30569  0.06109  0.44798  1.0000
  C   C79       1.0  0.20851  0.32488  0.44720  1.0000
  C   C80       1.0  0.14073  0.47542  0.25809  1.0000
  H   H75       1.0  0.17634  0.41090  0.23632  1.0000
  N   N6        1.0  0.07091  0.42088  0.23489  1.0000
  C   C81       1.0  0.18867  0.45788  0.34081  1.0000
  C   C82       1.0  0.27601  0.39736  0.29651  1.0000
  H   H76       1.0  0.27294  0.38367  0.30582  1.0000
  H   H77       1.0  0.14362  0.47178  0.24345  1.0000
  C   C83       1.0  0.19495  0.35655  0.45567  1.0000
  S   S24       1.0  0.25629  0.03961  0.46162  1.0000
  N   N7        1.0  0.26501  0.35175  0.26841  1.0000
  C   C84       1.0  0.25357  0.37041  0.27415  1.0000
  C   C85       1.0  0.26666  0.35438  0.24709  1.0000
  C   C86       1.0  0.25384  0.33613  0.27826  1.0000
  C   C87       1.0  0.28422  0.34647  0.27431  1.0000
  C   C88       1.0  0.25260  0.46690  0.27814  1.0000
  H   H78       1.0  0.03357  0.17734  0.45212  1.0000
  S   S25       1.0  0.24687  0.24144  0.46662  1.0000
  H   H79       1.0  0.04883  0.44494  0.24463  1.0000
  H   H80       1.0  0.19308  0.24550  0.41272  1.0000
  C   C89       1.0  0.25001  0.42743  0.24332  1.0000
  H   H81       1.0  0.18700  0.48030  0.25452  1.0000
  C   C90       1.0  0.17914  0.38062  0.40028  1.0000
  H   H82       1.0  0.27454  0.36626  0.23880  1.0000
  H   H83       1.0  0.25204  0.35875  0.24296  1.0000
  H   H84       1.0  0.05430  0.40090  0.25606  1.0000
  H   H85       1.0  0.25010  0.33459  0.29438  1.0000
  H   H86       1.0  0.23961  0.33926  0.27356  1.0000
  C   C91       1.0  0.17269  0.48281  0.25013  1.0000
  H   H87       1.0  0.27192  0.34435  0.30544  1.0000
  C   C92       1.0  0.27753  0.04824  0.44882  1.0000
  C   C93       1.0  0.17100  0.20075  0.44735  1.0000
  H   H88       1.0  0.24451  0.44251  0.32516  1.0000
  C   C94       1.0  0.14146  0.22314  0.45923  1.0000
  H   H89       1.0  0.11489  0.42338  0.28530  1.0000
  C   C95       1.0  0.28414  0.43260  0.27282  1.0000
  H   H90       1.0  0.13936  0.25339  0.42687  1.0000
  H   H91       1.0  0.18243  0.33232  0.40304  1.0000
  H   H92       1.0  0.20740  0.32223  0.41906  1.0000
  C   C96       1.0  0.16839  0.45084  0.26739  1.0000
  H   H93       1.0  0.04171  0.14430  0.47353  1.0000
  C   C97       1.0  0.27879  0.17985  0.46036  1.0000
  H   H94       1.0  0.17301  0.44616  0.25313  1.0000
  N   N8        1.0  0.26467  0.11252  0.45551  1.0000
  C   C98       1.0  0.26586  0.41516  0.30189  1.0000
  C   C99       1.0  0.14227  0.46808  0.30063  1.0000
  H   H95       1.0  0.08030  0.39785  0.26928  1.0000
  C   C100      1.0  0.21731  0.15964  0.47214  1.0000
  H   H96       1.0  0.18297  0.37952  0.43445  1.0000
  H   H97       1.0  0.15845  0.44130  0.27694  1.0000
  H   H98       1.0  0.18548  0.19715  0.43865  1.0000
  C   C101      1.0  0.17937  0.45000  0.35962  1.0000
  H   H99       1.0  0.26135  0.38264  0.26703  1.0000
  H   H100      1.0  0.17203  0.35316  0.38671  1.0000
  C   C102      1.0  0.16998  0.46231  0.37281  1.0000
  H   H101      1.0  0.23910  0.37479  0.26980  1.0000
  C   C103      1.0  0.24098  0.45110  0.31093  1.0000
  C   C104      1.0  0.15443  0.24738  0.41946  1.0000
  H   H102      1.0  0.18848  0.22257  0.41203  1.0000
  C   C105      1.0  0.23144  0.40236  0.23438  1.0000
  H   H103      1.0  0.17194  0.17009  0.46033  1.0000
  H   H104      1.0  0.15332  0.23698  0.41101  1.0000
  H   H105      1.0  0.18866  0.39032  0.40071  1.0000
  C   C106      1.0  0.20419  0.33694  0.46059  1.0000
  H   H106      1.0  0.17748  0.24493  0.45551  1.0000
  H   H107      1.0  0.11648  0.44104  0.25089  1.0000
  N   N9        1.0  0.16754  0.23753  0.43347  1.0000
  H   H108      1.0  0.30338  0.34641  0.24525  1.0000
  C   C107      1.0  0.16785  0.25183  0.44481  1.0000
  S   S26       1.0  0.20551  0.26923  0.45606  1.0000
  C   C108      1.0  0.28085  0.11905  0.43985  1.0000
  C   C109      1.0  0.09048  0.40964  0.23841  1.0000
  C   C110      1.0  0.23084  0.12501  0.47374  1.0000
  C   C111      1.0  0.27226  0.46012  0.30243  1.0000
  H   H109      1.0  0.07353  0.44631  0.24345  1.0000
  Fe  Fe14      1.0  0.32643  0.12482  0.45548  1.0000
  C   C112      1.0  0.14479  0.48841  0.32131  1.0000
  H   H110      1.0  0.30503  0.41459  0.25412  1.0000
  H   H111      1.0  0.26658  0.17497  0.47079  1.0000
  C   C113      1.0  0.32024  0.33904  0.26695  1.0000
  C   C114      1.0  0.23471  0.16393  0.46024  1.0000
  C   C115      1.0  0.16340  0.18495  0.45977  1.0000
  H   H112      1.0  0.25728  0.43705  0.24676  1.0000
  H   H113      1.0  0.27540  0.12788  0.42653  1.0000
  H   H114      1.0  0.26234  0.32163  0.27510  1.0000
  H   H115      1.0  0.28728  0.04876  0.47438  1.0000
  C   C116      1.0  0.09267  0.39825  0.25719  1.0000
  H   H116      1.0  0.29238  0.10641  0.43542  1.0000
  C   C117      1.0  0.12755  0.38765  0.24605  1.0000
  Fe  Fe15      1.0  0.23327  0.27340  0.46120  1.0000
  H   H117      1.0  0.25038  0.36938  0.29018  1.0000
  H   H118      1.0  0.26342  0.15323  0.44578  1.0000
  H   H119      1.0  0.25540  0.41425  0.31550  1.0000
  C   C118      1.0  0.26928  0.43341  0.28994  1.0000
  H   H120      1.0  0.13637  0.45624  0.29944  1.0000
  H   H121      1.0  0.11241  0.37927  0.27546  1.0000
  H   H122      1.0  0.19541  0.48418  0.32067  1.0000
  H   H123      1.0  0.18163  0.44749  0.27373  1.0000
  H   H124      1.0  0.19169  0.36589  0.46614  1.0000
  H   H125      1.0  0.21583  0.30970  0.45104  1.0000
  H   H126      1.0  0.24827  0.08979  0.46020  1.0000
  H   H127      1.0  0.28857  0.12779  0.44469  1.0000
  H   H128      1.0  0.30326  0.33511  0.31569  1.0000
  C   C119      1.0  0.29001  0.39716  0.27927  1.0000
  C   C120      1.0  0.11095  0.38745  0.26089  1.0000
  H   H129      1.0  0.17580  0.47820  0.23594  1.0000
  H   H130      1.0  0.23619  0.17911  0.45522  1.0000
  C   C121      1.0  0.21535  0.14025  0.47898  1.0000
  H   H131      1.0  0.31532  0.06394  0.45558  1.0000
  H   H132      1.0  0.01710  0.14116  0.47785  1.0000
  H   H133      1.0  0.28518  0.46321  0.29083  1.0000
  H   H134      1.0  0.12892  0.46522  0.33117  1.0000
  H   H135      1.0  0.28551  0.08930  0.46927  1.0000
  C   C122      1.0  0.30302  0.33788  0.30030  1.0000
  C   C123      1.0  0.25696  0.09913  0.44832  1.0000
  H   H136      1.0  0.13239  0.23760  0.45966  1.0000
  H   H137      1.0  0.26484  0.47418  0.30728  1.0000
  C   C124      1.0  0.14664  0.42750  0.24141  1.0000
  C   C125      1.0  0.05702  0.40752  0.24025  1.0000
  H   H138      1.0  0.20534  0.17141  0.47609  1.0000
  H   H139      1.0  0.13042  0.46635  0.26789  1.0000
  S   S27       1.0  0.20670  0.21194  0.47253  1.0000
  H   H140      1.0  0.22874  0.11016  0.47948  1.0000
  H   H141      1.0  0.26889  0.08872  0.44088  1.0000
  C   C126      1.0  0.13410  0.20725  0.47170  1.0000
  H   H142      1.0  0.00975  0.17198  0.45552  1.0000
  H   H143      1.0  0.26816  0.99186  0.47402  1.0000
  H   H144      1.0  0.04239  0.41539  0.23686  1.0000
  H   H145      1.0  0.26505  0.47216  0.26733  1.0000
  H   H146      1.0  0.28820  0.44577  0.26334  1.0000
  H   H147      1.0  0.13951  0.17592  0.48201  1.0000
  N   N10       1.0  0.01957  0.16896  0.48204  1.0000
  H   H148      1.0  0.12000  0.20972  0.48156  1.0000
  C   C127      1.0  0.02692  0.14756  0.48288  1.0000
  S   S28       1.0  0.10025  0.48000  0.23307  1.0000
  S   S29       1.0  0.19907  0.37938  0.68498  1.0000
  H   H149      1.0  0.31826  0.07199  0.53407  1.0000
  Fe  Fe16      1.0  0.22277  0.39473  0.68407  1.0000
  S   S30       1.0  0.22575  0.42277  0.66219  1.0000
  H   H150      1.0  0.07300  0.16727  0.50882  1.0000
  N   N11       1.0  0.18731  0.99512  0.56536  1.0000
  H   H151      1.0  0.16045  0.99822  0.58668  1.0000
  C   C128      1.0  0.23925  0.30032  0.57450  1.0000
  C   C129      1.0  0.26714  0.27623  0.58453  1.0000
  H   H152      1.0  0.26406  0.44814  0.72543  1.0000
  Fe  Fe17      1.0  0.25227  0.00110  0.52956  1.0000
  S   S31       1.0  0.24900  0.02145  0.54959  1.0000
  H   H153      1.0  0.31434  0.16183  0.51180  1.0000
  S   S32       1.0  0.24856  0.05758  0.51071  1.0000
  H   H154      1.0  0.14626  0.19558  0.51265  1.0000
  Fe  Fe18      1.0  0.27078  0.03585  0.52639  1.0000
  S   S33       1.0  0.29591  0.04652  0.53002  1.0000
  Fe  Fe19      1.0  0.22694  0.04159  0.53255  1.0000
  S   S34       1.0  0.19946  0.05592  0.55087  1.0000
  S   S35       1.0  0.27662  0.01347  0.50794  1.0000
  S   S36       1.0  0.22849  0.02023  0.51423  1.0000
  C   C130      1.0  0.14198  0.33625  0.72779  1.0000
  H   H155      1.0  0.26106  0.17973  0.63671  1.0000
  H   H156      1.0  0.27525  0.14919  0.51500  1.0000
  Fe  Fe20      1.0  0.08969  0.17172  0.55357  1.0000
  S   S37       1.0  0.11188  0.14456  0.56306  1.0000
  S   S38       1.0  0.05690  0.17748  0.55456  1.0000
  Fe  Fe21      1.0  0.11964  0.19763  0.54230  1.0000
  S   S39       1.0  0.14420  0.17292  0.55058  1.0000
  Fe  Fe22      1.0  0.13249  0.15599  0.53590  1.0000
  S   S40       1.0  0.15426  0.13956  0.51394  1.0000
  Fe  Fe23      1.0  0.12204  0.16391  0.57680  1.0000
  S   S41       1.0  0.13101  0.15445  0.60600  1.0000
  S   S42       1.0  0.10959  0.18166  0.52531  1.0000
  S   S43       1.0  0.09822  0.19001  0.56980  1.0000
  Fe  Fe24      1.0  0.17935  0.27429  0.62405  1.0000
  S   S44       1.0  0.20146  0.27532  0.59591  1.0000
  S   S45       1.0  0.16878  0.30200  0.63629  1.0000
  Fe  Fe25      1.0  0.17768  0.23159  0.62623  1.0000
  S   S46       1.0  0.20001  0.22930  0.59881  1.0000
  S   S47       1.0  0.16614  0.20480  0.64318  1.0000
  Fe  Fe26      1.0  0.21564  0.24544  0.61035  1.0000
  S   S48       1.0  0.24700  0.23566  0.61312  1.0000
  Fe  Fe27      1.0  0.18328  0.25916  0.58747  1.0000
  S   S49       1.0  0.17314  0.26417  0.55952  1.0000
  S   S50       1.0  0.19472  0.24529  0.63902  1.0000
  S   S51       1.0  0.15977  0.26058  0.61436  1.0000
  C   C131      1.0  0.17534  0.27702  0.70622  1.0000
  H   H157      1.0  0.99542  0.16704  0.54631  1.0000
  S   S52       1.0  0.27122  0.48458  0.66766  1.0000
  C   C132      1.0  0.26026  0.27932  0.55282  1.0000
  H   H158      1.0  0.20169  0.13710  0.48830  1.0000
  H   H159      1.0  0.18370  0.11013  0.49644  1.0000
  H   H160      1.0  0.17564  0.01492  0.58528  1.0000
  S   S53       1.0  0.29933  0.18847  0.54964  1.0000
  S   S54       1.0  0.29726  0.14639  0.59616  1.0000
  H   H161      1.0  0.23098  0.20216  0.63329  1.0000
  H   H162      1.0  0.24898  0.44695  0.63406  1.0000
  H   H163      1.0  0.18544  0.21832  0.54158  1.0000
  C   C133      1.0  0.21688  0.28321  0.50473  1.0000
  C   C134      1.0  0.22222  0.27827  0.52290  1.0000
  C   C135      1.0  0.20877  0.27261  0.53993  1.0000
  C   C136      1.0  0.18992  0.27205  0.53870  1.0000
  C   C137      1.0  0.18455  0.27714  0.52054  1.0000
  C   C138      1.0  0.19803  0.28266  0.50356  1.0000
  H   H164      1.0  0.23688  0.27847  0.52368  1.0000
  H   H165      1.0  0.21305  0.26853  0.55391  1.0000
  H   H166      1.0  0.16995  0.27677  0.51959  1.0000
  C   C139      1.0  0.16213  0.43085  0.71944  1.0000
  C   C140      1.0  0.26166  0.22331  0.59498  1.0000
  C   C141      1.0  0.27840  0.20934  0.59903  1.0000
  C   C142      1.0  0.29008  0.19879  0.58496  1.0000
  C   C143      1.0  0.28539  0.20266  0.56661  1.0000
  C   C144      1.0  0.26909  0.21723  0.56225  1.0000
  C   C145      1.0  0.25690  0.22725  0.57662  1.0000
  H   H167      1.0  0.28221  0.20645  0.61315  1.0000
  H   H168      1.0  0.30289  0.18783  0.58826  1.0000
  H   H169      1.0  0.26584  0.22055  0.54785  1.0000
  H   H170      1.0  0.24414  0.23836  0.57339  1.0000
  C   C146      1.0  0.14100  0.16923  0.61516  1.0000
  C   C147      1.0  0.14988  0.18449  0.60320  1.0000
  C   C148      1.0  0.15795  0.19552  0.61147  1.0000
  C   C149      1.0  0.15682  0.19145  0.63170  1.0000
  C   C150      1.0  0.14823  0.17604  0.64341  1.0000
  C   C151      1.0  0.14049  0.16496  0.63520  1.0000
  H   H171      1.0  0.15071  0.18757  0.58764  1.0000
  H   H172      1.0  0.16499  0.20713  0.60231  1.0000
  H   H173      1.0  0.14741  0.17268  0.65900  1.0000
  H   H174      1.0  0.13383  0.15311  0.64451  1.0000
  Fe  Fe28      1.0  0.19483  0.37570  0.71735  1.0000
  H   H175      1.0  0.15437  0.25235  0.51266  1.0000
  C   C152      1.0  0.04268  0.16316  0.54989  1.0000
  C   C153      1.0  0.05066  0.14443  0.54578  1.0000
  C   C154      1.0  0.03872  0.13393  0.54174  1.0000
  C   C155      1.0  0.21183  0.12903  0.62112  1.0000
  H   H176      1.0  0.16316  0.01097  0.55113  1.0000
  C   C156      1.0  0.02270  0.17119  0.54994  1.0000
  H   H177      1.0  0.06599  0.13804  0.54575  1.0000
  H   H178      1.0  0.20604  0.11849  0.61719  1.0000
  C   C157      1.0  0.19912  0.14378  0.63010  1.0000
  C   C158      1.0  0.18440  0.21710  0.48873  1.0000
  C   C159      1.0  0.18674  0.07886  0.54018  1.0000
  C   C160      1.0  0.19102  0.08617  0.52008  1.0000
  C   C161      1.0  0.18066  0.10466  0.51203  1.0000
  C   C162      1.0  0.16628  0.11601  0.52409  1.0000
  C   C163      1.0  0.16216  0.10872  0.54418  1.0000
  C   C164      1.0  0.17224  0.09012  0.55217  1.0000
  H   H179      1.0  0.20206  0.07746  0.51073  1.0000
  H   H180      1.0  0.15114  0.11737  0.55359  1.0000
  H   H181      1.0  0.16883  0.08450  0.56773  1.0000
  C   C165      1.0  0.29248  0.43198  0.69810  1.0000
  C   C166      1.0  0.24405  0.29430  0.55669  1.0000
  H   H182      1.0  0.29042  0.39719  0.72114  1.0000
  C   C167      1.0  0.29150  0.06160  0.54690  1.0000
  C   C168      1.0  0.30524  0.07270  0.54547  1.0000
  C   C169      1.0  0.30219  0.08493  0.55863  1.0000
  C   C170      1.0  0.28544  0.08604  0.57343  1.0000
  C   C171      1.0  0.27186  0.07460  0.57517  1.0000
  C   C172      1.0  0.27474  0.06259  0.56175  1.0000
  H   H183      1.0  0.26649  0.47116  0.63619  1.0000
  H   H184      1.0  0.31289  0.09344  0.55734  1.0000
  H   H185      1.0  0.25903  0.07520  0.58679  1.0000
  H   H186      1.0  0.26421  0.05384  0.56311  1.0000
  H   H187      1.0  0.14150  0.32743  0.69196  1.0000
  C   C173      1.0  0.18436  0.30812  0.64796  1.0000
  C   C174      1.0  0.18209  0.32769  0.64930  1.0000
  C   C175      1.0  0.19458  0.33291  0.65827  1.0000
  C   C176      1.0  0.20911  0.31846  0.66639  1.0000
  C   C177      1.0  0.03180  0.17790  0.48936  1.0000
  C   C178      1.0  0.19884  0.29372  0.65612  1.0000
  H   H188      1.0  0.17088  0.33891  0.64304  1.0000
  H   H189      1.0  0.19319  0.34811  0.65861  1.0000
  H   H190      1.0  0.20050  0.27857  0.65548  1.0000
  C   C179      1.0  0.23923  0.43859  0.66506  1.0000
  C   C180      1.0  0.23908  0.44202  0.68332  1.0000
  C   C181      1.0  0.24819  0.45667  0.68447  1.0000
  C   C182      1.0  0.25824  0.46712  0.66744  1.0000
  C   C183      1.0  0.25870  0.46324  0.64940  1.0000
  C   C184      1.0  0.24893  0.44940  0.64819  1.0000
  H   H191      1.0  0.23118  0.43408  0.69640  1.0000
  H   H192      1.0  0.19369  0.28686  0.48962  1.0000
  H   H193      1.0  0.19562  0.19287  0.55032  1.0000
  N   N12       1.0  0.22591  0.11271  0.54758  1.0000
  C   C185      1.0  0.24746  0.11047  0.54080  1.0000
  C   C186      1.0  0.22214  0.09364  0.55983  1.0000
  C   C187      1.0  0.21731  0.11700  0.53004  1.0000
  C   C188      1.0  0.21679  0.12843  0.55883  1.0000
  C   C189      1.0  0.19622  0.13251  0.56602  1.0000
  C   C190      1.0  0.22777  0.13991  0.56320  1.0000
  C   C191      1.0  0.18724  0.14708  0.57688  1.0000
  C   C192      1.0  0.21860  0.15451  0.57402  1.0000
  C   C193      1.0  0.19840  0.15806  0.58086  1.0000
  H   H194      1.0  0.25398  0.09807  0.53303  1.0000
  H   H195      1.0  0.25136  0.12389  0.53060  1.0000
  H   H196      1.0  0.25496  0.10721  0.55323  1.0000
  H   H197      1.0  0.22794  0.09013  0.57343  1.0000
  H   H198      1.0  0.22909  0.08129  0.55205  1.0000
  H   H199      1.0  0.20628  0.09343  0.56418  1.0000
  H   H200      1.0  0.21943  0.13145  0.52068  1.0000
  H   H201      1.0  0.22388  0.10552  0.52115  1.0000
  H   H202      1.0  0.20133  0.11752  0.53384  1.0000
  H   H203      1.0  0.18685  0.12434  0.56347  1.0000
  H   H204      1.0  0.24350  0.13774  0.55868  1.0000
  H   H205      1.0  0.17151  0.14968  0.58242  1.0000
  H   H206      1.0  0.22732  0.16277  0.57752  1.0000
  H   H207      1.0  0.19139  0.16908  0.58961  1.0000
  S   S55       1.0  0.27367  0.48741  0.72129  1.0000
  C   C194      1.0  0.18552  0.45615  0.69224  1.0000
  H   H208      1.0  0.22934  0.19366  0.61271  1.0000
  H   H209      1.0  0.19401  0.20207  0.52526  1.0000
  C   C195      1.0  0.17590  0.99966  0.58437  1.0000
  C   C196      1.0  0.30224  0.43815  0.72606  1.0000
  H   H210      1.0  0.18517  0.28935  0.72444  1.0000
  Fe  Fe29      1.0  0.23819  0.36478  0.71703  1.0000
  S   S56       1.0  0.28068  0.10246  0.58910  1.0000
  H   H211      1.0  0.26212  0.09495  0.48475  1.0000
  H   H212      1.0  0.24656  0.15988  0.49922  1.0000
  C   C197      1.0  0.21883  0.22611  0.51662  1.0000
  S   S57       1.0  0.22613  0.32416  0.67663  1.0000
  H   H213      1.0  0.14227  0.30023  0.67749  1.0000
  H   H214      1.0  0.01638  0.18564  0.55314  1.0000
  C   C198      1.0  0.01078  0.16069  0.54597  1.0000
  C   C199      1.0  0.23195  0.12793  0.61709  1.0000
  H   H215      1.0  0.22200  0.28759  0.67200  1.0000
  C   C200      1.0  0.15507  0.20651  0.50812  1.0000
  N   N13       1.0  0.11554  0.24145  0.58511  1.0000
  C   C201      1.0  0.11065  0.22492  0.60128  1.0000
  C   C202      1.0  0.10099  0.24639  0.57248  1.0000
  C   C203      1.0  0.13525  0.23439  0.57366  1.0000
  C   C204      1.0  0.11535  0.25921  0.59185  1.0000
  C   C205      1.0  0.10859  0.26110  0.61166  1.0000
  C   C206      1.0  0.12175  0.27548  0.57834  1.0000
  C   C207      1.0  0.10877  0.27808  0.61747  1.0000
  C   C208      1.0  0.12208  0.29227  0.58435  1.0000
  C   C209      1.0  0.11564  0.29356  0.60388  1.0000
  H   H216      1.0  0.09532  0.22845  0.60946  1.0000
  H   H217      1.0  0.11185  0.21146  0.59584  1.0000
  H   H218      1.0  0.12077  0.22084  0.61165  1.0000
  H   H219      1.0  0.08611  0.25258  0.58022  1.0000
  H   H220      1.0  0.10006  0.23323  0.56771  1.0000
  H   H221      1.0  0.10486  0.25726  0.55891  1.0000
  H   H222      1.0  0.13643  0.22009  0.56984  1.0000
  H   H223      1.0  0.13884  0.24450  0.55946  1.0000
  H   H224      1.0  0.14688  0.23277  0.58182  1.0000
  H   H225      1.0  0.10333  0.24960  0.62300  1.0000
  H   H226      1.0  0.12697  0.27520  0.56303  1.0000
  H   H227      1.0  0.10393  0.27908  0.63270  1.0000
  H   H228      1.0  0.12772  0.30418  0.57382  1.0000
  H   H229      1.0  0.11622  0.30647  0.60854  1.0000
  H   H230      1.0  0.18342  0.14467  0.63317  1.0000
  H   H231      1.0  0.16382  0.26799  0.68612  1.0000
  H   H232      1.0  0.24182  0.11638  0.61012  1.0000
  C   C210      1.0  0.22882  0.16830  0.65924  1.0000
  C   C211      1.0  0.21096  0.29886  0.66552  1.0000
  S   S58       1.0  0.21588  0.34681  0.72128  1.0000
  H   H233      1.0  0.21265  0.17171  0.66447  1.0000
  H   H234      1.0  0.20111  0.46673  0.66343  1.0000
  C   C212      1.0  0.21833  0.21718  0.55089  1.0000
  H   H235      1.0  0.27640  0.26853  0.59491  1.0000
  C   C213      1.0  0.15955  0.23863  0.50772  1.0000
  C   C214      1.0  0.27175  0.27028  0.56673  1.0000
  H   H236      1.0  0.23476  0.17823  0.66462  1.0000
  H   H237      1.0  0.23447  0.15295  0.66646  1.0000
  C   C215      1.0  0.25602  0.16862  0.63208  1.0000
  H   H238      1.0  0.23503  0.30121  0.54587  1.0000
  H   H239      1.0  0.26110  0.17083  0.61597  1.0000
  H   H240      1.0  0.31952  0.16518  0.48578  1.0000
  C   C216      1.0  0.29872  0.40594  0.72536  1.0000
  H   H241      1.0  0.26382  0.15399  0.63897  1.0000
  C   C217      1.0  0.17518  0.29243  0.71471  1.0000
  C   C218      1.0  0.02610  0.19805  0.49044  1.0000
  H   H242      1.0  0.04499  0.11944  0.53863  1.0000
  H   H243      1.0  0.24742  0.45988  0.69842  1.0000
  H   H244      1.0  0.15365  0.43804  0.70772  1.0000
  H   H245      1.0  0.32129  0.01832  0.50845  1.0000
  S   S59       1.0  0.12599  0.22776  0.53083  1.0000
  C   C219      1.0  0.18558  0.47302  0.71706  1.0000
  H   H246      1.0  0.32496  0.05322  0.49541  1.0000
  C   C220      1.0  0.20651  0.15735  0.63528  1.0000
  H   H247      1.0  0.02813  0.47895  0.72180  1.0000
  Fe  Fe30      1.0  0.31267  0.15965  0.56664  1.0000
  H   H248      1.0  0.28412  0.25833  0.56385  1.0000
  N   N14       1.0  0.29114  0.42732  0.71953  1.0000
  Fe  Fe31      1.0  0.22185  0.35150  0.68863  1.0000
  H   H249      1.0  0.20714  0.23939  0.51864  1.0000
  C   C221      1.0  0.19663  0.48538  0.70315  1.0000
  C   C222      1.0  0.23205  0.18261  0.51550  1.0000
  C   C223      1.0  0.01872  0.14200  0.54181  1.0000
  S   S60       1.0  0.00427  0.12850  0.53619  1.0000
  C   C224      1.0  0.17771  0.23501  0.49490  1.0000
  H   H250      1.0  0.99960  0.16565  0.50958  1.0000
  C   C225      1.0  0.26322  0.16085  0.51946  1.0000
  H   H251      1.0  0.20939  0.19476  0.63347  1.0000
  C   C226      1.0  0.05384  0.19558  0.50452  1.0000
  H   H252      1.0  0.20595  0.22969  0.55403  1.0000
  S   S61       1.0  0.24618  0.36717  0.68461  1.0000
  N   N15       1.0  0.23439  0.17083  0.63772  1.0000
  N   N16       1.0  0.24620  0.29741  0.60804  1.0000
  C   C227      1.0  0.24333  0.28034  0.62419  1.0000
  C   C228      1.0  0.26280  0.30484  0.60986  1.0000
  C   C229      1.0  0.22826  0.31308  0.61072  1.0000
  C   C230      1.0  0.25068  0.29137  0.58905  1.0000
  H   H253      1.0  0.25632  0.26802  0.62393  1.0000
  H   H254      1.0  0.24054  0.28425  0.63864  1.0000
  H   H255      1.0  0.23072  0.27450  0.62363  1.0000
  H   H256      1.0  0.27645  0.29330  0.60997  1.0000
  H   H257      1.0  0.25964  0.31021  0.62370  1.0000
  H   H258      1.0  0.26593  0.31724  0.59756  1.0000
  H   H259      1.0  0.21498  0.30822  0.61028  1.0000
  H   H260      1.0  0.22536  0.31724  0.62513  1.0000
  H   H261      1.0  0.22957  0.32675  0.59956  1.0000
  C   C231      1.0  0.22561  0.19116  0.62890  1.0000
  C   C232      1.0  0.99942  0.17172  0.49389  1.0000
  H   H262      1.0  0.28696  0.44790  0.69276  1.0000
  H   H263      1.0  0.25086  0.19229  0.54999  1.0000
  C   C233      1.0  0.14825  0.22429  0.51429  1.0000
  H   H264      1.0  0.03191  0.22185  0.49945  1.0000
  C   C234      1.0  0.24898  0.18562  0.53906  1.0000
  Fe  Fe32      1.0  0.30444  0.11924  0.58395  1.0000
  C   C235      1.0  0.15079  0.31347  0.69666  1.0000
  H   H265      1.0  0.32431  0.19732  0.48449  1.0000
  C   C236      1.0  0.16330  0.27978  0.69308  1.0000
  H   H266      1.0  0.25528  0.13960  0.61861  1.0000
  H   H267      1.0  0.28351  0.42405  0.69372  1.0000
  H   H268      1.0  0.18706  0.00779  0.53501  1.0000
  H   H269      1.0  0.26389  0.27458  0.53906  1.0000
  H   H270      1.0  0.32291  0.19457  0.50965  1.0000
  H   H271      1.0  0.19602  0.16828  0.64255  1.0000
  C   C237      1.0  0.23250  0.19251  0.52991  1.0000
  H   H272      1.0  0.21783  0.20551  0.56434  1.0000
  S   S62       1.0  0.31767  0.13332  0.55383  1.0000
  H   H273      1.0  0.22039  0.18738  0.50740  1.0000
  H   H274      1.0  0.19025  0.31770  0.72761  1.0000
  H   H275      1.0  0.16184  0.34813  0.69077  1.0000
  H   H276      1.0  0.26115  0.42461  0.72383  1.0000
  C   C238      1.0  0.24709  0.16692  0.51054  1.0000
  H   H277      1.0  0.22634  0.31181  0.57659  1.0000
  H   H278      1.0  0.27664  0.16528  0.54076  1.0000
  C   C239      1.0  0.17955  0.45809  0.71206  1.0000
  C   C240      1.0  0.22696  0.15665  0.63146  1.0000
  C   C241      1.0  0.06015  0.17595  0.50315  1.0000
  C   C242      1.0  0.23952  0.14150  0.62208  1.0000
  N   N17       1.0  0.21706  0.20995  0.53393  1.0000
  H   H279      1.0  0.18563  0.33816  0.69659  1.0000
  H   H280      1.0  0.21767  0.22198  0.50330  1.0000
  C   C243      1.0  0.26403  0.17001  0.53385  1.0000
  Fe  Fe33      1.0  0.25265  0.03409  0.49405  1.0000
  H   H281      1.0  0.30778  0.42773  0.69012  1.0000
  C   C244      1.0  0.17899  0.01036  0.54974  1.0000
  C   C245      1.0  0.19727  0.20554  0.53796  1.0000
  C   C246      1.0  0.16994  0.34339  0.70289  1.0000
  H   H282      1.0  0.23182  0.22296  0.54814  1.0000
  C   C247      1.0  0.19637  0.46877  0.67838  1.0000
  C   C248      1.0  0.16273  0.31116  0.71025  1.0000
  C   C249      1.0  0.20779  0.99687  0.56325  1.0000
  C   C250      1.0  0.31380  0.45112  0.71293  1.0000
  C   C251      1.0  0.03692  0.20665  0.49806  1.0000
  H   H283      1.0  0.23320  0.23045  0.51345  1.0000
  H   H284      1.0  0.05466  0.15162  0.49604  1.0000
  H   H285      1.0  0.16887  0.35673  0.70835  1.0000
  C   C252      1.0  0.15106  0.29796  0.68831  1.0000
  S   S63       1.0  0.21644  0.39350  0.71613  1.0000
  C   C253      1.0  0.20200  0.48329  0.68382  1.0000
  H   H286      1.0  0.20874  0.01222  0.56238  1.0000
  H   H287      1.0  0.18003  0.02534  0.55030  1.0000
  H   H288      1.0  0.18515  0.26294  0.70956  1.0000
  C   C254      1.0  0.27009  0.43208  0.72881  1.0000
  H   H289      1.0  0.01295  0.20717  0.48583  1.0000
  C   C255      1.0  0.17315  0.20283  0.49561  1.0000
  H   H290      1.0  0.31510  0.45396  0.69734  1.0000
  H   H291      1.0  0.18237  0.44480  0.68704  1.0000
  C   C256      1.0  0.04932  0.16710  0.49582  1.0000
  N   N18       1.0  0.16756  0.44543  0.72711  1.0000
  H   H292      1.0  0.17809  0.18894  0.49113  1.0000
  H   H293      1.0  0.02753  0.13941  0.49812  1.0000
  C   C257      1.0  0.32363  0.46145  0.71980  1.0000
  H   H294      1.0  0.31446  0.40169  0.71855  1.0000
  H   H295      1.0  0.15272  0.42194  0.73100  1.0000
  N   N19       1.0  0.16235  0.32796  0.71864  1.0000
  H   H296      1.0  0.18652  0.24598  0.49005  1.0000
  H   H297      1.0  0.00193  0.48477  0.72980  1.0000
  H   H298      1.0  0.17527  0.42023  0.71370  1.0000
  H   H299      1.0  0.06180  0.20199  0.51119  1.0000
  H   H300      1.0  0.13240  0.34297  0.71698  1.0000
  S   S64       1.0  0.23399  0.28954  0.48352  1.0000
  H   H301      1.0  0.14074  0.46678  0.72448  1.0000
  H   H302      1.0  0.18215  0.98970  0.59680  1.0000
  H   H303      1.0  0.21714  0.99209  0.54986  1.0000
  H   H304      1.0  0.18185  0.47520  0.73183  1.0000
  C   C258      1.0  0.32630  0.15973  0.49885  1.0000
  H   H305      1.0  0.31078  0.44430  0.76839  1.0000
  H   H306      1.0  0.31866  0.45152  0.85029  1.0000
  C   C259      1.0  0.22788  0.38757  0.84343  1.0000
  C   C260      1.0  0.25860  0.44393  0.85087  1.0000
  C   C261      1.0  0.22647  0.40002  0.87244  1.0000
  H   H307      1.0  0.13944  0.44866  0.74691  1.0000
  H   H308      1.0  0.29334  0.42621  0.75709  1.0000
  H   H309      1.0  0.24784  0.43611  0.86187  1.0000
  C   C262      1.0  0.29619  0.47550  0.80607  1.0000
  S   S65       1.0  0.24255  0.45807  0.91838  1.0000
  H   H310      1.0  0.28594  0.46252  0.83526  1.0000
  H   H311      1.0  0.22744  0.47118  0.82122  1.0000
  S   S66       1.0  0.30650  0.41649  0.81250  1.0000
  S   S67       1.0  0.30979  0.38427  0.86375  1.0000
  Fe  Fe34      1.0  0.29849  0.39789  0.79671  1.0000
  S   S68       1.0  0.26860  0.40655  0.78909  1.0000
  H   H312      1.0  0.22583  0.40989  0.80792  1.0000
  H   H313      1.0  0.19438  0.37534  0.75663  1.0000
  S   S69       1.0  0.30735  0.36999  0.81738  1.0000
  H   H314      1.0  0.07996  0.44034  0.76777  1.0000
  H   H315      1.0  0.23553  0.38847  0.74746  1.0000
  S   S70       1.0  0.14909  0.45559  0.81639  1.0000
  S   S71       1.0  0.02110  0.40429  0.79514  1.0000
  S   S72       1.0  0.11231  0.43561  0.84280  1.0000
  H   H316      1.0  0.21796  0.40731  0.88427  1.0000
  Fe  Fe35      1.0  0.13686  0.42996  0.81720  1.0000
  S   S73       1.0  0.16046  0.40280  0.81442  1.0000
  S   S74       1.0  0.29088  0.46957  0.87966  1.0000
  C   C263      1.0  0.03268  0.41922  0.80240  1.0000
  C   C264      1.0  0.05282  0.41339  0.80249  1.0000
  C   C265      1.0  0.06239  0.42506  0.80817  1.0000
  C   C266      1.0  0.05181  0.44264  0.81378  1.0000
  C   C267      1.0  0.03168  0.44838  0.81376  1.0000
  C   C268      1.0  0.02217  0.43672  0.80814  1.0000
  H   H317      1.0  0.06106  0.39980  0.79818  1.0000
  H   H318      1.0  0.07787  0.42042  0.80831  1.0000
  H   H319      1.0  0.02338  0.46183  0.81834  1.0000
  H   H320      1.0  0.00666  0.44119  0.80857  1.0000
  C   C269      1.0  0.30574  0.40737  0.86924  1.0000
  C   C270      1.0  0.99932  0.41732  0.86372  1.0000
  C   C271      1.0  0.31127  0.44050  0.86022  1.0000
  C   C272      1.0  0.29704  0.44537  0.87634  1.0000
  C   C273      1.0  0.28756  0.43108  0.88922  1.0000
  C   C274      1.0  0.29202  0.41201  0.88576  1.0000
  H   H321      1.0  0.23484  0.47823  0.83990  1.0000
  S   S75       1.0  0.12682  0.47690  0.86280  1.0000
  H   H322      1.0  0.27695  0.43459  0.90195  1.0000
  H   H323      1.0  0.28458  0.40100  0.89567  1.0000
  H   H324      1.0  0.04943  0.43974  0.76025  1.0000
  C   C275      1.0  0.25775  0.38515  0.85509  1.0000
  C   C276      1.0  0.29420  0.46959  0.94001  1.0000
  C   C277      1.0  0.07339  0.47142  0.76606  1.0000
  C   C278      1.0  0.30741  0.46162  0.92493  1.0000
  H   H325      1.0  0.17057  0.46197  0.78006  1.0000
  H   H326      1.0  0.13194  0.39519  0.76318  1.0000
  C   C279      1.0  0.24861  0.38213  0.84158  1.0000
  H   H327      1.0  0.20240  0.36468  0.85112  1.0000
  C   C280      1.0  0.14523  0.39285  0.76852  1.0000
  C   C281      1.0  0.14432  0.39811  0.78608  1.0000
  C   C282      1.0  0.16143  0.39516  0.79305  1.0000
  C   C283      1.0  0.17945  0.38664  0.78257  1.0000
  C   C284      1.0  0.18040  0.38167  0.76481  1.0000
  C   C285      1.0  0.30158  0.43595  0.74624  1.0000
  H   H328      1.0  0.13032  0.40414  0.79440  1.0000
  H   H329      1.0  0.19271  0.38421  0.78793  1.0000
  C   C286      1.0  0.26411  0.46786  0.79693  1.0000
  C   C287      1.0  0.24826  0.38482  0.75391  1.0000
  C   C288      1.0  0.24672  0.39395  0.87054  1.0000
  C   C289      1.0  0.24978  0.39626  0.76622  1.0000
  C   C290      1.0  0.26633  0.39161  0.77457  1.0000
  C   C291      1.0  0.28102  0.37517  0.77116  1.0000
  H   H330      1.0  0.17001  0.42462  0.75418  1.0000
  H   H331      1.0  0.29100  0.35115  0.75606  1.0000
  H   H332      1.0  0.23828  0.40887  0.76900  1.0000
  H   H333      1.0  0.29373  0.37135  0.77775  1.0000
  C   C292      1.0  0.18231  0.44889  0.86837  1.0000
  C   C293      1.0  0.18643  0.45876  0.88066  1.0000
  Fe  Fe36      1.0  0.21995  0.47123  0.89977  1.0000
  H   H334      1.0  0.23535  0.35622  0.82623  1.0000
  Fe  Fe37      1.0  0.09539  0.45354  0.81956  1.0000
  S   S76       1.0  0.16424  0.37991  0.73510  1.0000
  C   C294      1.0  0.23340  0.46552  0.83479  1.0000
  Fe  Fe38      1.0  0.12963  0.47198  0.79534  1.0000
  C   C295      1.0  0.06948  0.45401  0.76469  1.0000
  Fe  Fe39      1.0  0.12328  0.46290  0.83974  1.0000
  C   C296      1.0  0.19655  0.47366  0.77161  1.0000
  H   H335      1.0  0.20475  0.40287  0.80509  1.0000
  H   H336      1.0  0.22221  0.45852  0.84604  1.0000
  H   H337      1.0  0.25395  0.39629  0.88090  1.0000
  H   H338      1.0  0.20257  0.41522  0.82419  1.0000
  C   C297      1.0  0.14968  0.46947  0.86988  1.0000
  H   H339      1.0  0.20148  0.40228  0.86105  1.0000
  S   S77       1.0  0.06277  0.45763  0.82159  1.0000
  H   H340      1.0  0.17522  0.48167  0.89710  1.0000
  H   H341      1.0  0.19301  0.37336  0.82901  1.0000
  C   C298      1.0  0.21253  0.40407  0.81603  1.0000
  C   C299      1.0  0.19955  0.37767  0.83922  1.0000
  C   C300      1.0  0.21715  0.39698  0.85908  1.0000
  S   S78       1.0  0.11918  0.44586  0.79415  1.0000
  H   H342      1.0  0.18768  0.38906  0.84543  1.0000
  H   H343      1.0  0.25817  0.37563  0.82975  1.0000
  Fe  Fe40      1.0  0.22972  0.48393  0.93303  1.0000
  H   H344      1.0  0.27357  0.38071  0.85354  1.0000
  H   H345      1.0  0.28667  0.46023  0.95223  1.0000
  N   N20       1.0  0.21778  0.38491  0.82918  1.0000
  H   H346      1.0  0.22189  0.36805  0.80712  1.0000
  N   N21       1.0  0.25248  0.45158  0.83174  1.0000
  C   C301      1.0  0.24967  0.43464  0.82554  1.0000
  H   H347      1.0  0.16092  0.44637  0.85369  1.0000
  C   C302      1.0  0.17671  0.47465  0.77282  1.0000
  C   C303      1.0  0.26669  0.46163  0.81655  1.0000
  C   C304      1.0  0.03528  0.41068  0.85486  1.0000
  H   H348      1.0  0.24291  0.37603  0.80721  1.0000
  H   H349      1.0  0.00069  0.45325  0.74985  1.0000
  H   H350      1.0  0.24369  0.43890  0.81203  1.0000
  C   C305      1.0  0.17444  0.32279  0.73376  1.0000
  H   H351      1.0  0.26376  0.42389  0.82283  1.0000
  H   H352      1.0  0.23922  0.42679  0.83683  1.0000
  H   H353      1.0  0.17358  0.33571  0.73993  1.0000
  H   H354      1.0  0.27301  0.43338  0.84953  1.0000
  H   H355      1.0  0.04891  0.40235  0.84790  1.0000
  S   S79       1.0  0.26230  0.35444  0.73411  1.0000
  C   C306      1.0  0.29366  0.48071  0.78684  1.0000
  H   H356      1.0  0.20543  0.46047  0.77861  1.0000
  S   S80       1.0  0.10447  0.48131  0.81862  1.0000
  C   C307      1.0  0.31152  0.44626  0.75290  1.0000
  H   H357      1.0  0.16948  0.31124  0.74616  1.0000
  H   H358      1.0  0.25962  0.45587  0.85741  1.0000
  C   C308      1.0  0.01745  0.40632  0.85520  1.0000
  C   C309      1.0  0.27947  0.36374  0.75888  1.0000
  C   C310      1.0  0.05173  0.45391  0.76032  1.0000
  H   H359      1.0  0.01801  0.39463  0.84816  1.0000
  H   H360      1.0  0.29759  0.40113  0.74136  1.0000
  H   H361      1.0  0.04946  0.43012  0.86156  1.0000
  S   S81       1.0  0.22327  0.47999  0.96606  1.0000
  C   C311      1.0  0.03562  0.42633  0.86256  1.0000
  S   S82       1.0  0.20934  0.45108  0.88753  1.0000
  C   C312      1.0  0.16403  0.45427  0.86293  1.0000
  H   H362      1.0  0.01853  0.44995  0.87647  1.0000
  C   C313      1.0  0.00222  0.48038  0.76785  1.0000
  C   C314      1.0  0.23005  0.37064  0.81702  1.0000
  C   C315      1.0  0.16328  0.38486  0.75777  1.0000
  C   C316      1.0  0.01812  0.43755  0.87085  1.0000
  H   H363      1.0  0.25175  0.46558  0.79262  1.0000
  H   H364      1.0  0.19268  0.42536  0.73679  1.0000
  C   C317      1.0  0.31545  0.42158  0.85653  1.0000
  C   C318      1.0  0.17220  0.47413  0.88745  1.0000
  C   C319      1.0  0.26322  0.36865  0.75006  1.0000
  H   H365      1.0  0.01584  0.44235  0.76742  1.0000
  Fe  Fe41      1.0  0.26037  0.47790  0.89633  1.0000
  H   H366      1.0  0.00382  0.47201  0.78276  1.0000
  C   C320      1.0  0.01525  0.45236  0.75297  1.0000
  H   H367      1.0  0.19327  0.43700  0.86311  1.0000
  C   C321      1.0  0.15376  0.47930  0.88226  1.0000
  H   H368      1.0  0.08682  0.47128  0.77022  1.0000
  H   H369      1.0  0.27539  0.48135  0.76738  1.0000
  H   H370      1.0  0.13526  0.32475  0.73887  1.0000
  C   C322      1.0  0.03740  0.47152  0.75693  1.0000
  N   N22       1.0  0.01817  0.47201  0.75287  1.0000
  Fe  Fe42      1.0  0.31805  0.38813  0.83137  1.0000
  C   C323      1.0  0.28295  0.46618  0.82076  1.0000
  C   C324      1.0  0.00017  0.43318  0.87152  1.0000
  C   C325      1.0  0.14909  0.45772  0.73583  1.0000
  H   H371      1.0  0.14146  0.34820  0.73522  1.0000
  C   C326      1.0  0.31683  0.47372  0.90896  1.0000
  H   H372      1.0  0.26751  0.42748  0.74492  1.0000
  C   C327      1.0  0.17850  0.43452  0.74276  1.0000
  H   H373      1.0  0.31001  0.44605  0.92532  1.0000
  C   C328      1.0  0.32246  0.45904  0.73973  1.0000
  H   H374      1.0  0.18182  0.44440  0.75038  1.0000
  C   C329      1.0  0.01615  0.48449  0.73343  1.0000
  H   H375      1.0  0.02635  0.44538  0.74163  1.0000
  H   H376      1.0  0.32622  0.41797  0.84386  1.0000
  H   H377      1.0  0.30863  0.47840  0.80973  1.0000
  H   H378      1.0  0.15175  0.46791  0.74351  1.0000
  H   H379      1.0  0.32656  0.46688  0.89741  1.0000
  C   C330      1.0  0.27749  0.47713  0.78233  1.0000
  H   H380      1.0  0.30424  0.48752  0.77538  1.0000
  S   S83       1.0  0.22936  0.48854  0.76132  1.0000
  Fe  Fe43      1.0  0.23160  0.51896  0.09220  1.0000
  S   S84       1.0  0.25024  0.53527  0.06678  1.0000
  S   S85       1.0  0.21112  0.53166  0.11717  1.0000
  H   H381      1.0  0.18861  0.56692  0.13848  1.0000
  C   C331      1.0  0.17819  0.56898  0.15195  1.0000
  C   C332      1.0  0.30989  0.56228  0.00459  1.0000
  Fe  Fe44      1.0  0.27562  0.51257  0.07623  1.0000
  S   S86       1.0  0.30404  0.51889  0.07759  1.0000
  Fe  Fe45      1.0  0.24835  0.51352  0.05012  1.0000
  C   C333      1.0  0.18458  0.57154  0.16751  1.0000
  H   H382      1.0  0.21658  0.53802  0.20807  1.0000
  H   H383      1.0  0.19985  0.57172  0.16608  1.0000
  H   H384      1.0  0.22369  0.56425  0.21569  1.0000
  S   S87       1.0  0.29627  0.56744  0.14145  1.0000
  H   H385      1.0  0.17635  0.57561  0.19712  1.0000
  H   H386      1.0  0.20250  0.53994  0.02087  1.0000
  C   C334      1.0  0.15165  0.57355  0.18678  1.0000
  H   H387      1.0  0.17906  0.53571  0.21257  1.0000
  H   H388      1.0  0.18795  0.51346  0.01867  1.0000
  H   H389      1.0  0.31059  0.55608  0.99179  1.0000
  Fe  Fe46      1.0  0.11659  0.50151  0.17864  1.0000
  S   S88       1.0  0.09061  0.51734  0.19750  1.0000
  S   S89       1.0  0.12643  0.51324  0.14663  1.0000
  Fe  Fe47      1.0  0.11009  0.50829  0.21942  1.0000
  C   C335      1.0  0.31710  0.54457  0.11472  1.0000
  C   C336      1.0  0.11735  0.55611  0.19056  1.0000
  H   H390      1.0  0.09586  0.59176  0.17783  1.0000
  S   S90       1.0  0.13654  0.49486  0.19964  1.0000
  H   H391      1.0  0.31181  0.49064  0.11356  1.0000
  C   C337      1.0  0.30034  0.53426  0.02801  1.0000
  H   H392      1.0  0.14853  0.52702  0.21128  1.0000
  H   H393      1.0  0.27765  0.55274  0.00225  1.0000
  C   C338      1.0  0.11177  0.59072  0.17665  1.0000
  C   C339      1.0  0.16693  0.53616  0.22489  1.0000
  C   C340      1.0  0.15852  0.56868  0.15367  1.0000
  C   C341      1.0  0.31534  0.49864  0.14591  1.0000
  H   H394      1.0  0.28959  0.52898  0.04100  1.0000
  H   H395      1.0  0.32409  0.55476  0.03976  1.0000
  S   S91       1.0  0.24784  0.52502  0.01787  1.0000
  C   C342      1.0  0.27542  0.57659  0.04658  1.0000
  H   H396      1.0  0.28312  0.53389  0.20053  1.0000
  H   H397      1.0  0.26428  0.55466  0.02603  1.0000
  H   H398      1.0  0.10294  0.56701  0.15863  1.0000
  C   C343      1.0  0.31864  0.53399  0.10044  1.0000
  H   H399      1.0  0.14199  0.57539  0.20060  1.0000
  H   H400      1.0  0.12700  0.55267  0.15321  1.0000
  C   C344      1.0  0.23457  0.49468  0.01200  1.0000
  H   H401      1.0  0.11871  0.55878  0.20452  1.0000
  C   C345      1.0  0.18829  0.52499  0.12538  1.0000
  C   C346      1.0  0.17883  0.52124  0.11258  1.0000
  C   C347      1.0  0.15985  0.51751  0.11927  1.0000
  C   C348      1.0  0.15051  0.51705  0.13883  1.0000
  C   C349      1.0  0.16028  0.52019  0.15172  1.0000
  C   C350      1.0  0.17912  0.52415  0.14500  1.0000
  H   H402      1.0  0.18582  0.52193  0.09739  1.0000
  H   H403      1.0  0.15233  0.51515  0.10922  1.0000
  H   H404      1.0  0.15313  0.52024  0.16671  1.0000
  H   H405      1.0  0.18647  0.52687  0.15498  1.0000
  C   C351      1.0  0.30184  0.53307  0.09474  1.0000
  C   C352      1.0  0.28349  0.54306  0.10309  1.0000
  C   C353      1.0  0.28203  0.55408  0.11699  1.0000
  C   C354      1.0  0.29878  0.55460  0.12307  1.0000
  C   C355      1.0  0.17134  0.57379  0.18491  1.0000
  H   H406      1.0  0.18160  0.51160  0.98813  1.0000
  H   H407      1.0  0.27046  0.54252  0.09868  1.0000
  H   H408      1.0  0.26784  0.56200  0.12325  1.0000
  H   H409      1.0  0.32261  0.49468  0.15860  1.0000
  H   H410      1.0  0.22940  0.52402  0.15178  1.0000
  C   C356      1.0  0.22122  0.53046  0.18054  1.0000
  H   H411      1.0  0.32483  0.55750  0.00789  1.0000
  H   H412      1.0  0.11320  0.59395  0.19036  1.0000
  H   H413      1.0  0.12617  0.54123  0.18902  1.0000
  H   H414      1.0  0.20643  0.52829  0.18295  1.0000
  N   N23       1.0  0.29473  0.55582  0.02146  1.0000
  C   C357      1.0  0.29152  0.58332  0.06890  1.0000
  C   C358      1.0  0.24290  0.51108  0.00350  1.0000
  S   S92       1.0  0.31781  0.56653  0.22397  1.0000
  N   N24       1.0  0.25205  0.54576  0.20723  1.0000
  H   H415      1.0  0.24046  0.57619  0.19637  1.0000
  H   H416      1.0  0.28832  0.50279  0.12477  1.0000
  C   C359      1.0  0.29331  0.56549  0.03764  1.0000
  C   C360      1.0  0.24637  0.53926  0.19205  1.0000
  C   C361      1.0  0.22719  0.53602  0.19484  1.0000
  C   C362      1.0  0.25927  0.53634  0.17409  1.0000
  H   H417      1.0  0.31879  0.52597  0.22487  1.0000
  C   C363      1.0  0.25312  0.53078  0.15989  1.0000
  C   C364      1.0  0.23412  0.52801  0.16302  1.0000
  N   N25       1.0  0.12356  0.57120  0.17348  1.0000
  C   C365      1.0  0.11874  0.56728  0.15628  1.0000
  H   H418      1.0  0.30468  0.51285  0.14671  1.0000
  C   C366      1.0  0.14960  0.53125  0.22414  1.0000
  H   H419      1.0  0.15473  0.56641  0.14106  1.0000
  C   C367      1.0  0.18723  0.52403  0.98815  1.0000
  S   S93       1.0  0.25735  0.49809  0.10286  1.0000
  H   H420      1.0  0.10167  0.55568  0.19246  1.0000
  H   H421      1.0  0.27562  0.55927  0.18869  1.0000
  S   S94       1.0  0.22708  0.49930  0.07493  1.0000
  H   H422      1.0  0.27411  0.53855  0.17046  1.0000
  C   C368      1.0  0.14460  0.57092  0.17124  1.0000
  H   H423      1.0  0.26313  0.52875  0.14627  1.0000
  H   H424      1.0  0.21084  0.56507  0.99164  1.0000
  H   H425      1.0  0.12187  0.57870  0.14299  1.0000
  H   H426      1.0  0.11643  0.60259  0.16443  1.0000
  H   H427      1.0  0.00255  0.51298  0.20379  1.0000
  H   H428      1.0  0.26082  0.59338  0.06888  1.0000
  H   H429      1.0  0.27110  0.57618  0.00904  1.0000
  H   H430      1.0  0.25823  0.51644  0.22423  1.0000
  H   H431      1.0  0.26174  0.57851  0.04219  1.0000
  C   C369      1.0  0.27271  0.54804  0.20228  1.0000
  C   C370      1.0  0.24951  0.53132  0.22593  1.0000
  C   C371      1.0  0.19905  0.53980  0.00720  1.0000
  H   H432      1.0  0.30093  0.52628  0.01655  1.0000
  C   C372      1.0  0.19084  0.52489  0.00593  1.0000
  H   H433      1.0  0.32220  0.57049  0.06635  1.0000
  S   S95       1.0  0.32414  0.53795  0.18110  1.0000
  H   H434      1.0  0.27650  0.55300  0.21393  1.0000
  C   C373      1.0  0.23937  0.56502  0.21021  1.0000
  H   H435      1.0  0.99701  0.53062  0.17529  1.0000
  C   C374      1.0  0.27612  0.56018  0.01443  1.0000
  H   H436      1.0  0.24354  0.57061  0.22122  1.0000
  H   H437      1.0  0.31485  0.52950  0.03231  1.0000
  C   C375      1.0  0.27465  0.58530  0.06200  1.0000
  H   H438      1.0  0.30681  0.57857  0.99999  1.0000
  C   C376      1.0  0.31016  0.56365  0.04519  1.0000
  H   H439      1.0  0.29080  0.58968  0.08115  1.0000
  C   C377      1.0  0.24633  0.51733  0.98310  1.0000
  C   C378      1.0  0.20381  0.55391  0.99067  1.0000
  C   C379      1.0  0.30924  0.57255  0.06049  1.0000
  Fe  Fe48      1.0  0.32269  0.56222  0.15480  1.0000
  S   S96       1.0  0.27519  0.49186  0.05808  1.0000
  C   C380      1.0  0.29928  0.48870  0.12607  1.0000
  H   H440      1.0  0.23182  0.48972  0.02767  1.0000
  H   H441      1.0  0.23396  0.53025  0.23194  1.0000
  Fe  Fe49      1.0  0.23468  0.52723  0.28686  1.0000
  S   S97       1.0  0.22522  0.55695  0.26892  1.0000
  S   S98       1.0  0.26441  0.50911  0.27737  1.0000
  Fe  Fe50      1.0  0.19504  0.52841  0.31374  1.0000
  S   S99       1.0  0.18224  0.55803  0.29744  1.0000
  S   S100      1.0  0.17641  0.51595  0.34169  1.0000
  Fe  Fe51      1.0  0.19821  0.54629  0.27048  1.0000
  H   H442      1.0  0.24035  0.75204  0.43730  1.0000
  Fe  Fe52      1.0  0.21051  0.56553  0.29776  1.0000
  S   S101      1.0  0.20942  0.59412  0.30603  1.0000
  S   S102      1.0  0.20859  0.51597  0.28690  1.0000
  S   S103      1.0  0.22232  0.53649  0.31555  1.0000
  S   S104      1.0  0.31518  0.73557  0.45895  1.0000
  Fe  Fe53      1.0  0.23943  0.61862  0.39342  1.0000
  S   S105      1.0  0.23061  0.65126  0.38322  1.0000
  S   S106      1.0  0.24860  0.59525  0.37503  1.0000
  Fe  Fe54      1.0  0.23805  0.62243  0.43490  1.0000
  S   S107      1.0  0.22949  0.65518  0.42804  1.0000
  H   H443      1.0  0.32317  0.63095  0.33052  1.0000
  Fe  Fe55      1.0  0.20923  0.65039  0.41177  1.0000
  S   S108      1.0  0.17789  0.66649  0.41652  1.0000
  Fe  Fe56      1.0  0.25181  0.65306  0.40040  1.0000
  S   S109      1.0  0.27218  0.67406  0.38711  1.0000
  S   S110      1.0  0.21608  0.61764  0.42069  1.0000
  S   S111      1.0  0.26226  0.62052  0.40861  1.0000
  H   H444      1.0  0.28894  0.61709  0.32338  1.0000
  H   H445      1.0  0.31073  0.57712  0.40051  1.0000
  H   H446      1.0  0.22720  0.93015  0.47945  1.0000
  Fe  Fe57      1.0  0.30861  0.76022  0.43407  1.0000
  S   S112      1.0  0.27832  0.77896  0.43980  1.0000
  C   C381      1.0  0.16129  0.49332  0.28740  1.0000
  N   N26       1.0  0.08941  0.71592  0.44501  1.0000
  H   H447      1.0  0.10660  0.82697  0.47413  1.0000
  H   H448      1.0  0.29937  0.58829  0.37005  1.0000
  H   H449      1.0  0.30672  0.65286  0.33701  1.0000
  H   H450      1.0  0.23438  0.90987  0.46732  1.0000
  H   H451      1.0  0.16181  0.51036  0.30767  1.0000
  C   C382      1.0  0.28885  0.55627  0.25431  1.0000
  H   H452      1.0  0.27905  0.72518  0.42883  1.0000
  H   H453      1.0  0.24497  0.83129  0.47579  1.0000
  C   C383      1.0  0.27692  0.54357  0.26624  1.0000
  C   C384      1.0  0.17592  0.68593  0.42768  1.0000
  C   C385      1.0  0.15940  0.69085  0.44191  1.0000
  C   C386      1.0  0.15814  0.70576  0.45157  1.0000
  C   C387      1.0  0.17321  0.71602  0.44687  1.0000
  C   C388      1.0  0.18963  0.71125  0.43241  1.0000
  C   C389      1.0  0.19105  0.69614  0.42291  1.0000
  H   H454      1.0  0.14770  0.68296  0.44565  1.0000
  H   H455      1.0  0.14538  0.70940  0.46246  1.0000
  H   H456      1.0  0.20129  0.71920  0.42856  1.0000
  H   H457      1.0  0.20373  0.69256  0.41169  1.0000
  C   C390      1.0  0.28629  0.67725  0.40213  1.0000
  C   C391      1.0  0.29635  0.69263  0.39576  1.0000
  C   C392      1.0  0.30738  0.69583  0.40758  1.0000
  C   C393      1.0  0.30855  0.68358  0.42583  1.0000
  C   C394      1.0  0.29881  0.66793  0.43206  1.0000
  C   C395      1.0  0.28758  0.66485  0.42030  1.0000
  H   H458      1.0  0.29551  0.70220  0.38165  1.0000
  H   H459      1.0  0.29980  0.65826  0.44609  1.0000
  H   H460      1.0  0.28004  0.65282  0.42521  1.0000
  C   C396      1.0  0.10518  0.72716  0.43733  1.0000
  C   C397      1.0  0.12106  0.72276  0.42173  1.0000
  H   H461      1.0  0.26897  0.92532  0.43797  1.0000
  C   C398      1.0  0.10550  0.74244  0.44619  1.0000
  H   H462      1.0  0.30753  0.80101  0.43729  1.0000
  C   C399      1.0  0.17875  0.57721  0.37714  1.0000
  H   H463      1.0  0.25919  0.63840  0.45415  1.0000
  C   C400      1.0  0.27564  0.83161  0.46531  1.0000
  C   C401      1.0  0.25876  0.82448  0.46774  1.0000
  C   C402      1.0  0.25954  0.80865  0.45945  1.0000
  C   C403      1.0  0.27726  0.79976  0.44883  1.0000
  C   C404      1.0  0.29401  0.80723  0.44601  1.0000
  C   C405      1.0  0.29319  0.82318  0.45412  1.0000
  H   H464      1.0  0.06837  0.73869  0.43106  1.0000
  H   H465      1.0  0.24644  0.80317  0.46151  1.0000
  H   H466      1.0  0.30812  0.60067  0.33490  1.0000
  C   C406      1.0  0.17337  0.56973  0.34841  1.0000
  H   H467      1.0  0.21454  0.74277  0.46333  1.0000
  H   H468      1.0  0.16171  0.49194  0.37730  1.0000
  C   C407      1.0  0.28015  0.52450  0.26334  1.0000
  S   S113      1.0  0.17211  0.73449  0.45909  1.0000
  C   C408      1.0  0.30366  0.59892  0.37529  1.0000
  H   H469      1.0  0.28258  0.60235  0.34660  1.0000
  H   H470      1.0  0.17049  0.50170  0.27601  1.0000
  C   C409      1.0  0.06990  0.72946  0.44570  1.0000
  C   C410      1.0  0.22038  0.59433  0.32522  1.0000
  C   C411      1.0  0.21476  0.61080  0.33391  1.0000
  C   C412      1.0  0.22321  0.61135  0.34922  1.0000
  C   C413      1.0  0.23746  0.59544  0.35587  1.0000
  C   C414      1.0  0.24317  0.57905  0.34708  1.0000
  C   C415      1.0  0.23466  0.57847  0.33186  1.0000
  H   H471      1.0  0.20374  0.62315  0.32884  1.0000
  H   H472      1.0  0.21864  0.62404  0.35589  1.0000
  H   H473      1.0  0.25425  0.56672  0.35206  1.0000
  H   H474      1.0  0.23937  0.56586  0.32509  1.0000
  N   N27       1.0  0.25827  0.92165  0.46918  1.0000
  H   H475      1.0  0.23652  0.70029  0.44237  1.0000
  C   C416      1.0  0.15296  0.54196  0.25750  1.0000
  H   H476      1.0  0.10543  0.69434  0.46513  1.0000
  H   H477      1.0  0.15412  0.54618  0.27038  1.0000
  C   C417      1.0  0.16364  0.55003  0.38012  1.0000
  H   H478      1.0  0.25855  0.70351  0.42472  1.0000
  H   H479      1.0  0.27449  0.65122  0.35770  1.0000
  H   H480      1.0  0.26479  0.62979  0.36178  1.0000
  H   H481      1.0  0.19695  0.53538  0.35792  1.0000
  H   H482      1.0  0.31521  0.70759  0.40237  1.0000
  H   H483      1.0  0.12246  0.71111  0.41434  1.0000
  C   C418      1.0  0.25568  0.63468  0.46987  1.0000
  C   C419      1.0  0.27480  0.63872  0.35119  1.0000
  H   H484      1.0  0.01506  0.75913  0.47532  1.0000
  H   H485      1.0  0.28629  0.57105  0.25659  1.0000
  H   H486      1.0  0.27020  0.90043  0.45067  1.0000
  S   S114      1.0  0.31994  0.74170  0.41140  1.0000
  H   H487      1.0  0.16635  0.49876  0.24733  1.0000
  H   H488      1.0  0.28050  0.71020  0.45218  1.0000
  H   H489      1.0  0.25435  0.53545  0.23744  1.0000
  C   C420      1.0  0.26082  0.97564  0.45680  1.0000
  H   H490      1.0  0.03761  0.77937  0.47653  1.0000
  C   C421      1.0  0.30691  0.63166  0.37455  1.0000
  H   H491      1.0  0.05768  0.72142  0.45104  1.0000
  C   C422      1.0  0.19760  0.54713  0.36498  1.0000
  H   H492      1.0  0.08933  0.70903  0.41783  1.0000
  H   H493      1.0  0.20147  0.68574  0.46786  1.0000
  C   C423      1.0  0.20016  0.67018  0.47366  1.0000
  S   S115      1.0  0.27526  0.85043  0.47683  1.0000
  C   C424      1.0  0.30214  0.61886  0.36536  1.0000
  H   H494      1.0  0.23454  0.93409  0.45344  1.0000
  H   H495      1.0  0.13286  0.49101  0.25703  1.0000
  C   C425      1.0  0.26145  0.94063  0.47069  1.0000
  H   H496      1.0  0.26266  0.69471  0.47873  1.0000
  C   C426      1.0  0.09103  0.70482  0.46501  1.0000
  C   C427      1.0  0.13619  0.73309  0.41552  1.0000
  H   H497      1.0  0.16669  0.54386  0.39504  1.0000
  N   N28       1.0  0.17850  0.56126  0.36785  1.0000
  C   C428      1.0  0.27174  0.91507  0.45179  1.0000
  H   H498      1.0  0.12084  0.76390  0.44723  1.0000
  C   C429      1.0  0.27130  0.72323  0.44439  1.0000
  C   C430      1.0  0.16863  0.54158  0.24154  1.0000
  C   C431      1.0  0.29369  0.61093  0.33759  1.0000
  H   H499      1.0  0.10380  0.68993  0.43327  1.0000
  H   H500      1.0  0.26533  0.54852  0.27781  1.0000
  C   C432      1.0  0.19513  0.59356  0.39213  1.0000
  C   C433      1.0  0.29535  0.51806  0.24852  1.0000
  H   H501      1.0  0.19170  0.66697  0.46441  1.0000
  C   C434      1.0  0.04050  0.76380  0.48265  1.0000
  H   H502      1.0  0.17418  0.55812  0.34051  1.0000
  H   H503      1.0  0.27150  0.73629  0.44976  1.0000
  H   H504      1.0  0.15829  0.57880  0.34922  1.0000
  H   H505      1.0  0.30331  0.64357  0.31809  1.0000
  H   H506      1.0  0.30503  0.64722  0.36856  1.0000
  H   H507      1.0  0.14817  0.75539  0.42024  1.0000
  H   H508      1.0  0.25385  0.95666  0.44274  1.0000
  C   C435      1.0  0.12073  0.75260  0.43991  1.0000
  C   C436      1.0  0.09020  0.70161  0.43318  1.0000
  C   C437      1.0  0.13607  0.74790  0.42465  1.0000
  S   S116      1.0  0.19029  0.54839  0.24162  1.0000
  C   C438      1.0  0.16164  0.60749  0.38900  1.0000
  H   H509      1.0  0.14860  0.61895  0.39109  1.0000
  H   H510      1.0  0.17829  0.62011  0.40143  1.0000
  H   H511      1.0  0.13312  0.84434  0.46085  1.0000
  H   H512      1.0  0.20818  0.59419  0.39651  1.0000
  C   C439      1.0  0.24078  0.71951  0.46742  1.0000
  H   H513      1.0  0.24952  0.73885  0.41796  1.0000
  H   H514      1.0  0.07919  0.69642  0.47162  1.0000
  H   H515      1.0  0.14856  0.55920  0.38158  1.0000
  H   H516      1.0  0.20933  0.55454  0.35529  1.0000
  H   H517      1.0  0.20924  0.56788  0.38131  1.0000
  H   H518      1.0  0.14848  0.59235  0.37603  1.0000
  C   C440      1.0  0.25839  0.95743  0.45555  1.0000
  H   H519      1.0  0.20210  0.53957  0.37908  1.0000
  H   H520      1.0  0.26844  0.64493  0.33788  1.0000
  H   H521      1.0  0.30623  0.82880  0.45193  1.0000
  H   H522      1.0  0.06712  0.73953  0.45581  1.0000
  C   C441      1.0  0.23777  0.92407  0.46721  1.0000
  C   C442      1.0  0.15638  0.49853  0.30560  1.0000
  C   C443      1.0  0.24124  0.73786  0.43331  1.0000
  C   C444      1.0  0.17832  0.60817  0.39486  1.0000
  H   H523      1.0  0.16345  0.53756  0.37378  1.0000
  C   C445      1.0  0.19550  0.57834  0.38333  1.0000
  H   H524      1.0  0.26007  0.68958  0.44868  1.0000
  H   H525      1.0  0.08985  0.71462  0.47497  1.0000
  C   C446      1.0  0.16176  0.59223  0.38034  1.0000
  H   H526      1.0  0.22625  0.73659  0.43316  1.0000
  C   C447      1.0  0.24906  0.70507  0.48223  1.0000
  N   N29       1.0  0.29477  0.62658  0.34696  1.0000
  H   H527      1.0  0.31628  0.63510  0.39916  1.0000
  C   C448      1.0  0.30759  0.63897  0.33257  1.0000
  C   C449      1.0  0.13545  0.53752  0.25656  1.0000
  C   C450      1.0  0.25153  0.70281  0.44040  1.0000
  S   S117      1.0  0.32200  0.68752  0.44114  1.0000
  C   C451      1.0  0.17858  0.49042  0.34837  1.0000
  C   C452      1.0  0.31489  0.60521  0.40142  1.0000
  H   H528      1.0  0.18355  0.57923  0.33916  1.0000
  H   H529      1.0  0.14847  0.72909  0.40401  1.0000
  H   H530      1.0  0.26944  0.65620  0.47358  1.0000
  H   H531      1.0  0.12320  0.53827  0.26880  1.0000
  N   N30       1.0  0.25092  0.72096  0.44673  1.0000
  H   H532      1.0  0.09423  0.74636  0.45843  1.0000
  H   H533      1.0  0.20088  0.63427  0.47625  1.0000
  H   H534      1.0  0.01023  0.50728  0.23582  1.0000
  H   H535      1.0  0.31933  0.60011  0.41538  1.0000
  C   C453      1.0  0.30378  0.55003  0.23925  1.0000
  C   C454      1.0  0.24602  0.61933  0.47923  1.0000
  C   C455      1.0  0.13368  0.53221  0.23988  1.0000
  H   H536      1.0  0.07774  0.69394  0.43902  1.0000
  S   S118      1.0  0.23930  0.60620  0.46561  1.0000
  C   C456      1.0  0.30709  0.53091  0.23634  1.0000
  H   H537      1.0  0.29786  0.50330  0.24625  1.0000
  H   H538      1.0  0.14143  0.49227  0.33548  1.0000
  S   S119      1.0  0.11118  0.52761  0.23895  1.0000
  H   H539      1.0  0.28728  0.91371  0.45245  1.0000
  C   C457      1.0  0.31008  0.59228  0.39298  1.0000
  C   C458      1.0  0.31325  0.62488  0.39224  1.0000
  H   H540      1.0  0.21526  0.66098  0.47141  1.0000
  C   C459      1.0  0.22236  0.73175  0.47349  1.0000
  C   C460      1.0  0.26149  0.64470  0.48088  1.0000
  C   C461      1.0  0.26655  0.97764  0.47299  1.0000
  C   C462      1.0  0.12719  0.84187  0.47640  1.0000
  H   H541      1.0  0.25809  0.98839  0.44525  1.0000
  C   C463      1.0  0.02768  0.75237  0.48197  1.0000
  H   H542      1.0  0.14730  0.85590  0.48234  1.0000
  H   H543      1.0  0.17520  0.81393  0.48256  1.0000
  H   H544      1.0  0.26583  0.76333  0.48276  1.0000
  C   C464      1.0  0.99549  0.51453  0.23369  1.0000
  S   S120      1.0  0.28435  0.71823  0.62759  1.0000
  H   H545      1.0  0.27845  0.81838  0.50814  1.0000
  S   S121      1.0  0.23301  0.57075  0.68917  1.0000
  H   H546      1.0  0.25832  0.74022  0.56756  1.0000
  H   H547      1.0  0.23816  0.76479  0.54238  1.0000
  H   H548      1.0  0.21655  0.66290  0.50534  1.0000
  S   S122      1.0  0.12889  0.76824  0.48896  1.0000
  Fe  Fe58      1.0  0.22950  0.84326  0.54253  1.0000
  S   S123      1.0  0.19999  0.86245  0.53870  1.0000
  S   S124      1.0  0.23484  0.82188  0.57036  1.0000
  C   C465      1.0  0.27655  0.71262  0.52642  1.0000
  H   H549      1.0  0.19910  0.73939  0.49737  1.0000
  Fe  Fe59      1.0  0.21763  0.88475  0.52032  1.0000
  S   S125      1.0  0.20816  0.91768  0.51824  1.0000
  Fe  Fe60      1.0  0.20560  0.85060  0.51152  1.0000
  C   C466      1.0  0.30837  0.69411  0.51338  1.0000
  S   S126      1.0  0.24667  0.86640  0.52613  1.0000
  S   S127      1.0  0.23354  0.82965  0.51691  1.0000
  N   N31       1.0  0.29510  0.78978  0.51806  1.0000
  Fe  Fe61      1.0  0.25395  0.63638  0.58910  1.0000
  S   S128      1.0  0.26565  0.65894  0.56441  1.0000
  S   S129      1.0  0.27413  0.61677  0.60875  1.0000
  Fe  Fe62      1.0  0.21469  0.64725  0.57810  1.0000
  S   S130      1.0  0.22248  0.67089  0.55246  1.0000
  S   S131      1.0  0.18612  0.63766  0.58713  1.0000
  Fe  Fe63      1.0  0.25067  0.64947  0.54613  1.0000
  S   S132      1.0  0.26526  0.65204  0.51461  1.0000
  Fe  Fe64      1.0  0.23693  0.67896  0.57219  1.0000
  S   S133      1.0  0.23837  0.71047  0.56778  1.0000
  S   S134      1.0  0.24175  0.62472  0.56993  1.0000
  S   S135      1.0  0.22628  0.65747  0.59881  1.0000
  H   H550      1.0  0.29291  0.70827  0.55708  1.0000
  H   H551      1.0  0.27328  0.81001  0.53388  1.0000
  Fe  Fe65      1.0  0.13341  0.75691  0.51973  1.0000
  S   S136      1.0  0.10594  0.74494  0.53023  1.0000
  S   S137      1.0  0.14064  0.77305  0.53894  1.0000
  C   C467      1.0  0.18566  0.60677  0.52008  1.0000
  C   C468      1.0  0.19938  0.58172  0.64173  1.0000
  H   H552      1.0  0.18758  0.92085  0.56288  1.0000
  H   H553      1.0  0.25140  0.90915  0.49989  1.0000
  C   C469      1.0  0.30396  0.77911  0.53525  1.0000
  Fe  Fe66      1.0  0.12535  0.71738  0.52184  1.0000
  S   S138      1.0  0.12206  0.68739  0.53868  1.0000
  C   C470      1.0  0.32393  0.65443  0.58061  1.0000
  S   S139      1.0  0.15307  0.72847  0.51394  1.0000
  H   H554      1.0  0.16265  0.67905  0.51169  1.0000
  C   C471      1.0  0.10417  0.82809  0.50473  1.0000
  S   S140      1.0  0.31257  0.51030  0.72751  1.0000
  H   H555      1.0  0.29389  0.55166  0.72270  1.0000
  C   C472      1.0  0.29954  0.65353  0.61184  1.0000
  C   C473      1.0  0.03164  0.73211  0.48924  1.0000
  H   H556      1.0  0.17565  0.65085  0.53248  1.0000
  C   C474      1.0  0.16800  0.65235  0.57448  1.0000
  C   C475      1.0  0.15244  0.64448  0.57406  1.0000
  C   C476      1.0  0.13828  0.65550  0.56321  1.0000
  C   C477      1.0  0.13944  0.67456  0.55300  1.0000
  C   C478      1.0  0.15468  0.68272  0.55389  1.0000
  C   C479      1.0  0.16904  0.67157  0.56456  1.0000
  H   H557      1.0  0.15151  0.62969  0.58185  1.0000
  H   H558      1.0  0.12647  0.64919  0.56263  1.0000
  H   H559      1.0  0.15537  0.69757  0.54646  1.0000
  H   H560      1.0  0.18069  0.67790  0.56536  1.0000
  N   N32       1.0  0.24780  0.54536  0.62970  1.0000
  H   H561      1.0  0.20115  0.49654  0.70747  1.0000
  H   H562      1.0  0.26335  0.52518  0.65116  1.0000
  C   C480      1.0  0.25108  0.71283  0.58434  1.0000
  C   C481      1.0  0.25969  0.72902  0.58059  1.0000
  C   C482      1.0  0.27131  0.71660  0.61097  1.0000
  C   C483      1.0  0.26244  0.70060  0.61480  1.0000
  C   C484      1.0  0.25263  0.69854  0.60134  1.0000
  H   H563      1.0  0.26332  0.68967  0.62813  1.0000
  H   H564      1.0  0.24592  0.68607  0.60439  1.0000
  C   C485      1.0  0.17498  0.82142  0.50953  1.0000
  S   S141      1.0  0.31864  0.74206  0.58099  1.0000
  C   C486      1.0  0.08013  0.81201  0.49931  1.0000
  C   C487      1.0  0.15407  0.79144  0.52739  1.0000
  C   C488      1.0  0.15830  0.80234  0.53867  1.0000
  C   C489      1.0  0.16902  0.81709  0.52981  1.0000
  H   H565      1.0  0.24643  0.69229  0.51287  1.0000
  H   H566      1.0  0.23366  0.52361  0.62734  1.0000
  H   H567      1.0  0.15304  0.79962  0.55428  1.0000
  H   H568      1.0  0.17190  0.82572  0.53853  1.0000
  C   C490      1.0  0.22194  0.93139  0.52426  1.0000
  C   C491      1.0  0.21851  0.95180  0.51746  1.0000
  H   H569      1.0  0.26699  0.55773  0.60372  1.0000
  C   C492      1.0  0.24230  0.95446  0.53453  1.0000
  C   C493      1.0  0.24583  0.93402  0.54121  1.0000
  C   C494      1.0  0.23576  0.92250  0.53605  1.0000
  S   S142      1.0  0.07414  0.76938  0.48965  1.0000
  H   H570      1.0  0.25637  0.92707  0.55049  1.0000
  H   H571      1.0  0.23841  0.90681  0.54150  1.0000
  C   C495      1.0  0.29913  0.80317  0.57526  1.0000
  C   C496      1.0  0.29220  0.82169  0.56452  1.0000
  C   C497      1.0  0.27235  0.82772  0.56333  1.0000
  C   C498      1.0  0.25941  0.81522  0.57283  1.0000
  C   C499      1.0  0.26629  0.79689  0.58400  1.0000
  C   C500      1.0  0.28612  0.79085  0.58517  1.0000
  H   H572      1.0  0.30219  0.83132  0.55700  1.0000
  H   H573      1.0  0.26709  0.84204  0.55508  1.0000
  H   H574      1.0  0.25638  0.78724  0.59164  1.0000
  H   H575      1.0  0.29125  0.77673  0.59392  1.0000
  C   C501      1.0  0.24479  0.58421  0.66743  1.0000
  C   C502      1.0  0.26520  0.58013  0.66145  1.0000
  C   C503      1.0  0.27412  0.59059  0.64366  1.0000
  C   C504      1.0  0.26266  0.60479  0.63153  1.0000
  C   C505      1.0  0.24228  0.60889  0.63755  1.0000
  C   C506      1.0  0.23343  0.59889  0.65561  1.0000
  H   H576      1.0  0.27412  0.56910  0.67062  1.0000
  H   H577      1.0  0.28990  0.58741  0.63913  1.0000
  H   H578      1.0  0.23330  0.61975  0.62832  1.0000
  H   H579      1.0  0.21766  0.60226  0.66024  1.0000
  C   C507      1.0  0.28040  0.77985  0.51609  1.0000
  H   H580      1.0  0.13473  0.84965  0.51778  1.0000
  H   H581      1.0  0.26575  0.56618  0.62519  1.0000
  C   C508      1.0  0.04814  0.72353  0.49773  1.0000
  H   H582      1.0  0.27642  0.74343  0.59103  1.0000
  C   C509      1.0  0.27001  0.73079  0.59380  1.0000
  Fe  Fe67      1.0  0.26521  0.50023  0.69240  1.0000
  H   H583      1.0  0.17347  0.61696  0.54695  1.0000
  H   H584      1.0  0.26886  0.78093  0.65147  1.0000
  H   H585      1.0  0.27423  0.96309  0.50065  1.0000
  C   C510      1.0  0.19594  0.95857  0.57747  1.0000
  H   H586      1.0  0.32260  0.79813  0.50305  1.0000
  C   C511      1.0  0.30855  0.80285  0.63423  1.0000
  H   H587      1.0  0.25572  0.80761  0.62599  1.0000
  H   H588      1.0  0.31651  0.69457  0.54732  1.0000
  H   H589      1.0  0.07340  0.72818  0.50529  1.0000
  C   C512      1.0  0.19708  0.59236  0.62319  1.0000
  C   C513      1.0  0.18875  0.64618  0.50296  1.0000
  C   C514      1.0  0.25064  0.76268  0.51252  1.0000
  S   S143      1.0  0.01755  0.71672  0.48644  1.0000
  C   C515      1.0  0.26167  0.90565  0.48634  1.0000
  C   C516      1.0  0.23983  0.70348  0.50187  1.0000
  S   S144      1.0  0.25538  0.96835  0.54129  1.0000
  H   H590      1.0  0.20626  0.79651  0.56438  1.0000
  C   C517      1.0  0.30448  0.72661  0.52125  1.0000
  H   H591      1.0  0.30928  0.68642  0.61140  1.0000
  H   H592      1.0  0.20360  0.92708  0.58636  1.0000
  Fe  Fe68      1.0  0.10288  0.75379  0.49898  1.0000
  H   H593      1.0  0.05868  0.82293  0.53103  1.0000
  C   C518      1.0  0.17050  0.67962  0.49628  1.0000
  H   H594      1.0  0.31908  0.77671  0.49742  1.0000
  H   H595      1.0  0.16124  0.67515  0.48876  1.0000
  C   C519      1.0  0.11285  0.83482  0.51658  1.0000
  H   H596      1.0  0.31120  0.76373  0.53404  1.0000
  H   H597      1.0  0.09950  0.80212  0.53967  1.0000
  C   C520      1.0  0.19608  0.93934  0.57687  1.0000
  H   H598      1.0  0.18876  0.58572  0.65440  1.0000
  C   C521      1.0  0.18083  0.64038  0.52307  1.0000
  C   C522      1.0  0.28524  0.80992  0.52077  1.0000
  H   H599      1.0  0.29308  0.77881  0.54919  1.0000
  C   C523      1.0  0.18698  0.93579  0.56376  1.0000
  C   C524      1.0  0.17941  0.62096  0.53148  1.0000
  C   C525      1.0  0.30066  0.69841  0.54669  1.0000
  H   H600      1.0  0.29080  0.67194  0.52718  1.0000
  H   H601      1.0  0.21095  0.49258  0.67312  1.0000
  C   C526      1.0  0.26578  0.76639  0.49668  1.0000
  H   H602      1.0  0.21669  0.55914  0.65896  1.0000
  H   H603      1.0  0.10822  0.83200  0.53225  1.0000
  H   H604      1.0  0.17107  0.94845  0.54073  1.0000
  H   H605      1.0  0.19837  0.60092  0.49135  1.0000
  H   H606      1.0  0.19450  0.67307  0.52076  1.0000
  H   H607      1.0  0.23906  0.75656  0.51101  1.0000
  H   H608      1.0  0.27932  0.54207  0.62224  1.0000
  H   H609      1.0  0.31912  0.82362  0.65383  1.0000
  H   H610      1.0  0.32007  0.72427  0.52229  1.0000
  N   N33       1.0  0.31760  0.66007  0.59988  1.0000
  C   C527      1.0  0.26571  0.55313  0.61976  1.0000
  H   H611      1.0  0.15734  0.78710  0.49834  1.0000
  C   C528      1.0  0.30275  0.67610  0.51576  1.0000
  H   H612      1.0  0.21464  0.98782  0.57564  1.0000
  H   H613      1.0  0.07549  0.83329  0.53727  1.0000
  H   H614      1.0  0.22594  0.97896  0.51709  1.0000
  H   H615      1.0  0.27589  0.83105  0.60556  1.0000
  Fe  Fe69      1.0  0.24804  0.85445  0.50004  1.0000
  H   H616      1.0  0.08353  0.79037  0.53366  1.0000
  C   C529      1.0  0.26998  0.96142  0.48795  1.0000
  C   C530      1.0  0.27018  0.80646  0.62852  1.0000
  C   C531      1.0  0.24172  0.61438  0.49964  1.0000
  H   H617      1.0  0.20427  0.68808  0.49868  1.0000
  H   H618      1.0  0.29500  0.65829  0.62608  1.0000
  C   C532      1.0  0.13515  0.84850  0.48844  1.0000
  C   C533      1.0  0.27763  0.79145  0.64283  1.0000
  S   S145      1.0  0.12001  0.72515  0.49144  1.0000
  C   C534      1.0  0.07146  0.83010  0.52479  1.0000
  H   H619      1.0  0.24749  0.53448  0.60467  1.0000
  H   H620      1.0  0.30166  0.63725  0.61523  1.0000
  H   H621      1.0  0.21484  0.71445  0.52258  1.0000
  H   H622      1.0  0.30715  0.64980  0.50489  1.0000
  C   C535      1.0  0.20190  0.67296  0.50532  1.0000
  H   H623      1.0  0.30139  0.77748  0.65693  1.0000
  C   C536      1.0  0.28156  0.81970  0.61704  1.0000
  H   H624      1.0  0.22525  0.78285  0.59041  1.0000
  H   H625      1.0  0.29560  0.81817  0.52232  1.0000
  C   C537      1.0  0.30050  0.81789  0.61970  1.0000
  C   C538      1.0  0.31139  0.79135  0.50079  1.0000
  H   H626      1.0  0.29590  0.73666  0.53124  1.0000
  N   N34       1.0  0.19038  0.66682  0.49456  1.0000
  H   H627      1.0  0.23422  0.60252  0.50692  1.0000
  C   C539      1.0  0.25729  0.63966  0.50127  1.0000
  S   S146      1.0  0.22054  0.87457  0.49275  1.0000
  N   N35       1.0  0.18123  0.74009  0.57615  1.0000
  C   C540      1.0  0.18304  0.71968  0.58773  1.0000
  C   C541      1.0  0.16046  0.75028  0.58102  1.0000
  C   C542      1.0  0.18617  0.73895  0.55523  1.0000
  C   C543      1.0  0.19390  0.75127  0.57995  1.0000
  C   C544      1.0  0.19472  0.77056  0.56905  1.0000
  C   C545      1.0  0.20522  0.74382  0.59472  1.0000
  C   C546      1.0  0.20595  0.78173  0.57279  1.0000
  C   C547      1.0  0.21642  0.75513  0.59835  1.0000
  C   C548      1.0  0.21672  0.77405  0.58746  1.0000
  H   H628      1.0  0.17845  0.71934  0.60365  1.0000
  H   H629      1.0  0.17358  0.71161  0.58425  1.0000
  H   H630      1.0  0.19833  0.71108  0.58470  1.0000
  H   H631      1.0  0.15605  0.75121  0.59668  1.0000
  H   H632      1.0  0.15038  0.74270  0.57785  1.0000
  H   H633      1.0  0.15768  0.76551  0.57242  1.0000
  H   H634      1.0  0.20207  0.73273  0.55073  1.0000
  H   H635      1.0  0.17771  0.72964  0.55212  1.0000
  H   H636      1.0  0.18254  0.75352  0.54553  1.0000
  H   H637      1.0  0.18651  0.77725  0.55764  1.0000
  H   H638      1.0  0.20595  0.72919  0.60350  1.0000
  H   H639      1.0  0.30150  0.68884  0.58919  1.0000
  H   H640      1.0  0.22510  0.74910  0.60956  1.0000
  C   C549      1.0  0.17079  0.81047  0.49827  1.0000
  H   H641      1.0  0.32301  0.63705  0.71626  1.0000
  C   C550      1.0  0.17765  0.95143  0.55124  1.0000
  C   C551      1.0  0.21563  0.56635  0.64411  1.0000
  H   H642      1.0  0.18468  0.60453  0.62140  1.0000
  N   N36       1.0  0.29780  0.70780  0.52659  1.0000
  H   H643      1.0  0.23739  0.52910  0.65840  1.0000
  C   C552      1.0  0.28045  0.77486  0.49832  1.0000
  C   C553      1.0  0.22200  0.71593  0.50736  1.0000
  S   S147      1.0  0.23514  0.51552  0.70481  1.0000
  C   C554      1.0  0.18691  0.97490  0.56465  1.0000
  Fe  Fe70      1.0  0.28448  0.51477  0.71739  1.0000
  H   H644      1.0  0.23737  0.56899  0.59597  1.0000
  H   H645      1.0  0.26963  0.69973  0.53277  1.0000
  H   H646      1.0  0.25993  0.51688  0.62235  1.0000
  Fe  Fe71      1.0  0.24935  0.54073  0.70152  1.0000
  C   C555      1.0  0.09495  0.79930  0.52729  1.0000
  H   H647      1.0  0.25009  0.54773  0.65803  1.0000
  C   C556      1.0  0.26470  0.77591  0.53193  1.0000
  H   H648      1.0  0.10793  0.79000  0.51963  1.0000
  H   H649      1.0  0.24379  0.62080  0.52642  1.0000
  C   C557      1.0  0.24962  0.53653  0.65023  1.0000
  C   C558      1.0  0.19319  0.61201  0.50022  1.0000
  C   C559      1.0  0.21086  0.58751  0.60690  1.0000
  N   N37       1.0  0.08796  0.81757  0.51371  1.0000
  H   H650      1.0  0.20785  0.95878  0.50832  1.0000
  H   H651      1.0  0.26314  0.78008  0.54566  1.0000
  C   C560      1.0  0.23016  0.56124  0.62779  1.0000
  H   H652      1.0  0.26829  0.72381  0.53529  1.0000
  C   C561      1.0  0.25015  0.76735  0.53015  1.0000
  H   H653      1.0  0.20324  0.96053  0.58789  1.0000
  C   C562      1.0  0.05725  0.75510  0.49073  1.0000
  C   C563      1.0  0.22710  0.57212  0.60908  1.0000
  C   C564      1.0  0.16052  0.79539  0.50718  1.0000
  C   C565      1.0  0.24721  0.52943  0.62056  1.0000
  H   H654      1.0  0.20901  0.59599  0.59252  1.0000
  C   C566      1.0  0.22865  0.96330  0.52253  1.0000
  C   C567      1.0  0.24710  0.62473  0.51068  1.0000
  H   H655      1.0  0.29495  0.68473  0.55228  1.0000
  S   S148      1.0  0.27898  0.52618  0.68698  1.0000
  H   H656      1.0  0.32458  0.78697  0.66714  1.0000
  C   C568      1.0  0.06077  0.73499  0.49867  1.0000
  Fe  Fe72      1.0  0.31158  0.72973  0.61295  1.0000
  C   C569      1.0  0.12800  0.84497  0.50847  1.0000
  C   C570      1.0  0.17755  0.97074  0.55159  1.0000
  C   C571      1.0  0.29647  0.78965  0.64581  1.0000
  H   H657      1.0  0.05122  0.70790  0.50354  1.0000
  S   S149      1.0  0.32409  0.79533  0.57592  1.0000
  H   H658      1.0  0.28685  0.65984  0.60444  1.0000
  C   C572      1.0  0.31215  0.66318  0.50316  1.0000
  H   H659      1.0  0.06642  0.84440  0.51523  1.0000
  C   C573      1.0  0.31962  0.63945  0.55555  1.0000
  S   S150      1.0  0.18530  0.84196  0.49772  1.0000
  H   H660      1.0  0.30278  0.73451  0.50622  1.0000
  H   H661      1.0  0.26973  0.93144  0.49940  1.0000
  Fe  Fe73      1.0  0.14636  0.73857  0.48402  1.0000
  H   H662      1.0  0.30060  0.63912  0.58307  1.0000
  H   H663      1.0  0.06793  0.80416  0.50648  1.0000
  C   C574      1.0  0.31350  0.64402  0.57409  1.0000
  H   H664      1.0  0.30896  0.82813  0.60995  1.0000
  H   H665      1.0  0.31133  0.63156  0.55090  1.0000
  C   C575      1.0  0.32428  0.69813  0.49788  1.0000
  H   H666      1.0  0.25926  0.89160  0.48467  1.0000
  H   H667      1.0  0.17036  0.98207  0.54121  1.0000
  C   C576      1.0  0.19467  0.63141  0.49167  1.0000
  H   H668      1.0  0.27394  0.71844  0.51131  1.0000
  S   S151      1.0  0.32055  0.75291  0.62191  1.0000
  S   S152      1.0  0.25594  0.53146  0.73173  1.0000
  H   H669      1.0  0.17102  0.69526  0.48971  1.0000
  C   C577      1.0  0.31363  0.68171  0.59715  1.0000
  H   H670      1.0  0.09150  0.80172  0.49107  1.0000
  H   H671      1.0  0.29135  0.77786  0.48524  1.0000
  H   H672      1.0  0.18472  0.59168  0.52665  1.0000
  C   C578      1.0  0.26738  0.94317  0.48698  1.0000
  H   H673      1.0  0.31524  0.78623  0.53690  1.0000
  H   H674      1.0  0.07420  0.82506  0.48879  1.0000
  H   H675      1.0  0.30609  0.80089  0.48764  1.0000
  C   C579      1.0  0.21321  0.72994  0.49319  1.0000
  H   H676      1.0  0.27698  0.90256  0.48848  1.0000
  H   H677      1.0  0.01646  0.49998  0.73257  1.0000
  C   C580      1.0  0.30367  0.54831  0.73275  1.0000
  C   C581      1.0  0.11191  0.83182  0.48431  1.0000
  H   H678      1.0  0.28657  0.51965  0.80592  1.0000
  S   S153      1.0  0.29777  0.57391  0.85829  1.0000
  C   C582      1.0  0.28424  0.53095  0.79252  1.0000
  H   H679      1.0  0.30002  0.53341  0.89086  1.0000
  C   C583      1.0  0.16486  0.52909  0.85684  1.0000
  H   H680      1.0  0.03201  0.50304  0.75546  1.0000
  H   H681      1.0  0.24240  0.54202  0.83434  1.0000
  Fe  Fe74      1.0  0.32194  0.56263  0.83490  1.0000
  H   H682      1.0  0.12521  0.51466  0.83529  1.0000
  H   H683      1.0  0.20443  0.56436  0.96036  1.0000
  H   H684      1.0  0.16766  0.53168  0.78454  1.0000
  Fe  Fe75      1.0  0.22625  0.51233  0.89495  1.0000
  H   H685      1.0  0.25522  0.56854  0.81322  1.0000
  S   S154      1.0  0.21859  0.54404  0.88106  1.0000
  H   H686      1.0  0.25138  0.52451  0.77899  1.0000
  H   H687      1.0  0.14262  0.49094  0.88785  1.0000
  N   N38       1.0  0.18763  0.53826  0.95200  1.0000
  H   H688      1.0  0.20402  0.53554  0.92308  1.0000
  C   C584      1.0  0.20014  0.55330  0.97283  1.0000
  C   C585      1.0  0.16895  0.54576  0.81706  1.0000
  C   C586      1.0  0.04213  0.48909  0.75791  1.0000
  C   C587      1.0  0.22801  0.51583  0.80145  1.0000
  H   H689      1.0  0.17418  0.52311  0.93858  1.0000
  C   C588      1.0  0.26870  0.55741  0.80929  1.0000
  H   H690      1.0  0.29559  0.51742  0.92334  1.0000
  C   C589      1.0  0.23212  0.49154  0.97990  1.0000
  H   H691      1.0  0.25275  0.53001  0.97640  1.0000
  C   C590      1.0  0.21787  0.51585  0.82058  1.0000
  C   C591      1.0  0.17354  0.50760  0.75340  1.0000
  C   C592      1.0  0.31610  0.52816  0.89006  1.0000
  H   H692      1.0  0.12119  0.51946  0.81125  1.0000
  C   C593      1.0  0.19361  0.50643  0.75167  1.0000
  H   H693      1.0  0.18506  0.56417  0.82293  1.0000
  H   H694      1.0  0.21603  0.52477  0.84724  1.0000
  C   C594      1.0  0.24939  0.53562  0.80494  1.0000
  H   H695      1.0  0.17128  0.55271  0.80181  1.0000
  C   C595      1.0  0.24369  0.52535  0.79376  1.0000
  C   C596      1.0  0.27577  0.56588  0.86296  1.0000
  C   C597      1.0  0.25808  0.57815  0.86960  1.0000
  C   C598      1.0  0.24044  0.57168  0.87441  1.0000
  C   C599      1.0  0.24052  0.55259  0.87340  1.0000
  C   C600      1.0  0.25824  0.54022  0.86685  1.0000
  C   C601      1.0  0.27577  0.54706  0.86117  1.0000
  H   H696      1.0  0.25803  0.59272  0.87104  1.0000
  H   H697      1.0  0.22683  0.58128  0.87951  1.0000
  H   H698      1.0  0.25844  0.52541  0.86606  1.0000
  H   H699      1.0  0.28935  0.53762  0.85590  1.0000
  C   C602      1.0  0.17736  0.52259  0.95296  1.0000
  H   H700      1.0  0.27296  0.54786  0.82290  1.0000
  H   H701      1.0  0.14485  0.52740  0.78343  1.0000
  C   C603      1.0  0.22357  0.52515  0.83217  1.0000
  H   H702      1.0  0.16146  0.56077  0.95536  1.0000
  C   C604      1.0  0.23896  0.53502  0.82453  1.0000
  H   H703      1.0  0.20015  0.51874  0.74350  1.0000
  H   H704      1.0  0.16459  0.52084  0.74657  1.0000
  H   H705      1.0  0.21497  0.54648  0.93578  1.0000
  H   H706      1.0  0.27411  0.56847  0.77186  1.0000
  N   N39       1.0  0.26591  0.54576  0.79641  1.0000
  H   H707      1.0  0.22383  0.50829  0.79251  1.0000
  H   H708      1.0  0.29772  0.57806  0.73682  1.0000
  S   S155      1.0  0.31816  0.54369  0.81672  1.0000
  C   C605      1.0  0.19154  0.53844  0.97104  1.0000
  C   C606      1.0  0.15832  0.53050  0.82479  1.0000
  H   H709      1.0  0.16311  0.52397  0.96352  1.0000
  H   H710      1.0  0.21577  0.52064  0.94253  1.0000
  H   H711      1.0  0.00190  0.49595  0.76734  1.0000
  S   S156      1.0  0.32016  0.57714  0.76482  1.0000
  H   H712      1.0  0.14498  0.54919  0.79066  1.0000
  H   H713      1.0  0.28426  0.52329  0.78103  1.0000
  C   C607      1.0  0.17701  0.55252  0.82907  1.0000
  H   H714      1.0  0.20573  0.50845  0.82655  1.0000
  C   C608      1.0  0.20639  0.53516  0.93776  1.0000
  H   H715      1.0  0.24821  0.56973  0.77973  1.0000
  C   C609      1.0  0.15657  0.52240  0.84502  1.0000
  H   H716      1.0  0.12075  0.53955  0.82192  1.0000
  N   N40       1.0  0.14964  0.52279  0.81267  1.0000
  S   S157      1.0  0.24980  0.50260  0.91246  1.0000
  H   H717      1.0  0.26351  0.55174  0.76605  1.0000
  C   C610      1.0  0.12833  0.52424  0.82064  1.0000
  H   H718      1.0  0.29721  0.53780  0.78737  1.0000
  S   S158      1.0  0.20512  0.49533  0.91635  1.0000
  C   C611      1.0  0.17496  0.54421  0.84890  1.0000
  C   C612      1.0  0.29047  0.48968  0.93923  1.0000
  C   C613      1.0  0.24115  0.50751  0.97133  1.0000
  H   H719      1.0  0.28067  0.56556  0.80214  1.0000
  H   H720      1.0  0.18283  0.56968  0.94104  1.0000
  C   C614      1.0  0.26272  0.55945  0.77776  1.0000
  H   H721      1.0  0.18141  0.54936  0.85812  1.0000
  H   H722      1.0  0.17116  0.55726  0.93071  1.0000
  H   H723      1.0  0.24386  0.51251  0.95570  1.0000
  C   C615      1.0  0.31756  0.50406  0.87212  1.0000
  H   H724      1.0  0.18649  0.50770  0.95720  1.0000
  H   H725      1.0  0.30145  0.50635  0.87363  1.0000
  C   C616      1.0  0.15196  0.53334  0.79197  1.0000
  C   C617      1.0  0.17523  0.55732  0.94452  1.0000
  C   C618      1.0  0.31290  0.49434  0.90735  1.0000
  C   C619      1.0  0.15912  0.50189  0.81291  1.0000
  H   H726      1.0  0.32409  0.48907  0.86917  1.0000
  H   H727      1.0  0.32011  0.53164  0.90241  1.0000
  S   S159      1.0  0.23865  0.48958  0.87694  1.0000
  C   C620      1.0  0.30596  0.56324  0.74063  1.0000
  H   H728      1.0  0.16341  0.52246  0.87224  1.0000
  H   H729      1.0  0.32315  0.53727  0.87658  1.0000
  N   N41       1.0  0.32237  0.50689  0.88977  1.0000
  C   C621      1.0  0.31860  0.55892  0.75367  1.0000
  H   H730      1.0  0.17518  0.49998  0.80708  1.0000
  H   H731      1.0  0.14873  0.51074  0.85184  1.0000
  C   C622      1.0  0.20495  0.48962  0.76125  1.0000
  C   C623      1.0  0.29953  0.50198  0.92315  1.0000
  H   H732      1.0  0.15297  0.49571  0.80385  1.0000
  H   H733      1.0  0.06286  0.50243  0.76383  1.0000
  C   C624      1.0  0.16498  0.49189  0.76450  1.0000
  C   C625      1.0  0.31447  0.52921  0.73752  1.0000
  Fe  Fe76      1.0  0.24472  0.50484  0.73349  1.0000
  S   S160      1.0  0.13955  0.49417  0.76893  1.0000
  H   H734      1.0  0.32320  0.51425  0.85873  1.0000
  H   H735      1.0  0.28021  0.49575  0.95106  1.0000
  H   H736      1.0  0.15683  0.49257  0.82781  1.0000
  C   C626      1.0  0.05980  0.48895  0.76256  1.0000
  H   H737      1.0  0.57597  0.16701  0.23020  1.0000
  S   S161      1.0  0.56349  0.20684  0.09733  1.0000
  H   H738      1.0  0.38998  0.28213  0.13312  1.0000
  H   H739      1.0  0.57138  0.23405  0.11529  1.0000
  Fe  Fe77      1.0  0.55226  0.16594  0.05493  1.0000
  S   S162      1.0  0.54202  0.13958  0.07500  1.0000
  S   S163      1.0  0.54990  0.17684  0.02302  1.0000
  Fe  Fe78      1.0  0.55808  0.18104  0.08876  1.0000
  S   S164      1.0  0.54792  0.15625  0.11137  1.0000
  Fe  Fe79      1.0  0.56628  0.13759  0.09013  1.0000
  H   H740      1.0  0.59402  0.00425  0.17782  1.0000
  Fe  Fe80      1.0  0.52467  0.16035  0.09453  1.0000
  S   S165      1.0  0.49327  0.15961  0.10849  1.0000
  S   S166      1.0  0.57835  0.16227  0.06835  1.0000
  S   S167      1.0  0.53296  0.18692  0.07367  1.0000
  H   H741      1.0  0.58439  0.33976  0.15836  1.0000
  H   H742      1.0  0.55836  0.03076  0.13510  1.0000
  Fe  Fe81      1.0  0.55059  0.05305  0.20684  1.0000
  C   C627      1.0  0.34737  0.45283  0.18691  1.0000
  S   S168      1.0  0.53522  0.07422  0.18397  1.0000
  Fe  Fe82      1.0  0.58780  0.25792  0.18340  1.0000
  H   H743      1.0  0.40358  0.32536  0.13846  1.0000
  H   H744      1.0  0.35336  0.32113  0.11193  1.0000
  H   H745      1.0  0.65024  0.32230  0.13614  1.0000
  S   S169      1.0  0.58182  0.03658  0.20442  1.0000
  S   S170      1.0  0.55960  0.27956  0.18005  1.0000
  Fe  Fe83      1.0  0.44493  0.24928  0.14139  1.0000
  S   S171      1.0  0.46436  0.26860  0.14155  1.0000
  S   S172      1.0  0.43991  0.24305  0.11467  1.0000
  Fe  Fe84      1.0  0.43537  0.23735  0.18534  1.0000
  S   S173      1.0  0.45389  0.25575  0.18992  1.0000
  H   H746      1.0  0.58459  0.32408  0.14289  1.0000
  Fe  Fe85      1.0  0.44082  0.27838  0.16620  1.0000
  S   S174      1.0  0.43257  0.31109  0.16347  1.0000
  Fe  Fe86      1.0  0.47565  0.24467  0.16496  1.0000
  S   S175      1.0  0.50728  0.23078  0.16392  1.0000
  S   S176      1.0  0.42022  0.26091  0.16396  1.0000
  S   S177      1.0  0.45837  0.22436  0.16252  1.0000
  C   C628      1.0  0.47972  0.11125  0.17817  1.0000
  N   N42       1.0  0.57402  0.01363  0.15791  1.0000
  S   S178      1.0  0.35145  0.34500  0.21410  1.0000
  H   H747      1.0  0.39877  0.36819  0.21687  1.0000
  H   H748      1.0  0.65467  0.35939  0.17119  1.0000
  C   C629      1.0  0.49522  0.19653  0.20467  1.0000
  H   H749      1.0  0.48937  0.20357  0.21753  1.0000
  S   S179      1.0  0.34705  0.40059  0.18462  1.0000
  C   C630      1.0  0.48837  0.15965  0.00554  1.0000
  C   C631      1.0  0.41040  0.32033  0.17812  1.0000
  C   C632      1.0  0.40113  0.30810  0.19406  1.0000
  C   C633      1.0  0.38309  0.31584  0.20520  1.0000
  C   C634      1.0  0.37405  0.33563  0.20007  1.0000
  C   C635      1.0  0.38323  0.34777  0.18396  1.0000
  C   C636      1.0  0.40155  0.34020  0.17324  1.0000
  H   H750      1.0  0.40792  0.29275  0.19791  1.0000
  H   H751      1.0  0.37603  0.30640  0.21768  1.0000
  H   H752      1.0  0.37630  0.36299  0.17978  1.0000
  H   H753      1.0  0.40870  0.34967  0.16086  1.0000
  C   C637      1.0  0.54471  0.26725  0.17421  1.0000
  C   C638      1.0  0.52432  0.27378  0.17757  1.0000
  C   C639      1.0  0.51256  0.26295  0.17393  1.0000
  C   C640      1.0  0.52130  0.24555  0.16716  1.0000
  C   C641      1.0  0.54165  0.23939  0.16333  1.0000
  C   C642      1.0  0.55333  0.25033  0.16668  1.0000
  H   H754      1.0  0.51762  0.28699  0.18325  1.0000
  H   H755      1.0  0.49680  0.26789  0.17662  1.0000
  H   H756      1.0  0.54844  0.22621  0.15762  1.0000
  H   H757      1.0  0.56906  0.24570  0.16327  1.0000
  C   C643      1.0  0.57095  0.09823  0.12514  1.0000
  C   C644      1.0  0.58044  0.08373  0.13868  1.0000
  C   C645      1.0  0.56963  0.07605  0.15683  1.0000
  C   C646      1.0  0.54928  0.08259  0.16121  1.0000
  C   C647      1.0  0.53979  0.09655  0.14741  1.0000
  C   C648      1.0  0.55059  0.10445  0.12947  1.0000
  H   H758      1.0  0.40552  0.31986  0.11524  1.0000
  H   H759      1.0  0.57707  0.06529  0.16742  1.0000
  H   H760      1.0  0.52404  0.10142  0.15060  1.0000
  H   H761      1.0  0.54312  0.11525  0.11889  1.0000
  C   C649      1.0  0.47942  0.18356  0.10788  1.0000
  C   C650      1.0  0.46050  0.18830  0.10409  1.0000
  C   C651      1.0  0.44867  0.20696  0.10525  1.0000
  C   C652      1.0  0.45549  0.22062  0.11092  1.0000
  C   C653      1.0  0.47438  0.21584  0.11477  1.0000
  C   C654      1.0  0.48654  0.19749  0.11280  1.0000
  H   H762      1.0  0.45500  0.17754  0.10025  1.0000
  H   H763      1.0  0.43403  0.21058  0.10234  1.0000
  H   H764      1.0  0.47946  0.22622  0.11955  1.0000
  H   H765      1.0  0.50109  0.19379  0.11593  1.0000
  H   H766      1.0  0.41150  0.30070  0.13562  1.0000
  H   H767      1.0  0.63499  0.29607  0.14225  1.0000
  C   C655      1.0  0.56010  0.13134  0.99549  1.0000
  C   C656      1.0  0.55931  0.14218  0.00941  1.0000
  C   C657      1.0  0.55001  0.16202  0.00697  1.0000
  H   H768      1.0  0.54933  0.24925  0.08906  1.0000
  S   S180      1.0  0.58803  0.22597  0.19460  1.0000
  H   H769      1.0  0.56749  0.11605  0.99738  1.0000
  H   H770      1.0  0.56614  0.13529  0.02185  1.0000
  C   C658      1.0  0.62701  0.35080  0.17782  1.0000
  C   C659      1.0  0.49742  0.30213  0.11567  1.0000
  H   H771      1.0  0.46457  0.18194  0.20703  1.0000
  C   C660      1.0  0.51320  0.23500  0.22652  1.0000
  C   C661      1.0  0.34198  0.36759  0.11894  1.0000
  H   H772      1.0  0.37636  0.34763  0.14641  1.0000
  N   N43       1.0  0.61133  0.31822  0.15343  1.0000
  H   H773      1.0  0.60128  0.34009  0.18188  1.0000
  Fe  Fe87      1.0  0.56886  0.01131  0.22402  1.0000
  H   H774      1.0  0.46534  0.12600  0.00480  1.0000
  C   C662      1.0  0.59290  0.01309  0.16289  1.0000
  H   H775      1.0  0.57598  0.04180  0.13869  1.0000
  C   C663      1.0  0.61586  0.34010  0.17323  1.0000
  H   H776      1.0  0.47210  0.15850  0.22197  1.0000
  C   C664      1.0  0.64293  0.33028  0.14760  1.0000
  H   H777      1.0  0.61247  0.29831  0.13519  1.0000
  H   H778      1.0  0.60562  0.00691  0.15223  1.0000
  H   H779      1.0  0.59563  0.29509  0.16796  1.0000
  C   C665      1.0  0.47450  0.10663  0.19841  1.0000
  C   C666      1.0  0.52771  0.28620  0.12645  1.0000
  C   C667      1.0  0.53610  0.25231  0.08269  1.0000
  C   C668      1.0  0.51149  0.30170  0.12589  1.0000
  H   H780      1.0  0.54326  0.02320  0.17008  1.0000
  H   H781      1.0  0.38332  0.45658  0.21362  1.0000
  C   C669      1.0  0.55503  0.99240  0.15101  1.0000
  H   H782      1.0  0.42219  0.24389  0.22626  1.0000
  Fe  Fe88      1.0  0.61517  0.22135  0.17164  1.0000
  H   H783      1.0  0.53387  0.18602  0.98882  1.0000
  H   H784      1.0  0.38388  0.29943  0.11190  1.0000
  H   H785      1.0  0.37640  0.31709  0.16583  1.0000
  C   C670      1.0  0.35460  0.36597  0.13117  1.0000
  H   H786      1.0  0.45951  0.18882  0.14879  1.0000
  S   S181      1.0  0.65638  0.26872  0.17151  1.0000
  H   H787      1.0  0.53819  0.23996  0.07525  1.0000
  C   C671      1.0  0.49665  0.14046  0.00189  1.0000
  H   H788      1.0  0.59191  0.10806  0.21021  1.0000
  H   H789      1.0  0.55860  0.01190  0.18760  1.0000
  C   C672      1.0  0.49304  0.16603  0.02012  1.0000
  C   C673      1.0  0.51416  0.13454  0.02852  1.0000
  C   C674      1.0  0.50590  0.15349  0.03159  1.0000
  C   C675      1.0  0.47395  0.17391  0.21783  1.0000
  H   H790      1.0  0.52458  0.12505  0.03716  1.0000
  C   C676      1.0  0.46134  0.12038  0.20845  1.0000
  H   H791      1.0  0.40131  0.45423  0.18022  1.0000
  H   H792      1.0  0.45392  0.15464  0.13857  1.0000
  C   C677      1.0  0.45306  0.13871  0.19829  1.0000
  H   H793      1.0  0.51043  0.19887  0.19858  1.0000
  C   C678      1.0  0.45780  0.14379  0.17757  1.0000
  C   C679      1.0  0.49941  0.28696  0.10610  1.0000
  H   H794      1.0  0.36708  0.46414  0.16117  1.0000
  H   H795      1.0  0.59959  0.13967  0.19820  1.0000
  H   H796      1.0  0.48695  0.18088  0.02237  1.0000
  C   C680      1.0  0.33582  0.45595  0.20495  1.0000
  H   H797      1.0  0.50991  0.15864  0.04254  1.0000
  H   H798      1.0  0.52222  0.16404  0.21934  1.0000
  H   H799      1.0  0.50689  0.19089  0.16992  1.0000
  H   H800      1.0  0.51955  0.17312  0.14378  1.0000
  H   H801      1.0  0.51726  0.11342  0.01191  1.0000
  C   C681      1.0  0.65970  0.31466  0.20349  1.0000
  H   H802      1.0  0.48788  0.28815  0.09863  1.0000
  C   C682      1.0  0.58863  0.14750  0.18963  1.0000
  C   C683      1.0  0.39688  0.44137  0.19019  1.0000
  H   H803      1.0  0.36478  0.29252  0.13242  1.0000
  S   S182      1.0  0.63542  0.21997  0.19123  1.0000
  C   C684      1.0  0.47176  0.12964  0.16786  1.0000
  C   C685      1.0  0.60455  0.30396  0.17104  1.0000
  H   H804      1.0  0.59521  0.31100  0.18315  1.0000
  C   C686      1.0  0.57303  0.02736  0.13883  1.0000
  H   H805      1.0  0.49349  0.10204  0.23135  1.0000
  H   H806      1.0  0.60833  0.11946  0.15598  1.0000
  H   H807      1.0  0.52354  0.23925  0.21334  1.0000
  H   H808      1.0  0.63283  0.30822  0.22228  1.0000
  Fe  Fe89      1.0  0.33486  0.37382  0.19984  1.0000
  H   H809      1.0  0.52012  0.22247  0.10643  1.0000
  N   N44       1.0  0.38047  0.31224  0.13669  1.0000
  C   C687      1.0  0.37503  0.30618  0.15819  1.0000
  C   C688      1.0  0.37963  0.29596  0.12810  1.0000
  C   C689      1.0  0.40108  0.31467  0.13125  1.0000
  C   C690      1.0  0.36732  0.33108  0.13018  1.0000
  C   C691      1.0  0.35428  0.33318  0.11766  1.0000
  H   H810      1.0  0.59186  0.17509  0.19347  1.0000
  H   H811      1.0  0.48089  0.09241  0.20634  1.0000
  H   H812      1.0  0.45756  0.11680  0.22428  1.0000
  H   H813      1.0  0.62652  0.31671  0.12383  1.0000
  C   C692      1.0  0.49361  0.23843  0.22506  1.0000
  H   H814      1.0  0.38457  0.29210  0.16385  1.0000
  H   H815      1.0  0.34823  0.43969  0.18205  1.0000
  C   C693      1.0  0.50825  0.17521  0.17387  1.0000
  C   C694      1.0  0.51565  0.16510  0.15859  1.0000
  H   H816      1.0  0.48708  0.25640  0.09858  1.0000
  S   S183      1.0  0.58456  0.10915  0.10325  1.0000
  H   H817      1.0  0.47683  0.13275  0.15220  1.0000
  H   H818      1.0  0.43784  0.17918  0.18965  1.0000
  C   C695      1.0  0.57983  0.21976  0.12048  1.0000
  H   H819      1.0  0.59620  0.07886  0.13527  1.0000
  C   C696      1.0  0.58409  0.16793  0.18733  1.0000
  C   C697      1.0  0.35716  0.48383  0.18117  1.0000
  S   S184      1.0  0.60504  0.25955  0.20429  1.0000
  H   H820      1.0  0.59277  0.23045  0.13836  1.0000
  H   H821      1.0  0.50975  0.31330  0.13355  1.0000
  C   C698      1.0  0.57165  0.99415  0.15698  1.0000
  H   H822      1.0  0.33229  0.46510  0.13228  1.0000
  C   C699      1.0  0.51300  0.13449  0.18124  1.0000
  C   C700      1.0  0.59530  0.11261  0.16173  1.0000
  C   C701      1.0  0.55802  0.02164  0.17301  1.0000
  Fe  Fe90      1.0  0.60782  0.22702  0.21321  1.0000
  C   C702      1.0  0.52970  0.27085  0.11719  1.0000
  N   N45       1.0  0.51775  0.25385  0.09769  1.0000
  H   H823      1.0  0.40811  0.42307  0.16903  1.0000
  C   C703      1.0  0.51551  0.27061  0.10689  1.0000
  C   C704      1.0  0.57882  0.20346  0.11391  1.0000
  H   H824      1.0  0.55978  0.14395  0.16049  1.0000
  C   C705      1.0  0.59194  0.21776  0.13356  1.0000
  N   N46       1.0  0.58520  0.11646  0.18137  1.0000
  C   C706      1.0  0.56731  0.10813  0.18778  1.0000
  H   H825      1.0  0.55770  0.11328  0.17690  1.0000
  C   C707      1.0  0.56170  0.17047  0.16678  1.0000
  H   H826      1.0  0.35957  0.30439  0.16289  1.0000
  C   C708      1.0  0.59848  0.10569  0.19512  1.0000
  C   C709      1.0  0.51803  0.14481  0.16225  1.0000
  H   H827      1.0  0.52372  0.13711  0.15029  1.0000
  C   C710      1.0  0.35802  0.46672  0.17505  1.0000
  C   C711      1.0  0.50138  0.25543  0.08806  1.0000
  C   C712      1.0  0.50269  0.16519  0.19338  1.0000
  S   S185      1.0  0.61353  0.25348  0.15881  1.0000
  C   C713      1.0  0.57986  0.13792  0.18033  1.0000
  H   H828      1.0  0.61129  0.16890  0.13831  1.0000
  S   S186      1.0  0.42200  0.21370  0.20671  1.0000
  C   C714      1.0  0.36703  0.34806  0.13676  1.0000
  C   C715      1.0  0.56630  0.15007  0.16876  1.0000
  C   C716      1.0  0.50511  0.14451  0.19657  1.0000
  H   H829      1.0  0.51495  0.11864  0.18404  1.0000
  C   C717      1.0  0.60338  0.19945  0.13999  1.0000
  H   H830      1.0  0.48931  0.24542  0.21120  1.0000
  Fe  Fe91      1.0  0.63121  0.25272  0.18068  1.0000
  C   C718      1.0  0.59008  0.18506  0.12050  1.0000
  C   C719      1.0  0.59393  0.33194  0.14683  1.0000
  H   H831      1.0  0.44298  0.14860  0.20704  1.0000
  C   C720      1.0  0.46499  0.17448  0.15802  1.0000
  C   C721      1.0  0.60247  0.18311  0.13338  1.0000
  H   H832      1.0  0.58950  0.17242  0.11544  1.0000
  N   N47       1.0  0.49470  0.17537  0.20995  1.0000
  S   S187      1.0  0.61874  0.19656  0.15641  1.0000
  C   C722      1.0  0.62351  0.32937  0.15805  1.0000
  H   H833      1.0  0.55853  0.11195  0.20181  1.0000
  C   C723      1.0  0.44197  0.16052  0.15004  1.0000
  H   H834      1.0  0.58565  0.11858  0.15086  1.0000
  H   H835      1.0  0.54942  0.24430  0.21994  1.0000
  H   H836      1.0  0.47046  0.17750  0.16969  1.0000
  H   H837      1.0  0.56783  0.19522  0.17365  1.0000
  H   H838      1.0  0.55201  0.17955  0.15717  1.0000
  C   C724      1.0  0.38268  0.37309  0.22172  1.0000
  S   S188      1.0  0.53763  0.02733  0.22439  1.0000
  H   H839      1.0  0.53173  0.23202  0.11959  1.0000
  S   S189      1.0  0.33370  0.41757  0.13276  1.0000
  H   H840      1.0  0.61296  0.10995  0.19039  1.0000
  H   H841      1.0  0.34863  0.40040  0.22428  1.0000
  H   H842      1.0  0.49778  0.10289  0.99757  1.0000
  H   H843      1.0  0.37552  0.37552  0.20918  1.0000
  H   H844      1.0  0.55901  0.03644  0.17400  1.0000
  H   H845      1.0  0.59454  0.02800  0.16287  1.0000
  C   C725      1.0  0.33484  0.47313  0.21107  1.0000
  H   H846      1.0  0.53861  0.28581  0.13449  1.0000
  H   H847      1.0  0.50035  0.26837  0.07581  1.0000
  H   H848      1.0  0.63589  0.19127  0.22608  1.0000
  C   C726      1.0  0.51881  0.23543  0.11269  1.0000
  C   C727      1.0  0.50977  0.12805  0.01386  1.0000
  H   H849      1.0  0.63128  0.28288  0.20574  1.0000
  H   H850      1.0  0.58398  0.02120  0.12684  1.0000
  H   H851      1.0  0.50077  0.13595  0.21098  1.0000
  C   C728      1.0  0.38417  0.40815  0.21604  1.0000
  C   C729      1.0  0.43301  0.17500  0.17818  1.0000
  H   H852      1.0  0.62121  0.35826  0.18995  1.0000
  H   H853      1.0  0.43159  0.15043  0.15542  1.0000
  H   H854      1.0  0.43425  0.17474  0.14229  1.0000
  C   C730      1.0  0.62185  0.30693  0.13795  1.0000
  H   H855      1.0  0.47775  0.16663  0.14863  1.0000
  H   H856      1.0  0.48470  0.31413  0.11545  1.0000
  N   N48       1.0  0.44945  0.16309  0.16631  1.0000
  C   C731      1.0  0.39438  0.40739  0.19656  1.0000
  H   H857      1.0  0.48584  0.20482  0.19393  1.0000
  C   C732      1.0  0.57058  0.17936  0.17606  1.0000
  C   C733      1.0  0.34544  0.48712  0.19914  1.0000
  H   H858      1.0  0.42670  0.18921  0.16920  1.0000
  C   C734      1.0  0.40058  0.42383  0.18391  1.0000
  H   H859      1.0  0.50335  0.24230  0.08177  1.0000
  H   H860      1.0  0.60171  0.08952  0.19609  1.0000
  H   H861      1.0  0.60043  0.09662  0.16193  1.0000
  H   H862      1.0  0.59837  0.34322  0.13386  1.0000
  H   H863      1.0  0.54230  0.25894  0.11848  1.0000
  H   H864      1.0  0.42089  0.16710  0.18521  1.0000
  H   H865      1.0  0.50562  0.23632  0.12457  1.0000
  H   H866      1.0  0.61726  0.29363  0.17653  1.0000
  H   H867      1.0  0.53620  0.26605  0.07141  1.0000
  C   C735      1.0  0.34182  0.35124  0.11218  1.0000
  H   H868      1.0  0.57094  0.09183  0.18997  1.0000
  H   H869      1.0  0.47844  0.16998  0.99696  1.0000
  C   C736      1.0  0.42389  0.21288  0.23046  1.0000
  C   C737      1.0  0.54129  0.17076  0.99072  1.0000
  H   H870      1.0  0.39765  0.39435  0.19064  1.0000
  H   H871      1.0  0.54379  0.00510  0.14725  1.0000
  C   C738      1.0  0.64416  0.30480  0.20988  1.0000
  H   H872      1.0  0.49025  0.10060  0.17047  1.0000
  H   H873      1.0  0.55070  0.21013  0.22032  1.0000
  H   H874      1.0  0.33193  0.35261  0.10267  1.0000
  C   C739      1.0  0.64318  0.29051  0.20041  1.0000
  C   C740      1.0  0.50621  0.16604  0.22550  1.0000
  C   C741      1.0  0.38043  0.42636  0.22183  1.0000
  C   C742      1.0  0.50170  0.11381  0.98407  1.0000
  C   C743      1.0  0.64592  0.35147  0.16724  1.0000
  H   H875      1.0  0.46152  0.15040  0.99023  1.0000
  N   N49       1.0  0.49156  0.13415  0.98625  1.0000
  H   H876      1.0  0.32685  0.45996  0.15828  1.0000
  C   C744      1.0  0.47017  0.13517  0.99030  1.0000
  H   H877      1.0  0.55796  0.21274  0.98913  1.0000
  C   C745      1.0  0.38675  0.44266  0.20907  1.0000
  C   C746      1.0  0.65383  0.34131  0.15213  1.0000
  S   S190      1.0  0.55084  0.06437  0.23259  1.0000
  C   C747      1.0  0.65763  0.28606  0.18428  1.0000
  H   H878      1.0  0.35473  0.37869  0.13641  1.0000
  H   H879      1.0  0.33232  0.38159  0.11475  1.0000
  N   N50       1.0  0.37770  0.39099  0.23004  1.0000
  Fe  Fe92      1.0  0.58087  0.04572  0.23216  1.0000
  H   H880      1.0  0.46778  0.18024  0.23116  1.0000
  H   H881      1.0  0.37749  0.36047  0.23246  1.0000
  C   C748      1.0  0.40152  0.12228  0.34533  1.0000
  S   S191      1.0  0.60920  0.11546  0.30884  1.0000
  Fe  Fe93      1.0  0.60276  0.12518  0.33717  1.0000
  S   S192      1.0  0.57336  0.14313  0.34814  1.0000
  H   H882      1.0  0.61873  0.15665  0.29457  1.0000
  Fe  Fe94      1.0  0.46660  0.14080  0.32339  1.0000
  S   S193      1.0  0.47310  0.17073  0.31846  1.0000
  S   S194      1.0  0.46205  0.11997  0.35228  1.0000
  Fe  Fe95      1.0  0.46940  0.14276  0.28068  1.0000
  S   S195      1.0  0.47576  0.17264  0.27219  1.0000
  S   S196      1.0  0.47115  0.12925  0.25559  1.0000
  Fe  Fe96      1.0  0.49586  0.16156  0.29306  1.0000
  S   S197      1.0  0.52592  0.16763  0.28075  1.0000
  Fe  Fe97      1.0  0.45241  0.17915  0.29787  1.0000
  S   S198      1.0  0.43297  0.20866  0.29131  1.0000
  S   S199      1.0  0.49143  0.13087  0.29982  1.0000
  S   S200      1.0  0.44391  0.14998  0.30472  1.0000
  Fe  Fe98      1.0  0.36267  0.12607  0.42326  1.0000
  H   H883      1.0  0.62225  0.14194  0.40477  1.0000
  S   S201      1.0  0.37828  0.14853  0.40190  1.0000
  S   S202      1.0  0.37084  0.09338  0.42647  1.0000
  H   H884      1.0  0.58925  0.03796  0.27324  1.0000
  C   C749      1.0  0.38276  0.14777  0.32427  1.0000
  H   H885      1.0  0.37059  0.10573  0.35550  1.0000
  C   C750      1.0  0.64161  0.14618  0.42069  1.0000
  S   S203      1.0  0.35716  0.12566  0.45520  1.0000
  C   C751      1.0  0.36849  0.17213  0.44458  1.0000
  H   H886      1.0  0.58598  0.10422  0.27782  1.0000
  C   C752      1.0  0.40236  0.14058  0.38961  1.0000
  C   C753      1.0  0.41220  0.12099  0.39361  1.0000
  C   C754      1.0  0.43089  0.11484  0.38255  1.0000
  C   C755      1.0  0.43965  0.12820  0.36733  1.0000
  C   C756      1.0  0.42995  0.14787  0.36357  1.0000
  C   C757      1.0  0.41140  0.15406  0.37478  1.0000
  H   H887      1.0  0.40542  0.11055  0.40513  1.0000
  H   H888      1.0  0.43838  0.09962  0.38553  1.0000
  H   H889      1.0  0.43665  0.15830  0.35191  1.0000
  H   H890      1.0  0.40388  0.16926  0.37170  1.0000
  C   C758      1.0  0.42844  0.21061  0.26825  1.0000
  C   C759      1.0  0.42583  0.22879  0.25538  1.0000
  C   C760      1.0  0.35939  0.04037  0.43960  1.0000
  H   H891      1.0  0.56986  0.08381  0.27219  1.0000
  C   C761      1.0  0.57802  0.15307  0.24034  1.0000
  C   C762      1.0  0.42849  0.19366  0.26228  1.0000
  H   H892      1.0  0.42580  0.24191  0.25998  1.0000
  S   S204      1.0  0.51616  0.04174  0.27604  1.0000
  H   H893      1.0  0.35054  0.38282  0.24660  1.0000
  H   H894      1.0  0.43042  0.17960  0.27218  1.0000
  C   C763      1.0  0.56002  0.15193  0.32945  1.0000
  C   C764      1.0  0.53967  0.15396  0.33397  1.0000
  C   C765      1.0  0.52914  0.15879  0.31900  1.0000
  C   C766      1.0  0.53887  0.16230  0.29951  1.0000
  C   C767      1.0  0.55912  0.16096  0.29499  1.0000
  C   C768      1.0  0.56969  0.15560  0.30996  1.0000
  H   H895      1.0  0.53211  0.15133  0.34904  1.0000
  H   H896      1.0  0.51351  0.15986  0.32261  1.0000
  H   H897      1.0  0.56672  0.16381  0.27996  1.0000
  H   H898      1.0  0.58531  0.15453  0.30643  1.0000
  S   S205      1.0  0.57057  0.01918  0.25170  1.0000
  H   H899      1.0  0.37234  0.42827  0.23621  1.0000
  C   C769      1.0  0.37581  0.14754  0.30766  1.0000
  Fe  Fe99      1.0  0.54038  0.03739  0.25014  1.0000
  C   C770      1.0  0.63377  0.21427  0.42771  1.0000
  C   C771      1.0  0.50151  0.06518  0.27039  1.0000
  C   C772      1.0  0.49015  0.07481  0.28530  1.0000
  C   C773      1.0  0.48049  0.09446  0.28078  1.0000
  C   C774      1.0  0.48182  0.10433  0.26132  1.0000
  C   C775      1.0  0.49239  0.09446  0.24639  1.0000
  C   C776      1.0  0.50212  0.07486  0.25093  1.0000
  H   H900      1.0  0.48900  0.06719  0.30034  1.0000
  H   H901      1.0  0.47195  0.10193  0.29236  1.0000
  H   H902      1.0  0.40307  0.13831  0.46627  1.0000
  H   H903      1.0  0.63451  0.22055  0.41186  1.0000
  H   H904      1.0  0.42577  0.18167  0.23908  1.0000
  C   C777      1.0  0.63853  0.17989  0.42422  1.0000
  H   H905      1.0  0.33391  0.33716  0.25634  1.0000
  H   H906      1.0  0.62573  0.08296  0.28302  1.0000
  C   C778      1.0  0.37046  0.14113  0.35919  1.0000
  C   C779      1.0  0.63959  0.15641  0.26745  1.0000
  H   H907      1.0  0.60549  0.17686  0.39887  1.0000
  H   H908      1.0  0.61165  0.12322  0.26595  1.0000
  C   C780      1.0  0.60931  0.06043  0.29708  1.0000
  C   C781      1.0  0.35743  0.16640  0.48021  1.0000
  C   C782      1.0  0.54322  0.21773  0.26618  1.0000
  C   C783      1.0  0.61007  0.18155  0.27247  1.0000
  S   S206      1.0  0.61068  0.06053  0.32108  1.0000
  S   S207      1.0  0.65155  0.09043  0.32002  1.0000
  C   C784      1.0  0.61495  0.19149  0.25319  1.0000
  C   C785      1.0  0.64528  0.18752  0.45232  1.0000
  H   H909      1.0  0.38706  0.18950  0.27735  1.0000
  H   H910      1.0  0.56564  0.09258  0.24790  1.0000
  S   S208      1.0  0.63148  0.13382  0.33222  1.0000
  S   S209      1.0  0.61235  0.09504  0.35439  1.0000
  C   C786      1.0  0.42392  0.22988  0.23631  1.0000
  C   C787      1.0  0.38959  0.14913  0.46492  1.0000
  C   C788      1.0  0.34848  0.02952  0.43505  1.0000
  H   H911      1.0  0.52515  0.13509  0.26175  1.0000
  C   C789      1.0  0.51926  0.22629  0.24455  1.0000
  H   H912      1.0  0.54721  0.08314  0.26743  1.0000
  N   N51       1.0  0.38149  0.13224  0.34219  1.0000
  C   C790      1.0  0.56553  0.12410  0.26029  1.0000
  C   C791      1.0  0.59808  0.12847  0.26057  1.0000
  H   H913      1.0  0.36918  0.13598  0.30716  1.0000
  H   H914      1.0  0.37757  0.15195  0.36157  1.0000
  H   H915      1.0  0.36559  0.17907  0.43012  1.0000
  H   H916      1.0  0.53141  0.10237  0.29455  1.0000
  H   H917      1.0  0.53411  0.22892  0.27470  1.0000
  C   C792      1.0  0.62239  0.16404  0.27958  1.0000
  C   C793      1.0  0.59923  0.04761  0.29412  1.0000
  Fe  Fe100     1.0  0.36292  0.09313  0.45852  1.0000
  H   H918      1.0  0.41031  0.11531  0.33292  1.0000
  C   C794      1.0  0.58335  0.11766  0.26716  1.0000
  H   H919      1.0  0.46440  0.23545  0.24015  1.0000
  C   C795      1.0  0.35426  0.17575  0.46113  1.0000
  H   H920      1.0  0.63930  0.22430  0.43339  1.0000
  S   S210      1.0  0.59944  0.21358  0.24486  1.0000
  H   H921      1.0  0.36739  0.04988  0.42799  1.0000
  C   C796      1.0  0.62298  0.18573  0.41383  1.0000
  H   H922      1.0  0.36929  0.12994  0.37306  1.0000
  C   C797      1.0  0.61773  0.07316  0.28096  1.0000
  N   N52       1.0  0.55027  0.11219  0.26743  1.0000
  C   C798      1.0  0.37738  0.16247  0.29097  1.0000
  C   C799      1.0  0.38617  0.15893  0.44646  1.0000
  H   H923      1.0  0.54997  0.14874  0.24116  1.0000
  H   H924      1.0  0.50300  0.17507  0.23671  1.0000
  H   H925      1.0  0.40976  0.13260  0.34675  1.0000
  H   H926      1.0  0.52179  0.11101  0.26387  1.0000
  C   C800      1.0  0.55857  0.09215  0.26352  1.0000
  C   C801      1.0  0.33759  0.01784  0.44991  1.0000
  C   C802      1.0  0.39138  0.16373  0.32299  1.0000
  C   C803      1.0  0.56322  0.14229  0.24670  1.0000
  S   S211      1.0  0.65496  0.13458  0.27651  1.0000
  C   C804      1.0  0.63205  0.18374  0.24096  1.0000
  C   C805      1.0  0.39275  0.17860  0.30630  1.0000
  C   C806      1.0  0.48514  0.22345  0.25902  1.0000
  H   H927      1.0  0.40131  0.11077  0.35896  1.0000
  H   H928      1.0  0.37952  0.10883  0.32979  1.0000
  H   H929      1.0  0.47417  0.21880  0.27158  1.0000
  H   H930      1.0  0.64924  0.13091  0.42276  1.0000
  C   C807      1.0  0.37545  0.15261  0.48160  1.0000
  N   N53       1.0  0.55106  0.09018  0.34823  1.0000
  C   C808      1.0  0.53683  0.10414  0.35967  1.0000
  C   C809      1.0  0.56198  0.07483  0.36191  1.0000
  C   C810      1.0  0.56506  0.10117  0.33390  1.0000
  C   C811      1.0  0.54183  0.08095  0.33793  1.0000
  C   C812      1.0  0.55350  0.06666  0.32706  1.0000
  C   C813      1.0  0.52135  0.08576  0.33816  1.0000
  C   C814      1.0  0.54528  0.05765  0.31719  1.0000
  C   C815      1.0  0.51325  0.07655  0.32830  1.0000
  C   C816      1.0  0.52519  0.06246  0.31793  1.0000
  H   H931      1.0  0.54435  0.11108  0.36691  1.0000
  H   H932      1.0  0.52853  0.11647  0.35019  1.0000
  H   H933      1.0  0.52622  0.09671  0.37130  1.0000
  H   H934      1.0  0.57483  0.06535  0.35420  1.0000
  H   H935      1.0  0.55236  0.06518  0.37206  1.0000
  H   H936      1.0  0.56806  0.08134  0.37082  1.0000
  H   H937      1.0  0.55745  0.11383  0.32417  1.0000
  H   H938      1.0  0.57316  0.10717  0.34130  1.0000
  H   H939      1.0  0.57639  0.09185  0.32466  1.0000
  H   H940      1.0  0.56915  0.06227  0.32620  1.0000
  H   H941      1.0  0.51117  0.09645  0.34596  1.0000
  H   H942      1.0  0.55449  0.04666  0.30908  1.0000
  H   H943      1.0  0.49757  0.08032  0.32882  1.0000
  H   H944      1.0  0.51894  0.05507  0.31054  1.0000
  S   S212      1.0  0.33120  0.12786  0.42321  1.0000
  H   H945      1.0  0.37208  0.16204  0.27841  1.0000
  C   C817      1.0  0.38579  0.17797  0.29031  1.0000
  C   C818      1.0  0.37148  0.11693  0.34162  1.0000
  C   C819      1.0  0.60554  0.06058  0.25916  1.0000
  S   S213      1.0  0.33146  0.09210  0.46212  1.0000
  Fe  Fe101     1.0  0.33874  0.09501  0.42970  1.0000
  C   C820      1.0  0.53283  0.12047  0.25831  1.0000
  Fe  Fe102     1.0  0.62088  0.08587  0.32544  1.0000
  H   H946      1.0  0.36784  0.04863  0.46180  1.0000
  H   H947      1.0  0.59686  0.18748  0.28200  1.0000
  H   H948      1.0  0.55534  0.10259  0.29676  1.0000
  H   H949      1.0  0.59298  0.03747  0.30646  1.0000
  H   H950      1.0  0.53794  0.12529  0.29254  1.0000
  Fe  Fe103     1.0  0.64193  0.10285  0.34733  1.0000
  H   H951      1.0  0.50801  0.21253  0.27479  1.0000
  C   C821      1.0  0.64442  0.16622  0.24811  1.0000
  H   H952      1.0  0.35614  0.12335  0.33965  1.0000
  C   C822      1.0  0.61592  0.07316  0.26207  1.0000
  H   H953      1.0  0.39689  0.15578  0.43352  1.0000
  H   H954      1.0  0.35536  0.14894  0.35736  1.0000
  H   H955      1.0  0.65268  0.13756  0.35959  1.0000
  C   C823      1.0  0.62646  0.15239  0.41045  1.0000
  C   C824      1.0  0.59719  0.04780  0.27528  1.0000
  H   H956      1.0  0.55881  0.21648  0.26671  1.0000
  H   H957      1.0  0.34055  0.18553  0.45875  1.0000
  C   C825      1.0  0.50469  0.22010  0.26070  1.0000
  C   C826      1.0  0.54345  0.11056  0.28875  1.0000
  H   H958      1.0  0.56727  0.20353  0.23673  1.0000
  H   H959      1.0  0.64964  0.19830  0.45808  1.0000
  C   C827      1.0  0.64767  0.15967  0.42739  1.0000
  C   C828      1.0  0.61713  0.17210  0.40707  1.0000
  C   C829      1.0  0.35946  0.03960  0.45904  1.0000
  H   H960      1.0  0.61818  0.21486  0.43520  1.0000
  H   H961      1.0  0.54001  0.20313  0.27390  1.0000
  H   H962      1.0  0.62247  0.08308  0.24970  1.0000
  N   N54       1.0  0.54007  0.22300  0.24581  1.0000
  N   N55       1.0  0.64560  0.19393  0.43108  1.0000
  Fe  Fe104     1.0  0.63903  0.12093  0.30551  1.0000
  S   S214      1.0  0.38255  0.07342  0.47817  1.0000
  C   C830      1.0  0.59540  0.14618  0.24725  1.0000
  H   H963      1.0  0.61526  0.20077  0.41044  1.0000
  C   C831      1.0  0.42583  0.19484  0.24355  1.0000
  H   H964      1.0  0.38269  0.39816  0.25533  1.0000
  H   H965      1.0  0.60675  0.15468  0.24251  1.0000
  S   S215      1.0  0.60237  0.06193  0.23541  1.0000
  H   H966      1.0  0.63044  0.18557  0.46063  1.0000
  C   C832      1.0  0.47958  0.23278  0.24131  1.0000
  H   H967      1.0  0.56304  0.23942  0.23829  1.0000
  H   H968      1.0  0.65771  0.16031  0.23868  1.0000
  H   H969      1.0  0.51011  0.06723  0.23933  1.0000
  H   H970      1.0  0.39732  0.16481  0.33486  1.0000
  H   H971      1.0  0.54600  0.19301  0.24311  1.0000
  H   H972      1.0  0.39943  0.19061  0.30570  1.0000
  H   H973      1.0  0.53690  0.12171  0.24225  1.0000
  C   C833      1.0  0.54799  0.24092  0.23602  1.0000
  H   H974      1.0  0.32845  0.00792  0.48016  1.0000
  H   H975      1.0  0.35114  0.40783  0.24494  1.0000
  H   H976      1.0  0.53857  0.25397  0.24169  1.0000
  C   C834      1.0  0.35613  0.39568  0.23683  1.0000
  H   H977      1.0  0.32866  0.00989  0.44628  1.0000
  H   H978      1.0  0.40340  0.38329  0.24246  1.0000
  H   H979      1.0  0.38323  0.37281  0.25764  1.0000
  H   H980      1.0  0.33443  0.33137  0.29142  1.0000
  H   H981      1.0  0.65215  0.44075  0.24643  1.0000
  H   H982      1.0  0.65519  0.47503  0.24118  1.0000
  H   H983      1.0  0.34795  0.03073  0.41996  1.0000
  C   C835      1.0  0.38714  0.38613  0.24711  1.0000
  C   C836      1.0  0.34857  0.02784  0.47459  1.0000
  C   C837      1.0  0.33754  0.01695  0.46943  1.0000
  H   H984      1.0  0.65583  0.17347  0.45589  1.0000
  H   H985      1.0  0.32681  0.16351  0.44145  1.0000
  S   S216      1.0  0.32736  0.07880  0.41382  1.0000
  C   C838      1.0  0.55150  0.20671  0.23600  1.0000
  H   H986      1.0  0.50290  0.15154  0.23353  1.0000
  C   C839      1.0  0.53211  0.08685  0.70114  1.0000
  S   S217      1.0  0.58821  0.18011  0.70389  1.0000
  S   S218      1.0  0.40019  0.16886  0.69995  1.0000
  Fe  Fe105     1.0  0.59845  0.12401  0.71025  1.0000
  S   S219      1.0  0.58833  0.14422  0.68373  1.0000
  C   C840      1.0  0.47839  0.19847  0.63360  1.0000
  Fe  Fe106     1.0  0.61006  0.16114  0.68455  1.0000
  S   S220      1.0  0.62716  0.17722  0.65720  1.0000
  Fe  Fe107     1.0  0.56741  0.16149  0.70508  1.0000
  H   H987      1.0  0.48811  0.18782  0.62538  1.0000
  S   S221      1.0  0.62190  0.13958  0.70941  1.0000
  H   H988      1.0  0.33704  0.01463  0.52481  1.0000
  S   S222      1.0  0.48770  0.13764  0.67016  1.0000
  C   C841      1.0  0.44615  0.22019  0.64125  1.0000
  S   S223      1.0  0.37569  0.11185  0.54919  1.0000
  H   H989      1.0  0.50643  0.13732  0.72600  1.0000
  Fe  Fe108     1.0  0.42640  0.18156  0.69642  1.0000
  S   S224      1.0  0.43189  0.13163  0.68213  1.0000
  C   C842      1.0  0.56266  0.22698  0.71132  1.0000
  C   C843      1.0  0.37679  0.10080  0.52992  1.0000
  C   C844      1.0  0.39441  0.08868  0.52291  1.0000
  C   C845      1.0  0.39595  0.07994  0.50729  1.0000
  C   C846      1.0  0.38005  0.08378  0.49824  1.0000
  C   C847      1.0  0.36240  0.09598  0.50513  1.0000
  C   C848      1.0  0.36068  0.10426  0.52118  1.0000
  H   H990      1.0  0.40691  0.08598  0.52960  1.0000
  H   H991      1.0  0.42117  0.20310  0.63205  1.0000
  H   H992      1.0  0.35002  0.09884  0.49825  1.0000
  H   H993      1.0  0.34698  0.11339  0.52661  1.0000
  H   H994      1.0  0.48267  0.09173  0.71957  1.0000
  C   C849      1.0  0.56145  0.06706  0.71230  1.0000
  H   H995      1.0  0.60280  0.03144  0.70285  1.0000
  H   H996      1.0  0.53368  0.07672  0.69133  1.0000
  H   H997      1.0  0.65012  0.17143  0.68760  1.0000
  N   N56       1.0  0.55146  0.08724  0.70437  1.0000
  C   C850      1.0  0.38164  0.16098  0.64124  1.0000
  C   C851      1.0  0.37552  0.16635  0.62334  1.0000
  C   C852      1.0  0.36037  0.15896  0.62080  1.0000
  C   C853      1.0  0.35134  0.14591  0.63610  1.0000
  C   C854      1.0  0.35723  0.14081  0.65410  1.0000
  H   H998      1.0  0.37681  0.14419  0.67058  1.0000
  H   H999      1.0  0.52438  0.10162  0.69447  1.0000
  H   H1000     1.0  0.56488  0.08805  0.67400  1.0000
  S   S225      1.0  0.34201  0.15230  0.57482  1.0000
  Fe  Fe109     1.0  0.32728  0.13653  0.60347  1.0000
  H   H1001     1.0  0.38614  0.25216  0.73095  1.0000
  H   H1002     1.0  0.47628  0.17144  0.68848  1.0000
  C   C855      1.0  0.45960  0.20709  0.62986  1.0000
  H   H1003     1.0  0.40961  0.07056  0.50194  1.0000
  H   H1004     1.0  0.57734  0.09749  0.68720  1.0000
  H   H1005     1.0  0.64567  0.19503  0.69338  1.0000
  H   H1006     1.0  0.35570  0.16334  0.60700  1.0000
  H   H1007     1.0  0.39611  0.23316  0.65496  1.0000
  C   C856      1.0  0.52279  0.16682  0.69410  1.0000
  C   C857      1.0  0.53225  0.15159  0.68420  1.0000
  C   C858      1.0  0.52145  0.14331  0.67609  1.0000
  C   C859      1.0  0.50115  0.14987  0.67829  1.0000
  C   C860      1.0  0.49181  0.16567  0.68747  1.0000
  C   C861      1.0  0.50264  0.17422  0.69523  1.0000
  H   H1008     1.0  0.54786  0.14621  0.68280  1.0000
  H   H1009     1.0  0.52871  0.13171  0.66820  1.0000
  N   N57       1.0  0.42588  0.22901  0.63816  1.0000
  H   H1010     1.0  0.49531  0.18639  0.70238  1.0000
  C   C862      1.0  0.55265  0.05623  0.73019  1.0000
  H   H1011     1.0  0.65383  0.19166  0.62315  1.0000
  S   S226      1.0  0.40118  0.17023  0.64344  1.0000
  H   H1012     1.0  0.44420  0.23526  0.66450  1.0000
  H   H1013     1.0  0.36914  0.02109  0.51395  1.0000
  H   H1014     1.0  0.36201  0.16921  0.51538  1.0000
  C   C863      1.0  0.33983  0.04776  0.49891  1.0000
  C   C864      1.0  0.41152  0.22801  0.65703  1.0000
  S   S227      1.0  0.43925  0.17612  0.66636  1.0000
  H   H1015     1.0  0.40384  0.22489  0.62499  1.0000
  H   H1016     1.0  0.35025  0.13083  0.66604  1.0000
  S   S228      1.0  0.42720  0.21032  0.70259  1.0000
  H   H1017     1.0  0.40989  0.25715  0.62555  1.0000
  H   H1018     1.0  0.33778  0.16729  0.52871  1.0000
  C   C865      1.0  0.57979  0.05744  0.70253  1.0000
  C   C866      1.0  0.47202  0.21628  0.65923  1.0000
  C   C867      1.0  0.45323  0.22504  0.65558  1.0000
  S   S229      1.0  0.53556  0.17621  0.70597  1.0000
  Fe  Fe110     1.0  0.34573  0.12441  0.56475  1.0000
  C   C868      1.0  0.37230  0.14833  0.65669  1.0000
  Fe  Fe111     1.0  0.45531  0.14750  0.68054  1.0000
  C   C869      1.0  0.65150  0.16690  0.64710  1.0000
  C   C870      1.0  0.54832  0.10012  0.71835  1.0000
  H   H1019     1.0  0.42793  0.22131  0.61061  1.0000
  H   H1020     1.0  0.48191  0.13843  0.72492  1.0000
  S   S230      1.0  0.44434  0.15390  0.71037  1.0000
  H   H1021     1.0  0.41288  0.21273  0.66564  1.0000
  H   H1022     1.0  0.55524  0.11159  0.68014  1.0000
  Fe  Fe112     1.0  0.41961  0.14027  0.71132  1.0000
  H   H1023     1.0  0.45576  0.20265  0.61847  1.0000
  C   C871      1.0  0.42481  0.24987  0.62841  1.0000
  N   N58       1.0  0.39408  0.10378  0.60333  1.0000
  C   C872      1.0  0.38217  0.08946  0.60443  1.0000
  C   C873      1.0  0.38346  0.12346  0.59505  1.0000
  C   C874      1.0  0.41291  0.09874  0.58962  1.0000
  C   C875      1.0  0.39773  0.10404  0.62247  1.0000
  C   C876      1.0  0.38868  0.09336  0.64039  1.0000
  C   C877      1.0  0.41023  0.11577  0.62362  1.0000
  C   C878      1.0  0.39233  0.09414  0.65819  1.0000
  C   C879      1.0  0.41381  0.11640  0.64149  1.0000
  C   C880      1.0  0.40492  0.10556  0.65873  1.0000
  H   H1024     1.0  0.36722  0.09312  0.61345  1.0000
  H   H1025     1.0  0.37991  0.08948  0.58976  1.0000
  H   H1026     1.0  0.38934  0.07425  0.61053  1.0000
  H   H1027     1.0  0.36859  0.12704  0.60413  1.0000
  H   H1028     1.0  0.38155  0.12433  0.58010  1.0000
  H   H1029     1.0  0.39109  0.13526  0.59409  1.0000
  H   H1030     1.0  0.42196  0.08459  0.59590  1.0000
  H   H1031     1.0  0.41048  0.09731  0.57548  1.0000
  H   H1032     1.0  0.42172  0.11017  0.58582  1.0000
  H   H1033     1.0  0.37842  0.08458  0.64114  1.0000
  H   H1034     1.0  0.41695  0.12499  0.61077  1.0000
  H   H1035     1.0  0.38500  0.08620  0.67172  1.0000
  H   H1036     1.0  0.42297  0.12591  0.64203  1.0000
  H   H1037     1.0  0.40734  0.10649  0.67259  1.0000
  Fe  Fe113     1.0  0.41439  0.16127  0.67052  1.0000
  H   H1038     1.0  0.55694  0.21668  0.70619  1.0000
  C   C881      1.0  0.45205  0.10345  0.72867  1.0000
  H   H1039     1.0  0.52209  0.08194  0.71498  1.0000
  H   H1040     1.0  0.63525  0.21664  0.71886  1.0000
  H   H1041     1.0  0.58805  0.06462  0.68925  1.0000
  H   H1042     1.0  0.55987  0.24158  0.70143  1.0000
  H   H1043     1.0  0.61972  0.05077  0.72694  1.0000
  S   S231      1.0  0.33293  0.13546  0.63316  1.0000
  H   H1044     1.0  0.38254  0.17628  0.61138  1.0000
  H   H1045     1.0  0.43540  0.25131  0.61420  1.0000
  C   C882      1.0  0.33323  0.19135  0.49596  1.0000
  H   H1046     1.0  0.35353  0.14673  0.51987  1.0000
  H   H1047     1.0  0.33847  0.04820  0.51444  1.0000
  C   C883      1.0  0.36882  0.02191  0.49848  1.0000
  N   N59       1.0  0.34848  0.02777  0.49506  1.0000
  H   H1048     1.0  0.49893  0.19585  0.65148  1.0000
  C   C884      1.0  0.58852  0.03821  0.71020  1.0000
  H   H1049     1.0  0.65902  0.19078  0.66976  1.0000
  C   C885      1.0  0.56275  0.09638  0.68558  1.0000
  H   H1050     1.0  0.44997  0.10955  0.71394  1.0000
  H   H1051     1.0  0.41325  0.23718  0.66638  1.0000
  C   C886      1.0  0.34923  0.16300  0.51610  1.0000
  C   C887      1.0  0.48452  0.20294  0.64834  1.0000
  H   H1052     1.0  0.44679  0.23155  0.71743  1.0000
  S   S232      1.0  0.33303  0.10792  0.59394  1.0000
  H   H1053     1.0  0.57880  0.22157  0.70928  1.0000
  C   C888      1.0  0.33701  0.01416  0.50956  1.0000
  N   N60       1.0  0.34194  0.17003  0.49755  1.0000
  H   H1054     1.0  0.61746  0.19036  0.72201  1.0000
  H   H1055     1.0  0.42840  0.25827  0.63745  1.0000
  C   C889      1.0  0.41955  0.21915  0.62589  1.0000
  S   S233      1.0  0.60559  0.09132  0.71264  1.0000
  H   H1056     1.0  0.33183  0.47179  0.70967  1.0000
  H   H1057     1.0  0.47675  0.21954  0.67086  1.0000
  H   H1058     1.0  0.44089  0.00754  0.73086  1.0000
  H   H1059     1.0  0.34480  0.19995  0.49278  1.0000
  H   H1060     1.0  0.34297  0.99872  0.50782  1.0000
  Fe  Fe114     1.0  0.59812  0.15712  0.72863  1.0000
  H   H1061     1.0  0.54024  0.11519  0.71305  1.0000
  C   C890      1.0  0.65678  0.18420  0.68565  1.0000
  C   C891      1.0  0.43340  0.20650  0.72534  1.0000
  H   H1062     1.0  0.34882  0.05850  0.49019  1.0000
  C   C892      1.0  0.44261  0.21963  0.72899  1.0000
  H   H1063     1.0  0.52692  0.24719  0.72370  1.0000
  H   H1064     1.0  0.65389  0.14037  0.66910  1.0000
  H   H1065     1.0  0.37882  0.14400  0.49536  1.0000
  H   H1066     1.0  0.56257  0.10154  0.72036  1.0000
  H   H1067     1.0  0.52693  0.22156  0.72894  1.0000
  H   H1068     1.0  0.37625  0.00737  0.49477  1.0000
  C   C893      1.0  0.57946  0.02806  0.72780  1.0000
  C   C894      1.0  0.47061  0.09327  0.73189  1.0000
  H   H1069     1.0  0.65041  0.19139  0.53173  1.0000
  H   H1070     1.0  0.33218  0.14368  0.49980  1.0000
  H   H1071     1.0  0.37794  0.03262  0.48970  1.0000
  S   S234      1.0  0.57563  0.13979  0.73145  1.0000
  H   H1072     1.0  0.59134  0.22788  0.73234  1.0000
  N   N61       1.0  0.55339  0.22824  0.73185  1.0000
  Fe  Fe115     1.0  0.63705  0.23475  0.81851  1.0000
  S   S235      1.0  0.62333  0.26617  0.82045  1.0000
  S   S236      1.0  0.64065  0.20968  0.84407  1.0000
  Fe  Fe116     1.0  0.63940  0.24211  0.77495  1.0000
  S   S237      1.0  0.62606  0.27411  0.77318  1.0000
  C   C895      1.0  0.43249  0.04720  0.78071  1.0000
  H   H1073     1.0  0.48003  0.02298  0.77211  1.0000
  C   C896      1.0  0.61828  0.18551  0.76968  1.0000
  Fe  Fe117     1.0  0.60496  0.26451  0.80037  1.0000
  S   S238      1.0  0.57263  0.27800  0.80400  1.0000
  H   H1074     1.0  0.60940  0.16967  0.95996  1.0000
  S   S239      1.0  0.61684  0.23259  0.80082  1.0000
  Fe  Fe118     1.0  0.33612  0.41112  0.79320  1.0000
  H   H1075     1.0  0.43604  0.01857  0.81263  1.0000
  C   C897      1.0  0.35362  0.45922  0.82371  1.0000
  H   H1076     1.0  0.61417  0.19452  0.92888  1.0000
  H   H1077     1.0  0.45800  0.14826  0.77295  1.0000
  N   N62       1.0  0.40287  0.48264  0.77096  1.0000
  H   H1078     1.0  0.43315  0.48052  0.77109  1.0000
  C   C898      1.0  0.34550  0.47390  0.78647  1.0000
  Fe  Fe119     1.0  0.50519  0.02052  0.81505  1.0000
  H   H1079     1.0  0.35712  0.45338  0.83803  1.0000
  H   H1080     1.0  0.58118  0.18564  0.97717  1.0000
  Fe  Fe120     1.0  0.45252  0.22443  0.79348  1.0000
  S   S240      1.0  0.43097  0.24719  0.80858  1.0000
  S   S241      1.0  0.44350  0.19984  0.78652  1.0000
  Fe  Fe121     1.0  0.48764  0.23763  0.79694  1.0000
  S   S242      1.0  0.46944  0.26147  0.81268  1.0000
  S   S243      1.0  0.52034  0.22772  0.78883  1.0000
  Fe  Fe122     1.0  0.45133  0.23939  0.82940  1.0000
  S   S244      1.0  0.43664  0.23711  0.86095  1.0000
  Fe  Fe123     1.0  0.45041  0.26770  0.79074  1.0000
  S   S245      1.0  0.43975  0.29964  0.77804  1.0000
  S   S246      1.0  0.47125  0.21491  0.81590  1.0000
  S   S247      1.0  0.47022  0.24564  0.77341  1.0000
  Fe  Fe124     1.0  0.54131  0.03849  0.79768  1.0000
  S   S248      1.0  0.52393  0.06929  0.79403  1.0000
  S   S249      1.0  0.57388  0.03105  0.78674  1.0000
  S   S250      1.0  0.48475  0.05025  0.81267  1.0000
  Fe  Fe125     1.0  0.50389  0.05759  0.78324  1.0000
  S   S251      1.0  0.49731  0.07265  0.75372  1.0000
  Fe  Fe126     1.0  0.50673  0.05938  0.82382  1.0000
  S   S252      1.0  0.49600  0.07842  0.84649  1.0000
  S   S253      1.0  0.52248  0.02723  0.78472  1.0000
  S   S254      1.0  0.52575  0.02911  0.82850  1.0000
  Fe  Fe127     1.0  0.54608  0.17327  0.89767  1.0000
  S   S255      1.0  0.55441  0.20244  0.88693  1.0000
  Fe  Fe128     1.0  0.54502  0.13345  0.89186  1.0000
  S   S256      1.0  0.55599  0.11581  0.86810  1.0000
  Fe  Fe129     1.0  0.50898  0.15771  0.91290  1.0000
  C   C899      1.0  0.36607  0.30941  0.75162  1.0000
  S   S257      1.0  0.52746  0.16364  0.88308  1.0000
  S   S258      1.0  0.56551  0.14362  0.90403  1.0000
  H   H1081     1.0  0.36336  0.25337  0.78288  1.0000
  N   N63       1.0  0.38851  0.25432  0.75928  1.0000
  C   C900      1.0  0.39075  0.48565  0.75629  1.0000
  H   H1082     1.0  0.53567  0.11125  0.80112  1.0000
  S   S259      1.0  0.47613  0.16491  0.91901  1.0000
  H   H1083     1.0  0.44744  0.99018  0.79996  1.0000
  C   C901      1.0  0.51344  0.08729  0.85313  1.0000
  C   C902      1.0  0.53224  0.08714  0.84164  1.0000
  C   C903      1.0  0.54534  0.09558  0.84656  1.0000
  C   C904      1.0  0.53984  0.10396  0.86313  1.0000
  C   C905      1.0  0.52128  0.10350  0.87497  1.0000
  C   C906      1.0  0.50806  0.09539  0.86986  1.0000
  H   H1084     1.0  0.53663  0.08069  0.82886  1.0000
  H   H1085     1.0  0.55975  0.09567  0.83744  1.0000
  H   H1086     1.0  0.51705  0.10961  0.88795  1.0000
  H   H1087     1.0  0.49366  0.09526  0.87897  1.0000
  C   C907      1.0  0.41449  0.30990  0.78282  1.0000
  C   C908      1.0  0.52543  0.11792  0.79142  1.0000
  H   H1088     1.0  0.41872  0.33955  0.77619  1.0000
  H   H1089     1.0  0.40551  0.28237  0.79000  1.0000
  C   C909      1.0  0.44805  0.21732  0.87694  1.0000
  C   C910      1.0  0.46846  0.21211  0.87453  1.0000
  C   C911      1.0  0.47727  0.19633  0.88767  1.0000
  C   C912      1.0  0.46567  0.18550  0.90296  1.0000
  H   H1090     1.0  0.47738  0.22056  0.86283  1.0000
  H   H1091     1.0  0.49298  0.19276  0.88604  1.0000
  H   H1092     1.0  0.42920  0.47096  0.75210  1.0000
  H   H1093     1.0  0.50060  0.11088  0.81326  1.0000
  C   C913      1.0  0.44214  0.00410  0.74602  1.0000
  C   C914      1.0  0.43627  0.10556  0.74434  1.0000
  C   C915      1.0  0.43918  0.09740  0.76343  1.0000
  C   C916      1.0  0.45796  0.08732  0.76671  1.0000
  C   C917      1.0  0.47363  0.08519  0.75084  1.0000
  H   H1094     1.0  0.65812  0.14857  0.77012  1.0000
  C   C918      1.0  0.36764  0.28908  0.75665  1.0000
  H   H1095     1.0  0.42702  0.09928  0.77560  1.0000
  H   H1096     1.0  0.46033  0.08143  0.78142  1.0000
  H   H1097     1.0  0.35410  0.28414  0.76295  1.0000
  H   H1098     1.0  0.34255  0.47949  0.77197  1.0000
  C   C919      1.0  0.60051  0.16355  0.95350  1.0000
  H   H1099     1.0  0.46248  0.01137  0.80641  1.0000
  C   C920      1.0  0.43169  0.18893  0.75889  1.0000
  C   C921      1.0  0.44044  0.20231  0.76270  1.0000
  C   C922      1.0  0.44611  0.21755  0.74768  1.0000
  H   H1100     1.0  0.53894  0.06261  0.73869  1.0000
  C   C923      1.0  0.56578  0.21044  0.93477  1.0000
  H   H1101     1.0  0.42715  0.17720  0.77049  1.0000
  H   H1102     1.0  0.45306  0.22781  0.75048  1.0000
  C   C924      1.0  0.44436  0.01851  0.75451  1.0000
  H   H1103     1.0  0.46428  0.12477  0.76565  1.0000
  C   C925      1.0  0.64269  0.37356  0.85101  1.0000
  C   C926      1.0  0.40249  0.24573  0.77267  1.0000
  H   H1104     1.0  0.54750  0.12677  0.76704  1.0000
  H   H1105     1.0  0.52474  0.14197  0.74484  1.0000
  H   H1106     1.0  0.60029  0.19698  0.91082  1.0000
  C   C927      1.0  0.44566  0.99496  0.78500  1.0000
  H   H1107     1.0  0.35189  0.31922  0.75451  1.0000
  C   C928      1.0  0.37028  0.34397  0.85676  1.0000
  C   C929      1.0  0.61709  0.20731  0.85717  1.0000
  C   C930      1.0  0.61331  0.18898  0.86762  1.0000
  C   C931      1.0  0.59403  0.18711  0.87677  1.0000
  C   C932      1.0  0.57872  0.20372  0.87594  1.0000
  C   C933      1.0  0.58269  0.22203  0.86610  1.0000
  C   C934      1.0  0.60173  0.22376  0.85646  1.0000
  H   H1108     1.0  0.62519  0.17619  0.86805  1.0000
  H   H1109     1.0  0.59106  0.17289  0.88431  1.0000
  H   H1110     1.0  0.57090  0.23491  0.86543  1.0000
  H   H1111     1.0  0.60448  0.23793  0.84851  1.0000
  C   C935      1.0  0.55813  0.26417  0.79948  1.0000
  C   C936      1.0  0.56669  0.24701  0.79229  1.0000
  C   C937      1.0  0.55496  0.23599  0.78904  1.0000
  C   C938      1.0  0.53455  0.24207  0.79289  1.0000
  C   C939      1.0  0.52591  0.25946  0.79967  1.0000
  C   C940      1.0  0.53769  0.27048  0.80299  1.0000
  H   H1112     1.0  0.58235  0.24246  0.78870  1.0000
  H   H1113     1.0  0.56179  0.22284  0.78338  1.0000
  H   H1114     1.0  0.51020  0.26440  0.80246  1.0000
  H   H1115     1.0  0.53098  0.28383  0.80839  1.0000
  H   H1116     1.0  0.38733  0.46223  0.79232  1.0000
  C   C941      1.0  0.60046  0.04257  0.75430  1.0000
  C   C942      1.0  0.58375  0.04880  0.76781  1.0000
  C   C943      1.0  0.57495  0.06882  0.76554  1.0000
  C   C944      1.0  0.58240  0.08236  0.74937  1.0000
  C   C945      1.0  0.56036  0.21229  0.97382  1.0000
  H   H1117     1.0  0.56260  0.07389  0.77634  1.0000
  H   H1118     1.0  0.59051  0.15614  0.92438  1.0000
  C   C946      1.0  0.50562  0.11776  0.79824  1.0000
  C   C947      1.0  0.54963  0.22690  0.96158  1.0000
  C   C948      1.0  0.55727  0.21551  0.83483  1.0000
  C   C949      1.0  0.40810  0.33030  0.78069  1.0000
  C   C950      1.0  0.44527  0.19081  0.90530  1.0000
  H   H1119     1.0  0.64918  0.38548  0.85231  1.0000
  H   H1120     1.0  0.43338  0.05855  0.78814  1.0000
  S   S260      1.0  0.52587  0.17021  0.92677  1.0000
  C   C951      1.0  0.57680  0.19514  0.94688  1.0000
  C   C952      1.0  0.35562  0.34005  0.84999  1.0000
  N   N64       1.0  0.47408  0.15469  0.85439  1.0000
  C   C953      1.0  0.46432  0.13966  0.85287  1.0000
  C   C954      1.0  0.47963  0.14907  0.87379  1.0000
  C   C955      1.0  0.45981  0.17379  0.85384  1.0000
  C   C956      1.0  0.49105  0.15612  0.83790  1.0000
  C   C957      1.0  0.51071  0.14812  0.84025  1.0000
  C   C958      1.0  0.48818  0.16458  0.81857  1.0000
  C   C959      1.0  0.52640  0.14877  0.82431  1.0000
  C   C960      1.0  0.50404  0.16591  0.80283  1.0000
  C   C961      1.0  0.52312  0.15805  0.80570  1.0000
  H   H1121     1.0  0.47471  0.12512  0.85298  1.0000
  H   H1122     1.0  0.45168  0.13767  0.86520  1.0000
  H   H1123     1.0  0.48821  0.13380  0.87658  1.0000
  H   H1124     1.0  0.46661  0.14965  0.88600  1.0000
  H   H1125     1.0  0.48829  0.15909  0.87525  1.0000
  H   H1126     1.0  0.44787  0.17370  0.86707  1.0000
  H   H1127     1.0  0.46720  0.18574  0.85308  1.0000
  H   H1128     1.0  0.51440  0.14114  0.85426  1.0000
  H   H1129     1.0  0.47367  0.17030  0.81540  1.0000
  H   H1130     1.0  0.50147  0.17287  0.78829  1.0000
  H   H1131     1.0  0.53535  0.15882  0.79341  1.0000
  H   H1132     1.0  0.36712  0.35677  0.86316  1.0000
  C   C962      1.0  0.59815  0.07578  0.73503  1.0000
  H   H1133     1.0  0.34122  0.34971  0.85118  1.0000
  H   H1134     1.0  0.43241  0.05470  0.76526  1.0000
  S   S261      1.0  0.34901  0.33708  0.79210  1.0000
  H   H1135     1.0  0.44489  0.03288  0.74540  1.0000
  H   H1136     1.0  0.42068  0.21091  0.89447  1.0000
  H   H1137     1.0  0.62992  0.38072  0.84393  1.0000
  H   H1138     1.0  0.47424  0.17147  0.73509  1.0000
  H   H1139     1.0  0.47103  0.04624  0.77907  1.0000
  S   S262      1.0  0.64675  0.23018  0.74742  1.0000
  H   H1140     1.0  0.41753  0.24807  0.76582  1.0000
  C   C963      1.0  0.65322  0.32423  0.84853  1.0000
  H   H1141     1.0  0.49893  0.99417  0.78693  1.0000
  C   C964      1.0  0.38892  0.33166  0.85508  1.0000
  Fe  Fe130     1.0  0.33701  0.36780  0.79764  1.0000
  C   C965      1.0  0.52051  0.20664  0.84116  1.0000
  H   H1142     1.0  0.61387  0.33761  0.81686  1.0000
  H   H1143     1.0  0.55211  0.20919  0.76015  1.0000
  H   H1144     1.0  0.41003  0.45085  0.77838  1.0000
  H   H1145     1.0  0.41412  0.31094  0.73518  1.0000
  C   C966      1.0  0.59261  0.18876  0.82287  1.0000
  H   H1146     1.0  0.54119  0.14199  0.82655  1.0000
  H   H1147     1.0  0.60567  0.17721  0.81891  1.0000
  H   H1148     1.0  0.59297  0.20166  0.81052  1.0000
  H   H1149     1.0  0.59472  0.19287  0.83583  1.0000
  H   H1150     1.0  0.53558  0.17902  0.83445  1.0000
  H   H1151     1.0  0.50627  0.20330  0.84335  1.0000
  C   C967      1.0  0.37326  0.47322  0.73867  1.0000
  H   H1152     1.0  0.57463  0.20330  0.74329  1.0000
  H   H1153     1.0  0.47919  0.17220  0.75793  1.0000
  S   S263      1.0  0.55353  0.12628  0.96152  1.0000
  H   H1154     1.0  0.62381  0.30340  0.83383  1.0000
  C   C968      1.0  0.40285  0.28445  0.74560  1.0000
  S   S264      1.0  0.32724  0.39457  0.77550  1.0000
  H   H1155     1.0  0.49782  0.10964  0.97200  1.0000
  H   H1156     1.0  0.45513  0.14674  0.74975  1.0000
  C   C969      1.0  0.56162  0.03708  0.73779  1.0000
  C   C970      1.0  0.62469  0.33402  0.82591  1.0000
  C   C971      1.0  0.36994  0.24776  0.76918  1.0000
  H   H1157     1.0  0.63700  0.36588  0.86602  1.0000
  S   S265      1.0  0.49467  0.99197  0.82860  1.0000
  C   C972      1.0  0.38619  0.27593  0.75398  1.0000
  H   H1158     1.0  0.51290  0.14716  0.96404  1.0000
  H   H1159     1.0  0.57396  0.17874  0.91800  1.0000
  H   H1160     1.0  0.60383  0.25153  0.74185  1.0000
  C   C973      1.0  0.44961  0.02346  0.80383  1.0000
  H   H1161     1.0  0.62830  0.36335  0.82009  1.0000
  H   H1162     1.0  0.62906  0.48637  0.80630  1.0000
  C   C974      1.0  0.57561  0.27051  0.74813  1.0000
  H   H1163     1.0  0.41807  0.04299  0.78713  1.0000
  C   C975      1.0  0.54808  0.25988  0.74389  1.0000
  C   C976      1.0  0.63020  0.31472  0.83552  1.0000
  H   H1164     1.0  0.52384  0.23344  0.74855  1.0000
  H   H1165     1.0  0.34824  0.32124  0.83565  1.0000
  H   H1166     1.0  0.41241  0.28820  0.82237  1.0000
  H   H1167     1.0  0.45235  0.17795  0.84129  1.0000
  H   H1168     1.0  0.60754  0.02721  0.75612  1.0000
  H   H1169     1.0  0.41031  0.46239  0.79715  1.0000
  C   C977      1.0  0.60631  0.18655  0.92319  1.0000
  C   C978      1.0  0.40071  0.29804  0.78857  1.0000
  H   H1170     1.0  0.45872  0.14360  0.83912  1.0000
  S   S266      1.0  0.52516  0.12661  0.92101  1.0000
  Fe  Fe131     1.0  0.54387  0.13976  0.93257  1.0000
  C   C979      1.0  0.55557  0.27343  0.74903  1.0000
  C   C980      1.0  0.53744  0.19290  0.83574  1.0000
  C   C981      1.0  0.43648  0.20681  0.89247  1.0000
  S   S267      1.0  0.34858  0.38394  0.81349  1.0000
  C   C982      1.0  0.58096  0.24048  0.73678  1.0000
  C   C983      1.0  0.38798  0.33884  0.78425  1.0000
  H   H1171     1.0  0.40408  0.22953  0.77751  1.0000
  H   H1172     1.0  0.49380  0.14281  0.95503  1.0000
  C   C984      1.0  0.37423  0.32697  0.78957  1.0000
  H   H1173     1.0  0.57452  0.16876  0.85704  1.0000
  H   H1174     1.0  0.54571  0.28586  0.75456  1.0000
  C   C985      1.0  0.61416  0.18206  0.75320  1.0000
  N   N65       1.0  0.44887  0.02984  0.78278  1.0000
  C   C986      1.0  0.44613  0.01440  0.77430  1.0000
  H   H1175     1.0  0.58955  0.15687  0.96545  1.0000
  C   C987      1.0  0.57378  0.19662  0.96667  1.0000
  C   C988      1.0  0.54215  0.15999  0.97680  1.0000
  C   C989      1.0  0.38064  0.30656  0.79190  1.0000
  C   C990      1.0  0.53205  0.12667  0.77219  1.0000
  C   C991      1.0  0.55855  0.20871  0.74454  1.0000
  N   N66       1.0  0.59081  0.17876  0.93876  1.0000
  H   H1176     1.0  0.54137  0.24309  0.84247  1.0000
  N   N67       1.0  0.57405  0.18187  0.82693  1.0000
  C   C992      1.0  0.34833  0.45365  0.79400  1.0000
  H   H1177     1.0  0.63213  0.20218  0.78063  1.0000
  H   H1178     1.0  0.39759  0.25217  0.78595  1.0000
  C   C993      1.0  0.49236  0.12595  0.78574  1.0000
  H   H1179     1.0  0.38006  0.29923  0.83293  1.0000
  H   H1180     1.0  0.47731  0.12494  0.79196  1.0000
  H   H1181     1.0  0.56242  0.15722  0.84588  1.0000
  H   H1182     1.0  0.39989  0.33553  0.86022  1.0000
  C   C994      1.0  0.55636  0.19692  0.83227  1.0000
  H   H1183     1.0  0.38311  0.35460  0.78236  1.0000
  N   N68       1.0  0.65733  0.35968  0.83990  1.0000
  H   H1184     1.0  0.55313  0.19732  0.74083  1.0000
  H   H1185     1.0  0.55514  0.02947  0.75193  1.0000
  C   C995      1.0  0.64421  0.30990  0.84703  1.0000
  C   C996      1.0  0.49867  0.13478  0.76591  1.0000
  C   C997      1.0  0.51891  0.13517  0.75961  1.0000
  C   C998      1.0  0.35193  0.44638  0.81286  1.0000
  H   H1186     1.0  0.57559  0.09773  0.74781  1.0000
  S   S268      1.0  0.34935  0.43771  0.77883  1.0000
  H   H1187     1.0  0.58847  0.15311  0.84034  1.0000
  H   H1188     1.0  0.56737  0.21046  0.91951  1.0000
  C   C999      1.0  0.63326  0.34857  0.82765  1.0000
  C   C1000     1.0  0.57491  0.16451  0.84321  1.0000
  C   C1001     1.0  0.41886  0.29526  0.86437  1.0000
  C   C1002     1.0  0.52192  0.22465  0.84368  1.0000
  H   H1189     1.0  0.50881  0.23534  0.84785  1.0000
  C   C1003     1.0  0.63430  0.21159  0.74964  1.0000
  N   N69       1.0  0.48519  0.14321  0.75209  1.0000
  H   H1190     1.0  0.37001  0.29737  0.79593  1.0000
  H   H1191     1.0  0.44260  0.30418  0.82920  1.0000
  C   C1004     1.0  0.57321  0.17578  0.80916  1.0000
  C   C1005     1.0  0.54026  0.22902  0.84062  1.0000
  H   H1192     1.0  0.58638  0.16453  0.80470  1.0000
  H   H1193     1.0  0.53908  0.23886  0.96728  1.0000
  C   C1006     1.0  0.53183  0.23292  0.73331  1.0000
  H   H1194     1.0  0.42043  0.30738  0.87025  1.0000
  H   H1195     1.0  0.40780  0.28768  0.87517  1.0000
  H   H1196     1.0  0.57230  0.18851  0.79666  1.0000
  H   H1197     1.0  0.57089  0.22013  0.83236  1.0000
  H   H1198     1.0  0.53554  0.16712  0.96432  1.0000
  H   H1199     1.0  0.43320  0.28454  0.86373  1.0000
  C   C1007     1.0  0.62837  0.20017  0.76791  1.0000
  C   C1008     1.0  0.39335  0.31483  0.84675  1.0000
  N   N70       1.0  0.41325  0.30212  0.84501  1.0000
  C   C1009     1.0  0.55168  0.14024  0.97903  1.0000
  H   H1200     1.0  0.61733  0.17466  0.91682  1.0000
  C   C1010     1.0  0.56064  0.24292  0.73755  1.0000
  C   C1011     1.0  0.49699  0.14732  0.96728  1.0000
  C   C1012     1.0  0.46753  0.03583  0.77223  1.0000
  H   H1201     1.0  0.40481  0.27499  0.84698  1.0000
  H   H1202     1.0  0.43621  0.18258  0.91712  1.0000
  C   C1013     1.0  0.35956  0.32389  0.84143  1.0000
  H   H1203     1.0  0.45109  0.03551  0.80996  1.0000
  C   C1014     1.0  0.46481  0.14057  0.76060  1.0000
  H   H1204     1.0  0.61406  0.17654  0.78379  1.0000
  Fe  Fe132     1.0  0.64565  0.27298  0.79323  1.0000
  C   C1015     1.0  0.55236  0.22600  0.94208  1.0000
  H   H1205     1.0  0.41745  0.27548  0.74306  1.0000
  H   H1206     1.0  0.56840  0.16322  0.94129  1.0000
  C   C1016     1.0  0.64812  0.34406  0.83869  1.0000
  C   C1017     1.0  0.65855  0.14561  0.74126  1.0000
  H   H1207     1.0  0.46722  0.04332  0.75681  1.0000
  H   H1208     1.0  0.65229  0.37945  0.81262  1.0000
  H   H1209     1.0  0.61066  0.15127  0.94702  1.0000
  H   H1210     1.0  0.56045  0.16918  0.81118  1.0000
  H   H1211     1.0  0.38781  0.45512  0.76079  1.0000
  C   C1018     1.0  0.37807  0.31136  0.83985  1.0000
  H   H1212     1.0  0.43001  0.27503  0.83663  1.0000
  C   C1019     1.0  0.41501  0.28437  0.83744  1.0000
  H   H1213     1.0  0.42350  0.31904  0.81687  1.0000
  C   C1020     1.0  0.42750  0.31340  0.83148  1.0000
  H   H1214     1.0  0.37232  0.23145  0.77329  1.0000
  H   H1215     1.0  0.54399  0.23733  0.93252  1.0000
  C   C1021     1.0  0.58049  0.16885  0.93023  1.0000
  H   H1216     1.0  0.58122  0.28065  0.75289  1.0000
  C   C1022     1.0  0.40260  0.46372  0.78524  1.0000
  C   C1023     1.0  0.48440  0.16457  0.74541  1.0000
  H   H1217     1.0  0.35424  0.43077  0.81877  1.0000
  H   H1218     1.0  0.42822  0.32623  0.83684  1.0000
  H   H1219     1.0  0.38149  0.33298  0.74070  1.0000
  S   S269      1.0  0.60084  0.16402  0.75620  1.0000
  C   C1024     1.0  0.34659  0.48684  0.79752  1.0000
  C   C1025     1.0  0.35122  0.47944  0.81600  1.0000
  C   C1026     1.0  0.38464  0.46998  0.75263  1.0000
  H   H1220     1.0  0.48898  0.16278  0.96684  1.0000
  C   C1027     1.0  0.58828  0.25403  0.74206  1.0000
  C   C1028     1.0  0.38276  0.31724  0.74380  1.0000
  C   C1029     1.0  0.60738  0.05593  0.73780  1.0000
  H   H1221     1.0  0.53236  0.26270  0.74566  1.0000
  H   H1222     1.0  0.65167  0.13304  0.74641  1.0000
  H   H1223     1.0  0.32990  0.46721  0.74503  1.0000
  H   H1224     1.0  0.35904  0.25260  0.75955  1.0000
  C   C1030     1.0  0.40111  0.30479  0.74074  1.0000
  H   H1225     1.0  0.41066  0.24966  0.73355  1.0000
  H   H1226     1.0  0.58668  0.01350  0.73417  1.0000
  H   H1227     1.0  0.64865  0.29477  0.85425  1.0000
  S   S270      1.0  0.41333  0.11917  0.73977  1.0000
  H   H1228     1.0  0.49473  0.11744  0.73961  1.0000
  H   H1229     1.0  0.34997  0.48601  0.88586  1.0000
  C   C1031     1.0  0.39625  0.24616  0.74137  1.0000
  H   H1230     1.0  0.36811  0.46113  0.73678  1.0000
  C   C1032     1.0  0.62046  0.19312  0.73479  1.0000
  H   H1231     1.0  0.49896  0.16786  0.73768  1.0000
  H   H1232     1.0  0.39838  0.22987  0.74466  1.0000
  H   H1233     1.0  0.46593  0.12998  0.97907  1.0000
  C   C1033     1.0  0.42820  0.19099  0.74024  1.0000
  H   H1234     1.0  0.42085  0.18095  0.73760  1.0000
  C   C1034     1.0  0.63054  0.20791  0.73302  1.0000
  C   C1035     1.0  0.49241  0.13370  0.73496  1.0000
  C   C1036     1.0  0.42339  0.48277  0.76068  1.0000
  H   H1235     1.0  0.51793  0.11222  0.98037  1.0000
  H   H1236     1.0  0.53984  0.09454  0.73294  1.0000
  Fe  Fe133     1.0  0.61334  0.70295  0.20909  1.0000
  Fe  Fe134     1.0  0.57604  0.85479  0.21026  1.0000
  S   S271      1.0  0.56686  0.87205  0.18221  1.0000
  S   S272      1.0  0.60622  0.83772  0.21370  1.0000
  H   H1237     1.0  0.54246  0.98745  0.20910  1.0000
  S   S273      1.0  0.52180  0.87669  0.20797  1.0000
  H   H1238     1.0  0.60684  0.62410  0.19524  1.0000
  Fe  Fe135     1.0  0.54304  0.85473  0.19144  1.0000
  S   S274      1.0  0.53136  0.83719  0.17692  1.0000
  Fe  Fe136     1.0  0.54655  0.89255  0.20134  1.0000
  S   S275      1.0  0.53833  0.92596  0.19486  1.0000
  S   S276      1.0  0.55395  0.83608  0.21796  1.0000
  H   H1239     1.0  0.62173  0.55487  0.22624  1.0000
  H   H1240     1.0  0.48364  0.60394  0.14128  1.0000
  Fe  Fe137     1.0  0.63565  0.69146  0.17064  1.0000
  S   S277      1.0  0.62441  0.66389  0.17722  1.0000
  C   C1037     1.0  0.59741  0.73323  0.98711  1.0000
  H   H1241     1.0  0.58494  0.79713  0.14757  1.0000
  H   H1242     1.0  0.33011  0.54497  0.11924  1.0000
  Fe  Fe138     1.0  0.62979  0.66029  0.20724  1.0000
  S   S278      1.0  0.60660  0.71072  0.17946  1.0000
  C   C1038     1.0  0.55038  0.63648  0.20699  1.0000
  Fe  Fe139     1.0  0.49026  0.63196  0.19925  1.0000
  S   S279      1.0  0.47943  0.66431  0.19030  1.0000
  C   C1039     1.0  0.58239  0.95831  0.16143  1.0000
  Fe  Fe140     1.0  0.45459  0.62256  0.19110  1.0000
  S   S280      1.0  0.44090  0.65428  0.18146  1.0000
  S   S281      1.0  0.44305  0.59611  0.19158  1.0000
  Fe  Fe141     1.0  0.47140  0.65708  0.16553  1.0000
  S   S282      1.0  0.47934  0.67237  0.13416  1.0000
  Fe  Fe142     1.0  0.45023  0.65872  0.20715  1.0000
  C   C1040     1.0  0.56896  0.75967  0.98848  1.0000
  S   S283      1.0  0.48455  0.62499  0.17317  1.0000
  H   H1243     1.0  0.56005  0.77202  0.99482  1.0000
  C   C1041     1.0  0.52250  0.77227  0.19050  1.0000
  H   H1244     1.0  0.56357  0.94298  0.15532  1.0000
  Fe  Fe143     1.0  0.56079  0.78512  0.09056  1.0000
  S   S284      1.0  0.57408  0.77483  0.06236  1.0000
  S   S285      1.0  0.57271  0.80756  0.09820  1.0000
  Fe  Fe144     1.0  0.53423  0.75587  0.10424  1.0000
  S   S286      1.0  0.54570  0.74253  0.07769  1.0000
  S   S287      1.0  0.51133  0.74693  0.13022  1.0000
  Fe  Fe145     1.0  0.57507  0.74470  0.08096  1.0000
  S   S288      1.0  0.60232  0.72141  0.07611  1.0000
  Fe  Fe146     1.0  0.54354  0.77373  0.06132  1.0000
  S   S289      1.0  0.53071  0.78601  0.03399  1.0000
  S   S290      1.0  0.56383  0.75492  0.10915  1.0000
  S   S291      1.0  0.53007  0.78709  0.08787  1.0000
  Fe  Fe147     1.0  0.35908  0.57434  0.15870  1.0000
  C   C1042     1.0  0.56601  0.95717  0.15537  1.0000
  S   S292      1.0  0.37586  0.59874  0.14852  1.0000
  C   C1043     1.0  0.34810  0.60930  0.20005  1.0000
  H   H1245     1.0  0.33776  0.62376  0.19918  1.0000
  H   H1246     1.0  0.46732  0.63734  0.13891  1.0000
  S   S293      1.0  0.35462  0.55477  0.14119  1.0000
  C   C1044     1.0  0.50677  0.68247  0.22200  1.0000
  H   H1247     1.0  0.47150  0.63672  0.09621  1.0000
  H   H1248     1.0  0.57792  0.80632  0.17904  1.0000
  Fe  Fe148     1.0  0.35631  0.53165  0.16861  1.0000
  H   H1249     1.0  0.44948  0.64886  0.12440  1.0000
  C   C1045     1.0  0.51660  0.77990  0.00480  1.0000
  C   C1046     1.0  0.61010  0.77347  0.15278  1.0000
  C   C1047     1.0  0.60087  0.58801  0.20182  1.0000
  H   H1250     1.0  0.49464  0.68053  0.21628  1.0000
  C   C1048     1.0  0.45514  0.63479  0.13384  1.0000
  H   H1251     1.0  0.51514  0.79553  0.99926  1.0000
  C   C1049     1.0  0.58519  0.97644  0.16241  1.0000
  H   H1252     1.0  0.34657  0.64348  0.21334  1.0000
  C   C1050     1.0  0.52423  0.77113  0.02176  1.0000
  C   C1051     1.0  0.52603  0.75096  0.02883  1.0000
  C   C1052     1.0  0.52000  0.73971  0.01917  1.0000
  N   N71       1.0  0.46170  0.61808  0.12371  1.0000
  H   H1253     1.0  0.60213  0.76054  0.11388  1.0000
  H   H1254     1.0  0.53190  0.74402  0.04181  1.0000
  H   H1255     1.0  0.52116  0.72415  0.02492  1.0000
  C   C1053     1.0  0.42394  0.59734  0.17996  1.0000
  C   C1054     1.0  0.41333  0.61523  0.17131  1.0000
  C   C1055     1.0  0.39867  0.61551  0.16162  1.0000
  C   C1056     1.0  0.39413  0.59795  0.16102  1.0000
  C   C1057     1.0  0.40447  0.58010  0.17002  1.0000
  C   C1058     1.0  0.41938  0.57981  0.17937  1.0000
  H   H1256     1.0  0.41624  0.62885  0.17226  1.0000
  H   H1257     1.0  0.39068  0.62937  0.15472  1.0000
  H   H1258     1.0  0.40125  0.56649  0.16943  1.0000
  H   H1259     1.0  0.35763  0.57289  0.21904  1.0000
  C   C1059     1.0  0.50191  0.72677  0.13059  1.0000
  C   C1060     1.0  0.50693  0.71778  0.11453  1.0000
  C   C1061     1.0  0.49957  0.70135  0.11549  1.0000
  C   C1062     1.0  0.48732  0.69377  0.13257  1.0000
  C   C1063     1.0  0.48180  0.70316  0.14834  1.0000
  C   C1064     1.0  0.48909  0.71962  0.14736  1.0000
  H   H1260     1.0  0.51646  0.72341  0.10140  1.0000
  H   H1261     1.0  0.50362  0.69432  0.10312  1.0000
  H   H1262     1.0  0.47162  0.69798  0.16121  1.0000
  H   H1263     1.0  0.48475  0.72683  0.15962  1.0000
  C   C1065     1.0  0.65304  0.58000  0.19127  1.0000
  N   N72       1.0  0.61749  0.59326  0.20640  1.0000
  H   H1264     1.0  0.47749  0.71421  0.22071  1.0000
  H   H1265     1.0  0.54157  0.74995  0.15179  1.0000
  C   C1066     1.0  0.47114  0.60090  0.13705  1.0000
  C   C1067     1.0  0.63918  0.70608  0.12276  1.0000
  C   C1068     1.0  0.61874  0.70912  0.12794  1.0000
  C   C1069     1.0  0.60739  0.71502  0.11360  1.0000
  C   C1070     1.0  0.61644  0.71667  0.09393  1.0000
  C   C1071     1.0  0.63691  0.71312  0.08866  1.0000
  H   H1266     1.0  0.35966  0.61016  0.18657  1.0000
  H   H1267     1.0  0.61154  0.70681  0.14296  1.0000
  H   H1268     1.0  0.59166  0.71738  0.11790  1.0000
  H   H1269     1.0  0.64401  0.71423  0.07346  1.0000
  S   S294      1.0  0.55760  0.87632  0.22855  1.0000
  S   S295      1.0  0.36374  0.55045  0.18488  1.0000
  N   N73       1.0  0.35678  0.60336  0.21772  1.0000
  C   C1072     1.0  0.53020  0.65247  0.18304  1.0000
  C   C1073     1.0  0.54138  0.66682  0.17572  1.0000
  H   H1270     1.0  0.51854  0.65285  0.17612  1.0000
  H   H1271     1.0  0.53775  0.67848  0.16360  1.0000
  C   C1074     1.0  0.54330  0.82919  0.15501  1.0000
  C   C1075     1.0  0.53654  0.81500  0.14997  1.0000
  C   C1076     1.0  0.54539  0.80834  0.13254  1.0000
  C   C1077     1.0  0.56090  0.81609  0.11986  1.0000
  C   C1078     1.0  0.56769  0.83031  0.12487  1.0000
  C   C1079     1.0  0.55903  0.83672  0.14251  1.0000
  H   H1272     1.0  0.52427  0.80926  0.15952  1.0000
  H   H1273     1.0  0.54006  0.79737  0.12884  1.0000
  H   H1274     1.0  0.57968  0.83637  0.11510  1.0000
  H   H1275     1.0  0.56426  0.84775  0.14622  1.0000
  H   H1276     1.0  0.62318  0.78485  0.10311  1.0000
  S   S296      1.0  0.58142  0.98050  0.21808  1.0000
  H   H1277     1.0  0.58752  0.60005  0.20263  1.0000
  S   S297      1.0  0.64078  0.63179  0.22683  1.0000
  H   H1278     1.0  0.51982  0.80275  0.20847  1.0000
  H   H1279     1.0  0.53543  0.61710  0.15744  1.0000
  H   H1280     1.0  0.60528  0.79939  0.11821  1.0000
  H   H1281     1.0  0.63651  0.75104  0.11448  1.0000
  S   S298      1.0  0.43294  0.68053  0.22582  1.0000
  H   H1282     1.0  0.46068  0.59695  0.15093  1.0000
  C   C1080     1.0  0.58982  0.79401  0.17596  1.0000
  H   H1283     1.0  0.59262  0.94493  0.16610  1.0000
  C   C1081     1.0  0.43415  0.62983  0.10537  1.0000
  H   H1284     1.0  0.47701  0.58786  0.13019  1.0000
  H   H1285     1.0  0.56954  0.71871  0.21122  1.0000
  C   C1082     1.0  0.52527  0.70478  0.22473  1.0000
  S   S299      1.0  0.46147  0.62668  0.21822  1.0000
  C   C1083     1.0  0.56848  0.96526  0.21301  1.0000
  C   C1084     1.0  0.54980  0.97243  0.20863  1.0000
  C   C1085     1.0  0.54075  0.96021  0.20313  1.0000
  C   C1086     1.0  0.54992  0.94052  0.20268  1.0000
  C   C1087     1.0  0.56828  0.93314  0.20776  1.0000
  H   H1286     1.0  0.53237  0.80120  0.22723  1.0000
  C   C1088     1.0  0.59410  0.78880  0.15781  1.0000
  H   H1287     1.0  0.52660  0.96606  0.19910  1.0000
  S   S300      1.0  0.60240  0.72691  0.22625  1.0000
  H   H1288     1.0  0.44341  0.63202  0.14686  1.0000
  H   H1289     1.0  0.57025  0.75341  0.19501  1.0000
  H   H1290     1.0  0.43805  0.64399  0.09992  1.0000
  N   N74       1.0  0.47428  0.77152  0.07154  1.0000
  C   C1089     1.0  0.47440  0.78789  0.05420  1.0000
  C   C1090     1.0  0.45698  0.77757  0.08661  1.0000
  C   C1091     1.0  0.49226  0.76903  0.07895  1.0000
  C   C1092     1.0  0.47364  0.75270  0.06736  1.0000
  C   C1093     1.0  0.47198  0.73604  0.08272  1.0000
  C   C1094     1.0  0.47501  0.75014  0.04821  1.0000
  C   C1095     1.0  0.47133  0.71810  0.07919  1.0000
  C   C1096     1.0  0.47445  0.73211  0.04483  1.0000
  C   C1097     1.0  0.47258  0.71614  0.06026  1.0000
  H   H1291     1.0  0.46126  0.79054  0.04778  1.0000
  H   H1292     1.0  0.47464  0.80189  0.05783  1.0000
  H   H1293     1.0  0.48776  0.78501  0.04276  1.0000
  H   H1294     1.0  0.44312  0.77823  0.08217  1.0000
  H   H1295     1.0  0.45644  0.79227  0.08920  1.0000
  H   H1296     1.0  0.45709  0.76740  0.10102  1.0000
  H   H1297     1.0  0.49267  0.75804  0.09285  1.0000
  H   H1298     1.0  0.50558  0.76419  0.06814  1.0000
  H   H1299     1.0  0.49352  0.78301  0.08184  1.0000
  H   H1300     1.0  0.47135  0.73669  0.09761  1.0000
  H   H1301     1.0  0.47687  0.76171  0.03546  1.0000
  H   H1302     1.0  0.47000  0.70562  0.09121  1.0000
  H   H1303     1.0  0.47575  0.73046  0.03004  1.0000
  H   H1304     1.0  0.47225  0.70221  0.05748  1.0000
  C   C1098     1.0  0.51068  0.76860  0.99505  1.0000
  H   H1305     1.0  0.63208  0.61759  0.19651  1.0000
  C   C1099     1.0  0.51115  0.70978  0.19548  1.0000
  H   H1306     1.0  0.33287  0.52628  0.09400  1.0000
  H   H1307     1.0  0.55359  0.62490  0.21932  1.0000
  C   C1100     1.0  0.54188  0.71180  0.21266  1.0000
  Fe  Fe149     1.0  0.33126  0.55907  0.19468  1.0000
  C   C1101     1.0  0.64825  0.70829  0.10303  1.0000
  C   C1102     1.0  0.43847  0.59662  0.12443  1.0000
  H   H1308     1.0  0.34490  0.50023  0.20403  1.0000
  H   H1309     1.0  0.59652  0.57482  0.21213  1.0000
  C   C1103     1.0  0.63474  0.55810  0.21588  1.0000
  H   H1310     1.0  0.39922  0.60735  0.10288  1.0000
  H   H1311     1.0  0.51192  0.72554  0.19068  1.0000
  H   H1312     1.0  0.49868  0.70798  0.19016  1.0000
  H   H1313     1.0  0.52458  0.70107  0.18777  1.0000
  C   C1104     1.0  0.49035  0.71541  0.22583  1.0000
  S   S301      1.0  0.59953  0.67671  0.21844  1.0000
  C   C1105     1.0  0.52353  0.76596  0.17351  1.0000
  H   H1314     1.0  0.54378  0.71581  0.19700  1.0000
  H   H1315     1.0  0.63127  0.73965  0.13951  1.0000
  H   H1316     1.0  0.39668  0.59503  0.22047  1.0000
  H   H1317     1.0  0.48168  0.61097  0.09769  1.0000
  H   H1318     1.0  0.64498  0.71601  0.21924  1.0000
  S   S302      1.0  0.50363  0.73379  0.99169  1.0000
  C   C1106     1.0  0.47686  0.62287  0.10614  1.0000
  C   C1107     1.0  0.62029  0.61233  0.19334  1.0000
  H   H1319     1.0  0.61060  0.72508  0.99240  1.0000
  H   H1320     1.0  0.65502  0.59403  0.18217  1.0000
  C   C1108     1.0  0.41212  0.60928  0.10660  1.0000
  H   H1321     1.0  0.36678  0.66600  0.21289  1.0000
  H   H1322     1.0  0.59008  0.75328  0.00662  1.0000
  N   N75       1.0  0.56951  0.67694  0.11409  1.0000
  C   C1109     1.0  0.55950  0.69483  0.12198  1.0000
  C   C1110     1.0  0.59076  0.67349  0.11393  1.0000
  C   C1111     1.0  0.56738  0.68072  0.09350  1.0000
  C   C1112     1.0  0.56054  0.66029  0.12595  1.0000
  C   C1113     1.0  0.54118  0.65982  0.12539  1.0000
  C   C1114     1.0  0.57029  0.64452  0.13880  1.0000
  C   C1115     1.0  0.53240  0.64428  0.13638  1.0000
  C   C1116     1.0  0.56139  0.62898  0.14969  1.0000
  C   C1117     1.0  0.54254  0.62880  0.14840  1.0000
  H   H1323     1.0  0.54341  0.69810  0.12299  1.0000
  H   H1324     1.0  0.56189  0.69328  0.13691  1.0000
  H   H1325     1.0  0.56492  0.70796  0.11267  1.0000
  H   H1326     1.0  0.59895  0.65958  0.10919  1.0000
  H   H1327     1.0  0.59349  0.67330  0.12844  1.0000
  H   H1328     1.0  0.59756  0.68529  0.10356  1.0000
  H   H1329     1.0  0.57546  0.69210  0.08395  1.0000
  H   H1330     1.0  0.57319  0.66715  0.08746  1.0000
  H   H1331     1.0  0.55194  0.68649  0.09179  1.0000
  H   H1332     1.0  0.53248  0.67170  0.11676  1.0000
  H   H1333     1.0  0.58461  0.64409  0.14104  1.0000
  H   H1334     1.0  0.51741  0.64455  0.13600  1.0000
  H   H1335     1.0  0.56885  0.61733  0.15973  1.0000
  C   C1118     1.0  0.51222  0.74847  0.00233  1.0000
  N   N76       1.0  0.53728  0.77399  0.21776  1.0000
  H   H1336     1.0  0.37959  0.58095  0.20602  1.0000
  H   H1337     1.0  0.65200  0.81132  0.21136  1.0000
  C   C1119     1.0  0.36937  0.61687  0.21700  1.0000
  C   C1120     1.0  0.53897  0.76763  0.19942  1.0000
  C   C1121     1.0  0.37298  0.65039  0.21467  1.0000
  C   C1122     1.0  0.55676  0.75706  0.18975  1.0000
  H   H1338     1.0  0.55884  0.74987  0.22946  1.0000
  H   H1339     1.0  0.62455  0.75957  0.19691  1.0000
  S   S303      1.0  0.64393  0.68623  0.19978  1.0000
  H   H1340     1.0  0.49000  0.62499  0.11005  1.0000
  C   C1123     1.0  0.60103  0.78371  0.18987  1.0000
  H   H1341     1.0  0.57353  0.65065  0.20635  1.0000
  C   C1124     1.0  0.36158  0.63737  0.21485  1.0000
  C   C1125     1.0  0.61619  0.76787  0.18584  1.0000
  S   S304      1.0  0.56947  0.68546  0.17534  1.0000
  H   H1342     1.0  0.62400  0.61132  0.17771  1.0000
  Fe  Fe150     1.0  0.59568  0.68291  0.18762  1.0000
  C   C1126     1.0  0.55691  0.66629  0.18416  1.0000
  H   H1343     1.0  0.60471  0.58488  0.18688  1.0000
  H   H1344     1.0  0.51081  0.76977  0.16682  1.0000
  S   S305      1.0  0.37121  0.50061  0.16638  1.0000
  H   H1345     1.0  0.59990  0.60926  0.22861  1.0000
  H   H1346     1.0  0.44523  0.58439  0.13440  1.0000
  H   H1347     1.0  0.57552  0.91804  0.20742  1.0000
  C   C1127     1.0  0.41800  0.62712  0.09990  1.0000
  H   H1348     1.0  0.53933  0.97308  0.14604  1.0000
  C   C1128     1.0  0.44484  0.61469  0.11792  1.0000
  C   C1129     1.0  0.54094  0.75495  0.16486  1.0000
  H   H1349     1.0  0.41737  0.58038  0.12427  1.0000
  H   H1350     1.0  0.63282  0.75043  0.16544  1.0000
  H   H1351     1.0  0.49119  0.73115  0.22225  1.0000
  H   H1352     1.0  0.63025  0.79335  0.12109  1.0000
  C   C1130     1.0  0.53443  0.63743  0.19882  1.0000
  C   C1131     1.0  0.42244  0.59403  0.11865  1.0000
  N   N77       1.0  0.61523  0.76944  0.13284  1.0000
  C   C1132     1.0  0.62077  0.76275  0.16759  1.0000
  C   C1133     1.0  0.63511  0.57723  0.20433  1.0000
  C   C1134     1.0  0.55752  0.75056  0.17292  1.0000
  C   C1135     1.0  0.53362  0.79566  0.21390  1.0000
  H   H1353     1.0  0.52048  0.67278  0.21594  1.0000
  C   C1136     1.0  0.56162  0.65099  0.19969  1.0000
  H   H1354     1.0  0.59626  0.74921  0.13913  1.0000
  H   H1355     1.0  0.57099  0.74188  0.16620  1.0000
  S   S306      1.0  0.51939  0.62030  0.20859  1.0000
  C   C1137     1.0  0.57762  0.94556  0.21260  1.0000
  H   H1356     1.0  0.59796  0.78799  0.20381  1.0000
  H   H1357     1.0  0.50874  0.78112  0.19646  1.0000
  C   C1138     1.0  0.58592  0.74913  0.99514  1.0000
  H   H1358     1.0  0.65085  0.52832  0.22360  1.0000
  H   H1359     1.0  0.42748  0.56592  0.18609  1.0000
  C   C1139     1.0  0.61868  0.78751  0.11827  1.0000
  H   H1360     1.0  0.58498  0.77432  0.13044  1.0000
  C   C1140     1.0  0.36742  0.58259  0.21886  1.0000
  H   H1361     1.0  0.40978  0.63900  0.09066  1.0000
  C   C1141     1.0  0.63311  0.75387  0.12953  1.0000
  C   C1142     1.0  0.59891  0.76312  0.12900  1.0000
  N   N78       1.0  0.50879  0.70320  0.21698  1.0000
  H   H1362     1.0  0.54561  0.80125  0.20257  1.0000
  C   C1143     1.0  0.55685  0.71361  0.22065  1.0000
  H   H1363     1.0  0.59781  0.97607  0.16800  1.0000
  H   H1364     1.0  0.62475  0.59861  0.23123  1.0000
  H   H1365     1.0  0.51864  0.90777  0.23093  1.0000
  H   H1366     1.0  0.59208  0.93988  0.21595  1.0000
  C   C1144     1.0  0.65720  0.83816  0.23059  1.0000
  H   H1367     1.0  0.33958  0.59866  0.19960  1.0000
  C   C1145     1.0  0.63984  0.72467  0.23037  1.0000
  C   C1146     1.0  0.61205  0.59624  0.22676  1.0000
  H   H1368     1.0  0.32714  0.50126  0.13282  1.0000
  H   H1369     1.0  0.64622  0.75784  0.13158  1.0000
  H   H1370     1.0  0.41565  0.61803  0.22042  1.0000
  H   H1371     1.0  0.50620  0.77468  0.22877  1.0000
  C   C1147     1.0  0.55231  0.97416  0.15024  1.0000
  C   C1148     1.0  0.65128  0.54280  0.21450  1.0000
  H   H1372     1.0  0.56795  0.77169  0.21670  1.0000
  C   C1149     1.0  0.39238  0.64341  0.21678  1.0000
  C   C1150     1.0  0.40046  0.62341  0.21901  1.0000
  H   H1373     1.0  0.40123  0.65352  0.21664  1.0000
  C   C1151     1.0  0.38925  0.61025  0.21908  1.0000
  C   C1152     1.0  0.55509  0.76617  0.22638  1.0000
  H   H1374     1.0  0.65221  0.84186  0.21700  1.0000
  S   S307      1.0  0.65337  0.70027  0.14078  1.0000
  H   H1375     1.0  0.37340  0.57661  0.23240  1.0000
  S   S308      1.0  0.32684  0.58410  0.16959  1.0000
  H   H1376     1.0  0.50613  0.83880  0.23280  1.0000
  C   C1153     1.0  0.52068  0.76736  0.23266  1.0000
  C   C1154     1.0  0.42467  0.70040  0.31502  1.0000
  C   C1155     1.0  0.40985  0.68815  0.34852  1.0000
  Fe  Fe151     1.0  0.63268  0.79188  0.30920  1.0000
  S   S309      1.0  0.63226  0.77606  0.34034  1.0000
  S   S310      1.0  0.61990  0.82377  0.29925  1.0000
  H   H1377     1.0  0.43700  0.71108  0.34111  1.0000
  C   C1156     1.0  0.44223  0.69529  0.34065  1.0000
  H   H1378     1.0  0.63238  0.79933  0.27074  1.0000
  Fe  Fe152     1.0  0.62280  0.75277  0.33143  1.0000
  S   S311      1.0  0.59747  0.73815  0.34770  1.0000
  H   H1379     1.0  0.59331  0.86270  0.24218  1.0000
  S   S312      1.0  0.62056  0.77011  0.30153  1.0000
  C   C1157     1.0  0.49193  0.81454  0.24684  1.0000
  Fe  Fe153     1.0  0.48035  0.75602  0.28741  1.0000
  S   S313      1.0  0.50267  0.73186  0.27543  1.0000
  Fe  Fe154     1.0  0.47510  0.73187  0.32816  1.0000
  S   S314      1.0  0.49788  0.70602  0.31944  1.0000
  S   S315      1.0  0.45973  0.72740  0.35980  1.0000
  Fe  Fe155     1.0  0.51562  0.72800  0.30146  1.0000
  S   S316      1.0  0.54858  0.72411  0.29304  1.0000
  Fe  Fe156     1.0  0.48315  0.71198  0.29416  1.0000
  S   S317      1.0  0.48045  0.68455  0.28654  1.0000
  S   S318      1.0  0.49438  0.75352  0.31249  1.0000
  S   S319      1.0  0.45922  0.73645  0.30389  1.0000
  C   C1158     1.0  0.37404  0.68997  0.37644  1.0000
  C   C1159     1.0  0.45264  0.70035  0.26334  1.0000
  C   C1160     1.0  0.43847  0.66783  0.33026  1.0000
  C   C1161     1.0  0.60452  0.84550  0.26756  1.0000
  S   S320      1.0  0.36777  0.75879  0.37954  1.0000
  H   H1380     1.0  0.62312  0.66861  0.24946  1.0000
  H   H1381     1.0  0.38269  0.76578  0.41243  1.0000
  H   H1382     1.0  0.48103  0.65427  0.26790  1.0000
  Fe  Fe157     1.0  0.34434  0.74368  0.45272  1.0000
  H   H1383     1.0  0.37951  0.65876  0.37963  1.0000
  H   H1384     1.0  0.41946  0.73740  0.44308  1.0000
  H   H1385     1.0  0.56827  0.82377  0.27532  1.0000
  H   H1386     1.0  0.37366  0.77152  0.43614  1.0000
  C   C1162     1.0  0.55532  0.88588  0.27527  1.0000
  C   C1163     1.0  0.43412  0.73588  0.36499  1.0000
  C   C1164     1.0  0.42320  0.72846  0.38313  1.0000
  C   C1165     1.0  0.40277  0.73507  0.38760  1.0000
  C   C1166     1.0  0.39323  0.74949  0.37414  1.0000
  C   C1167     1.0  0.40413  0.75674  0.35592  1.0000
  C   C1168     1.0  0.42450  0.74982  0.35127  1.0000
  H   H1387     1.0  0.43057  0.71749  0.39369  1.0000
  H   H1388     1.0  0.39438  0.72900  0.40139  1.0000
  H   H1389     1.0  0.39680  0.76783  0.34540  1.0000
  H   H1390     1.0  0.43280  0.75570  0.33728  1.0000
  C   C1169     1.0  0.50487  0.83165  0.26380  1.0000
  C   C1170     1.0  0.60120  0.84861  0.24864  1.0000
  S   S321      1.0  0.35900  0.72312  0.43210  1.0000
  H   H1391     1.0  0.47133  0.75366  0.39721  1.0000
  C   C1171     1.0  0.38083  0.70702  0.36700  1.0000
  C   C1172     1.0  0.65330  0.72820  0.23933  1.0000
  C   C1173     1.0  0.58368  0.73430  0.33261  1.0000
  C   C1174     1.0  0.56474  0.73074  0.34044  1.0000
  C   C1175     1.0  0.55355  0.72796  0.32843  1.0000
  C   C1176     1.0  0.56158  0.72805  0.30869  1.0000
  C   C1177     1.0  0.58064  0.73107  0.30105  1.0000
  C   C1178     1.0  0.59152  0.73448  0.31284  1.0000
  H   H1392     1.0  0.55864  0.73036  0.35577  1.0000
  H   H1393     1.0  0.53889  0.72544  0.33451  1.0000
  H   H1394     1.0  0.58708  0.73075  0.28593  1.0000
  H   H1395     1.0  0.60632  0.73640  0.30676  1.0000
  H   H1396     1.0  0.40654  0.79141  0.43535  1.0000
  H   H1397     1.0  0.65182  0.70733  0.29713  1.0000
  H   H1398     1.0  0.65662  0.78667  0.24345  1.0000
  C   C1179     1.0  0.50160  0.82918  0.24647  1.0000
  H   H1399     1.0  0.43838  0.70012  0.30369  1.0000
  H   H1400     1.0  0.41010  0.65658  0.35585  1.0000
  H   H1401     1.0  0.57872  0.78691  0.26030  1.0000
  H   H1402     1.0  0.55306  0.77061  0.24049  1.0000
  C   C1180     1.0  0.62679  0.74725  0.25908  1.0000
  H   H1403     1.0  0.44431  0.68733  0.35557  1.0000
  H   H1404     1.0  0.41874  0.71605  0.31597  1.0000
  C   C1181     1.0  0.48618  0.80185  0.26439  1.0000
  H   H1405     1.0  0.62163  0.75602  0.27001  1.0000
  N   N79       1.0  0.40515  0.76517  0.42743  1.0000
  C   C1182     1.0  0.61570  0.82767  0.27563  1.0000
  H   H1406     1.0  0.53905  0.69747  0.26854  1.0000
  C   C1183     1.0  0.50491  0.93929  0.24793  1.0000
  H   H1407     1.0  0.40322  0.71983  0.34666  1.0000
  H   H1408     1.0  0.44992  0.71378  0.26852  1.0000
  C   C1184     1.0  0.55605  0.81616  0.27785  1.0000
  S   S322      1.0  0.47481  0.78314  0.26428  1.0000
  C   C1185     1.0  0.46670  0.68413  0.26986  1.0000
  N   N80       1.0  0.61252  0.67599  0.27800  1.0000
  C   C1186     1.0  0.59384  0.68866  0.27339  1.0000
  C   C1187     1.0  0.62720  0.67559  0.25943  1.0000
  C   C1188     1.0  0.60964  0.65562  0.28621  1.0000
  C   C1189     1.0  0.61842  0.68353  0.29232  1.0000
  C   C1190     1.0  0.60744  0.68225  0.31173  1.0000
  C   C1191     1.0  0.63450  0.69299  0.28737  1.0000
  C   C1192     1.0  0.61288  0.68899  0.32557  1.0000
  H   H1409     1.0  0.43051  0.78626  0.36085  1.0000
  H   H1410     1.0  0.51451  0.94219  0.23327  1.0000
  H   H1411     1.0  0.58183  0.68905  0.28654  1.0000
  H   H1412     1.0  0.59540  0.70412  0.26719  1.0000
  H   H1413     1.0  0.58885  0.68360  0.26261  1.0000
  H   H1414     1.0  0.62847  0.69060  0.25117  1.0000
  H   H1415     1.0  0.51299  0.69341  0.25518  1.0000
  H   H1416     1.0  0.64189  0.66709  0.26206  1.0000
  H   H1417     1.0  0.59688  0.65481  0.29855  1.0000
  H   H1418     1.0  0.60677  0.64901  0.27519  1.0000
  H   H1419     1.0  0.62288  0.64602  0.29146  1.0000
  H   H1420     1.0  0.59422  0.67655  0.31625  1.0000
  H   H1421     1.0  0.64314  0.69560  0.27278  1.0000
  H   H1422     1.0  0.60404  0.68833  0.34019  1.0000
  C   C1193     1.0  0.43342  0.77899  0.37521  1.0000
  H   H1423     1.0  0.49729  0.92299  0.28674  1.0000
  H   H1424     1.0  0.55248  0.81840  0.26327  1.0000
  H   H1425     1.0  0.54311  0.82400  0.28710  1.0000
  H   H1426     1.0  0.58298  0.89346  0.27224  1.0000
  H   H1427     1.0  0.42100  0.76941  0.44709  1.0000
  C   C1194     1.0  0.45260  0.77043  0.37740  1.0000
  C   C1195     1.0  0.53990  0.70131  0.25289  1.0000
  H   H1428     1.0  0.54011  0.93933  0.24778  1.0000
  H   H1429     1.0  0.47991  0.92093  0.27382  1.0000
  H   H1430     1.0  0.44270  0.65773  0.34366  1.0000
  C   C1196     1.0  0.38534  0.77332  0.42283  1.0000
  C   C1197     1.0  0.49522  0.91533  0.27615  1.0000
  C   C1198     1.0  0.53640  0.89238  0.27144  1.0000
  H   H1431     1.0  0.59878  0.85699  0.27583  1.0000
  C   C1199     1.0  0.44590  0.68196  0.24277  1.0000
  H   H1432     1.0  0.51970  0.77082  0.24704  1.0000
  C   C1200     1.0  0.45639  0.76057  0.39569  1.0000
  C   C1201     1.0  0.61336  0.74388  0.25002  1.0000
  H   H1433     1.0  0.36038  0.69073  0.38712  1.0000
  H   H1434     1.0  0.54326  0.78857  0.27053  1.0000
  H   H1435     1.0  0.59186  0.79310  0.27480  1.0000
  H   H1436     1.0  0.57253  0.92754  0.25490  1.0000
  N   N81       1.0  0.56103  0.79506  0.28702  1.0000
  C   C1202     1.0  0.57977  0.78591  0.27559  1.0000
  C   C1203     1.0  0.54548  0.78572  0.28573  1.0000
  H   H1437     1.0  0.39497  0.77448  0.45496  1.0000
  C   C1204     1.0  0.56327  0.79291  0.30727  1.0000
  C   C1205     1.0  0.55341  0.78086  0.32352  1.0000
  C   C1206     1.0  0.57616  0.80261  0.31110  1.0000
  C   C1207     1.0  0.55644  0.77874  0.34233  1.0000
  C   C1208     1.0  0.57918  0.80028  0.32991  1.0000
  C   C1209     1.0  0.56943  0.78827  0.34549  1.0000
  H   H1438     1.0  0.58434  0.77018  0.28234  1.0000
  C   C1210     1.0  0.50744  0.90654  0.24467  1.0000
  Fe  Fe158     1.0  0.65178  0.75518  0.29282  1.0000
  H   H1439     1.0  0.53112  0.79155  0.29463  1.0000
  H   H1440     1.0  0.54918  0.76948  0.29065  1.0000
  S   S323      1.0  0.51692  0.84992  0.26355  1.0000
  S   S324      1.0  0.35604  0.75306  0.47414  1.0000
  S   S325      1.0  0.65355  0.73627  0.32240  1.0000
  H   H1441     1.0  0.54368  0.77248  0.32210  1.0000
  C   C1211     1.0  0.38486  0.67199  0.37217  1.0000
  H   H1442     1.0  0.58445  0.81167  0.29948  1.0000
  H   H1443     1.0  0.54928  0.76901  0.35445  1.0000
  H   H1444     1.0  0.58954  0.80749  0.33229  1.0000
  H   H1445     1.0  0.57229  0.78596  0.35996  1.0000
  C   C1212     1.0  0.44099  0.75915  0.41188  1.0000
  H   H1446     1.0  0.44470  0.75137  0.42576  1.0000
  C   C1213     1.0  0.49868  0.81929  0.28144  1.0000
  H   H1447     1.0  0.46450  0.77097  0.36476  1.0000
  C   C1214     1.0  0.41787  0.77738  0.39122  1.0000
  H   H1448     1.0  0.45230  0.66815  0.31907  1.0000
  H   H1449     1.0  0.59791  0.75000  0.25418  1.0000
  C   C1215     1.0  0.48962  0.80421  0.28170  1.0000
  H   H1450     1.0  0.50094  0.82132  0.29491  1.0000
  C   C1216     1.0  0.42121  0.76728  0.41011  1.0000
  C   C1217     1.0  0.47020  0.66689  0.26290  1.0000
  H   H1451     1.0  0.40337  0.78372  0.38822  1.0000
  C   C1218     1.0  0.56236  0.91774  0.25965  1.0000
  C   C1219     1.0  0.54348  0.92438  0.25570  1.0000
  C   C1220     1.0  0.40621  0.74412  0.43671  1.0000
  S   S326      1.0  0.33686  0.76956  0.42907  1.0000
  Fe  Fe159     1.0  0.34925  0.74859  0.40886  1.0000
  H   H1452     1.0  0.49632  0.89955  0.28319  1.0000
  H   H1453     1.0  0.38305  0.78934  0.41661  1.0000
  H   H1454     1.0  0.48471  0.79486  0.29537  1.0000
  C   C1221     1.0  0.40250  0.67098  0.35841  1.0000
  H   H1455     1.0  0.40635  0.73550  0.42599  1.0000
  N   N82       1.0  0.42846  0.68773  0.33392  1.0000
  H   H1456     1.0  0.39347  0.74192  0.44890  1.0000
  C   C1222     1.0  0.39849  0.70618  0.35335  1.0000
  C   C1223     1.0  0.44205  0.69914  0.25001  1.0000
  H   H1457     1.0  0.41406  0.69552  0.30955  1.0000
  N   N83       1.0  0.50974  0.91831  0.25761  1.0000
  C   C1224     1.0  0.52985  0.91187  0.26157  1.0000
  C   C1225     1.0  0.56827  0.89855  0.26939  1.0000
  C   C1226     1.0  0.40704  0.77556  0.44181  1.0000
  H   H1458     1.0  0.45693  0.69393  0.33078  1.0000
  H   H1459     1.0  0.42917  0.66145  0.32455  1.0000
  C   C1227     1.0  0.34071  0.60416  0.23514  1.0000
  H   H1460     1.0  0.50636  0.94910  0.25684  1.0000
  H   H1461     1.0  0.56006  0.87086  0.28260  1.0000
  H   H1462     1.0  0.37236  0.72101  0.37033  1.0000
  H   H1463     1.0  0.63276  0.70340  0.33109  1.0000
  C   C1228     1.0  0.62905  0.69765  0.32040  1.0000
  C   C1229     1.0  0.62330  0.81289  0.26484  1.0000
  H   H1464     1.0  0.60715  0.58347  0.23736  1.0000
  C   C1230     1.0  0.46014  0.66593  0.24913  1.0000
  H   H1465     1.0  0.52705  0.88186  0.27592  1.0000
  C   C1231     1.0  0.63970  0.69985  0.30130  1.0000
  H   H1466     1.0  0.48964  0.94378  0.24544  1.0000
  H   H1467     1.0  0.49280  0.91138  0.24060  1.0000
  H   H1468     1.0  0.46320  0.65261  0.24369  1.0000
  Fe  Fe160     1.0  0.32876  0.71752  0.43593  1.0000
  H   H1469     1.0  0.33096  0.61894  0.23460  1.0000
  H   H1470     1.0  0.62529  0.80427  0.23796  1.0000
  H   H1471     1.0  0.50906  0.89073  0.25151  1.0000
  C   C1232     1.0  0.52497  0.69920  0.24507  1.0000
  H   H1472     1.0  0.34541  0.68868  0.47330  1.0000
  H   H1473     1.0  0.33117  0.59380  0.23651  1.0000
  H   H1474     1.0  0.43107  0.71161  0.24506  1.0000
  C   C1233     1.0  0.61967  0.81585  0.24612  1.0000
  H   H1475     1.0  0.56693  0.71094  0.24683  1.0000
  C   C1234     1.0  0.64677  0.73922  0.25396  1.0000
  H   H1476     1.0  0.33442  0.65796  0.47785  1.0000
  H   H1477     1.0  0.64907  0.85909  0.26975  1.0000
  H   H1478     1.0  0.34661  0.60018  0.24872  1.0000
  H   H1479     1.0  0.50349  0.67678  0.23797  1.0000
  H   H1480     1.0  0.48698  0.71101  0.24195  1.0000
  H   H1481     1.0  0.52217  0.75124  0.23492  1.0000
  C   C1235     1.0  0.61981  0.73224  0.23599  1.0000
  C   C1236     1.0  0.55564  0.70881  0.24071  1.0000
  C   C1237     1.0  0.65025  0.85224  0.24224  1.0000
  C   C1238     1.0  0.60892  0.83380  0.23785  1.0000
  C   C1239     1.0  0.65515  0.84850  0.26041  1.0000
  H   H1482     1.0  0.64040  0.86586  0.23744  1.0000
  H   H1483     1.0  0.48896  0.81303  0.23347  1.0000
  Fe  Fe161     1.0  0.53453  0.85907  0.23369  1.0000
  Fe  Fe162     1.0  0.41418  0.78016  0.69370  1.0000
  S   S327      1.0  0.41512  0.75155  0.71513  1.0000
  S   S328      1.0  0.40210  0.78739  0.66601  1.0000
  Fe  Fe163     1.0  0.43686  0.79516  0.71531  1.0000
  H   H1484     1.0  0.35854  0.49454  0.71739  1.0000
  Fe  Fe164     1.0  0.44633  0.75207  0.71337  1.0000
  S   S329      1.0  0.46890  0.72418  0.71203  1.0000
  H   H1485     1.0  0.54839  0.92804  0.71284  1.0000
  S   S330      1.0  0.44616  0.77940  0.69034  1.0000
  S   S331      1.0  0.40470  0.79847  0.71681  1.0000
  Fe  Fe165     1.0  0.55432  0.80323  0.68155  1.0000
  S   S332      1.0  0.56232  0.79020  0.65501  1.0000
  S   S333      1.0  0.52882  0.82815  0.68638  1.0000
  Fe  Fe166     1.0  0.58505  0.77340  0.70088  1.0000
  S   S334      1.0  0.59635  0.75755  0.67610  1.0000
  C   C1240     1.0  0.58972  0.67962  0.72830  1.0000
  Fe  Fe167     1.0  0.59328  0.78779  0.65729  1.0000
  S   S335      1.0  0.61332  0.79720  0.62912  1.0000
  Fe  Fe168     1.0  0.56458  0.76128  0.67588  1.0000
  S   S336      1.0  0.55451  0.73599  0.67196  1.0000
  S   S337      1.0  0.58504  0.80342  0.68220  1.0000
  S   S338      1.0  0.59341  0.76499  0.73002  1.0000
  Fe  Fe169     1.0  0.35040  0.73316  0.61987  1.0000
  C   C1241     1.0  0.47688  0.79188  0.64726  1.0000
  S   S339      1.0  0.36537  0.72605  0.64551  1.0000
  Fe  Fe170     1.0  0.34833  0.72290  0.58205  1.0000
  H   H1486     1.0  0.35062  0.76457  0.51027  1.0000
  S   S340      1.0  0.35970  0.70401  0.55953  1.0000
  C   C1242     1.0  0.51969  0.85429  0.73174  1.0000
  C   C1243     1.0  0.61561  0.72947  0.72285  1.0000
  S   S341      1.0  0.36117  0.74542  0.58815  1.0000
  H   H1487     1.0  0.33534  0.77050  0.65024  1.0000
  C   C1244     1.0  0.35865  0.71754  0.53579  1.0000
  C   C1245     1.0  0.36228  0.70780  0.52039  1.0000
  H   H1488     1.0  0.46900  0.84831  0.71970  1.0000
  C   C1246     1.0  0.34290  0.79767  0.61855  1.0000
  S   S342      1.0  0.45166  0.81960  0.71382  1.0000
  H   H1489     1.0  0.35173  0.74565  0.54384  1.0000
  C   C1247     1.0  0.63655  0.82705  0.64584  1.0000
  C   C1248     1.0  0.63820  0.78608  0.62784  1.0000
  H   H1490     1.0  0.42760  0.70603  0.72833  1.0000
  H   H1491     1.0  0.36019  0.65892  0.53950  1.0000
  H   H1492     1.0  0.63593  0.77532  0.65877  1.0000
  C   C1249     1.0  0.65087  0.78757  0.60962  1.0000
  N   N84       1.0  0.57159  0.69117  0.72142  1.0000
  H   H1493     1.0  0.34061  0.66217  0.69425  1.0000
  H   H1494     1.0  0.52324  0.78259  0.65562  1.0000
  H   H1495     1.0  0.47029  0.83748  0.67111  1.0000
  C   C1250     1.0  0.35351  0.74873  0.51309  1.0000
  H   H1496     1.0  0.62034  0.73711  0.70811  1.0000
  C   C1251     1.0  0.36791  0.49197  0.72774  1.0000
  C   C1252     1.0  0.34529  0.65404  0.70769  1.0000
  C   C1253     1.0  0.39279  0.76974  0.66018  1.0000
  C   C1254     1.0  0.38950  0.77244  0.64127  1.0000
  C   C1255     1.0  0.38127  0.75908  0.63647  1.0000
  C   C1256     1.0  0.37622  0.74294  0.65060  1.0000
  C   C1257     1.0  0.37977  0.74010  0.66939  1.0000
  C   C1258     1.0  0.38795  0.75346  0.67418  1.0000
  H   H1497     1.0  0.39338  0.78491  0.63031  1.0000
  H   H1498     1.0  0.37895  0.76115  0.62185  1.0000
  H   H1499     1.0  0.37597  0.72763  0.68037  1.0000
  H   H1500     1.0  0.39022  0.75130  0.68881  1.0000
  C   C1259     1.0  0.49223  0.72848  0.70033  1.0000
  C   C1260     1.0  0.49790  0.74538  0.70099  1.0000
  C   C1261     1.0  0.51709  0.74791  0.69237  1.0000
  C   C1262     1.0  0.53029  0.73385  0.68256  1.0000
  C   C1263     1.0  0.52438  0.71726  0.68155  1.0000
  C   C1264     1.0  0.50552  0.71441  0.69072  1.0000
  H   H1501     1.0  0.48757  0.75629  0.70841  1.0000
  H   H1502     1.0  0.52161  0.76075  0.69314  1.0000
  H   H1503     1.0  0.53449  0.70642  0.67387  1.0000
  H   H1504     1.0  0.50114  0.70138  0.69013  1.0000
  H   H1505     1.0  0.50983  0.79622  0.68293  1.0000
  H   H1506     1.0  0.34950  0.78490  0.65497  1.0000
  C   C1265     1.0  0.64568  0.77655  0.64465  1.0000
  C   C1266     1.0  0.53216  0.84087  0.70242  1.0000
  H   H1507     1.0  0.49810  0.74880  0.63225  1.0000
  H   H1508     1.0  0.35821  0.79656  0.61981  1.0000
  H   H1509     1.0  0.58368  0.71717  0.71388  1.0000
  C   C1267     1.0  0.33633  0.64489  0.54307  1.0000
  N   N85       1.0  0.49085  0.81188  0.66259  1.0000
  H   H1510     1.0  0.61862  0.84699  0.62666  1.0000
  H   H1511     1.0  0.64600  0.85210  0.59941  1.0000
  H   H1512     1.0  0.34234  0.78378  0.61495  1.0000
  H   H1513     1.0  0.59297  0.66407  0.72685  1.0000
  H   H1514     1.0  0.50398  0.82882  0.63571  1.0000
  C   C1268     1.0  0.49667  0.76176  0.63783  1.0000
  H   H1515     1.0  0.55824  0.72220  0.71479  1.0000
  C   C1269     1.0  0.47123  0.82527  0.66388  1.0000
  C   C1270     1.0  0.33464  0.78520  0.65297  1.0000
  H   H1516     1.0  0.32812  0.83244  0.62837  1.0000
  H   H1517     1.0  0.45951  0.81753  0.67298  1.0000
  C   C1271     1.0  0.36136  0.71854  0.50136  1.0000
  H   H1518     1.0  0.34496  0.81887  0.64366  1.0000
  H   H1519     1.0  0.52638  0.75420  0.64200  1.0000
  C   C1272     1.0  0.32757  0.66767  0.48801  1.0000
  H   H1520     1.0  0.48456  0.79431  0.69139  1.0000
  H   H1521     1.0  0.33758  0.63522  0.61266  1.0000
  H   H1522     1.0  0.46262  0.80158  0.64853  1.0000
  C   C1273     1.0  0.55320  0.85413  0.71457  1.0000
  S   S343      1.0  0.34048  0.70880  0.61357  1.0000
  C   C1274     1.0  0.34707  0.65483  0.54912  1.0000
  H   H1523     1.0  0.46646  0.77278  0.63566  1.0000
  C   C1275     1.0  0.51064  0.78121  0.65108  1.0000
  H   H1524     1.0  0.46771  0.83202  0.64924  1.0000
  H   H1525     1.0  0.50277  0.84226  0.71910  1.0000
  C   C1276     1.0  0.34105  0.65946  0.56760  1.0000
  S   S344      1.0  0.55351  0.77443  0.70234  1.0000
  C   C1277     1.0  0.49449  0.80429  0.68269  1.0000
  C   C1278     1.0  0.47890  0.77530  0.63972  1.0000
  H   H1526     1.0  0.34005  0.80947  0.60567  1.0000
  H   H1527     1.0  0.34677  0.65747  0.60438  1.0000
  H   H1528     1.0  0.56220  0.84175  0.68879  1.0000
  H   H1529     1.0  0.49198  0.81639  0.69057  1.0000
  H   H1530     1.0  0.36991  0.52211  0.72197  1.0000
  C   C1279     1.0  0.57405  0.68958  0.70092  1.0000
  C   C1280     1.0  0.55035  0.84521  0.70075  1.0000
  C   C1281     1.0  0.35417  0.73803  0.53211  1.0000
  H   H1531     1.0  0.58687  0.69544  0.69135  1.0000
  H   H1532     1.0  0.32940  0.71153  0.49470  1.0000
  H   H1533     1.0  0.50395  0.83687  0.65729  1.0000
  H   H1534     1.0  0.63359  0.70141  0.71808  1.0000
  C   C1282     1.0  0.64921  0.84217  0.61269  1.0000
  H   H1535     1.0  0.57609  0.67410  0.69968  1.0000
  C   C1283     1.0  0.51256  0.76481  0.64332  1.0000
  C   C1284     1.0  0.50550  0.82373  0.65119  1.0000
  H   H1536     1.0  0.52079  0.81547  0.65143  1.0000
  H   H1537     1.0  0.32871  0.65461  0.62617  1.0000
  C   C1285     1.0  0.51675  0.84579  0.71768  1.0000
  H   H1538     1.0  0.36603  0.69197  0.52312  1.0000
  C   C1286     1.0  0.49269  0.79517  0.65347  1.0000
  C   C1287     1.0  0.62316  0.70933  0.72851  1.0000
  H   H1539     1.0  0.34105  0.64130  0.52874  1.0000
  H   H1540     1.0  0.64506  0.79458  0.59658  1.0000
  H   H1541     1.0  0.62421  0.82456  0.65765  1.0000
  C   C1288     1.0  0.63344  0.83965  0.62830  1.0000
  H   H1542     1.0  0.36870  0.66893  0.70294  1.0000
  C   C1289     1.0  0.35680  0.73903  0.49774  1.0000
  H   H1543     1.0  0.56112  0.69804  0.69460  1.0000
  H   H1544     1.0  0.34995  0.66707  0.57165  1.0000
  C   C1290     1.0  0.57002  0.71198  0.72194  1.0000
  H   H1545     1.0  0.60285  0.68545  0.71966  1.0000
  H   H1546     1.0  0.53332  0.70825  0.71866  1.0000
  Fe  Fe171     1.0  0.33047  0.76345  0.58985  1.0000
  H   H1547     1.0  0.65771  0.80676  0.66138  1.0000
  H   H1548     1.0  0.56736  0.85724  0.71339  1.0000
  C   C1291     1.0  0.36114  0.65782  0.71263  1.0000
  C   C1292     1.0  0.33371  0.68504  0.48546  1.0000
  C   C1293     1.0  0.53494  0.69479  0.72944  1.0000
  C   C1294     1.0  0.54842  0.93812  0.72218  1.0000
  N   N86       1.0  0.32868  0.80128  0.63671  1.0000
  H   H1549     1.0  0.56354  0.94081  0.71861  1.0000
  H   H1550     1.0  0.36458  0.71099  0.48946  1.0000
  H   H1551     1.0  0.53804  0.95206  0.71768  1.0000
  C   C1295     1.0  0.33024  0.81987  0.64080  1.0000
  C   C1296     1.0  0.33337  0.65144  0.61121  1.0000
  C   C1297     1.0  0.33541  0.63992  0.72008  1.0000
  C   C1298     1.0  0.36722  0.64749  0.73000  1.0000
  H   H1552     1.0  0.52444  0.75248  0.73157  1.0000
  C   C1299     1.0  0.65544  0.81701  0.64788  1.0000
  C   C1300     1.0  0.53794  0.85840  0.73022  1.0000
  C   C1301     1.0  0.37426  0.50751  0.73045  1.0000
  H   H1553     1.0  0.32662  0.68794  0.58896  1.0000
  Fe  Fe172     1.0  0.47432  0.86419  0.78984  1.0000
  S   S345      1.0  0.50396  0.84576  0.79349  1.0000
  S   S346      1.0  0.45172  0.84750  0.79010  1.0000
  Fe  Fe173     1.0  0.48564  0.90218  0.79067  1.0000
  S   S347      1.0  0.51574  0.88619  0.79505  1.0000
  S   S348      1.0  0.47987  0.93545  0.78215  1.0000
  Fe  Fe174     1.0  0.51548  0.87065  0.77224  1.0000
  C   C1302     1.0  0.48027  0.75759  0.76243  1.0000
  Fe  Fe175     1.0  0.50126  0.86296  0.81601  1.0000
  S   S349      1.0  0.51378  0.84762  0.84273  1.0000
  S   S350      1.0  0.48619  0.88775  0.76640  1.0000
  S   S351      1.0  0.47077  0.88021  0.81396  1.0000
  H   H1554     1.0  0.50015  0.67251  0.94597  1.0000
  C   C1303     1.0  0.35747  0.63293  0.74297  1.0000
  H   H1555     1.0  0.52327  0.67869  0.86019  1.0000
  S   S352      1.0  0.38838  0.76069  0.76639  1.0000
  Fe  Fe176     1.0  0.44464  0.69298  0.83280  1.0000
  S   S353      1.0  0.42267  0.67890  0.85615  1.0000
  S   S354      1.0  0.44504  0.72502  0.82529  1.0000
  Fe  Fe177     1.0  0.46745  0.65457  0.82149  1.0000
  S   S355      1.0  0.44800  0.63688  0.84441  1.0000
  S   S356      1.0  0.49029  0.64144  0.79834  1.0000
  Fe  Fe178     1.0  0.42334  0.66072  0.83476  1.0000
  S   S357      1.0  0.39579  0.65580  0.82872  1.0000
  Fe  Fe179     1.0  0.44925  0.65654  0.86351  1.0000
  S   S358      1.0  0.45331  0.64547  0.89442  1.0000
  S   S359      1.0  0.44285  0.67734  0.81064  1.0000
  S   S360      1.0  0.47124  0.67175  0.84143  1.0000
  Fe  Fe180     1.0  0.58868  0.63328  0.81010  1.0000
  S   S361      1.0  0.58385  0.64440  0.83736  1.0000
  S   S362      1.0  0.57729  0.60777  0.80901  1.0000
  Fe  Fe181     1.0  0.61107  0.66409  0.78543  1.0000
  S   S363      1.0  0.60845  0.67809  0.81057  1.0000
  H   H1556     1.0  0.37205  0.59200  0.77629  1.0000
  Fe  Fe182     1.0  0.61523  0.64708  0.82717  1.0000
  C   C1304     1.0  0.59196  0.72775  0.97241  1.0000
  Fe  Fe183     1.0  0.57734  0.67414  0.81826  1.0000
  S   S364      1.0  0.55007  0.69644  0.82649  1.0000
  S   S365      1.0  0.62061  0.63340  0.80128  1.0000
  S   S366      1.0  0.57944  0.66274  0.79170  1.0000
  Fe  Fe184     1.0  0.47674  0.72273  0.93976  1.0000
  S   S367      1.0  0.48916  0.73858  0.91026  1.0000
  S   S368      1.0  0.45627  0.70203  0.94693  1.0000
  Fe  Fe185     1.0  0.49711  0.74079  0.96122  1.0000
  S   S369      1.0  0.51103  0.75866  0.93325  1.0000
  Fe  Fe186     1.0  0.48189  0.76447  0.92452  1.0000
  S   S370      1.0  0.46515  0.79248  0.90876  1.0000
  Fe  Fe187     1.0  0.51712  0.73147  0.92120  1.0000
  S   S371      1.0  0.54739  0.71905  0.90589  1.0000
  S   S372      1.0  0.46731  0.74903  0.95359  1.0000
  S   S373      1.0  0.50532  0.71318  0.94954  1.0000
  Fe  Fe188     1.0  0.36352  0.56543  0.81286  1.0000
  C   C1305     1.0  0.46207  0.84778  0.75059  1.0000
  S   S374      1.0  0.39134  0.57632  0.80883  1.0000
  C   C1306     1.0  0.51541  0.80183  0.75557  1.0000
  H   H1557     1.0  0.52415  0.68715  0.91880  1.0000
  H   H1558     1.0  0.49910  0.67444  0.86477  1.0000
  H   H1559     1.0  0.53324  0.67684  0.88772  1.0000
  S   S375      1.0  0.36329  0.54634  0.79271  1.0000
  C   C1307     1.0  0.56118  0.77839  0.77169  1.0000
  C   C1308     1.0  0.62801  0.60137  0.84598  1.0000
  S   S376      1.0  0.35154  0.54513  0.83981  1.0000
  H   H1560     1.0  0.61368  0.61012  0.84442  1.0000
  H   H1561     1.0  0.48571  0.64686  0.94181  1.0000
  C   C1309     1.0  0.54985  0.70338  0.84803  1.0000
  C   C1310     1.0  0.56537  0.69522  0.85785  1.0000
  C   C1311     1.0  0.56465  0.70033  0.87547  1.0000
  C   C1312     1.0  0.54833  0.71344  0.88342  1.0000
  C   C1313     1.0  0.53288  0.72166  0.87349  1.0000
  C   C1314     1.0  0.53362  0.71664  0.85583  1.0000
  H   H1562     1.0  0.57796  0.68498  0.85189  1.0000
  H   H1563     1.0  0.57667  0.69397  0.88304  1.0000
  H   H1564     1.0  0.52053  0.73217  0.87921  1.0000
  H   H1565     1.0  0.52162  0.72303  0.84825  1.0000
  H   H1566     1.0  0.49361  0.63639  0.91110  1.0000
  H   H1567     1.0  0.55147  0.96723  0.73399  1.0000
  C   C1315     1.0  0.39470  0.63296  0.82467  1.0000
  C   C1316     1.0  0.37639  0.62897  0.82567  1.0000
  C   C1317     1.0  0.37508  0.61127  0.82176  1.0000
  C   C1318     1.0  0.39213  0.59769  0.81612  1.0000
  C   C1319     1.0  0.41042  0.60169  0.81512  1.0000
  C   C1320     1.0  0.41170  0.61908  0.81967  1.0000
  H   H1568     1.0  0.36316  0.63954  0.82974  1.0000
  H   H1569     1.0  0.36091  0.60820  0.82302  1.0000
  H   H1570     1.0  0.42368  0.59123  0.81089  1.0000
  H   H1571     1.0  0.42583  0.62184  0.81914  1.0000
  C   C1321     1.0  0.45293  0.66287  0.90777  1.0000
  C   C1322     1.0  0.44584  0.65883  0.92788  1.0000
  C   C1323     1.0  0.44650  0.67139  0.93941  1.0000
  C   C1324     1.0  0.45503  0.68769  0.93114  1.0000
  C   C1325     1.0  0.46228  0.69186  0.91095  1.0000
  C   C1326     1.0  0.46083  0.67965  0.89917  1.0000
  H   H1572     1.0  0.43977  0.64592  0.93461  1.0000
  H   H1573     1.0  0.44082  0.66813  0.95495  1.0000
  H   H1574     1.0  0.46906  0.70432  0.90456  1.0000
  H   H1575     1.0  0.46635  0.68282  0.88364  1.0000
  C   C1327     1.0  0.51348  0.63095  0.80380  1.0000
  C   C1328     1.0  0.52444  0.61430  0.79659  1.0000
  C   C1329     1.0  0.54380  0.60671  0.79899  1.0000
  C   C1330     1.0  0.55246  0.61617  0.80801  1.0000
  C   C1331     1.0  0.54151  0.63283  0.81530  1.0000
  C   C1332     1.0  0.52187  0.64003  0.81350  1.0000
  H   H1576     1.0  0.51798  0.60738  0.78896  1.0000
  H   H1577     1.0  0.55225  0.59392  0.79325  1.0000
  H   H1578     1.0  0.54823  0.64025  0.82216  1.0000
  H   H1579     1.0  0.51348  0.65297  0.81892  1.0000
  C   C1333     1.0  0.40159  0.75314  0.78522  1.0000
  C   C1334     1.0  0.41609  0.76275  0.78516  1.0000
  C   C1335     1.0  0.42879  0.75471  0.79831  1.0000
  C   C1336     1.0  0.42727  0.73679  0.81117  1.0000
  C   C1337     1.0  0.41218  0.72767  0.81188  1.0000
  C   C1338     1.0  0.39910  0.73607  0.79919  1.0000
  H   H1580     1.0  0.49578  0.68351  0.80275  1.0000
  H   H1581     1.0  0.52861  0.68534  0.80009  1.0000
  H   H1582     1.0  0.41066  0.71403  0.82210  1.0000
  H   H1583     1.0  0.38755  0.72891  0.79968  1.0000
  C   C1339     1.0  0.50021  0.83192  0.86048  1.0000
  C   C1340     1.0  0.47995  0.83488  0.86238  1.0000
  C   C1341     1.0  0.46927  0.82286  0.87745  1.0000
  C   C1342     1.0  0.47887  0.80749  0.89026  1.0000
  C   C1343     1.0  0.49917  0.80436  0.88815  1.0000
  C   C1344     1.0  0.50977  0.81675  0.87348  1.0000
  H   H1584     1.0  0.47246  0.84647  0.85238  1.0000
  H   H1585     1.0  0.45357  0.82524  0.87896  1.0000
  H   H1586     1.0  0.50666  0.79257  0.89798  1.0000
  H   H1587     1.0  0.52544  0.81446  0.87208  1.0000
  C   C1345     1.0  0.48565  0.95020  0.79497  1.0000
  C   C1346     1.0  0.48363  0.94520  0.81520  1.0000
  C   C1347     1.0  0.48636  0.95820  0.82527  1.0000
  C   C1348     1.0  0.49187  0.97594  0.81518  1.0000
  C   C1349     1.0  0.49438  0.98073  0.79487  1.0000
  C   C1350     1.0  0.49095  0.96805  0.78484  1.0000
  H   H1588     1.0  0.47915  0.93171  0.82314  1.0000
  H   H1589     1.0  0.48386  0.95462  0.84098  1.0000
  H   H1590     1.0  0.33547  0.51030  0.75412  1.0000
  C   C1351     1.0  0.62313  0.51747  0.80536  1.0000
  H   H1591     1.0  0.51840  0.66370  0.84686  1.0000
  C   C1352     1.0  0.45186  0.83979  0.76881  1.0000
  N   N87       1.0  0.42183  0.69730  0.75981  1.0000
  H   H1592     1.0  0.44340  0.96585  0.78469  1.0000
  H   H1593     1.0  0.35327  0.59563  0.76325  1.0000
  C   C1353     1.0  0.65560  0.49703  0.79918  1.0000
  C   C1354     1.0  0.44134  0.82550  0.77015  1.0000
  C   C1355     1.0  0.54882  0.72711  0.95837  1.0000
  H   H1594     1.0  0.59870  0.70226  0.77567  1.0000
  C   C1356     1.0  0.48416  0.74114  0.77715  1.0000
  H   H1595     1.0  0.43322  0.81940  0.78414  1.0000
  N   N88       1.0  0.49118  0.89209  0.87309  1.0000
  C   C1357     1.0  0.48554  0.89112  0.85513  1.0000
  C   C1358     1.0  0.50648  0.87447  0.87822  1.0000
  C   C1359     1.0  0.47365  0.89116  0.88911  1.0000
  C   C1360     1.0  0.49895  0.91000  0.86964  1.0000
  C   C1361     1.0  0.49006  0.92518  0.88033  1.0000
  C   C1362     1.0  0.51593  0.91272  0.85505  1.0000
  C   C1363     1.0  0.49779  0.94196  0.87652  1.0000
  C   C1364     1.0  0.52356  0.92951  0.85144  1.0000
  C   C1365     1.0  0.51445  0.94414  0.86208  1.0000
  H   H1596     1.0  0.47940  0.87793  0.85722  1.0000
  H   H1597     1.0  0.47431  0.90427  0.85057  1.0000
  H   H1598     1.0  0.49821  0.89009  0.84267  1.0000
  H   H1599     1.0  0.51932  0.87262  0.86602  1.0000
  H   H1600     1.0  0.50091  0.86070  0.88176  1.0000
  H   H1601     1.0  0.51191  0.87513  0.89103  1.0000
  H   H1602     1.0  0.47696  0.89130  0.90325  1.0000
  H   H1603     1.0  0.46117  0.90350  0.88586  1.0000
  H   H1604     1.0  0.46836  0.87740  0.89131  1.0000
  H   H1605     1.0  0.47706  0.92456  0.89161  1.0000
  H   H1606     1.0  0.52338  0.90189  0.84624  1.0000
  H   H1607     1.0  0.49065  0.95356  0.88454  1.0000
  H   H1608     1.0  0.53649  0.93133  0.84020  1.0000
  H   H1609     1.0  0.52006  0.95742  0.85887  1.0000
  N   N89       1.0  0.44368  0.75739  0.87042  1.0000
  C   C1366     1.0  0.45867  0.73910  0.86853  1.0000
  C   C1367     1.0  0.43972  0.76021  0.89076  1.0000
  C   C1368     1.0  0.42528  0.75458  0.86694  1.0000
  C   C1369     1.0  0.45101  0.77427  0.85676  1.0000
  C   C1370     1.0  0.46826  0.77908  0.85847  1.0000
  C   C1371     1.0  0.44148  0.78638  0.84155  1.0000
  C   C1372     1.0  0.47528  0.79516  0.84604  1.0000
  C   C1373     1.0  0.44851  0.80259  0.82938  1.0000
  C   C1374     1.0  0.46524  0.80708  0.83173  1.0000
  H   H1610     1.0  0.47232  0.73909  0.87293  1.0000
  H   H1611     1.0  0.45326  0.72595  0.87787  1.0000
  H   H1612     1.0  0.46259  0.73695  0.85321  1.0000
  H   H1613     1.0  0.45305  0.76098  0.89522  1.0000
  H   H1614     1.0  0.43385  0.74795  0.90149  1.0000
  H   H1615     1.0  0.42897  0.77417  0.89263  1.0000
  H   H1616     1.0  0.42736  0.75156  0.85215  1.0000
  H   H1617     1.0  0.42017  0.74179  0.87744  1.0000
  H   H1618     1.0  0.41316  0.76762  0.86862  1.0000
  H   H1619     1.0  0.47626  0.77068  0.86974  1.0000
  H   H1620     1.0  0.42844  0.78380  0.83883  1.0000
  H   H1621     1.0  0.48833  0.79868  0.84784  1.0000
  H   H1622     1.0  0.44083  0.81195  0.81813  1.0000
  H   H1623     1.0  0.47045  0.81983  0.82237  1.0000
  N   N90       1.0  0.51973  0.64988  0.87682  1.0000
  C   C1375     1.0  0.54106  0.64159  0.87237  1.0000
  C   C1376     1.0  0.50941  0.63504  0.87570  1.0000
  C   C1377     1.0  0.51490  0.66742  0.86150  1.0000
  C   C1378     1.0  0.51443  0.65555  0.89603  1.0000
  C   C1379     1.0  0.52282  0.66992  0.89913  1.0000
  C   C1380     1.0  0.50109  0.64712  0.91207  1.0000
  C   C1381     1.0  0.51780  0.67586  0.91696  1.0000
  C   C1382     1.0  0.49637  0.65301  0.92993  1.0000
  C   C1383     1.0  0.50450  0.66751  0.93231  1.0000
  H   H1624     1.0  0.54550  0.62914  0.88422  1.0000
  H   H1625     1.0  0.54547  0.63603  0.85858  1.0000
  H   H1626     1.0  0.54991  0.65266  0.87059  1.0000
  H   H1627     1.0  0.51283  0.62112  0.88640  1.0000
  H   H1628     1.0  0.51361  0.63121  0.86102  1.0000
  H   H1629     1.0  0.49326  0.64060  0.87837  1.0000
  H   H1630     1.0  0.59730  0.56687  0.82722  1.0000
  C   C1384     1.0  0.44123  0.81905  0.75344  1.0000
  H   H1631     1.0  0.65906  0.54345  0.79596  1.0000
  C   C1385     1.0  0.51738  0.73286  0.75914  1.0000
  S   S377      1.0  0.54217  0.86766  0.74848  1.0000
  H   H1632     1.0  0.39617  0.68552  0.77499  1.0000
  C   C1386     1.0  0.50272  0.71630  0.81050  1.0000
  H   H1633     1.0  0.50385  0.69604  0.73574  1.0000
  C   C1387     1.0  0.50282  0.72821  0.77596  1.0000
  H   H1634     1.0  0.35084  0.62019  0.79237  1.0000
  H   H1635     1.0  0.58000  0.75457  0.92734  1.0000
  H   H1636     1.0  0.34822  0.50267  0.90118  1.0000
  C   C1388     1.0  0.40398  0.69668  0.77549  1.0000
  H   H1637     1.0  0.55851  0.77426  0.78782  1.0000
  H   H1638     1.0  0.37902  0.64177  0.76571  1.0000
  H   H1639     1.0  0.49246  0.97206  0.76917  1.0000
  C   C1389     1.0  0.60256  0.73980  0.73649  1.0000
  H   H1640     1.0  0.57181  0.80332  0.73949  1.0000
  C   C1390     1.0  0.56602  0.74942  0.93345  1.0000
  H   H1641     1.0  0.47201  0.79375  0.78470  1.0000
  C   C1391     1.0  0.56327  0.75424  0.97392  1.0000
  Fe  Fe189     1.0  0.34871  0.52764  0.81948  1.0000
  H   H1642     1.0  0.33297  0.61890  0.74672  1.0000
  C   C1392     1.0  0.34393  0.50134  0.88796  1.0000
  H   H1643     1.0  0.49322  0.69497  0.77826  1.0000
  C   C1393     1.0  0.51794  0.68784  0.73914  1.0000
  H   H1644     1.0  0.38527  0.61725  0.77863  1.0000
  H   H1645     1.0  0.57639  0.71214  0.93080  1.0000
  N   N91       1.0  0.50625  0.71051  0.79148  1.0000
  H   H1646     1.0  0.65580  0.66115  0.80684  1.0000
  H   H1647     1.0  0.39919  0.51285  0.77354  1.0000
  H   H1648     1.0  0.44616  0.63175  0.78799  1.0000
  H   H1649     1.0  0.47701  0.70478  0.79825  1.0000
  H   H1650     1.0  0.40341  0.71579  0.74005  1.0000
  H   H1651     1.0  0.62137  0.57549  0.84249  1.0000
  C   C1394     1.0  0.63243  0.58166  0.84482  1.0000
  C   C1395     1.0  0.57462  0.73814  0.96537  1.0000
  H   H1652     1.0  0.45750  0.68924  0.73532  1.0000
  H   H1653     1.0  0.56177  0.74547  0.92144  1.0000
  C   C1396     1.0  0.51326  0.74929  0.74440  1.0000
  H   H1654     1.0  0.44014  0.76206  0.79800  1.0000
  H   H1655     1.0  0.59670  0.54193  0.82884  1.0000
  C   C1397     1.0  0.48747  0.79403  0.78047  1.0000
  C   C1398     1.0  0.60368  0.70978  0.76103  1.0000
  H   H1656     1.0  0.58663  0.73788  0.76618  1.0000
  H   H1657     1.0  0.34452  0.50240  0.79147  1.0000
  C   C1399     1.0  0.34692  0.62744  0.77795  1.0000
  H   H1658     1.0  0.54927  0.71532  0.97173  1.0000
  H   H1659     1.0  0.41757  0.77636  0.77487  1.0000
  C   C1400     1.0  0.43058  0.71318  0.76126  1.0000
  C   C1401     1.0  0.60346  0.55873  0.79118  1.0000
  H   H1660     1.0  0.51249  0.72616  0.80993  1.0000
  C   C1402     1.0  0.65121  0.57032  0.84580  1.0000
  H   H1661     1.0  0.54647  0.80916  0.78953  1.0000
  H   H1662     1.0  0.43518  0.71012  0.77546  1.0000
  H   H1663     1.0  0.54129  0.82707  0.76822  1.0000
  C   C1403     1.0  0.60663  0.55238  0.82471  1.0000
  H   H1664     1.0  0.54975  0.76265  0.96959  1.0000
  H   H1665     1.0  0.56774  0.65759  0.75143  1.0000
  C   C1404     1.0  0.55426  0.66659  0.74745  1.0000
  H   H1666     1.0  0.52721  0.78430  0.80054  1.0000
  H   H1667     1.0  0.55445  0.76210  0.93752  1.0000
  H   H1668     1.0  0.63807  0.56787  0.80940  1.0000
  H   H1669     1.0  0.39390  0.62257  0.75290  1.0000
  H   H1670     1.0  0.47006  0.85892  0.74934  1.0000
  H   H1671     1.0  0.59334  0.54850  0.79522  1.0000
  H   H1672     1.0  0.59648  0.71896  0.93552  1.0000
  C   C1405     1.0  0.44339  0.98069  0.77636  1.0000
  H   H1673     1.0  0.49154  0.77426  0.73453  1.0000
  C   C1406     1.0  0.39596  0.49857  0.78224  1.0000
  C   C1407     1.0  0.64212  0.60979  0.84876  1.0000
  H   H1674     1.0  0.49289  0.78196  0.80936  1.0000
  H   H1675     1.0  0.46589  0.76727  0.76371  1.0000
  C   C1408     1.0  0.46580  0.64348  0.76270  1.0000
  H   H1676     1.0  0.50593  0.66476  0.76027  1.0000
  H   H1677     1.0  0.54825  0.81746  0.73667  1.0000
  C   C1409     1.0  0.51908  0.67027  0.75285  1.0000
  C   C1410     1.0  0.49922  0.78753  0.79435  1.0000
  H   H1678     1.0  0.47233  0.73847  0.78941  1.0000
  H   H1679     1.0  0.58312  0.70217  0.95392  1.0000
  H   H1680     1.0  0.40299  0.49531  0.79506  1.0000
  C   C1411     1.0  0.55071  0.81266  0.77337  1.0000
  H   H1681     1.0  0.47721  0.63027  0.76385  1.0000
  C   C1412     1.0  0.55601  0.80273  0.74304  1.0000
  H   H1682     1.0  0.56746  0.71401  0.73716  1.0000
  H   H1683     1.0  0.60752  0.51827  0.80930  1.0000
  H   H1684     1.0  0.55455  0.79192  0.73529  1.0000
  C   C1413     1.0  0.41554  0.70253  0.74085  1.0000
  S   S378      1.0  0.62585  0.67423  0.75461  1.0000
  Fe  Fe190     1.0  0.33280  0.56400  0.79171  1.0000
  C   C1414     1.0  0.52649  0.69848  0.78814  1.0000
  H   H1685     1.0  0.52060  0.80750  0.74033  1.0000
  H   H1686     1.0  0.59391  0.57358  0.79171  1.0000
  C   C1415     1.0  0.61718  0.69950  0.74763  1.0000
  H   H1687     1.0  0.35150  0.51076  0.87508  1.0000
  H   H1688     1.0  0.54383  0.72183  0.94772  1.0000
  H   H1689     1.0  0.53755  0.70691  0.78767  1.0000
  C   C1416     1.0  0.43654  0.67859  0.76092  1.0000
  C   C1417     1.0  0.51896  0.78866  0.78907  1.0000
  H   H1690     1.0  0.53000  0.69295  0.77446  1.0000
  C   C1418     1.0  0.63093  0.53439  0.80228  1.0000
  C   C1419     1.0  0.58173  0.71572  0.94236  1.0000
  C   C1420     1.0  0.59668  0.72996  0.75558  1.0000
  H   H1691     1.0  0.42001  0.72754  0.75997  1.0000
  H   H1692     1.0  0.40753  0.69347  0.79024  1.0000
  C   C1421     1.0  0.65170  0.53168  0.79786  1.0000
  C   C1422     1.0  0.52284  0.92542  0.74625  1.0000
  N   N92       1.0  0.56810  0.73258  0.95015  1.0000
  H   H1693     1.0  0.57703  0.77883  0.76684  1.0000
  H   H1694     1.0  0.43312  0.80802  0.75463  1.0000
  C   C1423     1.0  0.53717  0.65978  0.75709  1.0000
  C   C1424     1.0  0.54723  0.97270  0.76220  1.0000
  S   S379      1.0  0.35598  0.49465  0.82902  1.0000
  H   H1695     1.0  0.50564  0.70332  0.82241  1.0000
  H   H1696     1.0  0.56607  0.81475  0.76954  1.0000
  C   C1425     1.0  0.49250  0.69793  0.79276  1.0000
  H   H1697     1.0  0.61120  0.55875  0.77579  1.0000
  C   C1426     1.0  0.45444  0.67701  0.74700  1.0000
  H   H1698     1.0  0.39025  0.51700  0.74574  1.0000
  H   H1699     1.0  0.53201  0.72400  0.75694  1.0000
  H   H1700     1.0  0.53719  0.73970  0.96252  1.0000
  Fe  Fe191     1.0  0.40852  0.76952  0.73796  1.0000
  H   H1701     1.0  0.60151  0.71527  0.96691  1.0000
  N   N93       1.0  0.61764  0.55361  0.80429  1.0000
  C   C1427     1.0  0.52773  0.79572  0.76946  1.0000
  H   H1702     1.0  0.34327  0.64355  0.77722  1.0000
  H   H1703     1.0  0.53236  0.94305  0.80511  1.0000
  C   C1428     1.0  0.62798  0.57006  0.79940  1.0000
  H   H1704     1.0  0.53798  0.64617  0.76786  1.0000
  N   N94       1.0  0.54853  0.79734  0.76435  1.0000
  S   S380      1.0  0.63735  0.63525  0.84638  1.0000
  H   H1705     1.0  0.61756  0.58430  0.80093  1.0000
  H   H1706     1.0  0.48734  0.72403  0.81506  1.0000
  H   H1707     1.0  0.42064  0.66123  0.78682  1.0000
  H   H1708     1.0  0.37992  0.50080  0.78801  1.0000
  H   H1709     1.0  0.50792  0.85726  0.74391  1.0000
  C   C1429     1.0  0.53698  0.94788  0.78953  1.0000
  H   H1710     1.0  0.39331  0.71105  0.77418  1.0000
  C   C1430     1.0  0.36671  0.60060  0.76283  1.0000
  C   C1431     1.0  0.44825  0.64434  0.77634  1.0000
  H   H1711     1.0  0.61685  0.54735  0.83507  1.0000
  H   H1712     1.0  0.41028  0.69035  0.73847  1.0000
  C   C1432     1.0  0.49556  0.80114  0.76115  1.0000
  C   C1433     1.0  0.43369  0.66154  0.77549  1.0000
  C   C1434     1.0  0.45125  0.82724  0.73519  1.0000
  H   H1713     1.0  0.55865  0.90126  0.73714  1.0000
  H   H1714     1.0  0.54168  0.97520  0.79219  1.0000
  C   C1435     1.0  0.53702  0.93623  0.77682  1.0000
  N   N95       1.0  0.36311  0.62205  0.76171  1.0000
  H   H1715     1.0  0.55174  0.90186  0.76230  1.0000
  H   H1716     1.0  0.55897  0.76634  0.76604  1.0000
  C   C1436     1.0  0.38111  0.62620  0.76470  1.0000
  H   H1717     1.0  0.58873  0.68000  0.74378  1.0000
  S   S381      1.0  0.33408  0.58445  0.80966  1.0000
  C   C1437     1.0  0.49473  0.76157  0.74601  1.0000
  H   H1718     1.0  0.63642  0.57191  0.78413  1.0000
  C   C1438     1.0  0.34131  0.62954  0.73749  1.0000
  C   C1439     1.0  0.32724  0.52503  0.75035  1.0000
  H   H1719     1.0  0.53268  0.92237  0.78318  1.0000
  H   H1720     1.0  0.44355  0.71544  0.74951  1.0000
  S   S382      1.0  0.44002  0.76748  0.73797  1.0000
  C   C1440     1.0  0.46883  0.65973  0.74795  1.0000
  C   C1441     1.0  0.38563  0.50445  0.74438  1.0000
  H   H1721     1.0  0.33331  0.62303  0.77785  1.0000
  C   C1442     1.0  0.44169  0.98521  0.75693  1.0000
  H   H1722     1.0  0.51790  0.91753  0.76127  1.0000
  H   H1723     1.0  0.48634  0.80633  0.75039  1.0000
  H   H1724     1.0  0.44022  0.97394  0.75032  1.0000
  S   S383      1.0  0.65703  0.54692  0.84039  1.0000
  C   C1443     1.0  0.63532  0.49911  0.80377  1.0000
  H   H1725     1.0  0.51156  0.93918  0.74372  1.0000
  C   C1444     1.0  0.54209  0.96606  0.78225  1.0000
  C   C1445     1.0  0.54224  0.94246  0.75630  1.0000
  C   C1446     1.0  0.32928  0.53981  0.75847  1.0000
  H   H1726     1.0  0.37791  0.59617  0.75015  1.0000
  H   H1727     1.0  0.42467  0.49693  0.75027  1.0000
  H   H1728     1.0  0.48249  0.65905  0.73733  1.0000
  H   H1729     1.0  0.33904  0.53637  0.76853  1.0000
  N   N96       1.0  0.54258  0.92957  0.74322  1.0000
  C   C1447     1.0  0.54735  0.96115  0.74932  1.0000
  H   H1730     1.0  0.52249  0.91585  0.73653  1.0000
  C   C1448     1.0  0.55669  0.91076  0.74770  1.0000
  H   H1731     1.0  0.55104  0.98696  0.75667  1.0000
  H   H1732     1.0  0.57136  0.91325  0.74729  1.0000
  H   H1733     1.0  0.65901  0.67840  0.77225  1.0000
  H   H1734     1.0  0.50456  0.77552  0.98217  1.0000
  C   C1449     1.0  0.46151  0.84172  0.73382  1.0000
  C   C1450     1.0  0.55369  0.68429  0.73308  1.0000
  H   H1735     1.0  0.37951  0.65128  0.73296  1.0000
  C   C1451     1.0  0.70222  0.45518  0.22198  1.0000
  N   N97       1.0  0.81755  0.40768  0.19361  1.0000
  H   H1736     1.0  0.73691  0.41565  0.15677  1.0000
  C   C1452     1.0  0.81141  0.37308  0.99635  1.0000
  C   C1453     1.0  0.72342  0.47267  0.16610  1.0000
  C   C1454     1.0  0.81243  0.41337  0.21288  1.0000
  H   H1737     1.0  0.78295  0.39809  0.21901  1.0000
  C   C1455     1.0  0.90299  0.45064  0.06735  1.0000
  C   C1456     1.0  0.71089  0.30282  0.23011  1.0000
  H   H1738     1.0  0.90553  0.43401  0.16638  1.0000
  C   C1457     1.0  0.69097  0.45527  0.17998  1.0000
  H   H1739     1.0  0.74371  0.41393  0.17946  1.0000
  H   H1740     1.0  0.81240  0.40024  0.22502  1.0000
  H   H1741     1.0  0.76513  0.43960  0.13076  1.0000
  H   H1742     1.0  0.83766  0.46532  0.18254  1.0000
  Fe  Fe192     1.0  0.68287  0.35110  0.20766  1.0000
  S   S384      1.0  0.71193  0.34631  0.18707  1.0000
  H   H1743     1.0  0.82248  0.42288  0.16344  1.0000
  Fe  Fe193     1.0  0.69118  0.38561  0.21933  1.0000
  S   S385      1.0  0.72062  0.38376  0.19965  1.0000
  S   S386      1.0  0.93173  0.41434  0.22911  1.0000
  Fe  Fe194     1.0  0.70573  0.37914  0.17813  1.0000
  S   S387      1.0  0.71203  0.39564  0.14725  1.0000
  Fe  Fe195     1.0  0.72416  0.35136  0.21051  1.0000
  S   S388      1.0  0.67561  0.38380  0.19693  1.0000
  H   H1744     1.0  0.75038  0.46339  0.13276  1.0000
  H   H1745     1.0  0.71618  0.45923  0.21538  1.0000
  Fe  Fe196     1.0  0.84039  0.42552  0.07097  1.0000
  S   S389      1.0  0.84765  0.39965  0.09498  1.0000
  S   S390      1.0  0.85725  0.42344  0.04022  1.0000
  Fe  Fe197     1.0  0.80852  0.44713  0.09857  1.0000
  S   S391      1.0  0.81227  0.42281  0.12446  1.0000
  C   C1458     1.0  0.74711  0.41958  0.16346  1.0000
  Fe  Fe198     1.0  0.84438  0.42160  0.11324  1.0000
  S   S392      1.0  0.86032  0.41536  0.13803  1.0000
  Fe  Fe199     1.0  0.81522  0.40303  0.10440  1.0000
  S   S393      1.0  0.80306  0.37589  0.11495  1.0000
  S   S394      1.0  0.84054  0.44743  0.08832  1.0000
  S   S395      1.0  0.80795  0.42737  0.07944  1.0000
  H   H1746     1.0  0.83771  0.38084  0.20247  1.0000
  C   C1459     1.0  0.81454  0.43114  0.00981  1.0000
  C   C1460     1.0  0.82426  0.43066  0.02449  1.0000
  C   C1461     1.0  0.84466  0.42479  0.02170  1.0000
  H   H1747     1.0  0.70976  0.42882  0.17396  1.0000
  H   H1748     1.0  0.79875  0.43571  0.01216  1.0000
  H   H1749     1.0  0.81594  0.43513  0.03783  1.0000
  C   C1462     1.0  0.73704  0.38939  0.13712  1.0000
  C   C1463     1.0  0.74863  0.37192  0.14526  1.0000
  C   C1464     1.0  0.76885  0.36761  0.13799  1.0000
  C   C1465     1.0  0.77765  0.38119  0.12318  1.0000
  C   C1466     1.0  0.76616  0.39887  0.11525  1.0000
  C   C1467     1.0  0.74578  0.40275  0.12189  1.0000
  H   H1750     1.0  0.74203  0.36164  0.15710  1.0000
  H   H1751     1.0  0.77773  0.35395  0.14419  1.0000
  H   H1752     1.0  0.77290  0.40949  0.10391  1.0000
  H   H1753     1.0  0.73685  0.41637  0.11571  1.0000
  C   C1468     1.0  0.83754  0.39505  0.19177  1.0000
  H   H1754     1.0  0.81464  0.46169  0.12706  1.0000
  C   C1469     1.0  0.72626  0.45236  0.16646  1.0000
  H   H1755     1.0  0.88505  0.48153  0.16641  1.0000
  H   H1756     1.0  0.81442  0.46801  0.15903  1.0000
  H   H1757     1.0  0.79765  0.37405  0.15759  1.0000
  C   C1470     1.0  0.73748  0.27480  0.23092  1.0000
  C   C1471     1.0  0.89180  0.43983  0.06312  1.0000
  H   H1758     1.0  0.67838  0.44847  0.18564  1.0000
  N   N98       1.0  0.74584  0.44106  0.15882  1.0000
  S   S396      1.0  0.78524  0.47386  0.10350  1.0000
  H   H1759     1.0  0.90628  0.42238  0.20165  1.0000
  C   C1472     1.0  0.89406  0.45589  0.12205  1.0000
  C   C1473     1.0  0.88020  0.44534  0.12224  1.0000
  C   C1474     1.0  0.87565  0.43053  0.13826  1.0000
  C   C1475     1.0  0.88443  0.42684  0.15440  1.0000
  C   C1476     1.0  0.90785  0.41045  0.08270  1.0000
  H   H1760     1.0  0.87353  0.44824  0.10973  1.0000
  C   C1477     1.0  0.80705  0.39008  0.17355  1.0000
  H   H1761     1.0  0.94221  0.38396  0.08798  1.0000
  H   H1762     1.0  0.88103  0.41530  0.16681  1.0000
  C   C1478     1.0  0.84550  0.42010  0.98918  1.0000
  C   C1479     1.0  0.90008  0.41351  0.21506  1.0000
  H   H1763     1.0  0.87448  0.41370  0.20492  1.0000
  H   H1764     1.0  0.76341  0.45965  0.16206  1.0000
  C   C1480     1.0  0.70504  0.48370  0.17298  1.0000
  C   C1481     1.0  0.67441  0.31001  0.18758  1.0000
  C   C1482     1.0  0.67333  0.29577  0.17798  1.0000
  H   H1765     1.0  0.68462  0.29236  0.16556  1.0000
  H   H1766     1.0  0.76141  0.38041  0.21340  1.0000
  C   C1483     1.0  0.79449  0.37968  0.17082  1.0000
  H   H1767     1.0  0.68640  0.31758  0.18249  1.0000
  H   H1768     1.0  0.95384  0.43092  0.08917  1.0000
  C   C1484     1.0  0.85524  0.41958  0.00394  1.0000
  H   H1769     1.0  0.95598  0.40229  0.07465  1.0000
  H   H1770     1.0  0.95603  0.41547  0.11247  1.0000
  C   C1485     1.0  0.94897  0.39550  0.08954  1.0000
  H   H1771     1.0  0.90906  0.39488  0.08830  1.0000
  H   H1772     1.0  0.79794  0.42364  0.21501  1.0000
  C   C1486     1.0  0.70933  0.44402  0.17339  1.0000
  C   C1487     1.0  0.91007  0.40685  0.23048  1.0000
  C   C1488     1.0  0.89423  0.41979  0.07078  1.0000
  H   H1773     1.0  0.82871  0.43383  0.17966  1.0000
  S   S397      1.0  0.91419  0.46103  0.19181  1.0000
  H   H1774     1.0  0.67780  0.24055  0.21186  1.0000
  H   H1775     1.0  0.67473  0.48350  0.18565  1.0000
  H   H1776     1.0  0.89785  0.46706  0.10943  1.0000
  C   C1489     1.0  0.76117  0.44444  0.16710  1.0000
  C   C1490     1.0  0.80368  0.39716  0.19092  1.0000
  C   C1491     1.0  0.78667  0.39357  0.20520  1.0000
  C   C1492     1.0  0.77410  0.38333  0.20221  1.0000
  C   C1493     1.0  0.68886  0.47501  0.17992  1.0000
  C   C1494     1.0  0.78606  0.48754  0.16112  1.0000
  H   H1777     1.0  0.73535  0.48027  0.16037  1.0000
  H   H1778     1.0  0.87103  0.41507  0.00160  1.0000
  Fe  Fe200     1.0  0.97009  0.46067  0.17860  1.0000
  C   C1495     1.0  0.80215  0.47512  0.15199  1.0000
  C   C1496     1.0  0.70655  0.24692  0.20522  1.0000
  C   C1497     1.0  0.82507  0.42586  0.99211  1.0000
  H   H1779     1.0  0.74277  0.28483  0.19251  1.0000
  H   H1780     1.0  0.86327  0.45822  0.18339  1.0000
  S   S398      1.0  0.95818  0.43630  0.17453  1.0000
  C   C1498     1.0  0.90342  0.45168  0.13783  1.0000
  H   H1781     1.0  0.82332  0.42094  0.21453  1.0000
  C   C1499     1.0  0.78632  0.48040  0.12480  1.0000
  C   C1500     1.0  0.75041  0.44745  0.13733  1.0000
  S   S399      1.0  0.95255  0.46105  0.20890  1.0000
  H   H1782     1.0  0.88546  0.41149  0.06738  1.0000
  H   H1783     1.0  0.90090  0.46629  0.06148  1.0000
  C   C1501     1.0  0.85238  0.46803  0.17474  1.0000
  C   C1502     1.0  0.77810  0.37620  0.18518  1.0000
  H   H1784     1.0  0.76192  0.41140  0.15754  1.0000
  C   C1503     1.0  0.80224  0.47146  0.13392  1.0000
  H   H1785     1.0  0.75733  0.44141  0.18331  1.0000
  S   S400      1.0  0.92220  0.46376  0.13610  1.0000
  H   H1786     1.0  0.80334  0.43600  0.17952  1.0000
  H   H1787     1.0  0.81966  0.39223  0.16202  1.0000
  H   H1788     1.0  0.76858  0.36777  0.18321  1.0000
  H   H1789     1.0  0.91727  0.38942  0.11755  1.0000
  H   H1790     1.0  0.84824  0.40210  0.19459  1.0000
  C   C1504     1.0  0.73171  0.29568  0.20021  1.0000
  Fe  Fe201     1.0  0.93442  0.46027  0.16288  1.0000
  H   H1791     1.0  0.91346  0.41140  0.12617  1.0000
  C   C1505     1.0  0.89830  0.43740  0.15419  1.0000
  H   H1792     1.0  0.93531  0.43511  0.11062  1.0000
  H   H1793     1.0  0.84356  0.39180  0.17695  1.0000
  H   H1794     1.0  0.88115  0.44696  0.05391  1.0000
  H   H1795     1.0  0.71293  0.23590  0.19637  1.0000
  H   H1796     1.0  0.93531  0.39303  0.12838  1.0000
  S   S401      1.0  0.75295  0.33462  0.21856  1.0000
  C   C1506     1.0  0.81798  0.42587  0.17842  1.0000
  Fe  Fe202     1.0  0.92967  0.48295  0.19432  1.0000
  Fe  Fe203     1.0  0.93863  0.43887  0.20384  1.0000
  N   N99       1.0  0.81037  0.37505  0.05568  1.0000
  C   C1507     1.0  0.82862  0.37853  0.05879  1.0000
  C   C1508     1.0  0.79409  0.39120  0.06148  1.0000
  C   C1509     1.0  0.80685  0.35627  0.06887  1.0000
  C   C1510     1.0  0.81116  0.37420  0.03529  1.0000
  C   C1511     1.0  0.82735  0.37780  0.01990  1.0000
  C   C1512     1.0  0.79513  0.37007  0.03025  1.0000
  C   C1513     1.0  0.82739  0.37712  0.00078  1.0000
  C   C1514     1.0  0.79532  0.36951  0.01106  1.0000
  C   C1515     1.0  0.70022  0.43573  0.22414  1.0000
  H   H1797     1.0  0.83157  0.39304  0.05036  1.0000
  H   H1798     1.0  0.82767  0.37863  0.07435  1.0000
  H   H1799     1.0  0.84155  0.36691  0.05469  1.0000
  H   H1800     1.0  0.79604  0.40552  0.05164  1.0000
  H   H1801     1.0  0.79322  0.39254  0.07664  1.0000
  H   H1802     1.0  0.77957  0.38897  0.06108  1.0000
  H   H1803     1.0  0.81814  0.34362  0.06420  1.0000
  H   H1804     1.0  0.80730  0.35599  0.08419  1.0000
  H   H1805     1.0  0.79223  0.35364  0.06947  1.0000
  H   H1806     1.0  0.83999  0.38161  0.02211  1.0000
  H   H1807     1.0  0.78218  0.36750  0.04109  1.0000
  C   C1516     1.0  0.91680  0.44143  0.07914  1.0000
  H   H1808     1.0  0.77574  0.43503  0.16251  1.0000
  C   C1517     1.0  0.88214  0.40846  0.21688  1.0000
  N   N100      1.0  0.93443  0.41052  0.09935  1.0000
  H   H1809     1.0  0.96079  0.38783  0.09786  1.0000
  C   C1518     1.0  0.94535  0.42361  0.10296  1.0000
  C   C1519     1.0  0.92474  0.40061  0.11862  1.0000
  C   C1520     1.0  0.91965  0.42094  0.08720  1.0000
  H   H1810     1.0  0.92486  0.45074  0.08187  1.0000
  H   H1811     1.0  0.66875  0.34149  0.14429  1.0000
  H   H1812     1.0  0.73942  0.44474  0.13055  1.0000
  H   H1813     1.0  0.73328  0.25617  0.20045  1.0000
  H   H1814     1.0  0.71274  0.42469  0.21953  1.0000
  H   H1815     1.0  0.73972  0.30673  0.20080  1.0000
  C   C1521     1.0  0.70981  0.27381  0.21837  1.0000
  H   H1816     1.0  0.78286  0.36652  0.00748  1.0000
  H   H1817     1.0  0.85549  0.46329  0.16059  1.0000
  H   H1818     1.0  0.83967  0.38037  0.98914  1.0000
  S   S402      1.0  0.94794  0.48435  0.16430  1.0000
  C   C1522     1.0  0.68590  0.46938  0.22816  1.0000
  C   C1523     1.0  0.68965  0.27571  0.22748  1.0000
  H   H1819     1.0  0.72069  0.30320  0.19092  1.0000
  C   C1524     1.0  0.71800  0.25875  0.20750  1.0000
  H   H1820     1.0  0.74740  0.26307  0.22353  1.0000
  H   H1821     1.0  0.72043  0.31245  0.23067  1.0000
  H   H1822     1.0  0.69906  0.31233  0.22252  1.0000
  H   H1823     1.0  0.87510  0.48733  0.14508  1.0000
  C   C1525     1.0  0.67846  0.26355  0.22537  1.0000
  H   H1824     1.0  0.78858  0.33495  0.22999  1.0000
  N   N101      1.0  0.72211  0.28662  0.21995  1.0000
  C   C1526     1.0  0.68679  0.24940  0.21404  1.0000
  H   H1825     1.0  0.88988  0.47421  0.23196  1.0000
  H   H1826     1.0  0.82018  0.48828  0.20066  1.0000
  S   S403      1.0  0.65997  0.33261  0.21592  1.0000
  H   H1827     1.0  0.74686  0.28408  0.23258  1.0000
  S   S404      1.0  0.69563  0.35337  0.23195  1.0000
  H   H1828     1.0  0.66300  0.26554  0.23206  1.0000
  H   H1829     1.0  0.72646  0.35410  0.24809  1.0000
  C   C1527     1.0  0.84083  0.44195  0.25742  1.0000
  C   C1528     1.0  0.82976  0.98891  0.44538  1.0000
  H   H1830     1.0  0.81055  0.45572  0.26590  1.0000
  H   H1831     1.0  0.67188  0.20530  0.42507  1.0000
  H   H1832     1.0  0.89637  0.42581  0.26551  1.0000
  S   S405      1.0  0.85113  0.39151  0.23640  1.0000
  N   N102      1.0  0.88601  0.45732  0.26130  1.0000
  H   H1833     1.0  0.83751  0.43005  0.25312  1.0000
  S   S406      1.0  0.84877  0.47088  0.34098  1.0000
  C   C1529     1.0  0.80538  0.08070  0.45791  1.0000
  C   C1530     1.0  0.72699  0.43380  0.28019  1.0000
  Fe  Fe204     1.0  0.82962  0.35774  0.30793  1.0000
  S   S407      1.0  0.79883  0.37417  0.31681  1.0000
  S   S408      1.0  0.84619  0.33282  0.32775  1.0000
  Fe  Fe205     1.0  0.83472  0.38255  0.26704  1.0000
  S   S409      1.0  0.80433  0.40068  0.27259  1.0000
  H   H1834     1.0  0.85158  0.48418  0.27402  1.0000
  Fe  Fe206     1.0  0.81052  0.40113  0.30112  1.0000
  S   S410      1.0  0.79879  0.43021  0.31035  1.0000
  Fe  Fe207     1.0  0.79524  0.37238  0.28749  1.0000
  S   S411      1.0  0.76583  0.36905  0.28525  1.0000
  S   S412      1.0  0.84176  0.38514  0.29458  1.0000
  S   S413      1.0  0.82516  0.35384  0.27960  1.0000
  Fe  Fe208     1.0  0.71040  0.15499  0.41477  1.0000
  S   S414      1.0  0.74114  0.13774  0.41520  1.0000
  S   S415      1.0  0.69145  0.15925  0.39283  1.0000
  Fe  Fe209     1.0  0.71008  0.17535  0.44697  1.0000
  S   S416      1.0  0.74071  0.16022  0.45019  1.0000
  Fe  Fe210     1.0  0.74772  0.16570  0.41759  1.0000
  S   S417      1.0  0.77473  0.17558  0.39880  1.0000
  Fe  Fe211     1.0  0.73183  0.13353  0.44786  1.0000
  C   C1531     1.0  0.71905  0.45429  0.27856  1.0000
  S   S418      1.0  0.71787  0.18339  0.41445  1.0000
  S   S419      1.0  0.70037  0.14825  0.44735  1.0000
  Fe  Fe212     1.0  0.81978  0.26448  0.42879  1.0000
  S   S420      1.0  0.84841  0.24388  0.42083  1.0000
  S   S421      1.0  0.80319  0.28803  0.40805  1.0000
  H   H1835     1.0  0.71749  0.40214  0.25794  1.0000
  N   N103      1.0  0.79944  0.14197  0.47714  1.0000
  Fe  Fe213     1.0  0.85541  0.24848  0.44756  1.0000
  S   S422      1.0  0.88401  0.25527  0.44740  1.0000
  Fe  Fe214     1.0  0.83370  0.22059  0.44170  1.0000
  S   S423      1.0  0.83845  0.19056  0.43559  1.0000
  S   S424      1.0  0.82798  0.27114  0.45388  1.0000
  S   S425      1.0  0.80442  0.24064  0.44755  1.0000
  C   C1532     1.0  0.90290  0.23584  0.45483  1.0000
  C   C1533     1.0  0.71097  0.12139  0.33070  1.0000
  C   C1534     1.0  0.93780  0.22333  0.45330  1.0000
  C   C1535     1.0  0.92226  0.23772  0.44692  1.0000
  H   H1836     1.0  0.95270  0.22505  0.44714  1.0000
  H   H1837     1.0  0.92526  0.25047  0.43588  1.0000
  H   H1838     1.0  0.67323  0.12248  0.33300  1.0000
  H   H1839     1.0  0.70874  0.40944  0.30938  1.0000
  H   H1840     1.0  0.85474  0.43121  0.33644  1.0000
  C   C1536     1.0  0.71122  0.14115  0.33009  1.0000
  H   H1841     1.0  0.87153  0.43112  0.25038  1.0000
  C   C1537     1.0  0.79165  0.17854  0.41081  1.0000
  C   C1538     1.0  0.81153  0.17078  0.40459  1.0000
  C   C1539     1.0  0.82567  0.17441  0.41250  1.0000
  C   C1540     1.0  0.82012  0.18640  0.42619  1.0000
  C   C1541     1.0  0.80021  0.19427  0.43246  1.0000
  C   C1542     1.0  0.78593  0.19011  0.42497  1.0000
  H   H1842     1.0  0.81603  0.16199  0.39353  1.0000
  H   H1843     1.0  0.84101  0.16819  0.40768  1.0000
  H   H1844     1.0  0.79579  0.20332  0.44326  1.0000
  H   H1845     1.0  0.77058  0.19631  0.42969  1.0000
  C   C1543     1.0  0.83394  0.32012  0.34976  1.0000
  C   C1544     1.0  0.81359  0.32505  0.35583  1.0000
  C   C1545     1.0  0.80437  0.31502  0.37370  1.0000
  C   C1546     1.0  0.81537  0.29994  0.38557  1.0000
  C   C1547     1.0  0.83567  0.29472  0.37934  1.0000
  C   C1548     1.0  0.84491  0.30483  0.36150  1.0000
  H   H1846     1.0  0.80492  0.33651  0.34676  1.0000
  H   H1847     1.0  0.78863  0.31896  0.37835  1.0000
  H   H1848     1.0  0.84429  0.28313  0.38839  1.0000
  H   H1849     1.0  0.86065  0.30089  0.35686  1.0000
  H   H1850     1.0  0.73084  0.26759  0.24579  1.0000
  H   H1851     1.0  0.82238  0.02254  0.41745  1.0000
  C   C1549     1.0  0.77927  0.34995  0.25414  1.0000
  C   C1550     1.0  0.76320  0.35896  0.26666  1.0000
  C   C1551     1.0  0.74422  0.36017  0.26446  1.0000
  C   C1552     1.0  0.84941  0.47215  0.26916  1.0000
  H   H1852     1.0  0.81612  0.48674  0.32153  1.0000
  H   H1853     1.0  0.79400  0.34892  0.25579  1.0000
  C   C1553     1.0  0.74918  0.45977  0.28293  1.0000
  C   C1554     1.0  0.89648  0.46002  0.24068  1.0000
  H   H1854     1.0  0.70445  0.46099  0.27599  1.0000
  C   C1555     1.0  0.82040  0.47112  0.32204  1.0000
  C   C1556     1.0  0.80903  0.46182  0.31582  1.0000
  C   C1557     1.0  0.81440  0.44157  0.31651  1.0000
  C   C1558     1.0  0.83131  0.43066  0.32324  1.0000
  C   C1559     1.0  0.84209  0.43978  0.33049  1.0000
  H   H1855     1.0  0.74524  0.03370  0.47062  1.0000
  H   H1856     1.0  0.79602  0.47034  0.31045  1.0000
  H   H1857     1.0  0.83570  0.41517  0.32335  1.0000
  C   C1560     1.0  0.77362  0.08243  0.47991  1.0000
  H   H1858     1.0  0.67611  0.18023  0.42383  1.0000
  H   H1859     1.0  0.76705  0.48753  0.33758  1.0000
  H   H1860     1.0  0.74074  0.40223  0.26229  1.0000
  C   C1561     1.0  0.76093  0.02876  0.46614  1.0000
  N   N104      1.0  0.71601  0.41990  0.27838  1.0000
  C   C1562     1.0  0.88413  0.38992  0.24955  1.0000
  H   H1861     1.0  0.91223  0.45990  0.23930  1.0000
  C   C1563     1.0  0.80684  0.17281  0.48091  1.0000
  C   C1564     1.0  0.68191  0.10698  0.38980  1.0000
  C   C1565     1.0  0.68863  0.12102  0.39530  1.0000
  C   C1566     1.0  0.68281  0.14096  0.38739  1.0000
  C   C1567     1.0  0.68161  0.12696  0.31806  1.0000
  C   C1568     1.0  0.83077  0.02200  0.42856  1.0000
  H   H1862     1.0  0.68679  0.09155  0.39560  1.0000
  H   H1863     1.0  0.69861  0.11640  0.40526  1.0000
  C   C1569     1.0  0.66917  0.11280  0.37662  1.0000
  H   H1864     1.0  0.90121  0.13129  0.46551  1.0000
  C   C1570     1.0  0.83299  0.01200  0.46241  1.0000
  H   H1865     1.0  0.68759  0.41829  0.27502  1.0000
  H   H1866     1.0  0.82233  0.16648  0.47818  1.0000
  C   C1571     1.0  0.74659  0.42704  0.28296  1.0000
  H   H1867     1.0  0.75769  0.46965  0.28399  1.0000
  H   H1868     1.0  0.70714  0.11958  0.28523  1.0000
  C   C1572     1.0  0.79671  0.09508  0.44380  1.0000
  C   C1573     1.0  0.79524  0.48302  0.37022  1.0000
  H   H1869     1.0  0.72386  0.48257  0.27863  1.0000
  H   H1870     1.0  0.73017  0.39470  0.29740  1.0000
  C   C1574     1.0  0.82997  0.47163  0.27006  1.0000
  Fe  Fe215     1.0  0.81523  0.24553  0.47188  1.0000
  C   C1575     1.0  0.79388  0.07455  0.47612  1.0000
  C   C1576     1.0  0.66605  0.44476  0.23923  1.0000
  H   H1871     1.0  0.88137  0.47153  0.28529  1.0000
  C   C1577     1.0  0.73006  0.46697  0.28001  1.0000
  S   S426      1.0  0.73962  0.10619  0.47016  1.0000
  C   C1578     1.0  0.78528  0.47758  0.35895  1.0000
  H   H1872     1.0  0.82498  0.14809  0.45520  1.0000
  H   H1873     1.0  0.80170  0.04729  0.44769  1.0000
  H   H1874     1.0  0.84656  0.01633  0.42277  1.0000
  H   H1875     1.0  0.94157  0.07400  0.47964  1.0000
  H   H1876     1.0  0.80008  0.48421  0.40635  1.0000
  H   H1877     1.0  0.71895  0.09152  0.34771  1.0000
  C   C1579     1.0  0.66601  0.19462  0.42070  1.0000
  H   H1878     1.0  0.66720  0.19853  0.40459  1.0000
  S   S427      1.0  0.84340  0.22338  0.46766  1.0000
  C   C1580     1.0  0.91477  0.20505  0.47599  1.0000
  C   C1581     1.0  0.76496  0.09668  0.46563  1.0000
  C   C1582     1.0  0.71307  0.12328  0.29631  1.0000
  S   S428      1.0  0.95424  0.19064  0.47682  1.0000
  H   H1879     1.0  0.72894  0.11632  0.29455  1.0000
  C   C1583     1.0  0.86031  0.44256  0.25612  1.0000
  H   H1880     1.0  0.77233  0.43435  0.28649  1.0000
  C   C1584     1.0  0.71900  0.10685  0.34563  1.0000
  C   C1585     1.0  0.72689  0.11191  0.35892  1.0000
  C   C1586     1.0  0.80197  0.01598  0.45379  1.0000
  H   H1881     1.0  0.71832  0.08666  0.31756  1.0000
  S   S429      1.0  0.87269  0.02936  0.47048  1.0000
  C   C1587     1.0  0.74120  0.35284  0.24964  1.0000
  N   N105      1.0  0.70242  0.11668  0.31638  1.0000
  H   H1882     1.0  0.83419  0.40329  0.36252  1.0000
  S   S430      1.0  0.91302  0.05123  0.48254  1.0000
  H   H1883     1.0  0.87812  0.38066  0.26282  1.0000
  C   C1588     1.0  0.75743  0.43987  0.28433  1.0000
  H   H1884     1.0  0.90623  0.15779  0.47729  1.0000
  H   H1885     1.0  0.86690  0.17816  0.46666  1.0000
  S   S431      1.0  0.68938  0.19768  0.46327  1.0000
  H   H1886     1.0  0.82939  0.48348  0.38024  1.0000
  H   H1887     1.0  0.75379  0.41175  0.28395  1.0000
  H   H1888     1.0  0.88421  0.21781  0.47547  1.0000
  H   H1889     1.0  0.88297  0.48787  0.26144  1.0000
  H   H1890     1.0  0.70509  0.15303  0.31939  1.0000
  C   C1589     1.0  0.79308  0.03614  0.45287  1.0000
  H   H1891     1.0  0.69472  0.44087  0.26325  1.0000
  H   H1892     1.0  0.88519  0.16295  0.45248  1.0000
  C   C1590     1.0  0.77661  0.10321  0.44772  1.0000
  H   H1893     1.0  0.69443  0.08971  0.33371  1.0000
  C   C1591     1.0  0.88866  0.47297  0.26962  1.0000
  H   H1894     1.0  0.84921  0.00725  0.45857  1.0000
  N   N106      1.0  0.82346  0.00970  0.44759  1.0000
  H   H1895     1.0  0.70419  0.29725  0.24551  1.0000
  H   H1896     1.0  0.88728  0.43517  0.28754  1.0000
  H   H1897     1.0  0.67957  0.14317  0.31482  1.0000
  C   C1592     1.0  0.75709  0.34354  0.23728  1.0000
  C   C1593     1.0  0.71892  0.14604  0.34360  1.0000
  C   C1594     1.0  0.88853  0.13006  0.47797  1.0000
  N   N107      1.0  0.80290  0.24236  0.38089  1.0000
  C   C1595     1.0  0.80275  0.22402  0.37536  1.0000
  C   C1596     1.0  0.82140  0.23926  0.38775  1.0000
  C   C1597     1.0  0.78647  0.24583  0.39761  1.0000
  C   C1598     1.0  0.80062  0.25896  0.36406  1.0000
  C   C1599     1.0  0.81543  0.26984  0.35452  1.0000
  C   C1600     1.0  0.78325  0.26441  0.35644  1.0000
  C   C1601     1.0  0.81277  0.28533  0.33858  1.0000
  C   C1602     1.0  0.78068  0.28005  0.34060  1.0000
  C   C1603     1.0  0.79539  0.29054  0.33174  1.0000
  H   H1898     1.0  0.80565  0.21105  0.38722  1.0000
  H   H1899     1.0  0.78840  0.22414  0.37230  1.0000
  H   H1900     1.0  0.81420  0.22144  0.36217  1.0000
  H   H1901     1.0  0.83451  0.23531  0.37639  1.0000
  H   H1902     1.0  0.82248  0.22703  0.40073  1.0000
  H   H1903     1.0  0.82233  0.25261  0.39215  1.0000
  H   H1904     1.0  0.77211  0.24581  0.39472  1.0000
  H   H1905     1.0  0.78844  0.23428  0.41093  1.0000
  H   H1906     1.0  0.78528  0.26020  0.40132  1.0000
  H   H1907     1.0  0.82914  0.26690  0.35919  1.0000
  H   H1908     1.0  0.77150  0.25660  0.36273  1.0000
  H   H1909     1.0  0.82418  0.29358  0.33166  1.0000
  H   H1910     1.0  0.76720  0.28412  0.33518  1.0000
  H   H1911     1.0  0.79334  0.30277  0.31956  1.0000
  H   H1912     1.0  0.69642  0.09242  0.30818  1.0000
  H   H1913     1.0  0.92796  0.26311  0.47569  1.0000
  C   C1604     1.0  0.82567  0.45642  0.26449  1.0000
  C   C1605     1.0  0.89912  0.21929  0.46918  1.0000
  C   C1606     1.0  0.90223  0.39476  0.24760  1.0000
  C   C1607     1.0  0.66284  0.13279  0.36933  1.0000
  C   C1608     1.0  0.83649  0.45998  0.33009  1.0000
  C   C1609     1.0  0.81190  0.14181  0.45743  1.0000
  H   H1914     1.0  0.78847  0.11708  0.47679  1.0000
  C   C1610     1.0  0.72680  0.13145  0.35794  1.0000
  S   S432      1.0  0.67975  0.40593  0.24044  1.0000
  C   C1611     1.0  0.93414  0.20717  0.46810  1.0000
  H   H1915     1.0  0.82973  0.02753  0.46395  1.0000
  H   H1916     1.0  0.73173  0.36680  0.27426  1.0000
  C   C1612     1.0  0.72602  0.41154  0.26084  1.0000
  C   C1613     1.0  0.87259  0.16265  0.46511  1.0000
  H   H1917     1.0  0.82997  0.03731  0.42961  1.0000
  C   C1614     1.0  0.86523  0.45745  0.26230  1.0000
  H   H1918     1.0  0.81813  0.48292  0.27551  1.0000
  C   C1615     1.0  0.87403  0.39685  0.23421  1.0000
  H   H1919     1.0  0.68695  0.43534  0.28942  1.0000
  C   C1616     1.0  0.76922  0.00881  0.46783  1.0000
  H   H1920     1.0  0.91089  0.43800  0.27248  1.0000
  H   H1921     1.0  0.83699  0.30722  0.42202  1.0000
  C   C1617     1.0  0.66981  0.14676  0.37451  1.0000
  S   S433      1.0  0.83029  0.06987  0.45177  1.0000
  C   C1618     1.0  0.69543  0.42907  0.27650  1.0000
  H   H1922     1.0  0.80352  0.15058  0.44599  1.0000
  C   C1619     1.0  0.89547  0.43828  0.27221  1.0000
  H   H1923     1.0  0.67459  0.12348  0.30776  1.0000
  H   H1924     1.0  0.71170  0.13944  0.29242  1.0000
  H   H1925     1.0  0.91002  0.38935  0.25948  1.0000
  H   H1926     1.0  0.80554  0.09987  0.42969  1.0000
  H   H1927     1.0  0.77014  0.11429  0.43668  1.0000
  C   C1620     1.0  0.77619  0.34199  0.23961  1.0000
  H   H1928     1.0  0.68195  0.28683  0.23587  1.0000
  C   C1621     1.0  0.70303  0.09541  0.31914  1.0000
  H   H1929     1.0  0.80678  0.33263  0.41978  1.0000
  H   H1930     1.0  0.70680  0.39327  0.29501  1.0000
  C   C1622     1.0  0.71539  0.40369  0.29580  1.0000
  N   N108      1.0  0.83729  0.37229  0.36478  1.0000
  C   C1623     1.0  0.82110  0.37529  0.35447  1.0000
  C   C1624     1.0  0.83419  0.38943  0.37372  1.0000
  C   C1625     1.0  0.85575  0.37179  0.34983  1.0000
  C   C1626     1.0  0.83751  0.35426  0.38027  1.0000
  C   C1627     1.0  0.85466  0.33926  0.38205  1.0000
  C   C1628     1.0  0.82034  0.35158  0.39459  1.0000
  C   C1629     1.0  0.85444  0.32267  0.39716  1.0000
  C   C1630     1.0  0.82022  0.33478  0.40942  1.0000
  C   C1631     1.0  0.83725  0.32040  0.41073  1.0000
  H   H1931     1.0  0.82119  0.38807  0.34200  1.0000
  H   H1932     1.0  0.82232  0.36220  0.34855  1.0000
  H   H1933     1.0  0.80637  0.37811  0.36395  1.0000
  H   H1934     1.0  0.81992  0.39150  0.38417  1.0000
  H   H1935     1.0  0.84591  0.38764  0.38185  1.0000
  H   H1936     1.0  0.85492  0.38506  0.33791  1.0000
  H   H1937     1.0  0.86846  0.37118  0.35614  1.0000
  H   H1938     1.0  0.85901  0.35898  0.34276  1.0000
  H   H1939     1.0  0.86837  0.33973  0.37178  1.0000
  H   H1940     1.0  0.80678  0.36235  0.39437  1.0000
  H   H1941     1.0  0.86753  0.31118  0.39806  1.0000
  H   H1942     1.0  0.73251  0.10069  0.37048  1.0000
  H   H1943     1.0  0.72814  0.42338  0.24771  1.0000
  Fe  Fe216     1.0  0.84539  0.05241  0.47626  1.0000
  H   H1944     1.0  0.71832  0.16126  0.34335  1.0000
  H   H1945     1.0  0.87854  0.12317  0.47380  1.0000
  H   H1946     1.0  0.86106  0.15794  0.46087  1.0000
  H   H1947     1.0  0.81727  0.12666  0.45454  1.0000
  H   H1948     1.0  0.90440  0.47229  0.26892  1.0000
  H   H1949     1.0  0.75991  0.99820  0.47373  1.0000
  H   H1950     1.0  0.76641  0.05794  0.45750  1.0000
  C   C1632     1.0  0.77285  0.04240  0.45872  1.0000
  H   H1951     1.0  0.73224  0.13539  0.36872  1.0000
  C   C1633     1.0  0.78944  0.00240  0.46186  1.0000
  H   H1952     1.0  0.78667  0.46220  0.35914  1.0000
  H   H1953     1.0  0.82798  0.00308  0.47701  1.0000
  C   C1634     1.0  0.66783  0.46414  0.23642  1.0000
  H   H1954     1.0  0.66507  0.16217  0.36853  1.0000
  H   H1955     1.0  0.80405  0.47138  0.37901  1.0000
  C   C1635     1.0  0.79293  0.16233  0.48042  1.0000
  C   C1636     1.0  0.78305  0.13255  0.47857  1.0000
  H   H1956     1.0  0.77462  0.14006  0.46691  1.0000
  H   H1957     1.0  0.66011  0.15422  0.43442  1.0000
  S   S434      1.0  0.66196  0.09471  0.36913  1.0000
  H   H1958     1.0  0.76127  0.16574  0.48289  1.0000
  H   H1959     1.0  0.89619  0.44811  0.23372  1.0000
  C   C1637     1.0  0.68214  0.43049  0.23315  1.0000
  Fe  Fe217     1.0  0.85742  0.38667  0.68407  1.0000
  S   S435      1.0  0.88709  0.37346  0.66847  1.0000
  S   S436      1.0  0.83474  0.40783  0.66849  1.0000
  Fe  Fe218     1.0  0.88053  0.34478  0.68682  1.0000
  S   S437      1.0  0.88418  0.31723  0.67570  1.0000
  H   H1960     1.0  0.73011  0.23425  0.57911  1.0000
  S   S438      1.0  0.85013  0.35788  0.70054  1.0000
  C   C1638     1.0  0.85603  0.13040  0.51021  1.0000
  H   H1961     1.0  0.77990  0.34771  0.66511  1.0000
  C   C1639     1.0  0.80168  0.28044  0.50231  1.0000
  H   H1962     1.0  0.68653  0.20227  0.67169  1.0000
  H   H1963     1.0  0.91360  0.47593  0.63698  1.0000
  C   C1640     1.0  0.68409  0.14956  0.54287  1.0000
  C   C1641     1.0  0.90038  0.22944  0.51853  1.0000
  H   H1964     1.0  0.73710  0.12223  0.50506  1.0000
  H   H1965     1.0  0.72963  0.26591  0.52983  1.0000
  C   C1642     1.0  0.93372  0.45493  0.71439  1.0000
  Fe  Fe219     1.0  0.76644  0.17372  0.56878  1.0000
  S   S439      1.0  0.76236  0.14293  0.58145  1.0000
  S   S440      1.0  0.79525  0.18251  0.56468  1.0000
  Fe  Fe220     1.0  0.72770  0.18629  0.55519  1.0000
  S   S441      1.0  0.72018  0.15677  0.56680  1.0000
  S   S442      1.0  0.70817  0.21121  0.53893  1.0000
  Fe  Fe221     1.0  0.73112  0.15703  0.59304  1.0000
  S   S443      1.0  0.71658  0.14404  0.62349  1.0000
  Fe  Fe222     1.0  0.75167  0.14535  0.55433  1.0000
  S   S444      1.0  0.75968  0.12429  0.53415  1.0000
  S   S445      1.0  0.73612  0.18785  0.58251  1.0000
  S   S446      1.0  0.75826  0.17494  0.54061  1.0000
  Fe  Fe223     1.0  0.82748  0.29892  0.60753  1.0000
  S   S447      1.0  0.84383  0.26765  0.61441  1.0000
  S   S448      1.0  0.82198  0.32157  0.62603  1.0000
  Fe  Fe224     1.0  0.82116  0.29454  0.56881  1.0000
  S   S449      1.0  0.83735  0.26339  0.57252  1.0000
  S   S450      1.0  0.80971  0.30761  0.54114  1.0000
  Fe  Fe225     1.0  0.82063  0.26044  0.60327  1.0000
  S   S451      1.0  0.80399  0.23619  0.61748  1.0000
  Fe  Fe226     1.0  0.85871  0.27359  0.58283  1.0000
  S   S452      1.0  0.89050  0.26462  0.56964  1.0000
  S   S453      1.0  0.80292  0.29131  0.59904  1.0000
  S   S454      1.0  0.84404  0.30525  0.57660  1.0000
  C   C1643     1.0  0.68125  0.17050  0.62247  1.0000
  H   H1966     1.0  0.93691  0.27314  0.59747  1.0000
  H   H1967     1.0  0.81090  0.37709  0.68768  1.0000
  S   S455      1.0  0.90193  0.46946  0.69740  1.0000
  S   S456      1.0  0.92006  0.16325  0.52311  1.0000
  C   C1644     1.0  0.80089  0.01141  0.54561  1.0000
  S   S457      1.0  0.94579  0.13117  0.55370  1.0000
  Fe  Fe227     1.0  0.93516  0.13150  0.52706  1.0000
  S   S458      1.0  0.91273  0.11344  0.53054  1.0000
  Fe  Fe228     1.0  0.93170  0.16309  0.54887  1.0000
  S   S459      1.0  0.90901  0.17366  0.57357  1.0000
  S   S460      1.0  0.95895  0.17291  0.53082  1.0000
  Fe  Fe229     1.0  0.94867  0.16947  0.50539  1.0000
  H   H1968     1.0  0.92239  0.45245  0.66269  1.0000
  H   H1969     1.0  0.91897  0.47226  0.57795  1.0000
  C   C1645     1.0  0.91419  0.09548  0.51745  1.0000
  C   C1646     1.0  0.89841  0.08612  0.52203  1.0000
  C   C1647     1.0  0.89817  0.07241  0.51154  1.0000
  H   H1970     1.0  0.84150  0.99330  0.56562  1.0000
  C   C1648     1.0  0.76539  0.28602  0.57182  1.0000
  H   H1971     1.0  0.88621  0.08954  0.53370  1.0000
  Fe  Fe230     1.0  0.97241  0.14081  0.53330  1.0000
  C   C1649     1.0  0.89590  0.23935  0.57072  1.0000
  C   C1650     1.0  0.91389  0.23031  0.56069  1.0000
  C   C1651     1.0  0.91811  0.21003  0.56154  1.0000
  C   C1652     1.0  0.90435  0.19887  0.57247  1.0000
  C   C1653     1.0  0.88652  0.20789  0.58272  1.0000
  C   C1654     1.0  0.88227  0.22812  0.58181  1.0000
  H   H1972     1.0  0.92449  0.23897  0.55218  1.0000
  H   H1973     1.0  0.93206  0.20300  0.55393  1.0000
  H   H1974     1.0  0.87595  0.19925  0.59139  1.0000
  H   H1975     1.0  0.86860  0.23491  0.59004  1.0000
  C   C1655     1.0  0.77903  0.10445  0.53862  1.0000
  C   C1656     1.0  0.78546  0.09948  0.55622  1.0000
  C   C1657     1.0  0.80141  0.08385  0.55917  1.0000
  C   C1658     1.0  0.81124  0.07363  0.54429  1.0000
  C   C1659     1.0  0.80468  0.07850  0.52677  1.0000
  C   C1660     1.0  0.78832  0.09361  0.52412  1.0000
  H   H1976     1.0  0.77798  0.10743  0.56767  1.0000
  H   H1977     1.0  0.81214  0.07057  0.51529  1.0000
  H   H1978     1.0  0.78312  0.09713  0.51066  1.0000
  C   C1661     1.0  0.79692  0.19789  0.57923  1.0000
  C   C1662     1.0  0.78403  0.19932  0.59709  1.0000
  C   C1663     1.0  0.78631  0.21112  0.60872  1.0000
  C   C1664     1.0  0.80127  0.22177  0.60243  1.0000
  C   C1665     1.0  0.81399  0.22042  0.58446  1.0000
  C   C1666     1.0  0.81183  0.20852  0.57293  1.0000
  H   H1979     1.0  0.77256  0.19104  0.60213  1.0000
  H   H1980     1.0  0.77651  0.21198  0.62266  1.0000
  H   H1981     1.0  0.82581  0.22812  0.57965  1.0000
  H   H1982     1.0  0.82177  0.20758  0.55908  1.0000
  C   C1667     1.0  0.69589  0.20137  0.48369  1.0000
  C   C1668     1.0  0.66962  0.16643  0.54538  1.0000
  H   H1983     1.0  0.69000  0.14141  0.55555  1.0000
  H   H1984     1.0  0.91188  0.19267  0.48749  1.0000
  C   C1669     1.0  0.80077  0.26152  0.51317  1.0000
  H   H1985     1.0  0.68077  0.19194  0.72428  1.0000
  C   C1670     1.0  0.80430  0.29459  0.51099  1.0000
  C   C1671     1.0  0.80614  0.28983  0.53051  1.0000
  C   C1672     1.0  0.80512  0.27092  0.54134  1.0000
  C   C1673     1.0  0.80239  0.25683  0.53272  1.0000
  C   C1674     1.0  0.92064  0.22399  0.51220  1.0000
  H   H1986     1.0  0.67992  0.23214  0.51572  1.0000
  H   H1987     1.0  0.80563  0.26729  0.55660  1.0000
  H   H1988     1.0  0.80166  0.24227  0.54126  1.0000
  H   H1989     1.0  0.80615  0.07979  0.57292  1.0000
  C   C1675     1.0  0.71125  0.18853  0.49201  1.0000
  H   H1990     1.0  0.81337  0.00475  0.59014  1.0000
  H   H1991     1.0  0.74952  0.28424  0.53257  1.0000
  C   C1676     1.0  0.74162  0.25260  0.53055  1.0000
  H   H1992     1.0  0.93401  0.44112  0.71104  1.0000
  H   H1993     1.0  0.83640  0.01446  0.54682  1.0000
  C   C1677     1.0  0.71493  0.19110  0.50927  1.0000
  C   C1678     1.0  0.70369  0.20693  0.51779  1.0000
  C   C1679     1.0  0.68864  0.21991  0.50921  1.0000
  C   C1680     1.0  0.80828  0.37325  0.67480  1.0000
  Fe  Fe231     1.0  0.86369  0.36185  0.72340  1.0000
  H   H1994     1.0  0.72657  0.18101  0.51586  1.0000
  H   H1995     1.0  0.88828  0.47075  0.66245  1.0000
  C   C1681     1.0  0.89268  0.15713  0.48880  1.0000
  C   C1682     1.0  0.78047  0.03993  0.52800  1.0000
  C   C1683     1.0  0.77617  0.36832  0.69236  1.0000
  H   H1996     1.0  0.67354  0.20851  0.69455  1.0000
  C   C1684     1.0  0.81854  0.30540  0.69550  1.0000
  C   C1685     1.0  0.91450  0.24435  0.60779  1.0000
  H   H1997     1.0  0.71965  0.12370  0.54582  1.0000
  H   H1998     1.0  0.90777  0.44090  0.58894  1.0000
  H   H1999     1.0  0.68883  0.17898  0.60956  1.0000
  C   C1686     1.0  0.90313  0.25967  0.61755  1.0000
  H   H2000     1.0  0.76596  0.35805  0.69759  1.0000
  H   H2001     1.0  0.86125  0.22523  0.52789  1.0000
  H   H2002     1.0  0.89046  0.30937  0.60222  1.0000
  C   C1687     1.0  0.86663  0.31852  0.66218  1.0000
  C   C1688     1.0  0.86231  0.30122  0.66059  1.0000
  C   C1689     1.0  0.84881  0.30198  0.64932  1.0000
  C   C1690     1.0  0.83978  0.32005  0.63935  1.0000
  C   C1691     1.0  0.84398  0.33734  0.64110  1.0000
  C   C1692     1.0  0.85729  0.33659  0.65254  1.0000
  H   H2003     1.0  0.86921  0.28724  0.66837  1.0000
  H   H2004     1.0  0.84518  0.28864  0.64851  1.0000
  H   H2005     1.0  0.83708  0.35137  0.63340  1.0000
  H   H2006     1.0  0.86060  0.35000  0.65363  1.0000
  C   C1693     1.0  0.82826  0.43171  0.67292  1.0000
  C   C1694     1.0  0.83972  0.43829  0.68175  1.0000
  C   C1695     1.0  0.83453  0.45764  0.68462  1.0000
  C   C1696     1.0  0.81774  0.47035  0.67895  1.0000
  C   C1697     1.0  0.80615  0.46367  0.67038  1.0000
  C   C1698     1.0  0.81149  0.44444  0.66722  1.0000
  H   H2007     1.0  0.85271  0.42863  0.68607  1.0000
  H   H2008     1.0  0.84358  0.46272  0.69111  1.0000
  H   H2009     1.0  0.70179  0.10894  0.54960  1.0000
  H   H2010     1.0  0.80261  0.43945  0.66033  1.0000
  H   H2011     1.0  0.86190  0.24353  0.49320  1.0000
  C   C1699     1.0  0.92980  0.09113  0.50212  1.0000
  S   S461      1.0  0.87316  0.02193  0.51707  1.0000
  H   H2012     1.0  0.77294  0.13227  0.49300  1.0000
  H   H2013     1.0  0.81422  0.14727  0.54108  1.0000
  H   H2014     1.0  0.80255  0.13045  0.50690  1.0000
  C   C1700     1.0  0.75344  0.27882  0.54668  1.0000
  H   H2015     1.0  0.89723  0.14759  0.50233  1.0000
  C   C1701     1.0  0.66144  0.14881  0.65613  1.0000
  C   C1702     1.0  0.67137  0.17031  0.71410  1.0000
  C   C1703     1.0  0.81811  0.32249  0.72015  1.0000
  H   H2016     1.0  0.99006  0.16425  0.48954  1.0000
  H   H2017     1.0  0.77070  0.26220  0.59601  1.0000
  H   H2018     1.0  0.80628  0.32179  0.67119  1.0000
  H   H2019     1.0  0.89263  0.27314  0.48622  1.0000
  S   S462      1.0  0.79784  0.24356  0.50247  1.0000
  C   C1704     1.0  0.80900  0.32274  0.68486  1.0000
  H   H2020     1.0  0.89223  0.20674  0.63326  1.0000
  H   H2021     1.0  0.72841  0.14515  0.51303  1.0000
  C   C1705     1.0  0.80107  0.19176  0.48468  1.0000
  H   H2022     1.0  0.82466  0.37844  0.72799  1.0000
  H   H2023     1.0  0.82264  0.17892  0.52325  1.0000
  H   H2024     1.0  0.83570  0.11615  0.53319  1.0000
  S   S463      1.0  0.83163  0.05473  0.54764  1.0000
  H   H2025     1.0  0.80003  0.28430  0.48731  1.0000
  H   H2026     1.0  0.77265  0.05511  0.52660  1.0000
  H   H2027     1.0  0.89928  0.28523  0.64102  1.0000
  H   H2028     1.0  0.77060  0.29609  0.57706  1.0000
  C   C1706     1.0  0.68191  0.15618  0.50891  1.0000
  C   C1707     1.0  0.78139  0.02948  0.51398  1.0000
  C   C1708     1.0  0.68373  0.19645  0.68773  1.0000
  H   H2029     1.0  0.76013  0.30657  0.54553  1.0000
  N   N109      1.0  0.90026  0.44217  0.65502  1.0000
  C   C1709     1.0  0.88402  0.45667  0.66387  1.0000
  C   C1710     1.0  0.89365  0.42336  0.65989  1.0000
  C   C1711     1.0  0.91732  0.43878  0.66423  1.0000
  H   H2030     1.0  0.89019  0.41301  0.73118  1.0000
  H   H2031     1.0  0.76467  0.07749  0.49386  1.0000
  C   C1712     1.0  0.83930  0.13008  0.52509  1.0000
  H   H2032     1.0  0.86525  0.23703  0.54539  1.0000
  H   H2033     1.0  0.87579  0.29353  0.61874  1.0000
  H   H2034     1.0  0.75493  0.25588  0.51959  1.0000
  C   C1713     1.0  0.69085  0.14403  0.52441  1.0000
  H   H2035     1.0  0.87111  0.46007  0.65691  1.0000
  C   C1714     1.0  0.93058  0.23624  0.49704  1.0000
  H   H2036     1.0  0.90541  0.41152  0.65424  1.0000
  N   N110      1.0  0.86797  0.25386  0.51590  1.0000
  H   H2037     1.0  0.81068  0.02707  0.57289  1.0000
  H   H2038     1.0  0.71276  0.10059  0.50990  1.0000
  H   H2039     1.0  0.91374  0.43284  0.68021  1.0000
  H   H2040     1.0  0.80447  0.47242  0.72320  1.0000
  H   H2041     1.0  0.81506  0.11388  0.49070  1.0000
  C   C1715     1.0  0.71382  0.11504  0.53882  1.0000
  C   C1716     1.0  0.72406  0.13437  0.50729  1.0000
  C   C1717     1.0  0.92007  0.47172  0.70823  1.0000
  C   C1718     1.0  0.68131  0.14175  0.64851  1.0000
  S   S464      1.0  0.96319  0.13772  0.50687  1.0000
  H   H2042     1.0  0.72613  0.10250  0.53566  1.0000
  H   H2043     1.0  0.84297  0.24477  0.53657  1.0000
  H   H2044     1.0  0.94622  0.23167  0.49196  1.0000
  H   H2045     1.0  0.77421  0.03648  0.50177  1.0000
  C   C1719     1.0  0.88857  0.29393  0.60652  1.0000
  C   C1720     1.0  0.91143  0.28521  0.62805  1.0000
  H   H2046     1.0  0.71629  0.25492  0.56496  1.0000
  C   C1721     1.0  0.76550  0.26694  0.58239  1.0000
  H   H2047     1.0  0.91451  0.30022  0.62409  1.0000
  H   H2048     1.0  0.72145  0.23101  0.55949  1.0000
  C   C1722     1.0  0.88419  0.23584  0.63921  1.0000
  H   H2049     1.0  0.92480  0.29811  0.59036  1.0000
  N   N111      1.0  0.74596  0.24529  0.55045  1.0000
  S   S465      1.0  0.83133  0.03353  0.50279  1.0000
  H   H2050     1.0  0.94772  0.40757  0.70445  1.0000
  C   C1723     1.0  0.92812  0.38753  0.71541  1.0000
  H   H2051     1.0  0.88439  0.29056  0.59421  1.0000
  Fe  Fe232     1.0  0.84612  0.04564  0.51913  1.0000
  Fe  Fe233     1.0  0.85931  0.01106  0.49843  1.0000
  H   H2052     1.0  0.69832  0.12098  0.49693  1.0000
  H   H2053     1.0  0.66007  0.14607  0.71152  1.0000
  H   H2054     1.0  0.78926  0.04033  0.55351  1.0000
  H   H2055     1.0  0.70334  0.15891  0.68774  1.0000
  H   H2056     1.0  0.81148  0.43860  0.72015  1.0000
  H   H2057     1.0  0.81191  0.19944  0.48512  1.0000
  H   H2058     1.0  0.80355  0.35226  0.65178  1.0000
  N   N112      1.0  0.86145  0.14785  0.57399  1.0000
  C   C1724     1.0  0.87572  0.15303  0.55574  1.0000
  C   C1725     1.0  0.84524  0.16533  0.57566  1.0000
  C   C1726     1.0  0.87111  0.14382  0.59079  1.0000
  C   C1727     1.0  0.85492  0.13013  0.57375  1.0000
  C   C1728     1.0  0.86886  0.11252  0.57124  1.0000
  C   C1729     1.0  0.83484  0.12960  0.57627  1.0000
  C   C1730     1.0  0.86315  0.09555  0.57101  1.0000
  C   C1731     1.0  0.82930  0.11252  0.57598  1.0000
  C   C1732     1.0  0.84344  0.09556  0.57325  1.0000
  H   H2059     1.0  0.86963  0.15450  0.54268  1.0000
  H   H2060     1.0  0.87998  0.16702  0.55487  1.0000
  H   H2061     1.0  0.88967  0.14186  0.55464  1.0000
  H   H2062     1.0  0.85066  0.17844  0.57561  1.0000
  H   H2063     1.0  0.83433  0.16297  0.58955  1.0000
  H   H2064     1.0  0.83753  0.16931  0.56327  1.0000
  H   H2065     1.0  0.88487  0.13240  0.58942  1.0000
  H   H2066     1.0  0.87536  0.15712  0.59210  1.0000
  H   H2067     1.0  0.86125  0.13881  0.60473  1.0000
  H   H2068     1.0  0.88439  0.11174  0.56935  1.0000
  H   H2069     1.0  0.82311  0.14221  0.57836  1.0000
  H   H2070     1.0  0.87415  0.08233  0.56896  1.0000
  H   H2071     1.0  0.81393  0.11247  0.57778  1.0000
  H   H2072     1.0  0.83920  0.08238  0.57280  1.0000
  H   H2073     1.0  0.87225  0.23256  0.65122  1.0000
  H   H2074     1.0  0.82501  0.13407  0.49010  1.0000
  H   H2075     1.0  0.87923  0.45124  0.67978  1.0000
  H   H2076     1.0  0.88135  0.43839  0.72116  1.0000
  C   C1733     1.0  0.68934  0.16384  0.68242  1.0000
  N   N113      1.0  0.67531  0.17866  0.69291  1.0000
  C   C1734     1.0  0.69130  0.15262  0.63174  1.0000
  H   H2077     1.0  0.75206  0.19881  0.48886  1.0000
  C   C1735     1.0  0.75318  0.25927  0.55719  1.0000
  H   H2078     1.0  0.86252  0.26898  0.48713  1.0000
  C   C1736     1.0  0.91229  0.46778  0.62694  1.0000
  H   H2079     1.0  0.73661  0.24151  0.52584  1.0000
  S   S466      1.0  0.89373  0.34599  0.71141  1.0000
  C   C1737     1.0  0.88801  0.25472  0.63361  1.0000
  C   C1738     1.0  0.85907  0.23951  0.53214  1.0000
  C   C1739     1.0  0.91365  0.06804  0.49615  1.0000
  H   H2080     1.0  0.68901  0.12787  0.65568  1.0000
  C   C1740     1.0  0.72768  0.24121  0.56410  1.0000
  H   H2081     1.0  0.75615  0.21626  0.54400  1.0000
  H   H2082     1.0  0.87881  0.26553  0.64177  1.0000
  H   H2083     1.0  0.88993  0.41799  0.67593  1.0000
  H   H2084     1.0  0.76860  0.38226  0.68406  1.0000
  H   H2085     1.0  0.90564  0.42979  0.72596  1.0000
  C   C1741     1.0  0.89543  0.22127  0.62916  1.0000
  H   H2086     1.0  0.78312  0.37218  0.65401  1.0000
  H   H2087     1.0  0.88606  0.06506  0.51553  1.0000
  H   H2088     1.0  0.84198  0.26105  0.50376  1.0000
  Fe  Fe234     1.0  0.88379  0.04250  0.48959  1.0000
  H   H2089     1.0  0.91909  0.21418  0.60556  1.0000
  H   H2090     1.0  0.88023  0.42488  0.65425  1.0000
  Fe  Fe235     1.0  0.89744  0.37597  0.69439  1.0000
  S   S467      1.0  0.86822  0.39181  0.70822  1.0000
  C   C1742     1.0  0.91064  0.22548  0.61361  1.0000
  C   C1743     1.0  0.79915  0.44376  0.73109  1.0000
  S   S468      1.0  0.92266  0.38970  0.69250  1.0000
  H   H2091     1.0  0.92604  0.24666  0.59517  1.0000
  H   H2092     1.0  0.92450  0.27469  0.63278  1.0000
  C   C1744     1.0  0.85820  0.25699  0.49932  1.0000
  N   N114      1.0  0.70712  0.12709  0.52083  1.0000
  H   H2093     1.0  0.86832  0.28470  0.51080  1.0000
  H   H2094     1.0  0.76308  0.21864  0.56487  1.0000
  C   C1745     1.0  0.88941  0.24745  0.50958  1.0000
  C   C1746     1.0  0.90001  0.25946  0.49401  1.0000
  H   H2095     1.0  0.68680  0.15342  0.49429  1.0000
  C   C1747     1.0  0.75938  0.29193  0.55403  1.0000
  C   C1748     1.0  0.79009  0.03115  0.54357  1.0000
  H   H2096     1.0  0.92991  0.42800  0.65792  1.0000
  H   H2097     1.0  0.69802  0.19323  0.69231  1.0000
  C   C1749     1.0  0.80601  0.01278  0.57775  1.0000
  H   H2098     1.0  0.87129  0.27098  0.53469  1.0000
  H   H2099     1.0  0.75957  0.23921  0.58416  1.0000
  C   C1750     1.0  0.80390  0.34064  0.69156  1.0000
  H   H2100     1.0  0.80259  0.38740  0.66541  1.0000
  C   C1751     1.0  0.92272  0.28272  0.59450  1.0000
  H   H2101     1.0  0.91960  0.27956  0.58145  1.0000
  C   C1752     1.0  0.94092  0.39828  0.71723  1.0000
  H   H2102     1.0  0.84770  0.27768  0.52804  1.0000
  H   H2103     1.0  0.79338  0.00233  0.50411  1.0000
  C   C1753     1.0  0.89020  0.42825  0.73167  1.0000
  H   H2104     1.0  0.94200  0.09834  0.49841  1.0000
  H   H2105     1.0  0.79316  0.47345  0.66595  1.0000
  C   C1754     1.0  0.76069  0.22659  0.55014  1.0000
  H   H2106     1.0  0.82284  0.29207  0.68980  1.0000
  N   N115      1.0  0.90652  0.27995  0.61165  1.0000
  H   H2107     1.0  0.69283  0.16966  0.66639  1.0000
  C   C1755     1.0  0.79010  0.35778  0.66208  1.0000
  H   H2108     1.0  0.77509  0.22911  0.54108  1.0000
  N   N116      1.0  0.79475  0.35956  0.68029  1.0000
  H   H2109     1.0  0.99167  0.18735  0.49242  1.0000
  C   C1756     1.0  0.92952  0.07738  0.49150  1.0000
  C   C1757     1.0  0.66323  0.15333  0.72130  1.0000
  H   H2110     1.0  0.80493  0.30924  0.50258  1.0000
  H   H2111     1.0  0.82286  0.36678  0.66666  1.0000
  C   C1758     1.0  0.70106  0.11395  0.51182  1.0000
  C   C1759     1.0  0.75937  0.25377  0.57531  1.0000
  N   N117      1.0  0.81150  0.00176  0.56175  1.0000
  H   H2112     1.0  0.72088  0.14160  0.49261  1.0000
  H   H2113     1.0  0.83828  0.99057  0.54290  1.0000
  C   C1760     1.0  0.86367  0.27259  0.52261  1.0000
  H   H2114     1.0  0.89934  0.42669  0.62331  1.0000
  C   C1761     1.0  0.82723  0.14754  0.52959  1.0000
  C   C1762     1.0  0.83201  0.16539  0.51946  1.0000
  C   C1763     1.0  0.90570  0.44987  0.63383  1.0000
  H   H2115     1.0  0.86483  0.11629  0.50773  1.0000
  H   H2116     1.0  0.92868  0.21005  0.51892  1.0000
  H   H2117     1.0  0.68348  0.15058  0.68422  1.0000
  C   C1764     1.0  0.92028  0.25391  0.48791  1.0000
  H   H2118     1.0  0.77852  0.37208  0.70541  1.0000
  C   C1765     1.0  0.84866  0.16590  0.50452  1.0000
  C   C1766     1.0  0.91702  0.47569  0.60702  1.0000
  H   H2119     1.0  0.90956  0.36717  0.73076  1.0000
  C   C1767     1.0  0.90428  0.44031  0.61951  1.0000
  S   S469      1.0  0.84675  0.48308  0.71744  1.0000
  C   C1768     1.0  0.77292  0.17232  0.48325  1.0000
  H   H2120     1.0  0.68754  0.10918  0.52089  1.0000
  H   H2121     1.0  0.67273  0.22697  0.48607  1.0000
  C   C1769     1.0  0.80194  0.00139  0.53075  1.0000
  H   H2122     1.0  0.88661  0.17221  0.49158  1.0000
  C   C1770     1.0  0.76736  0.19141  0.48675  1.0000
  H   H2123     1.0  0.89375  0.21928  0.53049  1.0000
  H   H2124     1.0  0.80047  0.06347  0.48707  1.0000
  C   C1771     1.0  0.82322  0.30529  0.71302  1.0000
  C   C1772     1.0  0.83281  0.99990  0.55398  1.0000
  C   C1773     1.0  0.68462  0.21701  0.49238  1.0000
  H   H2125     1.0  0.72003  0.17650  0.48535  1.0000
  C   C1774     1.0  0.90909  0.44836  0.59961  1.0000
  C   C1775     1.0  0.91541  0.46601  0.59338  1.0000
  C   C1776     1.0  0.86100  0.14843  0.49915  1.0000
  H   H2126     1.0  0.83110  0.29194  0.72092  1.0000
  H   H2127     1.0  0.66519  0.17073  0.55941  1.0000
  C   C1777     1.0  0.94651  0.45577  0.72559  1.0000
  H   H2128     1.0  0.89476  0.11975  0.49022  1.0000
  C   C1778     1.0  0.81102  0.12961  0.49184  1.0000
  S   S470      1.0  0.85741  0.06694  0.49295  1.0000
  H   H2129     1.0  0.66105  0.18221  0.49948  1.0000
  C   C1779     1.0  0.91946  0.37548  0.73197  1.0000
  C   C1780     1.0  0.79215  0.01026  0.51533  1.0000
  C   C1781     1.0  0.66718  0.17280  0.51170  1.0000
  H   H2130     1.0  0.78993  0.01554  0.58357  1.0000
  C   C1782     1.0  0.94648  0.47367  0.72966  1.0000
  C   C1783     1.0  0.66123  0.17805  0.52983  1.0000
  C   C1784     1.0  0.78137  0.20102  0.48766  1.0000
  C   C1785     1.0  0.80858  0.33988  0.70964  1.0000
  C   C1786     1.0  0.66144  0.17765  0.63020  1.0000
  H   H2131     1.0  0.80551  0.35292  0.71549  1.0000
  C   C1787     1.0  0.67502  0.17878  0.72816  1.0000
  H   H2132     1.0  0.95646  0.44258  0.73100  1.0000
  H   H2133     1.0  0.77701  0.21574  0.49054  1.0000
  H   H2134     1.0  0.78883  0.38275  0.73133  1.0000
  H   H2135     1.0  0.85180  0.18013  0.49720  1.0000
  H   H2136     1.0  0.74076  0.27764  0.73038  1.0000
  N   N118      1.0  0.87838  0.14940  0.48305  1.0000
  H   H2137     1.0  0.67005  0.34493  0.86523  1.0000
  H   H2138     1.0  0.95461  0.40558  0.73691  1.0000
  S   S471      1.0  0.85020  0.35814  0.75522  1.0000
  S   S472      1.0  0.96530  0.39996  0.80804  1.0000
  C   C1788     1.0  0.87629  0.36773  0.85307  1.0000
  Fe  Fe236     1.0  0.72748  0.33482  0.82990  1.0000
  S   S473      1.0  0.71537  0.36118  0.80880  1.0000
  S   S474      1.0  0.71499  0.30740  0.83832  1.0000
  Fe  Fe237     1.0  0.75810  0.35469  0.83522  1.0000
  S   S475      1.0  0.74749  0.38227  0.81484  1.0000
  S   S476      1.0  0.78581  0.35726  0.84260  1.0000
  Fe  Fe238     1.0  0.71739  0.37795  0.82983  1.0000
  S   S477      1.0  0.69254  0.40211  0.83886  1.0000
  Fe  Fe239     1.0  0.74668  0.36262  0.79606  1.0000
  S   S478      1.0  0.75901  0.37098  0.76414  1.0000
  S   S479      1.0  0.72775  0.35177  0.85202  1.0000
  S   S480      1.0  0.75891  0.33484  0.81546  1.0000
  C   C1789     1.0  0.84684  0.44719  0.76387  1.0000
  C   C1790     1.0  0.84684  0.35179  0.84863  1.0000
  C   C1791     1.0  0.83857  0.37090  0.80861  1.0000
  H   H2139     1.0  0.71675  0.40082  0.93376  1.0000
  Fe  Fe240     1.0  0.95537  0.40516  0.77977  1.0000
  S   S481      1.0  0.93622  0.43464  0.78266  1.0000
  H   H2140     1.0  0.75118  0.40441  0.92238  1.0000
  S   S482      1.0  0.97307  0.44479  0.79393  1.0000
  Fe  Fe241     1.0  0.94794  0.43042  0.80949  1.0000
  S   S483      1.0  0.92926  0.44181  0.83579  1.0000
  Fe  Fe242     1.0  0.96319  0.44604  0.76685  1.0000
  C   C1792     1.0  0.77147  0.43754  0.75678  1.0000
  Fe  Fe243     1.0  0.85532  0.39882  0.91401  1.0000
  S   S484      1.0  0.84743  0.42893  0.92101  1.0000
  S   S485      1.0  0.88584  0.38312  0.90259  1.0000
  Fe  Fe244     1.0  0.81315  0.39580  0.91941  1.0000
  S   S486      1.0  0.80208  0.42543  0.92686  1.0000
  S   S487      1.0  0.79000  0.37960  0.92016  1.0000
  Fe  Fe245     1.0  0.82561  0.43490  0.90198  1.0000
  S   S488      1.0  0.82141  0.46230  0.87863  1.0000
  Fe  Fe246     1.0  0.82472  0.41688  0.94541  1.0000
  S   S489      1.0  0.83509  0.40589  0.89318  1.0000
  S   S490      1.0  0.83416  0.38610  0.93994  1.0000
  H   H2141     1.0  0.68143  0.36402  0.84981  1.0000
  C   C1793     1.0  0.81591  0.37301  0.74182  1.0000
  H   H2142     1.0  0.78590  0.48603  0.77377  1.0000
  C   C1794     1.0  0.91775  0.42504  0.85424  1.0000
  C   C1795     1.0  0.90435  0.43187  0.86996  1.0000
  C   C1796     1.0  0.89458  0.41900  0.88477  1.0000
  C   C1797     1.0  0.89850  0.39912  0.88423  1.0000
  C   C1798     1.0  0.91245  0.39211  0.86884  1.0000
  C   C1799     1.0  0.92186  0.40512  0.85366  1.0000
  H   H2143     1.0  0.90140  0.44718  0.87069  1.0000
  H   H2144     1.0  0.88433  0.42442  0.89683  1.0000
  H   H2145     1.0  0.91569  0.37668  0.86847  1.0000
  H   H2146     1.0  0.93222  0.39970  0.84160  1.0000
  C   C1800     1.0  0.71417  0.26454  0.77565  1.0000
  H   H2147     1.0  0.67394  0.36037  0.81062  1.0000
  H   H2148     1.0  0.84015  0.45850  0.83783  1.0000
  C   C1801     1.0  0.79714  0.46819  0.87550  1.0000
  C   C1802     1.0  0.78497  0.45500  0.88490  1.0000
  C   C1803     1.0  0.76490  0.46066  0.88521  1.0000
  H   H2149     1.0  0.67231  0.27360  0.82200  1.0000
  C   C1804     1.0  0.79595  0.47425  0.92938  1.0000
  H   H2150     1.0  0.79094  0.44045  0.89215  1.0000
  H   H2151     1.0  0.75541  0.45073  0.89335  1.0000
  N   N119      1.0  0.86335  0.47433  0.82453  1.0000
  C   C1805     1.0  0.78518  0.36523  0.86379  1.0000
  C   C1806     1.0  0.79961  0.37498  0.86367  1.0000
  C   C1807     1.0  0.80092  0.37982  0.88077  1.0000
  C   C1808     1.0  0.78789  0.37478  0.89821  1.0000
  C   C1809     1.0  0.77296  0.36566  0.89819  1.0000
  C   C1810     1.0  0.77149  0.36103  0.88097  1.0000
  H   H2152     1.0  0.80998  0.37865  0.85035  1.0000
  H   H2153     1.0  0.81233  0.38700  0.88053  1.0000
  H   H2154     1.0  0.76272  0.36185  0.91160  1.0000
  H   H2155     1.0  0.76031  0.35348  0.88121  1.0000
  C   C1811     1.0  0.69745  0.42456  0.82474  1.0000
  C   C1812     1.0  0.68906  0.44177  0.83190  1.0000
  C   C1813     1.0  0.69474  0.45937  0.82169  1.0000
  C   C1814     1.0  0.70872  0.45979  0.80430  1.0000
  C   C1815     1.0  0.71627  0.44281  0.79662  1.0000
  C   C1816     1.0  0.71069  0.42520  0.80687  1.0000
  H   H2156     1.0  0.67860  0.44138  0.84560  1.0000
  H   H2157     1.0  0.68823  0.47257  0.82728  1.0000
  H   H2158     1.0  0.72667  0.44315  0.78291  1.0000
  H   H2159     1.0  0.71662  0.41212  0.80088  1.0000
  H   H2160     1.0  0.74858  0.25878  0.75007  1.0000
  C   C1817     1.0  0.85599  0.41389  0.75859  1.0000
  H   H2161     1.0  0.87314  0.38080  0.79495  1.0000
  H   H2162     1.0  0.80685  0.42688  0.77498  1.0000
  H   H2163     1.0  0.66508  0.48278  0.79805  1.0000
  S   S491      1.0  0.94044  0.38326  0.77542  1.0000
  H   H2164     1.0  0.84563  0.48643  0.84928  1.0000
  H   H2165     1.0  0.72877  0.27936  0.79542  1.0000
  H   H2166     1.0  0.88764  0.37394  0.85497  1.0000
  C   C1818     1.0  0.74746  0.47235  0.92813  1.0000
  C   C1819     1.0  0.82474  0.36333  0.75779  1.0000
  C   C1820     1.0  0.81313  0.35763  0.77596  1.0000
  C   C1821     1.0  0.79284  0.36097  0.77801  1.0000
  C   C1822     1.0  0.78411  0.36923  0.76181  1.0000
  H   H2167     1.0  0.90402  0.46532  0.80860  1.0000
  C   C1823     1.0  0.79560  0.37567  0.74376  1.0000
  H   H2168     1.0  0.81976  0.35017  0.78840  1.0000
  H   H2169     1.0  0.78411  0.35678  0.79216  1.0000
  H   H2170     1.0  0.83219  0.39911  0.76428  1.0000
  H   H2171     1.0  0.83720  0.38600  0.81061  1.0000
  H   H2172     1.0  0.83715  0.47452  0.81508  1.0000
  C   C1824     1.0  0.70509  0.29157  0.75009  1.0000
  H   H2173     1.0  0.89392  0.40274  0.76513  1.0000
  C   C1825     1.0  0.73460  0.28985  0.78320  1.0000
  C   C1826     1.0  0.86290  0.36098  0.86939  1.0000
  C   C1827     1.0  0.69978  0.30485  0.82393  1.0000
  H   H2174     1.0  0.96441  0.41331  0.84220  1.0000
  H   H2175     1.0  0.81610  0.45784  0.77416  1.0000
  S   S492      1.0  0.66101  0.24163  0.79264  1.0000
  H   H2176     1.0  0.86386  0.36206  0.88377  1.0000
  H   H2177     1.0  0.88803  0.35610  0.79763  1.0000
  C   C1828     1.0  0.74973  0.31874  0.75379  1.0000
  H   H2178     1.0  0.83491  0.34585  0.84769  1.0000
  C   C1829     1.0  0.82205  0.42810  0.77040  1.0000
  C   C1830     1.0  0.67499  0.30074  0.80150  1.0000
  C   C1831     1.0  0.93647  0.38475  0.75205  1.0000
  H   H2179     1.0  0.69586  0.30185  0.75959  1.0000
  C   C1832     1.0  0.89502  0.47541  0.79892  1.0000
  C   C1833     1.0  0.75340  0.43876  0.95725  1.0000
  H   H2180     1.0  0.83672  0.37202  0.79357  1.0000
  C   C1834     1.0  0.66218  0.15432  0.75464  1.0000
  H   H2181     1.0  0.85686  0.33696  0.79623  1.0000
  H   H2182     1.0  0.83772  0.34786  0.87991  1.0000
  H   H2183     1.0  0.91732  0.36427  0.76283  1.0000
  H   H2184     1.0  0.84976  0.46120  0.76362  1.0000
  H   H2185     1.0  0.72607  0.25425  0.78263  1.0000
  H   H2186     1.0  0.90221  0.45247  0.74593  1.0000
  C   C1835     1.0  0.82728  0.44547  0.76999  1.0000
  C   C1836     1.0  0.84826  0.35295  0.86718  1.0000
  H   H2187     1.0  0.84523  0.33221  0.82120  1.0000
  H   H2188     1.0  0.88173  0.45622  0.76529  1.0000
  H   H2189     1.0  0.76427  0.41534  0.88833  1.0000
  H   H2190     1.0  0.75072  0.39670  0.85127  1.0000
  C   C1837     1.0  0.75703  0.47915  0.87520  1.0000
  C   C1838     1.0  0.88636  0.45216  0.75075  1.0000
  H   H2191     1.0  0.79840  0.46766  0.91645  1.0000
  H   H2192     1.0  0.98379  0.38773  0.88711  1.0000
  N   N120      1.0  0.98063  0.41267  0.86344  1.0000
  C   C1839     1.0  0.86185  0.43139  0.75799  1.0000
  H   H2193     1.0  0.88600  0.37208  0.82252  1.0000
  H   H2194     1.0  0.75548  0.33014  0.74254  1.0000
  H   H2195     1.0  0.86653  0.40127  0.75418  1.0000
  C   C1840     1.0  0.83635  0.41241  0.76453  1.0000
  H   H2196     1.0  0.69407  0.27729  0.84192  1.0000
  H   H2197     1.0  0.75896  0.32636  0.77628  1.0000
  C   C1841     1.0  0.84834  0.46442  0.82312  1.0000
  H   H2198     1.0  0.74773  0.41622  0.83028  1.0000
  H   H2199     1.0  0.96635  0.38802  0.87313  1.0000
  C   C1842     1.0  0.71011  0.41047  0.90507  1.0000
  C   C1843     1.0  0.71732  0.41690  0.88523  1.0000
  H   H2200     1.0  0.67281  0.17785  0.75859  1.0000
  H   H2201     1.0  0.71687  0.44538  0.85209  1.0000
  N   N121      1.0  0.85766  0.35820  0.81211  1.0000
  C   C1844     1.0  0.85785  0.33788  0.81107  1.0000
  H   H2202     1.0  0.87123  0.36413  0.78151  1.0000
  S   S493      1.0  0.81188  0.42658  0.97434  1.0000
  H   H2203     1.0  0.87153  0.32762  0.81463  1.0000
  H   H2204     1.0  0.68580  0.34138  0.84212  1.0000
  C   C1845     1.0  0.90482  0.48264  0.78014  1.0000
  H   H2205     1.0  0.80597  0.48460  0.92566  1.0000
  C   C1846     1.0  0.76239  0.46986  0.93867  1.0000
  H   H2206     1.0  0.68106  0.32806  0.78336  1.0000
  H   H2207     1.0  0.82591  0.36514  0.81864  1.0000
  C   C1847     1.0  0.78744  0.43094  0.74287  1.0000
  N   N122      1.0  0.88273  0.43262  0.75149  1.0000
  C   C1848     1.0  0.97832  0.41663  0.84300  1.0000
  H   H2208     1.0  0.98721  0.44263  0.87793  1.0000
  H   H2209     1.0  0.86719  0.45511  0.85228  1.0000
  C   C1849     1.0  0.98071  0.39165  0.87214  1.0000
  H   H2210     1.0  0.75596  0.42556  0.96835  1.0000
  H   H2211     1.0  0.99043  0.40770  0.83394  1.0000
  H   H2212     1.0  0.77573  0.44986  0.96225  1.0000
  H   H2213     1.0  0.67296  0.38128  0.82036  1.0000
  H   H2214     1.0  0.88709  0.46693  0.83996  1.0000
  C   C1850     1.0  0.96305  0.42438  0.87430  1.0000
  H   H2215     1.0  0.69507  0.40875  0.91005  1.0000
  H   H2216     1.0  0.73770  0.45105  0.83424  1.0000
  H   H2217     1.0  0.76229  0.42750  0.76580  1.0000
  C   C1851     1.0  0.74019  0.30643  0.74929  1.0000
  C   C1852     1.0  0.87507  0.36660  0.83444  1.0000
  H   H2218     1.0  0.70315  0.33125  0.80264  1.0000
  C   C1853     1.0  0.73918  0.44145  0.94641  1.0000
  H   H2219     1.0  0.66449  0.31921  0.85710  1.0000
  C   C1854     1.0  0.89429  0.41803  0.76505  1.0000
  C   C1855     1.0  0.86014  0.35868  0.83165  1.0000
  C   C1856     1.0  0.87323  0.36516  0.79594  1.0000
  S   S494      1.0  0.98176  0.41691  0.76163  1.0000
  H   H2220     1.0  0.75421  0.46163  0.76948  1.0000
  H   H2221     1.0  0.87880  0.46385  0.74014  1.0000
  H   H2222     1.0  0.98752  0.48011  0.76585  1.0000
  H   H2223     1.0  0.85520  0.45197  0.81553  1.0000
  H   H2224     1.0  0.92063  0.47817  0.77596  1.0000
  C   C1857     1.0  0.69120  0.28841  0.82915  1.0000
  H   H2225     1.0  0.73348  0.45623  0.85813  1.0000
  C   C1858     1.0  0.73261  0.44540  0.85007  1.0000
  C   C1859     1.0  0.87590  0.46021  0.83756  1.0000
  C   C1860     1.0  0.76704  0.45707  0.75882  1.0000
  H   H2226     1.0  0.77730  0.48044  0.96464  1.0000
  H   H2227     1.0  0.79071  0.41589  0.74114  1.0000
  H   H2228     1.0  0.88887  0.42041  0.78023  1.0000
  C   C1861     1.0  0.69610  0.31900  0.80732  1.0000
  H   H2229     1.0  0.70735  0.42000  0.87540  1.0000
  Fe  Fe247     1.0  0.98986  0.41475  0.79031  1.0000
  S   S495      1.0  0.71742  0.48117  0.79232  1.0000
  H   H2230     1.0  0.76773  0.43799  0.85905  1.0000
  C   C1862     1.0  0.77857  0.47061  0.74695  1.0000
  H   H2231     1.0  0.96093  0.44029  0.86746  1.0000
  N   N123      1.0  0.74431  0.42574  0.85704  1.0000
  C   C1863     1.0  0.76521  0.42718  0.85196  1.0000
  C   C1864     1.0  0.73703  0.41908  0.87816  1.0000
  H   H2232     1.0  0.77019  0.43212  0.83599  1.0000
  H   H2233     1.0  0.81138  0.37302  0.98142  1.0000
  C   C1865     1.0  0.72226  0.40606  0.91843  1.0000
  H   H2234     1.0  0.91005  0.41891  0.76088  1.0000
  C   C1866     1.0  0.75172  0.31664  0.77285  1.0000
  H   H2235     1.0  0.70330  0.27192  0.78681  1.0000
  C   C1867     1.0  0.74232  0.41175  0.84624  1.0000
  C   C1868     1.0  0.74902  0.41444  0.89220  1.0000
  C   C1869     1.0  0.74162  0.40812  0.91201  1.0000
  H   H2236     1.0  0.77492  0.41271  0.85631  1.0000
  N   N124      1.0  0.72191  0.27905  0.75873  1.0000
  C   C1870     1.0  0.76473  0.45278  0.95359  1.0000
  C   C1871     1.0  0.67883  0.28632  0.81795  1.0000
  H   H2237     1.0  0.72687  0.41069  0.84811  1.0000
  H   H2238     1.0  0.74556  0.30079  0.80241  1.0000
  N   N125      1.0  0.77511  0.48412  0.93464  1.0000
  C   C1872     1.0  0.68370  0.31703  0.79624  1.0000
  H   H2239     1.0  0.88362  0.44681  0.83162  1.0000
  C   C1873     1.0  0.73546  0.26791  0.74427  1.0000
  C   C1874     1.0  0.67434  0.35209  0.84970  1.0000
  C   C1875     1.0  0.92385  0.37387  0.75016  1.0000
  H   H2240     1.0  0.82202  0.32252  0.73364  1.0000
  C   C1876     1.0  0.73227  0.29161  0.76388  1.0000
  S   S496      1.0  0.96127  0.47436  0.74505  1.0000
  H   H2241     1.0  0.94933  0.42008  0.87426  1.0000
  C   C1877     1.0  0.94488  0.39712  0.73557  1.0000
  H   H2242     1.0  0.72520  0.46033  0.92336  1.0000
  H   H2243     1.0  0.96392  0.42231  0.88983  1.0000
  H   H2244     1.0  0.97797  0.43233  0.83599  1.0000
  S   S497      1.0  0.73165  0.48622  0.87742  1.0000
  C   C1878     1.0  0.87434  0.48138  0.80476  1.0000
  C   C1879     1.0  0.66439  0.37062  0.82004  1.0000
  C   C1880     1.0  0.74424  0.30220  0.78750  1.0000
  H   H2245     1.0  0.80092  0.46232  0.94139  1.0000
  H   H2246     1.0  0.76012  0.48594  0.77967  1.0000
  H   H2247     1.0  0.73060  0.43044  0.94911  1.0000
  C   C1881     1.0  0.73614  0.45827  0.93198  1.0000
  H   H2248     1.0  0.70631  0.25543  0.77139  1.0000
  H   H2249     1.0  0.85378  0.41605  0.97558  1.0000
  C   C1882     1.0  0.67051  0.17078  0.74810  1.0000
  H   H2250     1.0  0.70974  0.30061  0.73553  1.0000
  H   H2251     1.0  0.99179  0.38170  0.86335  1.0000
  H   H2252     1.0  0.74444  0.48481  0.91651  1.0000
  C   C1883     1.0  0.78947  0.48652  0.86480  1.0000
  H   H2253     1.0  0.69533  0.28279  0.74826  1.0000
  H   H2254     1.0  0.72825  0.25793  0.74044  1.0000
  S   S498      1.0  0.66064  0.29845  0.78624  1.0000
  H   H2255     1.0  0.73887  0.30873  0.73432  1.0000
  C   C1884     1.0  0.79491  0.46330  0.73305  1.0000
  C   C1885     1.0  0.66868  0.59761  0.22772  1.0000
  C   C1886     1.0  0.97191  0.52757  0.21190  1.0000
  C   C1887     1.0  0.82736  0.49882  0.22215  1.0000
  H   H2256     1.0  0.77026  0.59120  0.22183  1.0000
  Fe  Fe248     1.0  0.72664  0.54356  0.20537  1.0000
  H   H2257     1.0  0.66741  0.63618  0.18914  1.0000
  S   S499      1.0  0.71758  0.57535  0.19088  1.0000
  H   H2258     1.0  0.70594  0.79719  0.23128  1.0000
  C   C1888     1.0  0.67236  0.62189  0.19777  1.0000
  H   H2259     1.0  0.70466  0.79078  0.20948  1.0000
  S   S500      1.0  0.75683  0.53151  0.21173  1.0000
  C   C1889     1.0  0.84112  0.50568  0.22747  1.0000
  C   C1890     1.0  0.85917  0.50667  0.21502  1.0000
  H   H2260     1.0  0.93588  0.53668  0.20014  1.0000
  H   H2261     1.0  0.98266  0.50180  0.18803  1.0000
  H   H2262     1.0  0.68142  0.53419  0.20072  1.0000
  H   H2263     1.0  0.82331  0.49916  0.16800  1.0000
  C   C1891     1.0  0.69840  0.80200  0.21871  1.0000
  C   C1892     1.0  0.71273  0.62873  0.21754  1.0000
  H   H2264     1.0  0.94513  0.54638  0.17550  1.0000
  C   C1893     1.0  0.66210  0.61619  0.21671  1.0000
  H   H2265     1.0  0.69962  0.65543  0.22801  1.0000
  N   N126      1.0  0.67687  0.80436  0.22514  1.0000
  H   H2266     1.0  0.67349  0.79672  0.19938  1.0000
  C   C1894     1.0  0.84965  0.49434  0.19096  1.0000
  H   H2267     1.0  0.88515  0.53547  0.22818  1.0000
  C   C1895     1.0  0.68926  0.60915  0.18999  1.0000
  C   C1896     1.0  0.69590  0.59059  0.20101  1.0000
  H   H2268     1.0  0.66405  0.70589  0.09886  1.0000
  H   H2269     1.0  0.70649  0.63381  0.20454  1.0000
  H   H2270     1.0  0.69726  0.61373  0.17539  1.0000
  H   H2271     1.0  0.67236  0.82217  0.19705  1.0000
  H   H2272     1.0  0.72716  0.56985  0.22994  1.0000
  H   H2273     1.0  0.81333  0.49796  0.23193  1.0000
  C   C1897     1.0  0.66829  0.80890  0.20749  1.0000
  H   H2274     1.0  0.87460  0.50670  0.15641  1.0000
  H   H2275     1.0  0.70237  0.81609  0.21013  1.0000
  H   H2276     1.0  0.96489  0.51363  0.17325  1.0000
  H   H2277     1.0  0.67672  0.77368  0.22826  1.0000
  H   H2278     1.0  0.75824  0.50711  0.15842  1.0000
  Fe  Fe249     1.0  0.71479  0.50440  0.22084  1.0000
  H   H2279     1.0  0.68307  0.56702  0.18011  1.0000
  Fe  Fe250     1.0  0.75671  0.50550  0.20035  1.0000
  S   S501      1.0  0.72794  0.51908  0.19089  1.0000
  C   C1898     1.0  0.95751  0.53285  0.22826  1.0000
  H   H2280     1.0  0.83814  0.51714  0.15872  1.0000
  N   N127      1.0  0.96749  0.53095  0.19229  1.0000
  H   H2281     1.0  0.75845  0.50079  0.12626  1.0000
  C   C1899     1.0  0.72452  0.60995  0.22101  1.0000
  S   S502      1.0  0.91116  0.51039  0.20360  1.0000
  C   C1900     1.0  0.91130  0.51260  0.22708  1.0000
  C   C1901     1.0  0.68549  0.58481  0.21988  1.0000
  C   C1902     1.0  0.96808  0.51186  0.18790  1.0000
  H   H2282     1.0  0.94244  0.53958  0.22741  1.0000
  H   H2283     1.0  0.87788  0.50218  0.18822  1.0000
  C   C1903     1.0  0.98227  0.54048  0.17723  1.0000
  H   H2284     1.0  0.86979  0.51207  0.21924  1.0000
  C   C1904     1.0  0.66857  0.54603  0.20157  1.0000
  H   H2285     1.0  0.69039  0.57056  0.22849  1.0000
  H   H2286     1.0  0.97835  0.54470  0.16259  1.0000
  C   C1905     1.0  0.83832  0.50129  0.16066  1.0000
  H   H2287     1.0  0.75647  0.58090  0.21107  1.0000
  C   C1906     1.0  0.87286  0.49127  0.15949  1.0000
  H   H2288     1.0  0.94634  0.55815  0.19409  1.0000
  C   C1907     1.0  0.94790  0.54366  0.19049  1.0000
  C   C1908     1.0  0.66942  0.56453  0.18993  1.0000
  C   C1909     1.0  0.70883  0.64090  0.23076  1.0000
  C   C1910     1.0  0.86355  0.50100  0.19706  1.0000
  H   H2289     1.0  0.98369  0.55396  0.18106  1.0000
  H   H2290     1.0  0.95711  0.50426  0.19878  1.0000
  H   H2291     1.0  0.72702  0.60106  0.21034  1.0000
  C   C1911     1.0  0.77050  0.49717  0.15164  1.0000
  H   H2292     1.0  0.93768  0.49066  0.23031  1.0000
  H   H2293     1.0  0.70334  0.49905  0.17309  1.0000
  H   H2294     1.0  0.84089  0.49792  0.14594  1.0000
  C   C1912     1.0  0.99098  0.51806  0.21528  1.0000
  H   H2295     1.0  0.77130  0.56526  0.22741  1.0000
  C   C1913     1.0  0.76136  0.57992  0.22472  1.0000
  C   C1914     1.0  0.83148  0.49326  0.20418  1.0000
  S   S503      1.0  0.78541  0.48976  0.18477  1.0000
  S   S504      1.0  0.68688  0.49395  0.22592  1.0000
  C   C1915     1.0  0.77067  0.49365  0.13342  1.0000
  S   S505      1.0  0.74353  0.48870  0.22927  1.0000
  N   N128      1.0  0.85340  0.48886  0.17179  1.0000
  H   H2296     1.0  0.80811  0.53674  0.36430  1.0000
  S   S506      1.0  0.69086  0.75446  0.34037  1.0000
  H   H2297     1.0  0.74875  0.83998  0.38347  1.0000
  C   C1916     1.0  0.78034  0.79990  0.45865  1.0000
  C   C1917     1.0  0.90577  0.54801  0.41719  1.0000
  C   C1918     1.0  0.77427  0.49184  0.34671  1.0000
  H   H2298     1.0  0.76865  0.51201  0.30010  1.0000
  Fe  Fe251     1.0  0.84507  0.54411  0.33014  1.0000
  S   S507      1.0  0.83474  0.56232  0.35337  1.0000
  S   S508      1.0  0.85696  0.55438  0.29828  1.0000
  C   C1919     1.0  0.71582  0.73466  0.42049  1.0000
  H   H2299     1.0  0.84052  0.77865  0.38109  1.0000
  C   C1920     1.0  0.90819  0.58010  0.39836  1.0000
  Fe  Fe252     1.0  0.84557  0.85312  0.46302  1.0000
  S   S509      1.0  0.83593  0.88120  0.44247  1.0000
  S   S510      1.0  0.85698  0.82267  0.45662  1.0000
  Fe  Fe253     1.0  0.84145  0.89624  0.46380  1.0000
  S   S511      1.0  0.85685  0.92190  0.45281  1.0000
  Fe  Fe254     1.0  0.80615  0.88192  0.46175  1.0000
  S   S512      1.0  0.77813  0.88420  0.45192  1.0000
  C   C1921     1.0  0.75034  0.87811  0.38381  1.0000
  H   H2300     1.0  0.92596  0.82756  0.44190  1.0000
  Fe  Fe255     1.0  0.89098  0.66121  0.40137  1.0000
  S   S513      1.0  0.87012  0.65251  0.42908  1.0000
  S   S514      1.0  0.90410  0.68727  0.39900  1.0000
  Fe  Fe256     1.0  0.88117  0.63299  0.38160  1.0000
  S   S515      1.0  0.85946  0.62270  0.40793  1.0000
  S   S516      1.0  0.88778  0.61925  0.35519  1.0000
  Fe  Fe257     1.0  0.84980  0.65419  0.40991  1.0000
  S   S517      1.0  0.81866  0.66871  0.41935  1.0000
  Fe  Fe258     1.0  0.88197  0.62188  0.42432  1.0000
  S   S518      1.0  0.88581  0.59657  0.44933  1.0000
  S   S519      1.0  0.86957  0.66505  0.38219  1.0000
  S   S520      1.0  0.90482  0.63008  0.39803  1.0000
  Fe  Fe259     1.0  0.74070  0.79182  0.39861  1.0000
  S   S521      1.0  0.75663  0.76059  0.40545  1.0000
  S   S522      1.0  0.70900  0.79992  0.39581  1.0000
  Fe  Fe260     1.0  0.77605  0.80818  0.39497  1.0000
  S   S523      1.0  0.79552  0.77859  0.40061  1.0000
  S   S524      1.0  0.79024  0.83399  0.38819  1.0000
  Fe  Fe261     1.0  0.78069  0.77034  0.38142  1.0000
  S   S525      1.0  0.79852  0.74957  0.36209  1.0000
  Fe  Fe262     1.0  0.77062  0.77057  0.42434  1.0000
  S   S526      1.0  0.78213  0.75094  0.45039  1.0000
  S   S527      1.0  0.76374  0.80085  0.37285  1.0000
  S   S528      1.0  0.75199  0.80116  0.42042  1.0000
  H   H2301     1.0  0.84575  0.98494  0.43930  1.0000
  H   H2302     1.0  0.79777  0.52444  0.29986  1.0000
  Fe  Fe263     1.0  0.87915  0.52604  0.30183  1.0000
  H   H2303     1.0  0.70605  0.72536  0.37395  1.0000
  C   C1922     1.0  0.71678  0.63434  0.24749  1.0000
  C   C1923     1.0  0.91811  0.68698  0.41584  1.0000
  C   C1924     1.0  0.81187  0.80797  0.44319  1.0000
  C   C1925     1.0  0.93771  0.68770  0.44466  1.0000
  C   C1926     1.0  0.93524  0.66991  0.44221  1.0000
  C   C1927     1.0  0.92533  0.66953  0.42800  1.0000
  H   H2304     1.0  0.94107  0.65635  0.45138  1.0000
  H   H2305     1.0  0.92327  0.65573  0.42647  1.0000
  C   C1928     1.0  0.81353  0.69094  0.40313  1.0000
  C   C1929     1.0  0.81899  0.69209  0.38296  1.0000
  C   C1930     1.0  0.81460  0.71017  0.37017  1.0000
  C   C1931     1.0  0.80514  0.72703  0.37764  1.0000
  C   C1932     1.0  0.80044  0.72584  0.39779  1.0000
  C   C1933     1.0  0.80425  0.70781  0.41052  1.0000
  H   H2306     1.0  0.82624  0.67899  0.37724  1.0000
  H   H2307     1.0  0.81840  0.71103  0.35458  1.0000
  H   H2308     1.0  0.79397  0.73877  0.40375  1.0000
  H   H2309     1.0  0.80037  0.70709  0.42608  1.0000
  C   C1934     1.0  0.77726  0.51814  0.28641  1.0000
  C   C1935     1.0  0.68006  0.78050  0.36553  1.0000
  H   H2310     1.0  0.78541  0.84085  0.47060  1.0000
  H   H2311     1.0  0.90634  0.53464  0.33767  1.0000
  H   H2312     1.0  0.90259  0.67331  0.48155  1.0000
  Fe  Fe264     1.0  0.74207  0.51553  0.24019  1.0000
  H   H2313     1.0  0.91904  0.57537  0.36342  1.0000
  C   C1936     1.0  0.92612  0.50120  0.23695  1.0000
  H   H2314     1.0  0.74011  0.76350  0.45871  1.0000
  H   H2315     1.0  0.76323  0.69586  0.39800  1.0000
  C   C1937     1.0  0.69400  0.73656  0.39958  1.0000
  H   H2316     1.0  0.90252  0.59280  0.38734  1.0000
  H   H2317     1.0  0.87044  0.58271  0.39742  1.0000
  H   H2318     1.0  0.74644  0.68403  0.39322  1.0000
  C   C1938     1.0  0.89335  0.60473  0.46636  1.0000
  C   C1939     1.0  0.90396  0.61961  0.46001  1.0000
  C   C1940     1.0  0.76517  0.75193  0.47232  1.0000
  C   C1941     1.0  0.78265  0.51724  0.35730  1.0000
  S   S529      1.0  0.86893  0.51720  0.33402  1.0000
  H   H2319     1.0  0.90792  0.62568  0.44462  1.0000
  H   H2320     1.0  0.76282  0.58731  0.25860  1.0000
  C   C1942     1.0  0.88236  0.81375  0.45133  1.0000
  C   C1943     1.0  0.84993  0.77262  0.39157  1.0000
  C   C1944     1.0  0.91577  0.81811  0.44453  1.0000
  H   H2321     1.0  0.89845  0.69939  0.47290  1.0000
  C   C1945     1.0  0.90962  0.78582  0.44845  1.0000
  C   C1946     1.0  0.88945  0.79375  0.45122  1.0000
  C   C1947     1.0  0.75976  0.72701  0.36933  1.0000
  S   S530      1.0  0.82421  0.52837  0.32507  1.0000
  H   H2322     1.0  0.91501  0.77040  0.44839  1.0000
  H   H2323     1.0  0.87933  0.78430  0.45362  1.0000
  C   C1948     1.0  0.78305  0.52705  0.25126  1.0000
  C   C1949     1.0  0.86706  0.95240  0.46130  1.0000
  H   H2324     1.0  0.82738  0.97847  0.45963  1.0000
  N   N129      1.0  0.89802  0.56378  0.40169  1.0000
  N   N130      1.0  0.80478  0.50836  0.38207  1.0000
  H   H2325     1.0  0.87656  0.95329  0.44704  1.0000
  C   C1950     1.0  0.77169  0.51939  0.26887  1.0000
  C   C1951     1.0  0.78145  0.87037  0.43409  1.0000
  C   C1952     1.0  0.76641  0.86165  0.43365  1.0000
  C   C1953     1.0  0.76938  0.84943  0.42039  1.0000
  C   C1954     1.0  0.78696  0.84695  0.40669  1.0000
  C   C1955     1.0  0.80171  0.85622  0.40672  1.0000
  C   C1956     1.0  0.79911  0.86758  0.42060  1.0000
  H   H2326     1.0  0.75256  0.86425  0.44368  1.0000
  H   H2327     1.0  0.75782  0.84265  0.42018  1.0000
  H   H2328     1.0  0.81525  0.85454  0.39603  1.0000
  H   H2329     1.0  0.81068  0.87448  0.42059  1.0000
  C   C1957     1.0  0.91208  0.56320  0.36570  1.0000
  H   H2330     1.0  0.83781  0.51031  0.24127  1.0000
  C   C1958     1.0  0.90063  0.55594  0.38398  1.0000
  C   C1959     1.0  0.84911  0.57888  0.35290  1.0000
  C   C1960     1.0  0.86670  0.57994  0.33939  1.0000
  C   C1961     1.0  0.87813  0.59283  0.33983  1.0000
  C   C1962     1.0  0.87218  0.60459  0.35386  1.0000
  C   C1963     1.0  0.85421  0.60403  0.36685  1.0000
  C   C1964     1.0  0.84283  0.59109  0.36651  1.0000
  H   H2331     1.0  0.87161  0.57072  0.32871  1.0000
  H   H2332     1.0  0.89181  0.59345  0.32946  1.0000
  H   H2333     1.0  0.84900  0.61359  0.37715  1.0000
  H   H2334     1.0  0.82907  0.59063  0.37678  1.0000
  C   C1965     1.0  0.75654  0.69430  0.38641  1.0000
  H   H2335     1.0  0.92152  0.54163  0.41213  1.0000
  H   H2336     1.0  0.73078  0.69975  0.36359  1.0000
  H   H2337     1.0  0.66502  0.78137  0.36502  1.0000
  H   H2338     1.0  0.73377  0.72408  0.35056  1.0000
  H   H2339     1.0  0.68515  0.74818  0.42571  1.0000
  C   C1966     1.0  0.92116  0.70476  0.41783  1.0000
  H   H2340     1.0  0.83931  0.72507  0.40635  1.0000
  H   H2341     1.0  0.82586  0.66182  0.45794  1.0000
  C   C1967     1.0  0.69528  0.76918  0.35422  1.0000
  C   C1968     1.0  0.70584  0.87192  0.37809  1.0000
  C   C1969     1.0  0.68433  0.79013  0.37809  1.0000
  C   C1970     1.0  0.70380  0.78846  0.37942  1.0000
  C   C1971     1.0  0.71898  0.77758  0.36771  1.0000
  C   C1972     1.0  0.71471  0.76813  0.35510  1.0000
  H   H2342     1.0  0.81690  0.83361  0.44909  1.0000
  H   H2343     1.0  0.85007  0.75966  0.35814  1.0000
  H   H2344     1.0  0.73402  0.77641  0.36841  1.0000
  H   H2345     1.0  0.72651  0.75982  0.34603  1.0000
  C   C1973     1.0  0.79370  0.52518  0.28629  1.0000
  H   H2346     1.0  0.87955  0.72180  0.36263  1.0000
  H   H2347     1.0  0.75433  0.91247  0.40625  1.0000
  H   H2348     1.0  0.76892  0.68714  0.37607  1.0000
  H   H2349     1.0  0.91850  0.63749  0.46863  1.0000
  C   C1974     1.0  0.88009  0.68247  0.45589  1.0000
  H   H2350     1.0  0.88612  0.52150  0.36895  1.0000
  C   C1975     1.0  0.85199  0.71797  0.45995  1.0000
  H   H2351     1.0  0.67080  0.82780  0.28121  1.0000
  C   C1976     1.0  0.83770  0.73517  0.46151  1.0000
  H   H2352     1.0  0.71924  0.57024  0.25540  1.0000
  C   C1977     1.0  0.80253  0.52987  0.37965  1.0000
  S   S531      1.0  0.93112  0.74017  0.47741  1.0000
  H   H2353     1.0  0.86759  0.68138  0.45025  1.0000
  C   C1978     1.0  0.91000  0.62627  0.47355  1.0000
  Fe  Fe265     1.0  0.66304  0.76105  0.32857  1.0000
  H   H2354     1.0  0.84502  0.73604  0.36149  1.0000
  C   C1979     1.0  0.75299  0.57745  0.25935  1.0000
  H   H2355     1.0  0.88748  0.69386  0.44552  1.0000
  H   H2356     1.0  0.69397  0.88131  0.38684  1.0000
  C   C1980     1.0  0.73946  0.82241  0.47062  1.0000
  C   C1981     1.0  0.73149  0.72535  0.40788  1.0000
  C   C1982     1.0  0.66736  0.83081  0.26687  1.0000
  H   H2357     1.0  0.83207  0.74414  0.44879  1.0000
  H   H2358     1.0  0.77373  0.89211  0.38241  1.0000
  H   H2359     1.0  0.79996  0.71167  0.47198  1.0000
  H   H2360     1.0  0.85699  0.71455  0.44562  1.0000
  H   H2361     1.0  0.74168  0.85598  0.36162  1.0000
  C   C1983     1.0  0.74088  0.71009  0.35924  1.0000
  H   H2362     1.0  0.82595  0.80523  0.43348  1.0000
  C   C1984     1.0  0.89150  0.54052  0.38471  1.0000
  C   C1985     1.0  0.91429  0.55532  0.34935  1.0000
  C   C1986     1.0  0.89359  0.53294  0.36819  1.0000
  C   C1987     1.0  0.90500  0.54031  0.35055  1.0000
  H   H2363     1.0  0.88243  0.53438  0.39802  1.0000
  H   H2364     1.0  0.92273  0.56137  0.33546  1.0000
  H   H2365     1.0  0.74061  0.83448  0.45758  1.0000
  S   S532      1.0  0.66392  0.77852  0.29795  1.0000
  C   C1988     1.0  0.72894  0.72178  0.39041  1.0000
  H   H2366     1.0  0.84780  0.62989  0.46532  1.0000
  H   H2367     1.0  0.66877  0.72212  0.23513  1.0000
  H   H2368     1.0  0.90447  0.55367  0.43053  1.0000
  H   H2369     1.0  0.87445  0.57807  0.42181  1.0000
  C   C1989     1.0  0.92627  0.50383  0.25542  1.0000
  N   N131      1.0  0.85964  0.73876  0.38298  1.0000
  H   H2370     1.0  0.91598  0.71829  0.40825  1.0000
  C   C1990     1.0  0.84576  0.74703  0.36948  1.0000
  C   C1991     1.0  0.67248  0.78533  0.23698  1.0000
  H   H2371     1.0  0.92429  0.57544  0.39345  1.0000
  C   C1992     1.0  0.73605  0.84799  0.37649  1.0000
  C   C1993     1.0  0.93072  0.70516  0.43236  1.0000
  H   H2372     1.0  0.81109  0.53350  0.38852  1.0000
  H   H2373     1.0  0.81970  0.69415  0.46177  1.0000
  C   C1994     1.0  0.67462  0.81674  0.25524  1.0000
  C   C1995     1.0  0.85352  0.72105  0.39629  1.0000
  C   C1996     1.0  0.83035  0.74078  0.47943  1.0000
  H   H2374     1.0  0.70120  0.85736  0.41614  1.0000
  H   H2375     1.0  0.71826  0.73788  0.43339  1.0000
  H   H2376     1.0  0.78699  0.53729  0.38408  1.0000
  H   H2377     1.0  0.86495  0.78952  0.42380  1.0000
  H   H2378     1.0  0.88491  0.53940  0.26111  1.0000
  S   S533      1.0  0.97726  0.73156  0.45299  1.0000
  H   H2379     1.0  0.93278  0.71893  0.43397  1.0000
  S   S534      1.0  0.94898  0.68728  0.46374  1.0000
  C   C1997     1.0  0.87690  0.57131  0.40894  1.0000
  H   H2380     1.0  0.90593  0.58569  0.41190  1.0000
  H   H2381     1.0  0.77286  0.72150  0.35862  1.0000
  C   C1998     1.0  0.77300  0.51161  0.34586  1.0000
  C   C1999     1.0  0.87230  0.74676  0.40865  1.0000
  H   H2382     1.0  0.86827  0.55968  0.41356  1.0000
  H   H2383     1.0  0.78114  0.50600  0.40695  1.0000
  C   C2000     1.0  0.85588  0.93784  0.46810  1.0000
  H   H2384     1.0  0.89077  0.66818  0.45574  1.0000
  H   H2385     1.0  0.76201  0.56227  0.26151  1.0000
  H   H2386     1.0  0.81906  0.75395  0.48056  1.0000
  C   C2001     1.0  0.89645  0.52875  0.25440  1.0000
  C   C2002     1.0  0.86349  0.77926  0.41590  1.0000
  C   C2003     1.0  0.74763  0.90277  0.40209  1.0000
  H   H2387     1.0  0.72920  0.83669  0.37442  1.0000
  C   C2004     1.0  0.80917  0.69669  0.47548  1.0000
  H   H2388     1.0  0.89773  0.53589  0.42185  1.0000
  H   H2389     1.0  0.69898  0.86147  0.37452  1.0000
  H   H2390     1.0  0.98453  0.51701  0.26367  1.0000
  S   S535      1.0  0.74980  0.51274  0.26928  1.0000
  C   C2005     1.0  0.73240  0.56829  0.24353  1.0000
  H   H2391     1.0  0.86455  0.71233  0.40514  1.0000
  S   S536      1.0  0.94791  0.78783  0.44426  1.0000
  H   H2392     1.0  0.84365  0.80075  0.39949  1.0000
  Fe  Fe266     1.0  0.84929  0.50228  0.32629  1.0000
  H   H2393     1.0  0.88434  0.74562  0.36058  1.0000
  H   H2394     1.0  0.75405  0.70378  0.34910  1.0000
  C   C2006     1.0  0.73275  0.60269  0.23794  1.0000
  H   H2395     1.0  0.75993  0.86936  0.37368  1.0000
  S   S537      1.0  0.66387  0.74260  0.26559  1.0000
  H   H2396     1.0  0.70481  0.88794  0.41250  1.0000
  C   C2007     1.0  0.82605  0.49978  0.37720  1.0000
  S   S538      1.0  0.82359  0.54489  0.26770  1.0000
  H   H2397     1.0  0.76536  0.72929  0.38128  1.0000
  N   N132      1.0  0.72194  0.86141  0.38858  1.0000
  C   C2008     1.0  0.91139  0.51758  0.26416  1.0000
  C   C2009     1.0  0.75854  0.89132  0.38862  1.0000
  H   H2398     1.0  0.89009  0.84153  0.44751  1.0000
  C   C2010     1.0  0.78853  0.82795  0.46452  1.0000
  H   H2399     1.0  0.68039  0.77933  0.24924  1.0000
  Fe  Fe267     1.0  0.83815  0.53631  0.29354  1.0000
  C   C2011     1.0  0.72828  0.90145  0.41046  1.0000
  C   C2012     1.0  0.87935  0.73278  0.37106  1.0000
  H   H2400     1.0  0.88333  0.75507  0.42968  1.0000
  Fe  Fe268     1.0  0.95455  0.71415  0.47031  1.0000
  H   H2401     1.0  0.67251  0.79857  0.38705  1.0000
  S   S539      1.0  0.86141  0.50897  0.29445  1.0000
  H   H2402     1.0  0.71133  0.88157  0.36416  1.0000
  C   C2013     1.0  0.80432  0.53388  0.26863  1.0000
  S   S540      1.0  0.91088  0.52033  0.28756  1.0000
  H   H2403     1.0  0.73419  0.61141  0.26438  1.0000
  C   C2014     1.0  0.79870  0.79592  0.44644  1.0000
  H   H2404     1.0  0.80261  0.78360  0.43927  1.0000
  C   C2015     1.0  0.85155  0.78558  0.40218  1.0000
  H   H2405     1.0  0.79593  0.67946  0.45445  1.0000
  C   C2016     1.0  0.79424  0.50303  0.36978  1.0000
  C   C2017     1.0  0.71990  0.88834  0.40571  1.0000
  C   C2018     1.0  0.71381  0.84899  0.40712  1.0000
  H   H2406     1.0  0.71985  0.91047  0.42088  1.0000
  N   N133      1.0  0.87363  0.68687  0.47569  1.0000
  H   H2407     1.0  0.73985  0.80897  0.46559  1.0000
  H   H2408     1.0  0.70825  0.83707  0.40451  1.0000
  H   H2409     1.0  0.77054  0.79027  0.46058  1.0000
  H   H2410     1.0  0.83061  0.75189  0.37753  1.0000
  C   C2019     1.0  0.98108  0.52000  0.24935  1.0000
  N   N134      1.0  0.74471  0.58250  0.24146  1.0000
  C   C2020     1.0  0.73085  0.87586  0.39263  1.0000
  H   H2411     1.0  0.85158  0.71078  0.38811  1.0000
  C   C2021     1.0  0.86038  0.75275  0.39444  1.0000
  C   C2022     1.0  0.70957  0.72730  0.38685  1.0000
  H   H2412     1.0  0.93779  0.49510  0.26300  1.0000
  H   H2413     1.0  0.72519  0.84189  0.41605  1.0000
  C   C2023     1.0  0.69715  0.74044  0.41624  1.0000
  C   C2024     1.0  0.87380  0.75986  0.41919  1.0000
  C   C2025     1.0  0.92281  0.79792  0.44546  1.0000
  H   H2414     1.0  0.88087  0.73197  0.41140  1.0000
  H   H2415     1.0  0.71376  0.64391  0.25771  1.0000
  H   H2416     1.0  0.89063  0.72585  0.38010  1.0000
  H   H2417     1.0  0.75254  0.74173  0.36213  1.0000
  H   H2418     1.0  0.72470  0.82597  0.48001  1.0000
  H   H2419     1.0  0.77934  0.52758  0.23769  1.0000
  H   H2420     1.0  0.78113  0.53281  0.35575  1.0000
  Fe  Fe269     1.0  0.95451  0.75732  0.46231  1.0000
  C   C2026     1.0  0.79903  0.53464  0.25115  1.0000
  H   H2421     1.0  0.67953  0.74139  0.39608  1.0000
  C   C2027     1.0  0.66938  0.81976  0.23693  1.0000
  C   C2028     1.0  0.80678  0.82394  0.45217  1.0000
  C   C2029     1.0  0.89551  0.82601  0.44775  1.0000
  C   C2030     1.0  0.77466  0.81606  0.46808  1.0000
  H   H2422     1.0  0.83460  0.50423  0.38547  1.0000
  H   H2423     1.0  0.74577  0.72154  0.41160  1.0000
  H   H2424     1.0  0.77588  0.69625  0.46514  1.0000
  N   N135      1.0  0.74609  0.71340  0.37652  1.0000
  C   C2031     1.0  0.74522  0.75897  0.47231  1.0000
  H   H2425     1.0  0.76468  0.52266  0.33604  1.0000
  H   H2426     1.0  0.80430  0.50485  0.41265  1.0000
  H   H2427     1.0  0.74127  0.57793  0.27270  1.0000
  C   C2032     1.0  0.72857  0.61553  0.25114  1.0000
  H   H2428     1.0  0.87498  0.97670  0.46759  1.0000
  H   H2429     1.0  0.68411  0.80333  0.26091  1.0000
  H   H2430     1.0  0.83208  0.50459  0.36148  1.0000
  C   C2033     1.0  0.79725  0.50050  0.40290  1.0000
  S   S541      1.0  0.85402  0.86774  0.48257  1.0000
  C   C2034     1.0  0.82432  0.65403  0.47294  1.0000
  H   H2431     1.0  0.95079  0.53289  0.25901  1.0000
  C   C2035     1.0  0.85921  0.70568  0.47654  1.0000
  C   C2036     1.0  0.86609  0.96575  0.47286  1.0000
  H   H2432     1.0  0.74061  0.55286  0.24700  1.0000
  C   C2037     1.0  0.89138  0.68725  0.48223  1.0000
  H   H2433     1.0  0.80731  0.54120  0.23744  1.0000
  C   C2038     1.0  0.78613  0.68186  0.46852  1.0000
  C   C2039     1.0  0.83704  0.63584  0.47699  1.0000
  H   H2434     1.0  0.75199  0.85088  0.47859  1.0000
  Fe  Fe270     1.0  0.98630  0.72787  0.48149  1.0000
  C   C2040     1.0  0.89658  0.52647  0.23578  1.0000
  S   S542      1.0  0.71179  0.52973  0.23479  1.0000
  C   C2041     1.0  0.96213  0.52907  0.24666  1.0000
  H   H2435     1.0  0.77748  0.67018  0.47359  1.0000
  N   N136      1.0  0.75529  0.81967  0.48128  1.0000
  S   S543      1.0  0.81551  0.85323  0.48100  1.0000
  H   H2436     1.0  0.93248  0.81466  0.48005  1.0000
  H   H2437     1.0  0.90745  0.82692  0.48169  1.0000
  S   S544      1.0  0.81066  0.89914  0.48154  1.0000
  H   H2438     1.0  0.79490  0.98673  0.46370  1.0000
  H   H2439     1.0  0.82203  0.98593  0.43536  1.0000
  H   H2440     1.0  0.66076  0.59306  0.24236  1.0000
  C   C2042     1.0  0.83179  0.80956  0.51637  1.0000
  H   H2441     1.0  0.69146  0.85771  0.60555  1.0000
  S   S545      1.0  0.86124  0.56449  0.67619  1.0000
  C   C2043     1.0  0.77903  0.86197  0.52464  1.0000
  H   H2442     1.0  0.86360  0.73161  0.54343  1.0000
  C   C2044     1.0  0.92938  0.79451  0.51667  1.0000
  C   C2045     1.0  0.85153  0.71202  0.49450  1.0000
  H   H2443     1.0  0.70902  0.82310  0.61230  1.0000
  C   C2046     1.0  0.73835  0.75415  0.50761  1.0000
  H   H2444     1.0  0.78213  0.87435  0.51313  1.0000
  S   S546      1.0  0.86913  0.51743  0.71608  1.0000
  C   C2047     1.0  0.81736  0.79502  0.49867  1.0000
  H   H2445     1.0  0.90714  0.77518  0.50726  1.0000
  Fe  Fe271     1.0  0.87576  0.65448  0.56860  1.0000
  S   S547      1.0  0.87687  0.66458  0.53667  1.0000
  S   S548      1.0  0.88406  0.67222  0.58524  1.0000
  Fe  Fe272     1.0  0.85905  0.61954  0.57114  1.0000
  S   S549      1.0  0.85844  0.62677  0.53916  1.0000
  S   S550      1.0  0.84648  0.59400  0.59014  1.0000
  Fe  Fe273     1.0  0.88805  0.63292  0.53544  1.0000
  S   S551      1.0  0.91230  0.62749  0.51003  1.0000
  Fe  Fe274     1.0  0.84727  0.65773  0.54312  1.0000
  S   S552      1.0  0.82369  0.67915  0.52911  1.0000
  S   S553      1.0  0.88992  0.62313  0.56703  1.0000
  S   S554      1.0  0.84494  0.65015  0.57538  1.0000
  Fe  Fe275     1.0  0.73842  0.80072  0.56006  1.0000
  S   S555      1.0  0.75819  0.77874  0.54320  1.0000
  S   S556      1.0  0.73517  0.83260  0.54607  1.0000
  Fe  Fe276     1.0  0.72322  0.76958  0.59335  1.0000
  S   S557      1.0  0.74180  0.74470  0.57921  1.0000
  S   S558      1.0  0.70424  0.76448  0.62344  1.0000
  Fe  Fe277     1.0  0.76533  0.76202  0.57194  1.0000
  S   S559      1.0  0.79695  0.74927  0.57304  1.0000
  Fe  Fe278     1.0  0.73299  0.76373  0.55170  1.0000
  H   H2446     1.0  0.88993  0.59798  0.51531  1.0000
  S   S560      1.0  0.74763  0.78536  0.58835  1.0000
  S   S561      1.0  0.71253  0.78720  0.56632  1.0000
  C   C2048     1.0  0.89504  0.69137  0.57005  1.0000
  C   C2049     1.0  0.90478  0.69040  0.55083  1.0000
  C   C2050     1.0  0.91410  0.70548  0.53916  1.0000
  C   C2051     1.0  0.91329  0.72179  0.54660  1.0000
  C   C2052     1.0  0.90332  0.72291  0.56568  1.0000
  C   C2053     1.0  0.89442  0.70763  0.57745  1.0000
  H   H2447     1.0  0.90580  0.67769  0.54522  1.0000
  H   H2448     1.0  0.92190  0.70451  0.52447  1.0000
  H   H2449     1.0  0.88697  0.70847  0.59229  1.0000
  C   C2054     1.0  0.81696  0.69951  0.54008  1.0000
  C   C2055     1.0  0.79904  0.71261  0.53869  1.0000
  C   C2056     1.0  0.79307  0.72813  0.54858  1.0000
  C   C2057     1.0  0.80518  0.73084  0.55948  1.0000
  C   C2058     1.0  0.82348  0.71829  0.56016  1.0000
  C   C2059     1.0  0.82928  0.70249  0.55063  1.0000
  H   H2450     1.0  0.78939  0.71041  0.53065  1.0000
  H   H2451     1.0  0.77885  0.73765  0.54821  1.0000
  H   H2452     1.0  0.83285  0.72028  0.56868  1.0000
  H   H2453     1.0  0.84315  0.69248  0.55181  1.0000
  C   C2060     1.0  0.89382  0.60403  0.49990  1.0000
  C   C2061     1.0  0.66859  0.83165  0.61403  1.0000
  H   H2454     1.0  0.69292  0.83076  0.56704  1.0000
  C   C2062     1.0  0.78878  0.83566  0.55098  1.0000
  C   C2063     1.0  0.77106  0.82970  0.55405  1.0000
  C   C2064     1.0  0.75716  0.84014  0.54270  1.0000
  C   C2065     1.0  0.76105  0.85644  0.52818  1.0000
  H   H2455     1.0  0.79949  0.82762  0.55981  1.0000
  H   H2456     1.0  0.76813  0.81713  0.56533  1.0000
  H   H2457     1.0  0.75033  0.86460  0.51939  1.0000
  S   S562      1.0  0.92423  0.74119  0.53227  1.0000
  C   C2066     1.0  0.85860  0.57130  0.65176  1.0000
  C   C2067     1.0  0.84601  0.56361  0.64548  1.0000
  C   C2068     1.0  0.84282  0.57031  0.62634  1.0000
  C   C2069     1.0  0.85231  0.58460  0.61336  1.0000
  C   C2070     1.0  0.86544  0.59183  0.61942  1.0000
  C   C2071     1.0  0.86848  0.58528  0.63865  1.0000
  H   H2458     1.0  0.83833  0.55284  0.65551  1.0000
  H   H2459     1.0  0.83270  0.56464  0.62170  1.0000
  H   H2460     1.0  0.87305  0.60262  0.60937  1.0000
  H   H2461     1.0  0.87841  0.59107  0.64342  1.0000
  S   S563      1.0  0.86152  0.51061  0.67517  1.0000
  Fe  Fe279     1.0  0.85415  0.53505  0.69142  1.0000
  H   H2462     1.0  0.93751  0.67643  0.50688  1.0000
  C   C2072     1.0  0.80750  0.98183  0.57047  1.0000
  H   H2463     1.0  0.86139  0.62946  0.63583  1.0000
  H   H2464     1.0  0.90267  0.73550  0.57148  1.0000
  C   C2073     1.0  0.67872  0.77146  0.62495  1.0000
  H   H2465     1.0  0.76644  0.79927  0.50506  1.0000
  H   H2466     1.0  0.81402  0.97490  0.58362  1.0000
  H   H2467     1.0  0.68049  0.78071  0.59409  1.0000
  Fe  Fe280     1.0  0.94372  0.73593  0.50370  1.0000
  H   H2468     1.0  0.92720  0.78072  0.52729  1.0000
  C   C2074     1.0  0.68804  0.85442  0.59275  1.0000
  C   C2075     1.0  0.95711  0.65556  0.53453  1.0000
  H   H2469     1.0  0.79922  0.65556  0.51971  1.0000
  H   H2470     1.0  0.70047  0.85671  0.58017  1.0000
  H   H2471     1.0  0.80387  0.80685  0.49906  1.0000
  H   H2472     1.0  0.93683  0.65645  0.49678  1.0000
  C   C2076     1.0  0.68025  0.83060  0.57963  1.0000
  C   C2077     1.0  0.91892  0.81982  0.49051  1.0000
  H   H2473     1.0  0.81093  0.98684  0.53054  1.0000
  N   N137      1.0  0.82576  0.79152  0.51625  1.0000
  H   H2474     1.0  0.67618  0.81611  0.58282  1.0000
  H   H2475     1.0  0.77288  0.70222  0.49655  1.0000
  C   C2078     1.0  0.77176  0.74608  0.48992  1.0000
  C   C2079     1.0  0.80980  0.78815  0.53353  1.0000
  H   H2476     1.0  0.83430  0.75745  0.54507  1.0000
  C   C2080     1.0  0.91030  0.78866  0.49668  1.0000
  S   S564      1.0  0.72144  0.75585  0.52947  1.0000
  H   H2477     1.0  0.73705  0.83941  0.50000  1.0000
  H   H2478     1.0  0.86054  0.67190  0.50394  1.0000
  H   H2479     1.0  0.91038  0.50287  0.70651  1.0000
  H   H2480     1.0  0.81440  0.78698  0.54740  1.0000
  H   H2481     1.0  0.83381  0.94860  0.51268  1.0000
  H   H2482     1.0  0.93400  0.50467  0.72521  1.0000
  H   H2483     1.0  0.96852  0.61889  0.52835  1.0000
  S   S565      1.0  0.81572  0.85793  0.53100  1.0000
  H   H2484     1.0  0.76339  0.74298  0.52116  1.0000
  H   H2485     1.0  0.84600  0.61117  0.49916  1.0000
  S   S566      1.0  0.82438  0.52945  0.70729  1.0000
  H   H2486     1.0  0.88734  0.76071  0.48621  1.0000
  C   C2081     1.0  0.81002  0.66206  0.48795  1.0000
  H   H2487     1.0  0.85794  0.65480  0.62412  1.0000
  H   H2488     1.0  0.83553  0.63656  0.66503  1.0000
  N   N138      1.0  0.91298  0.80338  0.50619  1.0000
  H   H2489     1.0  0.74011  0.80489  0.50858  1.0000
  H   H2490     1.0  0.85613  0.70339  0.50779  1.0000
  H   H2491     1.0  0.92372  0.78383  0.48597  1.0000
  C   C2082     1.0  0.89473  0.80941  0.52014  1.0000
  C   C2083     1.0  0.88744  0.79537  0.53621  1.0000
  C   C2084     1.0  0.88370  0.82904  0.51831  1.0000
  C   C2085     1.0  0.87041  0.80074  0.54977  1.0000
  C   C2086     1.0  0.86664  0.83421  0.53191  1.0000
  C   C2087     1.0  0.86009  0.82016  0.54766  1.0000
  C   C2088     1.0  0.70378  0.82054  0.60021  1.0000
  C   C2089     1.0  0.93796  0.66040  0.51028  1.0000
  N   N139      1.0  0.68494  0.83413  0.59705  1.0000
  H   H2492     1.0  0.81913  0.82225  0.51696  1.0000
  C   C2090     1.0  0.73177  0.75979  0.49000  1.0000
  H   H2493     1.0  0.84280  0.81393  0.50313  1.0000
  Fe  Fe281     1.0  0.82295  0.86990  0.49888  1.0000
  C   C2091     1.0  0.85885  0.77534  0.49952  1.0000
  H   H2494     1.0  0.77256  0.67693  0.50703  1.0000
  H   H2495     1.0  0.89494  0.78010  0.53843  1.0000
  H   H2496     1.0  0.88784  0.84075  0.50651  1.0000
  H   H2497     1.0  0.86521  0.78976  0.56195  1.0000
  H   H2498     1.0  0.85834  0.84926  0.53018  1.0000
  H   H2499     1.0  0.92180  0.48951  0.60217  1.0000
  C   C2092     1.0  0.75400  0.80248  0.49755  1.0000
  H   H2500     1.0  0.93098  0.65803  0.58099  1.0000
  H   H2501     1.0  0.83365  0.66187  0.65385  1.0000
  H   H2502     1.0  0.89800  0.79478  0.48876  1.0000
  H   H2503     1.0  0.76257  0.83563  0.49893  1.0000
  C   C2093     1.0  0.87549  0.76014  0.49887  1.0000
  C   C2094     1.0  0.78239  0.68749  0.50048  1.0000
  N   N140      1.0  0.83115  0.64374  0.63542  1.0000
  C   C2095     1.0  0.82573  0.62449  0.63875  1.0000
  C   C2096     1.0  0.85235  0.64124  0.62655  1.0000
  C   C2097     1.0  0.82794  0.64873  0.65477  1.0000
  C   C2098     1.0  0.81968  0.65972  0.62276  1.0000
  C   C2099     1.0  0.80513  0.65670  0.61446  1.0000
  C   C2100     1.0  0.82269  0.67916  0.61866  1.0000
  C   C2101     1.0  0.79411  0.67230  0.60316  1.0000
  C   C2102     1.0  0.81145  0.69465  0.60750  1.0000
  C   C2103     1.0  0.79713  0.69123  0.59985  1.0000
  H   H2504     1.0  0.82853  0.61938  0.62483  1.0000
  H   H2505     1.0  0.83443  0.61278  0.64843  1.0000
  H   H2506     1.0  0.81007  0.62508  0.64591  1.0000
  H   H2507     1.0  0.85551  0.63712  0.61216  1.0000
  H   H2508     1.0  0.87528  0.65599  0.48828  1.0000
  H   H2509     1.0  0.81205  0.65174  0.66150  1.0000
  C   C2104     1.0  0.82212  0.63253  0.51109  1.0000
  H   H2510     1.0  0.80209  0.64241  0.61624  1.0000
  H   H2511     1.0  0.83382  0.68255  0.62400  1.0000
  H   H2512     1.0  0.78320  0.66970  0.59682  1.0000
  H   H2513     1.0  0.81390  0.70943  0.60457  1.0000
  H   H2514     1.0  0.78848  0.70329  0.59117  1.0000
  C   C2105     1.0  0.75836  0.74743  0.50756  1.0000
  H   H2515     1.0  0.97325  0.66761  0.49490  1.0000
  H   H2516     1.0  0.70240  0.80497  0.60352  1.0000
  C   C2106     1.0  0.84302  0.94982  0.49827  1.0000
  C   C2107     1.0  0.84309  0.77506  0.51589  1.0000
  C   C2108     1.0  0.84527  0.75883  0.53180  1.0000
  C   C2109     1.0  0.93385  0.49076  0.72229  1.0000
  C   C2110     1.0  0.86209  0.74378  0.53106  1.0000
  C   C2111     1.0  0.67127  0.81907  0.63224  1.0000
  H   H2517     1.0  0.75439  0.78905  0.49259  1.0000
  H   H2518     1.0  0.81763  0.69690  0.48629  1.0000
  C   C2112     1.0  0.95566  0.62786  0.52207  1.0000
  H   H2519     1.0  0.80479  0.77456  0.53446  1.0000
  H   H2520     1.0  0.94219  0.62465  0.53266  1.0000
  H   H2521     1.0  0.88813  0.68912  0.49752  1.0000
  C   C2113     1.0  0.88837  0.59683  0.48629  1.0000
  C   C2114     1.0  0.87713  0.74443  0.51462  1.0000
  C   C2115     1.0  0.80927  0.65065  0.50722  1.0000
  H   H2522     1.0  0.93121  0.80478  0.52486  1.0000
  H   H2523     1.0  0.84677  0.82436  0.55805  1.0000
  C   C2116     1.0  0.79284  0.85169  0.53614  1.0000
  C   C2117     1.0  0.85401  0.96451  0.49141  1.0000
  C   C2118     1.0  0.66599  0.76945  0.64321  1.0000
  S   S567      1.0  0.96522  0.70846  0.49823  1.0000
  H   H2524     1.0  0.81352  0.78153  0.49743  1.0000
  H   H2525     1.0  0.85854  0.78751  0.48720  1.0000
  H   H2526     1.0  0.82147  0.62425  0.52596  1.0000
  C   C2119     1.0  0.97287  0.65183  0.50056  1.0000
  N   N141      1.0  0.95611  0.64903  0.51712  1.0000
  C   C2120     1.0  0.94251  0.65989  0.56812  1.0000
  Fe  Fe282     1.0  0.87442  0.49271  0.70082  1.0000
  H   H2527     1.0  0.78720  0.74067  0.48997  1.0000
  C   C2121     1.0  0.84386  0.93660  0.48667  1.0000
  C   C2122     1.0  0.83600  0.62517  0.49604  1.0000
  H   H2528     1.0  0.83527  0.92539  0.49211  1.0000
  H   H2529     1.0  0.92456  0.65773  0.52125  1.0000
  H   H2530     1.0  0.83147  0.73354  0.50989  1.0000
  H   H2531     1.0  0.94353  0.79055  0.50648  1.0000
  S   S568      1.0  0.96545  0.75503  0.48930  1.0000
  S   S569      1.0  0.81091  0.49454  0.68260  1.0000
  H   H2532     1.0  0.92200  0.83114  0.49653  1.0000
  H   H2533     1.0  0.83821  0.80761  0.52928  1.0000
  Fe  Fe283     1.0  0.83320  0.50332  0.69326  1.0000
  C   C2123     1.0  0.90485  0.61859  0.49346  1.0000
  H   H2534     1.0  0.95578  0.67648  0.57982  1.0000
  H   H2535     1.0  0.71568  0.82241  0.58708  1.0000
  H   H2536     1.0  0.78781  0.50410  0.72018  1.0000
  S   S570      1.0  0.85232  0.98065  0.50675  1.0000
  H   H2537     1.0  0.79673  0.80045  0.53311  1.0000
  H   H2538     1.0  0.95560  0.62243  0.50902  1.0000
  C   C2124     1.0  0.83732  0.72929  0.49587  1.0000
  C   C2125     1.0  0.97134  0.66595  0.53449  1.0000
  H   H2539     1.0  0.81399  0.97150  0.56035  1.0000
  H   H2540     1.0  0.78958  0.68853  0.51192  1.0000
  C   C2126     1.0  0.75162  0.83718  0.48996  1.0000
  H   H2541     1.0  0.89022  0.73287  0.51422  1.0000
  H   H2542     1.0  0.71627  0.76499  0.49008  1.0000
  H   H2543     1.0  0.98709  0.64383  0.50473  1.0000
  H   H2544     1.0  0.66793  0.84186  0.57440  1.0000
  C   C2127     1.0  0.67100  0.77995  0.60818  1.0000
  H   H2545     1.0  0.98151  0.68166  0.55015  1.0000
  Fe  Fe284     1.0  0.84007  0.50953  0.73043  1.0000
  H   H2546     1.0  0.79146  0.98238  0.57481  1.0000
  H   H2547     1.0  0.93120  0.64528  0.55297  1.0000
  H   H2548     1.0  0.88013  0.58534  0.49121  1.0000
  C   C2128     1.0  0.97084  0.67329  0.55072  1.0000
  C   C2129     1.0  0.94281  0.65259  0.55195  1.0000
  H   H2549     1.0  0.68531  0.81005  0.63465  1.0000
  C   C2130     1.0  0.92038  0.48972  0.71187  1.0000
  H   H2550     1.0  0.67490  0.86549  0.58899  1.0000
  H   H2551     1.0  0.98275  0.66904  0.52193  1.0000
  H   H2552     1.0  0.67185  0.76270  0.65626  1.0000
  C   C2131     1.0  0.86488  0.67044  0.48855  1.0000
  H   H2553     1.0  0.97172  0.64651  0.48785  1.0000
  C   C2132     1.0  0.95640  0.67037  0.56745  1.0000
  H   H2554     1.0  0.75374  0.49909  0.72845  1.0000
  H   H2555     1.0  0.82751  0.80003  0.48496  1.0000
  H   H2556     1.0  0.85145  0.66967  0.48426  1.0000
  N   N142      1.0  0.79709  0.68162  0.48335  1.0000
  S   S571      1.0  0.74170  0.50310  0.82050  1.0000
  Fe  Fe285     1.0  0.68887  0.53269  0.83414  1.0000
  S   S572      1.0  0.70456  0.53358  0.80309  1.0000
  H   H2557     1.0  0.77321  0.49593  0.90450  1.0000
  C   C2133     1.0  0.78204  0.54806  0.76654  1.0000
  S   S573      1.0  0.74860  0.55638  0.79377  1.0000
  H   H2558     1.0  0.80741  0.54004  0.74464  1.0000
  S   S574      1.0  0.71373  0.53790  0.84401  1.0000
  C   C2134     1.0  0.77205  0.54288  0.78575  1.0000
  Fe  Fe286     1.0  0.73032  0.53563  0.81363  1.0000
  Fe  Fe287     1.0  0.71452  0.50120  0.81244  1.0000
  C   C2135     1.0  0.75351  0.50031  0.74353  1.0000
  H   H2559     1.0  0.71109  0.58173  0.81042  1.0000
  H   H2560     1.0  0.77580  0.56109  0.75696  1.0000
  H   H2561     1.0  0.67961  0.56962  0.85066  1.0000
  H   H2562     1.0  0.86620  0.51236  0.76150  1.0000
  H   H2563     1.0  0.74891  0.51613  0.74427  1.0000
  H   H2564     1.0  0.66533  0.59723  0.81072  1.0000
  C   C2136     1.0  0.78034  0.52618  0.79815  1.0000
  H   H2565     1.0  0.67095  0.62675  0.81547  1.0000
  C   C2137     1.0  0.67728  0.65316  0.76134  1.0000
  H   H2566     1.0  0.69827  0.59387  0.76307  1.0000
  C   C2138     1.0  0.78695  0.50346  0.73590  1.0000
  H   H2567     1.0  0.78091  0.51129  0.91548  1.0000
  H   H2568     1.0  0.69453  0.60095  0.82081  1.0000
  H   H2569     1.0  0.74178  0.49311  0.75353  1.0000
  C   C2139     1.0  0.79985  0.53606  0.75951  1.0000
  Fe  Fe288     1.0  0.72291  0.50506  0.85002  1.0000
  H   H2570     1.0  0.71229  0.57714  0.77965  1.0000
  H   H2571     1.0  0.67138  0.60460  0.85369  1.0000
  S   S575      1.0  0.69666  0.49999  0.84268  1.0000
  C   C2140     1.0  0.67606  0.59138  0.79848  1.0000
  C   C2141     1.0  0.66641  0.66318  0.77600  1.0000
  C   C2142     1.0  0.68634  0.63334  0.76601  1.0000
  H   H2572     1.0  0.71862  0.60035  0.76856  1.0000
  N   N143      1.0  0.69261  0.60161  0.79122  1.0000
  C   C2143     1.0  0.79810  0.51419  0.79113  1.0000
  C   C2144     1.0  0.66374  0.51325  0.79626  1.0000
  H   H2573     1.0  0.76796  0.50849  0.77073  1.0000
  C   C2145     1.0  0.70597  0.59301  0.77482  1.0000
  C   C2146     1.0  0.67344  0.63367  0.80023  1.0000
  C   C2147     1.0  0.66518  0.57839  0.84952  1.0000
  C   C2148     1.0  0.68461  0.62294  0.78571  1.0000
  C   C2149     1.0  0.70386  0.59752  0.80688  1.0000
  H   H2574     1.0  0.68111  0.57538  0.80396  1.0000
  C   C2150     1.0  0.80766  0.51891  0.77170  1.0000
  H   H2575     1.0  0.77309  0.52256  0.81321  1.0000
  S   S576      1.0  0.82875  0.50254  0.76284  1.0000
  H   H2576     1.0  0.69433  0.62648  0.75390  1.0000
  N   N144      1.0  0.77295  0.49145  0.74875  1.0000
  H   H2577     1.0  0.66778  0.59334  0.78687  1.0000
  H   H2578     1.0  0.80422  0.50110  0.80071  1.0000
  C   C2151     1.0  0.86431  0.49492  0.79068  1.0000
  H   H2579     1.0  0.71559  0.60610  0.80246  1.0000
  H   H2580     1.0  0.86405  0.49963  0.83458  1.0000
  C   C2152     1.0  0.87425  0.50197  0.77197  1.0000
  H   H2581     1.0  0.67827  0.66079  0.74624  1.0000
  H   H2582     1.0  0.90208  0.50143  0.75220  1.0000
  H   H2583     1.0  0.84862  0.50029  0.79402  1.0000
  H   H2584     1.0  0.76329  0.50626  0.85661  1.0000
  C   C2153     1.0  0.77097  0.50097  0.91837  1.0000
  H   H2585     1.0  0.75572  0.50961  0.92158  1.0000
  H   H2586     1.0  0.84204  0.50161  0.82633  1.0000
  H   H2587     1.0  0.67956  0.51139  0.79298  1.0000
  C   C2154     1.0  0.89445  0.49582  0.76669  1.0000
  C   C2155     1.0  0.66457  0.65347  0.79541  1.0000
  C   C2156     1.0  0.66051  0.59814  0.85128  1.0000
  H   H2588     1.0  0.78255  0.51894  0.73782  1.0000
  C   C2157     1.0  0.77169  0.49292  0.76911  1.0000
  H   H2589     1.0  0.80191  0.49768  0.73915  1.0000
  H   H2590     1.0  0.79888  0.49673  0.85731  1.0000
  H   H2591     1.0  0.75677  0.49870  0.95737  1.0000
  H   H2592     1.0  0.78116  0.50342  0.94964  1.0000
  C   C2158     1.0  0.77244  0.49202  0.95233  1.0000
  C   C2159     1.0  0.85336  0.49125  0.83404  1.0000
  C   C2160     1.0  0.76937  0.49193  0.86445  1.0000
