data_image0
_chemical_formula_structural       HC3H5C3H4CHCH3SHC2H3C2HCFeH2FeSH3FeHCSHCFeH2S2CHFeS2FeS2FeSFeS2H2CFeS2HFeH2S2HSC2HC6H4C5SH3C6H5CH2CSCH2C6H5CH2CNC2HCH2CHCSHCS2C2H2CH3C2HC2NH4NC10HCH10NC7H9CNC9H12SC2H3FeH4CHS2HCHFeH3CHCHC2NH4C2HCHCFeS2CHCFeS4HCFeS2Fe2CFeSHCS2FeS2FeS2FeSFeCSHFeS2HSHFeSFeSCSC4NH2C6H11CSHNCHCHC3SCH3FeH2C3HCHCHC6H4C6HCNC9H11CH2FeH5CHCHCH3CH2C2HCHC3H2CHCHCFeHCHCH8NH4CHCH3SHC2HC2HCSCHC2NCH3CH3CHNCHSC6H3CH3CHCH3CNCH2C3HFeH3SH5C3HSHFeS2NFeS2FeS2FeS2FeSHS2FeS2FeS2FeHFeS3C2SHCHCH3C3H2C4HCH3C2HCHSH3C6H4C6H4C6H5C2H2CH6CH4CHC4H2C2HSCH2C3H2NC2HCH3C2H2CH5CNCFeCHC3H4C2HC3NHCHCH3C2HC2HCH6NH3CFeHCHCH3FeSHS2HFeSFeS2CFeS2FeS2HCFeSCSCHC2HFeSHFeS3FeS2C6H3C7H4CH4CH6C8H4C2NH2NHCH5FeC2SC2HCSCNH2CH4CH2CH2C2HCHC6SHCSH3C2H6C5HCHCH4C3H3NC2NHFeCH3CSFeHC2H2NCH2C2HSHCH2CH2CH9CH4SHCS2FeSCFeS2Fe2S3FeS2FeS2FeSFeS3FeS2FeS2FeSFeS3CFeS3H3FeSHC6H4C6H4C5H3NC2NC6H4C3H3C5H3C7H4C3HCFeSC6H9CHSCHC6SCH2CH2C2H2C3NC2FeC6H6C3H5CH3NC9H16CH2CNC2H3NC4H10SHCHSH2C4HCHC2H9C3Fe2HCNC5HCH10CH2C2NH2CFeCH7CH2C3H2CH5NCHNHCH3CHCH2FeH2CH2SH9C2H3CHSCH4SHFeS2FeS2FeSFeS3H2SCFeS2FeS2FeSFeHS2FeS2FeS2FeSFeS3FeCS2HC6H3C4H3C11H4C2H3C8H4C6H4C6H4C6H2C2HC2H2CH3CH2C2H5CH2CH3CHSCHCHNC9H14CNCHC2H2C2SH2C2NH2CSHSHC2NCH2CHFeHC3HSH2C4HC2H3C2H2CHC2HNH3CH2CHC2HC2H2C2HC2H2CHCHCHNCH2CHC2H3C2HCNCHCH3CSH2CHCHSH3CH3CHC2NH3CSCHC2HCHC2H4CH4Fe2H2NH4CH2C4H3CHCNHC6H3SHSH2CHFeHCH2CHSCH2CHC2H3CH5C3H2C4H3C2HC2HCHC2H2FeS2FeS2FeS2H2SH2FeSCFeS2FeSFeS2FeS2FeS2FeHFeHS2H3FeHCHCHCH2C7H5CHCSCHCHC7H3C5H3C6H4CH2CH2C2FeCHCHCH2CH3C2H2C2NCH3C2H3NC9H14N2C9H11SH2NC9H11NC2H4C2HCHSHCHCHCFeHFeH2CHC4HCSCSH5SH7CH4CH2C2HCNCSHFeS2CFeS2FeS2FeCFeS3FeS2FeSHFeSFeS3HC6H4C4HCHCHCHC6H8C7H3C6H6CHC2H8SH2CNHC3HNC4HCH4C2HCHCH3CH3NC9H16C2HCHCH2CHCSH3C2NH2CH3C2H2SC6FeH3C2H2CH2SHCHC2HNH2CH3CHC3H2NSC2H2C2HC2FeH3CH2SC3HC2HC2H2SH3CH5CHCHCH3C2HCHCFeSCH2SFeS2HFeSCSH3NS2FeS2FeS2FeSFeS3FeS2FeSFeSFeS3HC4HC7H4C6H4C2H4CH3C2HC4H2C8H4C6H3C4HCH2CHCHCH5NC11H2C2HFeH4CH4SNSH2NH2NFeC3HC4HC3HFeHSHCH5CH5CHNHC2FeH4C3H4CH2C3HCHCHC2H3SHCH2CSHSHNHCH2CHCH2C5H2SC2HC2HC5HNCSCH7CHCHCH2C3H2CH2CH2CH2C2HSH2CH3C2HC3H3SFeHCHCSHFeCSHC2HFeS2HFeSHS2CH3CSC2FeS2FeSFe2CS2FeHCFeS2Fe2HS2HC3HC3H3C5HC2SC3SC4H4C6H6C4H3C7H5CHCH2CSH3FeHC2H2CFeSHC5H2NCH2C2SH2SHC2H2NHCHSH5NH2SHCHCHNH3NCHC2H2C3HC2SH2CNHCHC2HSCFeH4CH2C3H2CH2CSCHSH8CH4CH3CH4CH3FeS2HCHCHSCHSFeS2FeCFe2HFeCS2FeCSFeH2CHS3FeS2FeS2FeSFeNS2NC2H3SCHSC7H4SHNCHCHC7H7C3SH3C6H3SC6H2NC9H2CHCHC2H3CHSH2CH9FeCHCHCHCHCHFeH2C2HCH3CHSHCFeC4H4SCH2NH2NC3HCHCH6SNH3CHC3HCH4CH5CHC2H3FeH7C2HCHC3HCH4FeSHFeSCFeSFeCSCHS3CH2NH3SCFeSFe2S2FeSFeS3FeHFeS2FeC3S2H6SC5FeH6C6H5C6H5CSCHCH2CHC2SC3H4FeHC5HCH2C2H8NCHCHC2HCHSH2SHCH12CHFeCNH2SC6HCHCHC2HSHCHCHNC9H6CH6CSFeNC9H14CH2CHCHSHCHC3H5NC4H2CHC3H4CHSH4C3HS2FeS2FeS2CSHFeS2FeS2FeSFeS2FeHFeS2FeNHCS2C9H5SCH4C7H4C6H4C5SH2NHCHCH2CHCHFeC5HC2H3CHNH3NH4NCNC8H5CH4C3H3CHCFeH2C3H2CHCSCHCH2FeCHCNC9H12CH3SCHCHCH5CHCHSCH3CH2SCHC5H3CSC2H2NH3CH5C2H7CSHSH3CH4C2FeHCHSC2H2SCSFeH3C4FeCSC2HCSFeS2CH3CFeSFeS2FeSCFeSFeS2FeS2FeS2FeSFeS2C8H6C2HCH3CH5CHCH3CFeHCHC2HC5H3C6H6CH5C2NHC3HNCHCH4CNC5H2C2H3CH4SH5NC6HC2SH2CSCSH4CH2NC7HCH2CH8SH2CH3CH2CH3CHSHCH2C4HCH4CH2NC2HC2HCH3CNC4NHCSH3C2H3CH2CHCHC2HCHCHC2H5SCNCHSH3C2H3SH3CHC3FeS2FeS2FeSFeS3FeC2SFeS2FeCS2FeSFeS2Fe2S3FeS2FeS2FeSFeS4C2SC6H5CFeCH2CH4C6H4CHCH2CHCHFeC6H4C6H4C6H5C5H5NC9H15CH2CHNCHC2H4C2HNCHC2H3SC2FeHNC2NCHC2HCHC2HCHCH2NC2HCHC2H3NC6H11NHC5H2CH4FeH2C3H4C2H3C2HC2H5C2S2H4CH2C2H4CH2CHC2HC2NCH4CHC2HC2H3C4H6C2H9SHC2HC2HSC2HC2H2CH3SC4HSH5CH2CH2CHC3HCHC2FeS2FeS2FeSFeS3HSHCSFeSHFeS2FeSFeS3H2NSHSFeS2FeS2FeSFeS3C6H4C6H3C2H2C3H5C3H2C5H4CHCHCH3CFeC6H4C6H4C6H6CNC9H14C5H3CNCHCH2C4H2CNC7H7NC9H16NC2HFeHC2HCH8C2HC4H4C2NH4C2HCHFeCH2NC4H4CH4CSHC4HCH4SH3CH2CH3S3HC2H5C3H2CH4C2HNH2CNHC2SHC2HSCHFeC4H2CHC2HCHCHCH2NH5C2SHSHFeS2FeSFeHFeCS2FeSHFeS2FeSFeS3H3C2SC2H2C6HNH5CHC3HCHNCHCH2C2H2SC2FeH4SH3C2HCH2C8H7CH3C2HSC2H8CH2C4H2C2HSC3H3NCH2C4H5CHCH4SCH2CHNC3H3C2H6CH2CH3C2HSHSH3C2SFeS2FeS2Fe3S3FeCNFeS2FeHCHS2H3C8H4CH3C2SCHC7H3C3H5SC4H2CH5CH3CHCHFeCSCHCHC2HNFeCHCHCH2C3H3CH2C3HCHFeC3H3CSHNHC2HC2H2SCH3CH3S2HFe2S2FeSHSH4SC2HFeCSH2CH2FeS2FeS2FeSFeS3FeS2FeS2FeSFeS3HCHCHC6H5C2H4C3H4CHC3HC3NC6H3C4H2CH2C7H4C6H2CNC7H6CSH3CHC3SC3H2CH2CHCH9SHNCH5C2HC4HCSH4CHNC2HCHC2H4SCH3CHCHC3SFeH3C2SHC2SC2NCH6CHS2H3CHNH5CHCHCHCH3C2HC4H2C3H3CHC2HNH3CHC3H6CFeS2HCHCFeS2FeS2FeS2H3FeSCSHFeSH2SFeSFeSCSFeS2FeS2Fe2CS2HC3HC2H2CHC4SH3C2H6C6H4C6H4C7H4NH2CNSHC3HCHNHC3H4C2HFeHCHCHC3H2CSCHSH4CH4CH4C2H2CSH2SCH3CH2CH3C4HC3H4CHFeHFeNHCH3C2FeSCH6C2HCHCH4CH2CNH3NHCSNCH3SH2FeH3CHCH2CHC3HCHCH3CHC2HC2HCH4CHNC2SHCHCHCH2C2H3CHC3H6CHCHCH2C3H3C2HC2H3C2H2NCH2CSH2CSHCH4C5HC2H3C
_chemical_formula_sum              "H2592 C2160 S576 Fe288 N144"
_cell_length_a       68.155
_cell_length_b       68.5239
_cell_length_c       68.5555
_cell_angle_alpha    81.4204
_cell_angle_beta     81.4451
_cell_angle_gamma    81.4798

_space_group_name_H-M_alt    "P 1"
_space_group_IT_number       1

loop_
  _space_group_symop_operation_xyz
  'x, y, z'

loop_
  _atom_site_type_symbol
  _atom_site_label
  _atom_site_symmetry_multiplicity
  _atom_site_fract_x
  _atom_site_fract_y
  _atom_site_fract_z
  _atom_site_occupancy
  H   H1        1.0  0.02127  0.26770  0.99536  1.0000
  C   C1        1.0  0.01243  0.27586  0.98421  1.0000
  C   C2        1.0  0.47003  0.11082  0.00056  1.0000
  C   C3        1.0  0.99158  0.28048  0.98899  1.0000
  H   H2        1.0  0.46184  0.11095  0.98812  1.0000
  H   H3        1.0  0.48581  0.09611  0.07027  1.0000
  H   H4        1.0  0.47957  0.12266  0.06875  1.0000
  H   H5        1.0  0.47141  0.13760  0.03780  1.0000
  H   H6        1.0  0.45237  0.13696  0.01047  1.0000
  C   C4        1.0  0.47593  0.12579  0.02861  1.0000
  C   C5        1.0  0.46484  0.12552  0.01307  1.0000
  C   C6        1.0  0.48619  0.09623  0.00365  1.0000
  H   H7        1.0  0.17268  0.04801  0.46628  1.0000
  H   H8        1.0  0.00928  0.18972  0.45552  1.0000
  H   H9        1.0  0.99434  0.18389  0.43022  1.0000
  H   H10       1.0  0.13809  0.11060  0.46967  1.0000
  C   C7        1.0  0.99817  0.19538  0.46695  1.0000
  H   H11       1.0  0.02399  0.13927  0.46006  1.0000
  C   C8        1.0  0.16014  0.08586  0.47803  1.0000
  H   H12       1.0  0.00650  0.01908  0.34764  1.0000
  H   H13       1.0  0.99957  0.20949  0.42588  1.0000
  H   H14       1.0  0.19377  0.06214  0.45959  1.0000
  S   S1        1.0  0.99043  0.14016  0.43909  1.0000
  H   H15       1.0  0.15441  0.99681  0.46423  1.0000
  C   C9        1.0  0.99852  0.02723  0.33522  1.0000
  C   C10       1.0  0.18704  0.05061  0.47071  1.0000
  H   H16       1.0  0.19713  0.03628  0.46969  1.0000
  H   H17       1.0  0.00399  0.01958  0.32176  1.0000
  H   H18       1.0  0.16037  0.08032  0.46407  1.0000
  C   C11       1.0  0.01059  0.14162  0.47053  1.0000
  C   C12       1.0  0.99176  0.14250  0.46423  1.0000
  H   H19       1.0  0.00332  0.04231  0.33170  1.0000
  C   C13       1.0  0.14631  0.98406  0.46588  1.0000
  Fe  Fe1       1.0  0.47130  0.28072  0.60194  1.0000
  H   H20       1.0  0.40296  0.22699  0.56026  1.0000
  H   H21       1.0  0.07017  0.99779  0.66625  1.0000
  Fe  Fe2       1.0  0.46294  0.24798  0.58004  1.0000
  S   S2        1.0  0.46898  0.26635  0.55010  1.0000
  H   H22       1.0  0.00141  0.24914  0.55920  1.0000
  H   H23       1.0  0.14116  0.98732  0.58661  1.0000
  H   H24       1.0  0.37243  0.02578  0.61087  1.0000
  Fe  Fe3       1.0  0.45127  0.29207  0.56472  1.0000
  H   H25       1.0  0.35008  0.02211  0.60149  1.0000
  C   C14       1.0  0.00409  0.19377  0.48587  1.0000
  S   S3        1.0  0.44303  0.27321  0.59352  1.0000
  H   H26       1.0  0.40398  0.30549  0.58645  1.0000
  C   C15       1.0  0.27179  0.99672  0.57027  1.0000
  Fe  Fe4       1.0  0.21465  0.98709  0.56186  1.0000
  H   H27       1.0  0.07599  0.25601  0.60429  1.0000
  H   H28       1.0  0.21452  0.04260  0.49413  1.0000
  S   S4        1.0  0.44979  0.05747  0.62452  1.0000
  S   S5        1.0  0.99640  0.14915  0.52900  1.0000
  C   C16       1.0  0.36197  0.27477  0.57318  1.0000
  H   H29       1.0  0.18307  0.02572  0.50341  1.0000
  Fe  Fe5       1.0  0.07053  0.13649  0.54111  1.0000
  S   S6        1.0  0.04197  0.12653  0.55796  1.0000
  S   S7        1.0  0.09369  0.11256  0.52772  1.0000
  Fe  Fe6       1.0  0.05451  0.18100  0.54387  1.0000
  S   S8        1.0  0.02526  0.17354  0.56037  1.0000
  S   S9        1.0  0.05843  0.21396  0.53753  1.0000
  Fe  Fe7       1.0  0.04385  0.14940  0.57762  1.0000
  S   S10       1.0  0.03534  0.14725  0.61071  1.0000
  Fe  Fe8       1.0  0.02619  0.15167  0.53886  1.0000
  S   S11       1.0  0.07348  0.15779  0.56238  1.0000
  S   S12       1.0  0.05434  0.16073  0.52065  1.0000
  H   H30       1.0  0.02685  0.14274  0.49504  1.0000
  H   H31       1.0  0.05942  0.02613  0.64313  1.0000
  C   C17       1.0  0.46419  0.19621  0.59514  1.0000
  Fe  Fe9       1.0  0.17760  0.01840  0.55428  1.0000
  S   S13       1.0  0.16450  0.99891  0.53734  1.0000
  S   S14       1.0  0.16313  0.04920  0.56193  1.0000
  H   H32       1.0  0.00020  0.08771  0.60271  1.0000
  Fe  Fe10      1.0  0.47936  0.07033  0.62175  1.0000
  H   H33       1.0  0.00019  0.09894  0.65724  1.0000
  H   H34       1.0  0.33274  0.29087  0.58076  1.0000
  S   S15       1.0  0.18419  0.99384  0.57922  1.0000
  S   S16       1.0  0.20905  0.01314  0.53802  1.0000
  H   H35       1.0  0.16763  0.99588  0.64749  1.0000
  S   S17       1.0  0.02889  0.27214  0.60371  1.0000
  C   C18       1.0  0.30388  0.98762  0.58365  1.0000
  C   C19       1.0  0.99502  0.14667  0.50397  1.0000
  H   H36       1.0  0.16545  0.98993  0.62324  1.0000
  C   C20       1.0  0.04891  0.23040  0.55547  1.0000
  C   C21       1.0  0.05097  0.25079  0.55094  1.0000
  C   C22       1.0  0.04448  0.26396  0.56531  1.0000
  C   C23       1.0  0.03593  0.25681  0.58440  1.0000
  C   C24       1.0  0.03344  0.23654  0.58873  1.0000
  C   C25       1.0  0.03978  0.22345  0.57435  1.0000
  H   H37       1.0  0.05804  0.25633  0.53638  1.0000
  H   H38       1.0  0.04664  0.27948  0.56178  1.0000
  H   H39       1.0  0.02676  0.23089  0.60340  1.0000
  H   H40       1.0  0.03801  0.20786  0.57799  1.0000
  C   C26       1.0  0.01143  0.10111  0.64451  1.0000
  C   C27       1.0  0.01664  0.12020  0.63758  1.0000
  C   C28       1.0  0.03080  0.12313  0.62076  1.0000
  C   C29       1.0  0.04039  0.10690  0.61138  1.0000
  C   C30       1.0  0.03542  0.08779  0.61848  1.0000
  S   S18       1.0  0.45294  0.21753  0.58075  1.0000
  H   H41       1.0  0.00166  0.99756  0.69498  1.0000
  H   H42       1.0  0.05159  0.10907  0.59858  1.0000
  H   H43       1.0  0.04259  0.07530  0.61095  1.0000
  C   C31       1.0  0.11073  0.09375  0.53949  1.0000
  C   C32       1.0  0.11967  0.09687  0.55569  1.0000
  C   C33       1.0  0.13525  0.08279  0.56271  1.0000
  C   C34       1.0  0.14180  0.06520  0.55399  1.0000
  C   C35       1.0  0.13212  0.06160  0.53849  1.0000
  C   C36       1.0  0.11698  0.07596  0.53106  1.0000
  H   H44       1.0  0.11521  0.11051  0.56224  1.0000
  H   H45       1.0  0.14254  0.08575  0.57474  1.0000
  H   H46       1.0  0.13659  0.04802  0.53189  1.0000
  H   H47       1.0  0.11023  0.07339  0.51852  1.0000
  H   H48       1.0  0.46528  0.14543  0.60275  1.0000
  C   C37       1.0  0.02060  0.08497  0.63475  1.0000
  H   H49       1.0  0.41619  0.26342  0.53665  1.0000
  H   H50       1.0  0.00668  0.12185  0.59020  1.0000
  C   C38       1.0  0.01041  0.00023  0.64651  1.0000
  S   S19       1.0  0.42643  0.98603  0.58618  1.0000
  C   C39       1.0  0.48142  0.16176  0.61811  1.0000
  H   H51       1.0  0.26215  0.00707  0.56123  1.0000
  H   H52       1.0  0.29627  0.01441  0.56393  1.0000
  C   C40       1.0  0.44419  0.03697  0.61420  1.0000
  C   C41       1.0  0.45717  0.02818  0.59921  1.0000
  C   C42       1.0  0.45169  0.01236  0.59102  1.0000
  C   C43       1.0  0.43333  0.00502  0.59787  1.0000
  C   C44       1.0  0.42060  0.01350  0.61320  1.0000
  C   C45       1.0  0.42593  0.02948  0.62118  1.0000
  H   H53       1.0  0.47124  0.03382  0.59364  1.0000
  H   H54       1.0  0.46163  0.00593  0.57915  1.0000
  H   H55       1.0  0.40651  0.00795  0.61872  1.0000
  H   H56       1.0  0.41580  0.03617  0.63277  1.0000
  H   H57       1.0  0.15520  0.10801  0.52763  1.0000
  C   C46       1.0  0.47175  0.00222  0.64573  1.0000
  H   H58       1.0  0.99480  0.25763  0.58276  1.0000
  H   H59       1.0  0.44995  0.17568  0.58273  1.0000
  C   C47       1.0  0.17173  0.07577  0.49302  1.0000
  N   N1        1.0  0.04814  0.99773  0.64666  1.0000
  C   C48       1.0  0.05629  0.99118  0.66579  1.0000
  C   C49       1.0  0.99052  0.12655  0.58896  1.0000
  H   H60       1.0  0.03500  0.02580  0.65647  1.0000
  C   C50       1.0  0.47712  0.19789  0.60867  1.0000
  H   H61       1.0  0.43769  0.05146  0.56572  1.0000
  H   H62       1.0  0.07702  0.99853  0.62880  1.0000
  C   C51       1.0  0.36848  0.30787  0.54513  1.0000
  H   H63       1.0  0.09316  0.25074  0.57075  1.0000
  C   C52       1.0  0.46864  0.15998  0.60444  1.0000
  S   S20       1.0  0.32819  0.99344  0.58504  1.0000
  H   H64       1.0  0.12144  0.99586  0.61827  1.0000
  C   C53       1.0  0.47412  0.02647  0.66677  1.0000
  S   S21       1.0  0.48317  0.08361  0.64890  1.0000
  S   S22       1.0  0.01241  0.06158  0.64118  1.0000
  C   C54       1.0  0.99863  0.28824  0.55207  1.0000
  C   C55       1.0  0.47487  0.99202  0.68158  1.0000
  H   H65       1.0  0.15909  0.04028  0.50146  1.0000
  H   H66       1.0  0.03888  0.02590  0.62975  1.0000
  C   C56       1.0  0.45997  0.17716  0.59311  1.0000
  H   H67       1.0  0.42171  0.27510  0.55679  1.0000
  H   H68       1.0  0.21166  0.06931  0.48787  1.0000
  H   H69       1.0  0.04524  0.99564  0.67854  1.0000
  C   C57       1.0  0.20447  0.05665  0.49665  1.0000
  C   C58       1.0  0.04515  0.01981  0.64384  1.0000
  H   H70       1.0  0.13871  0.98380  0.49751  1.0000
  C   C59       1.0  0.34695  0.29098  0.57125  1.0000
  C   C60       1.0  0.99052  0.19976  0.50180  1.0000
  N   N2        1.0  0.18425  0.05637  0.49110  1.0000
  H   H71       1.0  0.01022  0.28041  0.54172  1.0000
  H   H72       1.0  0.99626  0.25661  0.52724  1.0000
  H   H73       1.0  0.01171  0.12609  0.72504  1.0000
  H   H74       1.0  0.48039  0.21242  0.61056  1.0000
  N   N3        1.0  0.37106  0.03774  0.58020  1.0000
  C   C61       1.0  0.36119  0.03272  0.60080  1.0000
  C   C62       1.0  0.35597  0.04933  0.56807  1.0000
  C   C63       1.0  0.37801  0.01873  0.57186  1.0000
  C   C64       1.0  0.38742  0.04976  0.58033  1.0000
  C   C65       1.0  0.40733  0.04459  0.57128  1.0000
  C   C66       1.0  0.38363  0.06731  0.58973  1.0000
  C   C67       1.0  0.42248  0.05602  0.57217  1.0000
  C   C68       1.0  0.39899  0.07842  0.59083  1.0000
  C   C69       1.0  0.41841  0.07268  0.58220  1.0000
  C   C70       1.0  0.17454  0.04072  0.50471  1.0000
  H   H75       1.0  0.45512  0.00543  0.64801  1.0000
  C   C71       1.0  0.29115  0.00085  0.57187  1.0000
  H   H76       1.0  0.34911  0.06330  0.57412  1.0000
  H   H77       1.0  0.34350  0.04060  0.56754  1.0000
  H   H78       1.0  0.36282  0.05351  0.55250  1.0000
  H   H79       1.0  0.38943  0.00932  0.58039  1.0000
  H   H80       1.0  0.36555  0.00973  0.57246  1.0000
  H   H81       1.0  0.38447  0.02122  0.55595  1.0000
  H   H82       1.0  0.41186  0.03142  0.56396  1.0000
  H   H83       1.0  0.36882  0.07241  0.59661  1.0000
  H   H84       1.0  0.39597  0.09135  0.59872  1.0000
  H   H85       1.0  0.43044  0.08091  0.58363  1.0000
  N   N4        1.0  0.39697  0.25795  0.56450  1.0000
  C   C72       1.0  0.39985  0.25365  0.58586  1.0000
  C   C73       1.0  0.39117  0.24003  0.55828  1.0000
  C   C74       1.0  0.41664  0.26158  0.55298  1.0000
  C   C75       1.0  0.38101  0.27491  0.56149  1.0000
  C   C76       1.0  0.38369  0.29185  0.54707  1.0000
  C   C77       1.0  0.48304  0.99268  0.69934  1.0000
  C   C78       1.0  0.14727  0.10339  0.48099  1.0000
  H   H86       1.0  0.17710  0.07714  0.52346  1.0000
  H   H87       1.0  0.41324  0.24249  0.58836  1.0000
  H   H88       1.0  0.40191  0.26741  0.59171  1.0000
  H   H89       1.0  0.38881  0.24268  0.54232  1.0000
  H   H90       1.0  0.37708  0.23564  0.56709  1.0000
  H   H91       1.0  0.45764  0.02921  0.67106  1.0000
  H   H92       1.0  0.42856  0.24893  0.55611  1.0000
  H   H93       1.0  0.39762  0.29349  0.53751  1.0000
  H   H94       1.0  0.47681  0.01232  0.63221  1.0000
  C   C79       1.0  0.06324  0.99122  0.63017  1.0000
  N   N5        1.0  0.06987  0.18851  0.62279  1.0000
  C   C80       1.0  0.07705  0.16870  0.61618  1.0000
  C   C81       1.0  0.07685  0.18825  0.64236  1.0000
  C   C82       1.0  0.04770  0.19101  0.62549  1.0000
  C   C83       1.0  0.07698  0.20525  0.60851  1.0000
  C   C84       1.0  0.08671  0.20282  0.58900  1.0000
  C   C85       1.0  0.07339  0.22493  0.61363  1.0000
  C   C86       1.0  0.09264  0.21908  0.57570  1.0000
  C   C87       1.0  0.07957  0.24103  0.60028  1.0000
  C   C88       1.0  0.08915  0.23811  0.58134  1.0000
  H   H95       1.0  0.07194  0.15633  0.62739  1.0000
  H   H96       1.0  0.07084  0.16709  0.60250  1.0000
  H   H97       1.0  0.09367  0.16602  0.61335  1.0000
  H   H98       1.0  0.09339  0.18795  0.64065  1.0000
  H   H99       1.0  0.07291  0.17498  0.65293  1.0000
  H   H100      1.0  0.06993  0.20137  0.64983  1.0000
  H   H101      1.0  0.04191  0.19104  0.61111  1.0000
  H   H102      1.0  0.04164  0.17860  0.63595  1.0000
  H   H103      1.0  0.04110  0.20518  0.63129  1.0000
  H   H104      1.0  0.08944  0.18865  0.58338  1.0000
  H   H105      1.0  0.06508  0.22822  0.62770  1.0000
  H   H106      1.0  0.09928  0.21700  0.56063  1.0000
  S   S23       1.0  0.47000  0.29295  0.63078  1.0000
  C   C89       1.0  0.35027  0.30757  0.55737  1.0000
  C   C90       1.0  0.16424  0.98411  0.63939  1.0000
  H   H107      1.0  0.38705  0.24733  0.59535  1.0000
  H   H108      1.0  0.00826  0.01627  0.64564  1.0000
  H   H109      1.0  0.35273  0.04590  0.60723  1.0000
  Fe  Fe11      1.0  0.02187  0.30609  0.60178  1.0000
  H   H110      1.0  0.20410  0.05786  0.51270  1.0000
  H   H111      1.0  0.05717  0.99478  0.61568  1.0000
  H   H112      1.0  0.48153  0.03077  0.67857  1.0000
  H   H113      1.0  0.17335  0.04318  0.52054  1.0000
  C   C91       1.0  0.16969  0.08442  0.51092  1.0000
  H   H114      1.0  0.35864  0.26224  0.58412  1.0000
  S   S24       1.0  0.20159  0.98894  0.48994  1.0000
  S   S25       1.0  0.47847  0.30110  0.57397  1.0000
  H   H115      1.0  0.00617  0.29068  0.56471  1.0000
  C   C92       1.0  0.01225  0.14361  0.49034  1.0000
  H   H116      1.0  0.00924  0.13277  0.64488  1.0000
  Fe  Fe12      1.0  0.19603  0.99184  0.52282  1.0000
  H   H117      1.0  0.13506  0.12454  0.50134  1.0000
  H   H118      1.0  0.00567  0.09570  0.56845  1.0000
  H   H119      1.0  0.47613  0.98676  0.64206  1.0000
  C   C93       1.0  0.48643  0.04690  0.72531  1.0000
  H   H120      1.0  0.99508  0.19777  0.51655  1.0000
  C   C94       1.0  0.15700  0.10207  0.51358  1.0000
  H   H121      1.0  0.47782  0.03705  0.65318  1.0000
  C   C95       1.0  0.48553  0.18079  0.62018  1.0000
  C   C96       1.0  0.14563  0.11140  0.49876  1.0000
  N   N6        1.0  0.48066  0.00550  0.66329  1.0000
  H   H122      1.0  0.48505  0.04471  0.71025  1.0000
  H   H123      1.0  0.99378  0.30318  0.54412  1.0000
  H   H124      1.0  0.01913  0.18715  0.48840  1.0000
  H   H125      1.0  0.48192  0.31194  0.66079  1.0000
  C   C97       1.0  0.02957  0.98877  0.64705  1.0000
  C   C98       1.0  0.99315  0.99105  0.64773  1.0000
  H   H126      1.0  0.98978  0.13854  0.57609  1.0000
  C   C99       1.0  0.98883  0.25687  0.56864  1.0000
  H   H127      1.0  0.98949  0.11312  0.55467  1.0000
  C   C100      1.0  0.98957  0.10158  0.56790  1.0000
  Fe  Fe13      1.0  0.04475  0.10563  0.84615  1.0000
  S   S26       1.0  0.03597  0.12874  0.82108  1.0000
  S   S27       1.0  0.07792  0.09414  0.84185  1.0000
  C   C101      1.0  0.42842  0.03494  0.81181  1.0000
  H   H128      1.0  0.23017  0.98454  0.90514  1.0000
  C   C102      1.0  0.23342  0.99896  0.85268  1.0000
  Fe  Fe14      1.0  0.01812  0.14621  0.84446  1.0000
  S   S28       1.0  0.01682  0.18004  0.84321  1.0000
  S   S29       1.0  0.01908  0.08859  0.84632  1.0000
  S   S30       1.0  0.02883  0.12436  0.86945  1.0000
  S   S31       1.0  0.11391  0.00490  0.86940  1.0000
  H   H129      1.0  0.06882  0.98808  0.83508  1.0000
  C   C103      1.0  0.01134  0.23132  0.93089  1.0000
  Fe  Fe15      1.0  0.06808  0.26028  0.88841  1.0000
  S   S32       1.0  0.03850  0.27035  0.90519  1.0000
  S   S33       1.0  0.07236  0.22787  0.88156  1.0000
  Fe  Fe16      1.0  0.08495  0.29984  0.89182  1.0000
  Fe  Fe17      1.0  0.14264  0.98779  0.85597  1.0000
  C   C104      1.0  0.47701  0.25278  0.89507  1.0000
  Fe  Fe18      1.0  0.05620  0.28101  0.92550  1.0000
  S   S34       1.0  0.04767  0.27524  0.95865  1.0000
  H   H130      1.0  0.05100  0.19478  0.93934  1.0000
  C   C105      1.0  0.28062  0.01322  0.81050  1.0000
  S   S35       1.0  0.08616  0.26939  0.91011  1.0000
  S   S36       1.0  0.06979  0.28962  0.86839  1.0000
  Fe  Fe19      1.0  0.45900  0.16841  0.90909  1.0000
  S   S37       1.0  0.44581  0.14438  0.93130  1.0000
  S   S38       1.0  0.45164  0.20150  0.91192  1.0000
  Fe  Fe20      1.0  0.48068  0.13857  0.88217  1.0000
  S   S39       1.0  0.46988  0.11211  0.90185  1.0000
  S   S40       1.0  0.16136  0.99448  0.82652  1.0000
  Fe  Fe21      1.0  0.43981  0.13092  0.90483  1.0000
  S   S41       1.0  0.41051  0.12296  0.89698  1.0000
  Fe  Fe22      1.0  0.47674  0.12734  0.92647  1.0000
  C   C106      1.0  0.30597  0.02288  0.82714  1.0000
  S   S42       1.0  0.45058  0.15653  0.88316  1.0000
  H   H131      1.0  0.08841  0.12027  0.86830  1.0000
  Fe  Fe23      1.0  0.34480  0.01461  0.86698  1.0000
  S   S43       1.0  0.32803  0.04308  0.87635  1.0000
  S   S44       1.0  0.36426  0.01436  0.83758  1.0000
  H   H132      1.0  0.04564  0.24006  0.93981  1.0000
  S   S45       1.0  0.31472  0.01648  0.91898  1.0000
  H   H133      1.0  0.11308  0.15070  0.87358  1.0000
  Fe  Fe24      1.0  0.30335  0.02408  0.88900  1.0000
  S   S46       1.0  0.27016  0.03223  0.88549  1.0000
  Fe  Fe25      1.0  0.34112  0.03289  0.90504  1.0000
  S   S47       1.0  0.35979  0.04919  0.92120  1.0000
  C   C107      1.0  0.09339  0.16519  0.84031  1.0000
  S   S48       1.0  0.35905  0.00519  0.89466  1.0000
  C   C108      1.0  0.08407  0.99264  0.83308  1.0000
  C   C109      1.0  0.22404  0.01413  0.86375  1.0000
  C   C110      1.0  0.01476  0.20529  0.95865  1.0000
  C   C111      1.0  0.48380  0.03511  0.76039  1.0000
  N   N7        1.0  0.02580  0.21786  0.94246  1.0000
  H   H134      1.0  0.02853  0.23894  0.96230  1.0000
  H   H135      1.0  0.02081  0.22042  0.90190  1.0000
  C   C112      1.0  0.39709  0.10194  0.90369  1.0000
  C   C113      1.0  0.40071  0.08756  0.91995  1.0000
  C   C114      1.0  0.38896  0.07176  0.92520  1.0000
  C   C115      1.0  0.37377  0.06977  0.91402  1.0000
  C   C116      1.0  0.37034  0.08402  0.89758  1.0000
  C   C117      1.0  0.38181  0.10005  0.89257  1.0000
  H   H136      1.0  0.41225  0.08884  0.92878  1.0000
  H   H137      1.0  0.39170  0.06093  0.93802  1.0000
  H   H138      1.0  0.35854  0.08293  0.88899  1.0000
  H   H139      1.0  0.37874  0.11113  0.88005  1.0000
  H   H140      1.0  0.13119  0.03745  0.84305  1.0000
  H   H141      1.0  0.07556  0.02701  0.87895  1.0000
  H   H142      1.0  0.43061  0.04521  0.88197  1.0000
  H   H143      1.0  0.28127  0.99825  0.86275  1.0000
  H   H144      1.0  0.40615  0.04703  0.89582  1.0000
  H   H145      1.0  0.11657  0.07221  0.83252  1.0000
  H   H146      1.0  0.99586  0.07865  0.73038  1.0000
  C   C118      1.0  0.08375  0.13587  0.86176  1.0000
  S   S49       1.0  0.31946  0.99664  0.87716  1.0000
  H   H147      1.0  0.37635  0.04851  0.87783  1.0000
  N   N8        1.0  0.40712  0.04139  0.86545  1.0000
  C   C119      1.0  0.10120  0.18200  0.84461  1.0000
  H   H148      1.0  0.01576  0.14073  0.75396  1.0000
  C   C120      1.0  0.11062  0.00633  0.81037  1.0000
  H   H149      1.0  0.40475  0.24760  0.89966  1.0000
  C   C121      1.0  0.03778  0.22973  0.95143  1.0000
  C   C122      1.0  0.46322  0.23900  0.90186  1.0000
  C   C123      1.0  0.46930  0.21839  0.90256  1.0000
  S   S50       1.0  0.48615  0.31407  0.85509  1.0000
  C   C124      1.0  0.07047  0.18846  0.82067  1.0000
  H   H150      1.0  0.47215  0.26858  0.89473  1.0000
  H   H151      1.0  0.44776  0.24435  0.90663  1.0000
  H   H152      1.0  0.25844  0.99788  0.91401  1.0000
  Fe  Fe26      1.0  0.00195  0.10935  0.86756  1.0000
  H   H153      1.0  0.13056  0.14895  0.85101  1.0000
  H   H154      1.0  0.00507  0.19658  0.95255  1.0000
  C   C125      1.0  0.43325  0.05806  0.84064  1.0000
  C   C126      1.0  0.25621  0.01852  0.87351  1.0000
  C   C127      1.0  0.23542  0.02396  0.87393  1.0000
  H   H155      1.0  0.41254  0.06716  0.87782  1.0000
  C   C128      1.0  0.26723  0.02930  0.81677  1.0000
  H   H156      1.0  0.22811  0.03608  0.88193  1.0000
  C   C129      1.0  0.05989  0.05195  0.81057  1.0000
  H   H157      1.0  0.27479  0.00370  0.80218  1.0000
  C   C130      1.0  0.03099  0.19314  0.85571  1.0000
  C   C131      1.0  0.04511  0.18322  0.86787  1.0000
  C   C132      1.0  0.05725  0.19409  0.87606  1.0000
  C   C133      1.0  0.05523  0.21504  0.87255  1.0000
  C   C134      1.0  0.04044  0.22500  0.86117  1.0000
  C   C135      1.0  0.02850  0.21411  0.85274  1.0000
  H   H158      1.0  0.04704  0.16716  0.87047  1.0000
  H   H159      1.0  0.06861  0.18619  0.88481  1.0000
  H   H160      1.0  0.03866  0.24109  0.85829  1.0000
  H   H161      1.0  0.01758  0.22201  0.84346  1.0000
  C   C136      1.0  0.08765  0.06927  0.84955  1.0000
  C   C137      1.0  0.07612  0.05641  0.86258  1.0000
  C   C138      1.0  0.08453  0.03683  0.86873  1.0000
  C   C139      1.0  0.10439  0.02984  0.86168  1.0000
  C   C140      1.0  0.11587  0.04266  0.84852  1.0000
  C   C141      1.0  0.10756  0.06234  0.84260  1.0000
  H   H162      1.0  0.06081  0.06159  0.86808  1.0000
  C   C142      1.0  0.01033  0.29231  0.95067  1.0000
  N   N9        1.0  0.38940  0.18337  0.90015  1.0000
  C   C143      1.0  0.40226  0.17468  0.91574  1.0000
  C   C144      1.0  0.37226  0.17166  0.90278  1.0000
  C   C145      1.0  0.40086  0.18078  0.88034  1.0000
  C   C146      1.0  0.38341  0.20484  0.90155  1.0000
  C   C147      1.0  0.39820  0.21784  0.89951  1.0000
  C   C148      1.0  0.36309  0.21345  0.90511  1.0000
  C   C149      1.0  0.39306  0.23810  0.90110  1.0000
  C   C150      1.0  0.35810  0.23380  0.90661  1.0000
  C   C151      1.0  0.37305  0.24607  0.90465  1.0000
  H   H163      1.0  0.39466  0.17739  0.93080  1.0000
  H   H164      1.0  0.40620  0.15830  0.91590  1.0000
  H   H165      1.0  0.41668  0.18096  0.91350  1.0000
  H   H166      1.0  0.36340  0.17226  0.91774  1.0000
  H   H167      1.0  0.37742  0.15558  0.90163  1.0000
  H   H168      1.0  0.36227  0.17689  0.89110  1.0000
  H   H169      1.0  0.41504  0.18754  0.87785  1.0000
  H   H170      1.0  0.40521  0.16473  0.87855  1.0000
  H   H171      1.0  0.39195  0.18771  0.86817  1.0000
  H   H172      1.0  0.41396  0.21239  0.89680  1.0000
  H   H173      1.0  0.35078  0.20482  0.90687  1.0000
  C   C152      1.0  0.00061  0.08852  0.75777  1.0000
  H   H174      1.0  0.34253  0.24008  0.90939  1.0000
  H   H175      1.0  0.32067  0.02089  0.83183  1.0000
  Fe  Fe27      1.0  0.00940  0.11239  0.82187  1.0000
  H   H176      1.0  0.29668  0.04839  0.84290  1.0000
  H   H177      1.0  0.04919  0.21316  0.91814  1.0000
  H   H178      1.0  0.99753  0.24374  0.88392  1.0000
  H   H179      1.0  0.11896  0.13876  0.82109  1.0000
  H   H180      1.0  0.09926  0.21403  0.84127  1.0000
  C   C153      1.0  0.04012  0.20445  0.93033  1.0000
  H   H181      1.0  0.42216  0.01185  0.87266  1.0000
  C   C154      1.0  0.07593  0.01805  0.80593  1.0000
  H   H182      1.0  0.09465  0.13075  0.82372  1.0000
  C   C155      1.0  0.44224  0.04856  0.80750  1.0000
  H   H183      1.0  0.09683  0.98869  0.78397  1.0000
  H   H184      1.0  0.05845  0.06495  0.81827  1.0000
  H   H185      1.0  0.39806  0.01247  0.86450  1.0000
  C   C156      1.0  0.98884  0.08516  0.74354  1.0000
  H   H186      1.0  0.07215  0.21965  0.82012  1.0000
  H   H187      1.0  0.26240  0.05389  0.83387  1.0000
  C   C157      1.0  0.09165  0.98396  0.79993  1.0000
  C   C158      1.0  0.41457  0.05060  0.88079  1.0000
  H   H188      1.0  0.38571  0.06705  0.85868  1.0000
  C   C159      1.0  0.09371  0.20136  0.83714  1.0000
  H   H189      1.0  0.39934  0.01771  0.88869  1.0000
  C   C160      1.0  0.40677  0.01994  0.87304  1.0000
  C   C161      1.0  0.29242  0.03883  0.83339  1.0000
  C   C162      1.0  0.48416  0.10472  0.84928  1.0000
  H   H190      1.0  0.07065  0.15710  0.82471  1.0000
  H   H191      1.0  0.11165  0.01700  0.82075  1.0000
  C   C163      1.0  0.41704  0.03273  0.83055  1.0000
  H   H192      1.0  0.12248  0.12704  0.86575  1.0000
  C   C164      1.0  0.07838  0.20458  0.82523  1.0000
  H   H193      1.0  0.40608  0.02242  0.83287  1.0000
  C   C165      1.0  0.06354  0.01843  0.79086  1.0000
  Fe  Fe28      1.0  0.04112  0.29990  0.88682  1.0000
  H   H194      1.0  0.45091  0.05038  0.79291  1.0000
  C   C166      1.0  0.48398  0.08705  0.84134  1.0000
  H   H195      1.0  0.01738  0.29695  0.93584  1.0000
  C   C167      1.0  0.99190  0.09738  0.77484  1.0000
  H   H196      1.0  0.11561  0.01310  0.79498  1.0000
  H   H197      1.0  0.45516  0.07094  0.81833  1.0000
  H   H198      1.0  0.11306  0.11670  0.83754  1.0000
  H   H199      1.0  0.37976  0.04441  0.85232  1.0000
  H   H200      1.0  0.43552  0.06782  0.85089  1.0000
  H   H201      1.0  0.38869  0.99873  0.80417  1.0000
  H   H202      1.0  0.34098  0.00731  0.80668  1.0000
  H   H203      1.0  0.11272  0.18072  0.85412  1.0000
  N   N10       1.0  0.09025  0.00051  0.81205  1.0000
  H   H204      1.0  0.01665  0.08447  0.75536  1.0000
  H   H205      1.0  0.47511  0.01160  0.86652  1.0000
  H   H206      1.0  0.04030  0.03512  0.77457  1.0000
  H   H207      1.0  0.25192  0.03142  0.81343  1.0000
  C   C168      1.0  0.33312  0.99891  0.79825  1.0000
  H   H208      1.0  0.46785  0.02828  0.84519  1.0000
  C   C169      1.0  0.30044  0.00942  0.81566  1.0000
  H   H209      1.0  0.47601  0.01915  0.73851  1.0000
  H   H210      1.0  0.42628  0.02619  0.80052  1.0000
  H   H211      1.0  0.36912  0.26180  0.90593  1.0000
  S   S51       1.0  0.05594  0.31164  0.90885  1.0000
  H   H212      1.0  0.07090  0.13518  0.85373  1.0000
  C   C170      1.0  0.04974  0.03512  0.78599  1.0000
  C   C171      1.0  0.00641  0.16020  0.78352  1.0000
  H   H213      1.0  0.04941  0.22023  0.95962  1.0000
  C   C172      1.0  0.04789  0.05182  0.79585  1.0000
  C   C173      1.0  0.99723  0.24564  0.94019  1.0000
  H   H214      1.0  0.47246  0.10921  0.86077  1.0000
  C   C174      1.0  0.07367  0.03536  0.81556  1.0000
  S   S52       1.0  0.99034  0.13213  0.84328  1.0000
  C   C175      1.0  0.11740  0.14285  0.86018  1.0000
  H   H215      1.0  0.07809  0.14477  0.87421  1.0000
  C   C176      1.0  0.44457  0.06015  0.82184  1.0000
  C   C177      1.0  0.07778  0.16905  0.82810  1.0000
  N   N11       1.0  0.31478  0.99204  0.81013  1.0000
  C   C178      1.0  0.41940  0.04391  0.84572  1.0000
  H   H216      1.0  0.06415  0.00603  0.78267  1.0000
  H   H217      1.0  0.20816  0.01883  0.86384  1.0000
  H   H218      1.0  0.05800  0.19105  0.81206  1.0000
  C   C179      1.0  0.38636  0.05074  0.86348  1.0000
  H   H219      1.0  0.02515  0.19460  0.96742  1.0000
  H   H220      1.0  0.03708  0.06467  0.79214  1.0000
  H   H221      1.0  0.32951  0.00888  0.78454  1.0000
  C   C180      1.0  0.26538  0.00271  0.86320  1.0000
  H   H222      1.0  0.47239  0.07775  0.84712  1.0000
  N   N12       1.0  0.10042  0.14449  0.84847  1.0000
  C   C181      1.0  0.10709  0.13226  0.83197  1.0000
  H   H223      1.0  0.08245  0.03614  0.82721  1.0000
  S   S53       1.0  0.00794  0.10278  0.79128  1.0000
  C   C182      1.0  0.02179  0.28173  0.96500  1.0000
  C   C183      1.0  0.98965  0.29708  0.95548  1.0000
  C   C184      1.0  0.38403  0.98638  0.81476  1.0000
  C   C185      1.0  0.46555  0.99112  0.83826  1.0000
  C   C186      1.0  0.27308  0.04199  0.82828  1.0000
  C   C187      1.0  0.01068  0.23067  0.91034  1.0000
  H   H224      1.0  0.46480  0.99444  0.80587  1.0000
  H   H225      1.0  0.30253  0.98790  0.78399  1.0000
  H   H226      1.0  0.12496  0.30845  0.91923  1.0000
  C   C188      1.0  0.47977  0.01675  0.85061  1.0000
  H   H227      1.0  0.47491  0.10130  0.75696  1.0000
  H   H228      1.0  0.01257  0.14424  0.78672  1.0000
  H   H229      1.0  0.48407  0.15096  0.95487  1.0000
  C   C189      1.0  0.99889  0.13449  0.73271  1.0000
  H   H230      1.0  0.01663  0.16748  0.77133  1.0000
  C   C190      1.0  0.37245  0.98991  0.83282  1.0000
  H   H231      1.0  0.00704  0.16702  0.79718  1.0000
  H   H232      1.0  0.03235  0.19438  0.92369  1.0000
  H   H233      1.0  0.12182  0.99325  0.81412  1.0000
  C   C191      1.0  0.25410  0.99316  0.85271  1.0000
  N   N13       1.0  0.48397  0.00028  0.83816  1.0000
  C   C192      1.0  0.45780  0.98924  0.82054  1.0000
  H   H234      1.0  0.00498  0.21431  0.96942  1.0000
  H   H235      1.0  0.08379  0.00381  0.84335  1.0000
  C   C193      1.0  0.48148  0.03248  0.74115  1.0000
  C   C194      1.0  0.99721  0.24400  0.89975  1.0000
  C   C195      1.0  0.00098  0.14303  0.74948  1.0000
  H   H236      1.0  0.34425  0.98619  0.79380  1.0000
  Fe  Fe29      1.0  0.33205  0.98979  0.90616  1.0000
  H   H237      1.0  0.48023  0.02368  0.77262  1.0000
  H   H238      1.0  0.48697  0.20848  0.96679  1.0000
  H   H239      1.0  0.32851  0.98713  0.83711  1.0000
  S   S54       1.0  0.22045  0.98779  0.83743  1.0000
  H   H240      1.0  0.48410  0.08824  0.77925  1.0000
  H   H241      1.0  0.48189  0.02087  0.81126  1.0000
  H   H242      1.0  0.99679  0.24716  0.95574  1.0000
  H   H243      1.0  0.04287  0.31319  0.84205  1.0000
  H   H244      1.0  0.46045  0.98343  0.87051  1.0000
  C   C196      1.0  0.45515  0.98305  0.85649  1.0000
  C   C197      1.0  0.48857  0.09674  0.76449  1.0000
  C   C198      1.0  0.03286  0.43282  0.16685  1.0000
  H   H245      1.0  0.33096  0.52324  0.98280  1.0000
  S   S55       1.0  0.45807  0.63085  0.08237  1.0000
  H   H246      1.0  0.23334  0.50570  0.99265  1.0000
  Fe  Fe30      1.0  0.39876  0.59300  0.00568  1.0000
  S   S56       1.0  0.37850  0.62198  0.00232  1.0000
  S   S57       1.0  0.42081  0.58195  0.02800  1.0000
  N   N14       1.0  0.13090  0.58384  0.06813  1.0000
  Fe  Fe31      1.0  0.35621  0.60328  0.99523  1.0000
  S   S58       1.0  0.32312  0.60712  0.00742  1.0000
  S   S59       1.0  0.37567  0.57425  0.00118  1.0000
  Fe  Fe32      1.0  0.03469  0.52724  0.18440  1.0000
  S   S60       1.0  0.06316  0.51205  0.19540  1.0000
  S   S61       1.0  0.00653  0.51222  0.19078  1.0000
  Fe  Fe33      1.0  0.05212  0.56629  0.17228  1.0000
  S   S62       1.0  0.08171  0.55436  0.18294  1.0000
  S   S63       1.0  0.04649  0.59772  0.15774  1.0000
  Fe  Fe34      1.0  0.07919  0.52807  0.16768  1.0000
  S   S64       1.0  0.10114  0.51250  0.14453  1.0000
  H   H247      1.0  0.13156  0.61398  0.07308  1.0000
  S   S65       1.0  0.05034  0.54100  0.15569  1.0000
  S   S66       1.0  0.03362  0.55408  0.19985  1.0000
  Fe  Fe35      1.0  0.23490  0.53972  0.03327  1.0000
  S   S67       1.0  0.21626  0.54954  0.00832  1.0000
  S   S68       1.0  0.26907  0.53619  0.02597  1.0000
  Fe  Fe36      1.0  0.19753  0.53401  0.06438  1.0000
  S   S69       1.0  0.17668  0.54298  0.04142  1.0000
  S   S70       1.0  0.18581  0.53150  0.09759  1.0000
  Fe  Fe37      1.0  0.19875  0.52436  0.02173  1.0000
  H   H248      1.0  0.35995  0.57289  0.09574  1.0000
  Fe  Fe38      1.0  0.19579  0.56712  0.02990  1.0000
  S   S71       1.0  0.18071  0.59820  0.02231  1.0000
  S   S72       1.0  0.21860  0.51306  0.04566  1.0000
  S   S73       1.0  0.21563  0.55953  0.05387  1.0000
  C   C199      1.0  0.04742  0.44057  0.15237  1.0000
  C   C200      1.0  0.16241  0.59736  0.00712  1.0000
  S   S74       1.0  0.18598  0.51034  0.99919  1.0000
  H   H249      1.0  0.99582  0.64127  0.19381  1.0000
  C   C201      1.0  0.14872  0.61423  0.00268  1.0000
  H   H250      1.0  0.45801  0.64045  0.02256  1.0000
  C   C202      1.0  0.11518  0.57083  0.10288  1.0000
  H   H251      1.0  0.47833  0.49601  0.22238  1.0000
  H   H252      1.0  0.05188  0.63251  0.98554  1.0000
  H   H253      1.0  0.14195  0.57447  0.03944  1.0000
  C   C203      1.0  0.09389  0.58974  0.07950  1.0000
  C   C204      1.0  0.03095  0.63062  0.01245  1.0000
  C   C205      1.0  0.14662  0.57898  0.98762  1.0000
  H   H254      1.0  0.12377  0.62667  0.98664  1.0000
  H   H255      1.0  0.11541  0.57924  0.04411  1.0000
  C   C206      1.0  0.37345  0.60682  0.07463  1.0000
  C   C207      1.0  0.99138  0.62601  0.19721  1.0000
  C   C208      1.0  0.02218  0.60309  0.15133  1.0000
  C   C209      1.0  0.00855  0.58925  0.15716  1.0000
  H   H256      1.0  0.14533  0.60758  0.04996  1.0000
  C   C210      1.0  0.01607  0.62172  0.14111  1.0000
  H   H257      1.0  0.01314  0.57486  0.16512  1.0000
  H   H258      1.0  0.47719  0.63244  0.00345  1.0000
  H   H259      1.0  0.02654  0.63250  0.13674  1.0000
  C   C211      1.0  0.00236  0.49474  0.17596  1.0000
  C   C212      1.0  0.01238  0.49385  0.15671  1.0000
  H   H260      1.0  0.07667  0.49349  0.12336  1.0000
  C   C213      1.0  0.99463  0.59402  0.21961  1.0000
  H   H261      1.0  0.04990  0.43444  0.13846  1.0000
  S   S75       1.0  0.99005  0.44868  0.13860  1.0000
  H   H262      1.0  0.02291  0.50421  0.15058  1.0000
  H   H263      1.0  0.06310  0.49506  0.14743  1.0000
  H   H264      1.0  0.09742  0.44816  0.15504  1.0000
  C   C214      1.0  0.12370  0.51999  0.13088  1.0000
  C   C215      1.0  0.13656  0.52945  0.13935  1.0000
  C   C216      1.0  0.15540  0.53302  0.12886  1.0000
  C   C217      1.0  0.16144  0.52764  0.10963  1.0000
  C   C218      1.0  0.14825  0.51888  0.10085  1.0000
  C   C219      1.0  0.12963  0.51481  0.11156  1.0000
  H   H265      1.0  0.13235  0.53330  0.15428  1.0000
  H   H266      1.0  0.16551  0.53975  0.13581  1.0000
  H   H267      1.0  0.15271  0.51457  0.08613  1.0000
  H   H268      1.0  0.11989  0.50738  0.10490  1.0000
  C   C220      1.0  0.30828  0.58724  0.01245  1.0000
  C   C221      1.0  0.28741  0.59145  0.01707  1.0000
  C   C222      1.0  0.27517  0.57603  0.02135  1.0000
  C   C223      1.0  0.28375  0.55618  0.02133  1.0000
  C   C224      1.0  0.30465  0.55195  0.01696  1.0000
  C   C225      1.0  0.31684  0.56737  0.01240  1.0000
  H   H269      1.0  0.28061  0.60674  0.01725  1.0000
  H   H270      1.0  0.25912  0.57951  0.02470  1.0000
  H   H271      1.0  0.31144  0.53664  0.01708  1.0000
  H   H272      1.0  0.33286  0.56385  0.00899  1.0000
  C   C226      1.0  0.44816  0.61715  0.06701  1.0000
  C   C227      1.0  0.43062  0.62549  0.05871  1.0000
  C   C228      1.0  0.42211  0.61497  0.04663  1.0000
  C   C229      1.0  0.43107  0.59599  0.04275  1.0000
  C   C230      1.0  0.44858  0.58767  0.05104  1.0000
  C   C231      1.0  0.45717  0.59823  0.06301  1.0000
  H   H273      1.0  0.10000  0.56087  0.13179  1.0000
  H   H274      1.0  0.40845  0.62137  0.04061  1.0000
  H   H275      1.0  0.45557  0.57295  0.04821  1.0000
  H   H276      1.0  0.47064  0.59163  0.06933  1.0000
  H   H277      1.0  0.45750  0.61770  0.01275  1.0000
  C   C232      1.0  0.46105  0.59915  0.20398  1.0000
  C   C233      1.0  0.42727  0.64308  0.00125  1.0000
  H   H278      1.0  0.06428  0.45651  0.11451  1.0000
  H   H279      1.0  0.38660  0.56822  0.06774  1.0000
  C   C234      1.0  0.01187  0.63718  0.02172  1.0000
  H   H280      1.0  0.44541  0.60486  0.20355  1.0000
  H   H281      1.0  0.46916  0.60624  0.17217  1.0000
  H   H282      1.0  0.34550  0.58284  0.03616  1.0000
  H   H283      1.0  0.29547  0.52060  0.98905  1.0000
  H   H284      1.0  0.32581  0.58632  0.05651  1.0000
  H   H285      1.0  0.33800  0.61541  0.04267  1.0000
  C   C235      1.0  0.13318  0.59591  0.98281  1.0000
  H   H286      1.0  0.11887  0.61188  0.05237  1.0000
  H   H287      1.0  0.38789  0.62994  0.08249  1.0000
  H   H288      1.0  0.12931  0.56362  0.10729  1.0000
  H   H289      1.0  0.05920  0.47542  0.17801  1.0000
  C   C236      1.0  0.06565  0.48620  0.13474  1.0000
  H   H290      1.0  0.37271  0.55273  0.05784  1.0000
  C   C237      1.0  0.35266  0.63733  0.05107  1.0000
  C   C238      1.0  0.15043  0.57587  0.07531  1.0000
  C   C239      1.0  0.09837  0.56908  0.11718  1.0000
  C   C240      1.0  0.34073  0.57794  0.05214  1.0000
  H   H291      1.0  0.38107  0.57443  0.04282  1.0000
  H   H292      1.0  0.15181  0.55946  0.07958  1.0000
  C   C241      1.0  0.35931  0.60176  0.06356  1.0000
  C   C242      1.0  0.20334  0.47082  0.00441  1.0000
  H   H293      1.0  0.03369  0.46164  0.20279  1.0000
  S   S76       1.0  0.00496  0.62770  0.04673  1.0000
  C   C243      1.0  0.46508  0.53558  0.21415  1.0000
  H   H294      1.0  0.01640  0.43453  0.19595  1.0000
  H   H295      1.0  0.15273  0.58292  0.08826  1.0000
  C   C244      1.0  0.12900  0.57321  0.05132  1.0000
  C   C245      1.0  0.03786  0.45544  0.18888  1.0000
  C   C246      1.0  0.00850  0.47967  0.14533  1.0000
  H   H296      1.0  0.33479  0.58243  0.09125  1.0000
  H   H297      1.0  0.01618  0.47903  0.13042  1.0000
  N   N15       1.0  0.35582  0.58075  0.06471  1.0000
  C   C247      1.0  0.34866  0.57308  0.08555  1.0000
  C   C248      1.0  0.37689  0.62653  0.07400  1.0000
  H   H298      1.0  0.47118  0.52871  0.20042  1.0000
  C   C249      1.0  0.07948  0.57776  0.11278  1.0000
  H   H299      1.0  0.20893  0.47419  0.01732  1.0000
  H   H300      1.0  0.04104  0.61991  0.02068  1.0000
  H   H301      1.0  0.34517  0.55752  0.08687  1.0000
  C   C250      1.0  0.05774  0.45607  0.15583  1.0000
  C   C251      1.0  0.11346  0.58148  0.08361  1.0000
  H   H302      1.0  0.03111  0.60497  0.22090  1.0000
  H   H303      1.0  0.33841  0.56205  0.05320  1.0000
  C   C252      1.0  0.36656  0.64175  0.06219  1.0000
  H   H304      1.0  0.08330  0.43903  0.12594  1.0000
  H   H305      1.0  0.38211  0.59553  0.08376  1.0000
  H   H306      1.0  0.08943  0.46192  0.11170  1.0000
  H   H307      1.0  0.17199  0.56672  0.00272  1.0000
  H   H308      1.0  0.02465  0.42149  0.16364  1.0000
  C   C253      1.0  0.13160  0.60525  0.06063  1.0000
  N   N16       1.0  0.07295  0.46499  0.14078  1.0000
  C   C254      1.0  0.46774  0.59101  0.22227  1.0000
  Fe  Fe39      1.0  0.06280  0.53982  0.20960  1.0000
  C   C255      1.0  0.07763  0.45508  0.12247  1.0000
  H   H309      1.0  0.12834  0.55707  0.05635  1.0000
  C   C256      1.0  0.02811  0.44021  0.18505  1.0000
  C   C257      1.0  0.05244  0.46328  0.17453  1.0000
  C   C258      1.0  0.09194  0.46378  0.14934  1.0000
  H   H310      1.0  0.10397  0.46975  0.13818  1.0000
  H   H311      1.0  0.09040  0.47284  0.16179  1.0000
  H   H312      1.0  0.05132  0.48780  0.12840  1.0000
  H   H313      1.0  0.42352  0.64009  0.06182  1.0000
  C   C259      1.0  0.47446  0.59997  0.18618  1.0000
  C   C260      1.0  0.19174  0.48572  0.99326  1.0000
  H   H314      1.0  0.02830  0.62672  0.20297  1.0000
  C   C261      1.0  0.16137  0.57977  0.99954  1.0000
  C   C262      1.0  0.46089  0.63333  0.00863  1.0000
  C   C263      1.0  0.07721  0.58799  0.09395  1.0000
  N   N17       1.0  0.00087  0.61415  0.21414  1.0000
  H   H315      1.0  0.06654  0.57651  0.12399  1.0000
  C   C264      1.0  0.13423  0.61361  0.99027  1.0000
  H   H316      1.0  0.02737  0.60262  0.19619  1.0000
  C   C265      1.0  0.03714  0.63778  0.99255  1.0000
  H   H317      1.0  0.42413  0.62732  0.00433  1.0000
  H   H318      1.0  0.14944  0.62770  0.00878  1.0000
  H   H319      1.0  0.09133  0.59757  0.06503  1.0000
  C   C266      1.0  0.34896  0.61768  0.05172  1.0000
  C   C267      1.0  0.99636  0.62652  0.13667  1.0000
  H   H320      1.0  0.24815  0.47267  0.98602  1.0000
  C   C268      1.0  0.20760  0.45149  0.99884  1.0000
  C   C269      1.0  0.37480  0.56850  0.05809  1.0000
  H   H321      1.0  0.06241  0.59457  0.09059  1.0000
  C   C270      1.0  0.99469  0.46629  0.15319  1.0000
  H   H322      1.0  0.16330  0.57861  0.06360  1.0000
  H   H323      1.0  0.21652  0.44001  0.00753  1.0000
  H   H324      1.0  0.28807  0.54604  0.98126  1.0000
  H   H325      1.0  0.14581  0.56526  0.98190  1.0000
  H   H326      1.0  0.46713  0.55165  0.21148  1.0000
  H   H327      1.0  0.34468  0.64917  0.04178  1.0000
  N   N18       1.0  0.44861  0.64446  0.99342  1.0000
  H   H328      1.0  0.99610  0.61920  0.18323  1.0000
  H   H329      1.0  0.47827  0.64045  0.19420  1.0000
  H   H330      1.0  0.44862  0.53516  0.21640  1.0000
  C   C271      1.0  0.20040  0.44696  0.98206  1.0000
  Fe  Fe40      1.0  0.48746  0.62123  0.09555  1.0000
  H   H331      1.0  0.99904  0.64128  0.22725  1.0000
  C   C272      1.0  0.48793  0.58358  0.22260  1.0000
  H   H332      1.0  0.99162  0.64108  0.12916  1.0000
  C   C273      1.0  0.02283  0.61209  0.20836  1.0000
  H   H333      1.0  0.19682  0.63481  0.98426  1.0000
  H   H334      1.0  0.42293  0.64945  0.01551  1.0000
  H   H335      1.0  0.31688  0.49415  0.98029  1.0000
  Fe  Fe41      1.0  0.47275  0.53877  0.30090  1.0000
  S   S77       1.0  0.44210  0.55415  0.29525  1.0000
  H   H336      1.0  0.07104  0.53261  0.34657  1.0000
  S   S78       1.0  0.48223  0.50591  0.30005  1.0000
  S   S79       1.0  0.45907  0.59551  0.29884  1.0000
  H   H337      1.0  0.21224  0.64311  0.43324  1.0000
  Fe  Fe42      1.0  0.44471  0.57162  0.31998  1.0000
  S   S80       1.0  0.42214  0.58367  0.34476  1.0000
  Fe  Fe43      1.0  0.45913  0.57663  0.27473  1.0000
  S   S81       1.0  0.45047  0.59027  0.24433  1.0000
  S   S82       1.0  0.47411  0.55438  0.32713  1.0000
  C   C274      1.0  0.46482  0.59092  0.37546  1.0000
  Fe  Fe44      1.0  0.32013  0.58753  0.45033  1.0000
  S   S83       1.0  0.34627  0.56356  0.44794  1.0000
  S   S84       1.0  0.32231  0.61844  0.45629  1.0000
  Fe  Fe45      1.0  0.28970  0.56048  0.44780  1.0000
  S   S85       1.0  0.31342  0.53402  0.44488  1.0000
  S   S86       1.0  0.25710  0.55663  0.44805  1.0000
  H   H338      1.0  0.39507  0.60903  0.43733  1.0000
  C   C275      1.0  0.20599  0.60104  0.47366  1.0000
  Fe  Fe46      1.0  0.33167  0.55503  0.42383  1.0000
  S   S87       1.0  0.35033  0.54243  0.39716  1.0000
  C   C276      1.0  0.01503  0.51081  0.26076  1.0000
  S   S88       1.0  0.30673  0.58062  0.42448  1.0000
  C   C277      1.0  0.47659  0.62005  0.39748  1.0000
  H   H339      1.0  0.05867  0.55313  0.35862  1.0000
  C   C278      1.0  0.35374  0.46281  0.46168  1.0000
  C   C279      1.0  0.00090  0.58156  0.23663  1.0000
  H   H340      1.0  0.02690  0.61694  0.42295  1.0000
  Fe  Fe47      1.0  0.11797  0.61865  0.46108  1.0000
  S   S89       1.0  0.11038  0.62424  0.42925  1.0000
  H   H341      1.0  0.05819  0.57963  0.23336  1.0000
  Fe  Fe48      1.0  0.02031  0.60507  0.32905  1.0000
  S   S90       1.0  0.01769  0.57754  0.35111  1.0000
  S   S91       1.0  0.03225  0.60649  0.29598  1.0000
  S   S92       1.0  0.00013  0.60755  0.38509  1.0000
  Fe  Fe49      1.0  0.03019  0.59385  0.37183  1.0000
  S   S93       1.0  0.05331  0.57833  0.39168  1.0000
  S   S94       1.0  0.03521  0.62006  0.34890  1.0000
  C   C280      1.0  0.09401  0.61147  0.41949  1.0000
  C   C281      1.0  0.08800  0.59345  0.42918  1.0000
  C   C282      1.0  0.07554  0.58345  0.42048  1.0000
  C   C283      1.0  0.06850  0.59163  0.40236  1.0000
  C   C284      1.0  0.07425  0.60980  0.39283  1.0000
  C   C285      1.0  0.08716  0.61951  0.40124  1.0000
  H   H342      1.0  0.09325  0.58702  0.44317  1.0000
  H   H343      1.0  0.07127  0.56934  0.42791  1.0000
  H   H344      1.0  0.06910  0.61619  0.37880  1.0000
  C   C286      1.0  0.38843  0.43687  0.45264  1.0000
  C   C287      1.0  0.05335  0.55599  0.25721  1.0000
  C   C288      1.0  0.05268  0.57595  0.24892  1.0000
  C   C289      1.0  0.04592  0.59117  0.26100  1.0000
  C   C290      1.0  0.03939  0.58663  0.28140  1.0000
  C   C291      1.0  0.03945  0.56665  0.28960  1.0000
  C   C292      1.0  0.04663  0.55141  0.27759  1.0000
  H   H345      1.0  0.05046  0.62117  0.42815  1.0000
  H   H346      1.0  0.04613  0.60656  0.25458  1.0000
  H   H347      1.0  0.03439  0.56296  0.30524  1.0000
  H   H348      1.0  0.04732  0.53601  0.28419  1.0000
  C   C293      1.0  0.23768  0.57348  0.45868  1.0000
  H   H349      1.0  0.45288  0.61705  0.45263  1.0000
  H   H350      1.0  0.02947  0.62142  0.44756  1.0000
  H   H351      1.0  0.42817  0.58359  0.38560  1.0000
  H   H352      1.0  0.45155  0.62996  0.36755  1.0000
  C   C294      1.0  0.21766  0.57083  0.45844  1.0000
  H   H353      1.0  0.02927  0.51632  0.26010  1.0000
  H   H354      1.0  0.09182  0.63339  0.39359  1.0000
  H   H355      1.0  0.18477  0.64274  0.38878  1.0000
  H   H356      1.0  0.21440  0.55827  0.45217  1.0000
  H   H357      1.0  0.10468  0.53970  0.26036  1.0000
  H   H358      1.0  0.25900  0.59784  0.41673  1.0000
  C   C295      1.0  0.09351  0.56396  0.27725  1.0000
  C   C296      1.0  0.00127  0.51112  0.27796  1.0000
  C   C297      1.0  0.40225  0.57184  0.35903  1.0000
  C   C298      1.0  0.38996  0.58165  0.37394  1.0000
  C   C299      1.0  0.37416  0.57274  0.38587  1.0000
  C   C300      1.0  0.37032  0.55401  0.38281  1.0000
  C   C301      1.0  0.38259  0.54419  0.36791  1.0000
  C   C302      1.0  0.39855  0.55301  0.35612  1.0000
  H   H359      1.0  0.39254  0.59631  0.37616  1.0000
  H   H360      1.0  0.36475  0.58051  0.39719  1.0000
  H   H361      1.0  0.37967  0.52975  0.36537  1.0000
  H   H362      1.0  0.40786  0.54533  0.34469  1.0000
  C   C303      1.0  0.34671  0.62412  0.45521  1.0000
  C   C304      1.0  0.24178  0.58972  0.46685  1.0000
  N   N19       1.0  0.02899  0.64764  0.42575  1.0000
  H   H363      1.0  0.42869  0.62963  0.38419  1.0000
  H   H364      1.0  0.37530  0.50693  0.40672  1.0000
  N   N20       1.0  0.44963  0.60306  0.38815  1.0000
  H   H365      1.0  0.48070  0.61440  0.32112  1.0000
  C   C305      1.0  0.20186  0.58452  0.46593  1.0000
  H   H366      1.0  0.09296  0.56163  0.36116  1.0000
  H   H367      1.0  0.38029  0.48093  0.40516  1.0000
  H   H368      1.0  0.44830  0.53565  0.25094  1.0000
  H   H369      1.0  0.47517  0.49592  0.24888  1.0000
  H   H370      1.0  0.39650  0.45844  0.42850  1.0000
  Fe  Fe50      1.0  0.48815  0.57696  0.30443  1.0000
  C   C306      1.0  0.20995  0.60268  0.41008  1.0000
  C   C307      1.0  0.36753  0.46881  0.44500  1.0000
  S   S95       1.0  0.41026  0.63568  0.45828  1.0000
  C   C308      1.0  0.17531  0.63235  0.39860  1.0000
  C   C309      1.0  0.03417  0.62590  0.43146  1.0000
  H   H371      1.0  0.20017  0.59448  0.40439  1.0000
  C   C310      1.0  0.45970  0.61751  0.43725  1.0000
  S   S96       1.0  0.98971  0.62054  0.33913  1.0000
  C   C311      1.0  0.38250  0.61741  0.44528  1.0000
  N   N21       1.0  0.08095  0.56101  0.33387  1.0000
  H   H372      1.0  0.33109  0.48940  0.43701  1.0000
  H   H373      1.0  0.09715  0.52424  0.32347  1.0000
  C   C312      1.0  0.45056  0.60997  0.42350  1.0000
  H   H374      1.0  0.10421  0.54139  0.34792  1.0000
  H   H375      1.0  0.39379  0.49243  0.42041  1.0000
  H   H376      1.0  0.34954  0.50391  0.45775  1.0000
  H   H377      1.0  0.46968  0.52673  0.26335  1.0000
  C   C313      1.0  0.01037  0.50360  0.24430  1.0000
  H   H378      1.0  0.43313  0.61527  0.36363  1.0000
  H   H379      1.0  0.37609  0.50351  0.45243  1.0000
  C   C314      1.0  0.45904  0.61062  0.40318  1.0000
  H   H380      1.0  0.09214  0.57477  0.26409  1.0000
  H   H381      1.0  0.43668  0.60408  0.42914  1.0000
  C   C315      1.0  0.99619  0.56213  0.24151  1.0000
  C   C316      1.0  0.23671  0.62192  0.42501  1.0000
  H   H382      1.0  0.18656  0.58226  0.46566  1.0000
  C   C317      1.0  0.38577  0.63188  0.45645  1.0000
  H   H383      1.0  0.17687  0.61848  0.39163  1.0000
  C   C318      1.0  0.08720  0.56972  0.29614  1.0000
  C   C319      1.0  0.23012  0.59474  0.40939  1.0000
  C   C320      1.0  0.34995  0.63916  0.46564  1.0000
  C   C321      1.0  0.36217  0.50448  0.44548  1.0000
  C   C322      1.0  0.20249  0.62054  0.41839  1.0000
  C   C323      1.0  0.99568  0.62566  0.23134  1.0000
  S   S97       1.0  0.30134  0.56928  0.47371  1.0000
  H   H384      1.0  0.36051  0.60217  0.43624  1.0000
  C   C324      1.0  0.10062  0.54418  0.27511  1.0000
  S   S98       1.0  0.06425  0.53661  0.24297  1.0000
  H   H385      1.0  0.08344  0.59247  0.32751  1.0000
  H   H386      1.0  0.05898  0.63633  0.45126  1.0000
  H   H387      1.0  0.10737  0.51470  0.29011  1.0000
  C   C325      1.0  0.37895  0.49218  0.41560  1.0000
  C   C326      1.0  0.09592  0.53571  0.31091  1.0000
  H   H388      1.0  0.43967  0.57788  0.40789  1.0000
  H   H389      1.0  0.05284  0.55007  0.33458  1.0000
  H   H390      1.0  0.05910  0.58587  0.32565  1.0000
  H   H391      1.0  0.46852  0.55023  0.24782  1.0000
  H   H392      1.0  0.15240  0.61937  0.43180  1.0000
  H   H393      1.0  0.35982  0.51950  0.43668  1.0000
  C   C327      1.0  0.99203  0.49652  0.24500  1.0000
  C   C328      1.0  0.06525  0.54865  0.34379  1.0000
  C   C329      1.0  0.36298  0.61341  0.44480  1.0000
  C   C330      1.0  0.10194  0.53010  0.29191  1.0000
  C   C331      1.0  0.38510  0.45525  0.44081  1.0000
  H   H394      1.0  0.11012  0.56607  0.33877  1.0000
  C   C332      1.0  0.07228  0.58219  0.33401  1.0000
  H   H395      1.0  0.23543  0.58072  0.40363  1.0000
  C   C333      1.0  0.34401  0.48974  0.42503  1.0000
  H   H396      1.0  0.17861  0.64542  0.44368  1.0000
  H   H397      1.0  0.34085  0.50393  0.41505  1.0000
  H   H398      1.0  0.17091  0.59942  0.42517  1.0000
  H   H399      1.0  0.08115  0.58517  0.29652  1.0000
  C   C334      1.0  0.08805  0.55565  0.31362  1.0000
  C   C335      1.0  0.09782  0.55733  0.34591  1.0000
  C   C336      1.0  0.17569  0.64749  0.42786  1.0000
  H   H400      1.0  0.00492  0.51685  0.29072  1.0000
  H   H401      1.0  0.48412  0.63209  0.44191  1.0000
  H   H402      1.0  0.06704  0.58569  0.34942  1.0000
  N   N22       1.0  0.36340  0.48840  0.43289  1.0000
  C   C337      1.0  0.24349  0.60438  0.41676  1.0000
  C   C338      1.0  0.44035  0.62022  0.37531  1.0000
  N   N23       1.0  0.47463  0.52512  0.23163  1.0000
  H   H403      1.0  0.34391  0.47729  0.41633  1.0000
  Fe  Fe51      1.0  0.00437  0.63327  0.36104  1.0000
  C   C339      1.0  0.35718  0.44439  0.47333  1.0000
  H   H404      1.0  0.24710  0.62897  0.43133  1.0000
  H   H405      1.0  0.15933  0.63897  0.39856  1.0000
  H   H406      1.0  0.45410  0.50325  0.23572  1.0000
  C   C340      1.0  0.36946  0.64286  0.46646  1.0000
  S   S99       1.0  0.13402  0.64250  0.46833  1.0000
  Fe  Fe52      1.0  0.32631  0.54453  0.46905  1.0000
  H   H407      1.0  0.17231  0.61100  0.44662  1.0000
  C   C341      1.0  0.16868  0.61391  0.43111  1.0000
  C   C342      1.0  0.21652  0.62990  0.42599  1.0000
  H   H408      1.0  0.03058  0.64287  0.39508  1.0000
  H   H409      1.0  0.42049  0.59908  0.40458  1.0000
  N   N24       1.0  0.18100  0.62856  0.41903  1.0000
  C   C343      1.0  0.37449  0.43145  0.46884  1.0000
  H   H410      1.0  0.45783  0.58390  0.36499  1.0000
  H   H411      1.0  0.00432  0.61934  0.24389  1.0000
  C   C344      1.0  0.43384  0.59037  0.39709  1.0000
  C   C345      1.0  0.47721  0.62616  0.43121  1.0000
  H   H412      1.0  0.25713  0.59194  0.46707  1.0000
  S   S100      1.0  0.13945  0.59419  0.47481  1.0000
  H   H413      1.0  0.47545  0.64234  0.34123  1.0000
  C   C346      1.0  0.46490  0.53478  0.24918  1.0000
  H   H414      1.0  0.34013  0.47234  0.46588  1.0000
  H   H415      1.0  0.01000  0.58654  0.24606  1.0000
  C   C347      1.0  0.48555  0.62759  0.41133  1.0000
  H   H416      1.0  0.99979  0.64221  0.42072  1.0000
  H   H417      1.0  0.47569  0.59986  0.36577  1.0000
  C   C348      1.0  0.47040  0.50418  0.23474  1.0000
  H   H418      1.0  0.37706  0.41720  0.47798  1.0000
  H   H419      1.0  0.40190  0.42672  0.44921  1.0000
  H   H420      1.0  0.02100  0.50371  0.23082  1.0000
  H   H421      1.0  0.00152  0.55288  0.25439  1.0000
  H   H422      1.0  0.47339  0.57881  0.38467  1.0000
  H   H423      1.0  0.47553  0.64437  0.26010  1.0000
  H   H424      1.0  0.48335  0.62211  0.38218  1.0000
  H   H425      1.0  0.37586  0.58110  0.47864  1.0000
  H   H426      1.0  0.48296  0.60912  0.25606  1.0000
  C   C349      1.0  0.22599  0.60345  0.47425  1.0000
  H   H427      1.0  0.33737  0.64753  0.47362  1.0000
  H   H428      1.0  0.47534  0.63522  0.23038  1.0000
  H   H429      1.0  0.98909  0.37865  0.46586  1.0000
  H   H430      1.0  0.98915  0.49122  0.23173  1.0000
  S   S101      1.0  0.46601  0.48621  0.66017  1.0000
  H   H431      1.0  0.38134  0.60690  0.49463  1.0000
  C   C350      1.0  0.46344  0.38152  0.58562  1.0000
  S   S102      1.0  0.02980  0.32525  0.62290  1.0000
  S   S103      1.0  0.43267  0.62553  0.50786  1.0000
  Fe  Fe53      1.0  0.43383  0.49985  0.66637  1.0000
  S   S104      1.0  0.40992  0.48723  0.68892  1.0000
  C   C351      1.0  0.35971  0.49210  0.71688  1.0000
  Fe  Fe54      1.0  0.40850  0.53986  0.65676  1.0000
  S   S105      1.0  0.38254  0.53069  0.67874  1.0000
  S   S106      1.0  0.40871  0.57161  0.64121  1.0000
  Fe  Fe55      1.0  0.40473  0.51716  0.69971  1.0000
  Fe  Fe56      1.0  0.38946  0.50154  0.66634  1.0000
  S   S107      1.0  0.36227  0.48804  0.66230  1.0000
  S   S108      1.0  0.43022  0.52884  0.67883  1.0000
  S   S109      1.0  0.41385  0.51166  0.64267  1.0000
  Fe  Fe57      1.0  0.31992  0.42558  0.55051  1.0000
  S   S110      1.0  0.30228  0.40222  0.56877  1.0000
  S   S111      1.0  0.31385  0.43952  0.51973  1.0000
  Fe  Fe58      1.0  0.34387  0.42803  0.58353  1.0000
  S   S112      1.0  0.32755  0.40601  0.60466  1.0000
  S   S113      1.0  0.37155  0.43883  0.58992  1.0000
  Fe  Fe59      1.0  0.33201  0.38834  0.57885  1.0000
  S   S114      1.0  0.34433  0.35561  0.58616  1.0000
  Fe  Fe60      1.0  0.29944  0.42187  0.59283  1.0000
  S   S115      1.0  0.27190  0.43059  0.61465  1.0000
  S   S116      1.0  0.34960  0.40988  0.55822  1.0000
  S   S117      1.0  0.31574  0.44581  0.57404  1.0000
  Fe  Fe61      1.0  0.10907  0.45088  0.63152  1.0000
  S   S118      1.0  0.13756  0.44001  0.64494  1.0000
  S   S119      1.0  0.08583  0.42884  0.63858  1.0000
  Fe  Fe62      1.0  0.12147  0.49312  0.61905  1.0000
  S   S120      1.0  0.15057  0.48461  0.63186  1.0000
  S   S121      1.0  0.11475  0.52628  0.60844  1.0000
  Fe  Fe63      1.0  0.15316  0.45673  0.61773  1.0000
  S   S122      1.0  0.18062  0.44389  0.59798  1.0000
  Fe  Fe64      1.0  0.13224  0.46894  0.65797  1.0000
  S   S123      1.0  0.13665  0.46974  0.69015  1.0000
  S   S124      1.0  0.12487  0.46607  0.60320  1.0000
  S   S125      1.0  0.10304  0.47902  0.64619  1.0000
  C   C352      1.0  0.17782  0.50033  0.56897  1.0000
  Fe  Fe65      1.0  0.11847  0.59655  0.50333  1.0000
  S   S126      1.0  0.11355  0.56540  0.51823  1.0000
  S   S127      1.0  0.13369  0.61946  0.51379  1.0000
  S   S128      1.0  0.02813  0.32871  0.57534  1.0000
  H   H432      1.0  0.42911  0.36314  0.56437  1.0000
  H   H433      1.0  0.36874  0.50344  0.71958  1.0000
  H   H434      1.0  0.29650  0.57843  0.56163  1.0000
  Fe  Fe66      1.0  0.03303  0.34915  0.59669  1.0000
  S   S129      1.0  0.05848  0.36853  0.58802  1.0000
  H   H435      1.0  0.29929  0.56544  0.52931  1.0000
  C   C353      1.0  0.07871  0.41218  0.62405  1.0000
  C   C354      1.0  0.08318  0.41403  0.60332  1.0000
  C   C355      1.0  0.07688  0.40059  0.59251  1.0000
  C   C356      1.0  0.06578  0.38535  0.60223  1.0000
  C   C357      1.0  0.06155  0.38337  0.62296  1.0000
  C   C358      1.0  0.06790  0.39674  0.63377  1.0000
  H   H436      1.0  0.09113  0.42603  0.59556  1.0000
  H   H437      1.0  0.08039  0.40216  0.57649  1.0000
  H   H438      1.0  0.05355  0.37139  0.63068  1.0000
  H   H439      1.0  0.06444  0.39501  0.64977  1.0000
  C   C359      1.0  0.11478  0.53688  0.58324  1.0000
  C   C360      1.0  0.11388  0.55765  0.57840  1.0000
  C   C361      1.0  0.11376  0.56667  0.55854  1.0000
  C   C362      1.0  0.11426  0.55494  0.54339  1.0000
  C   C363      1.0  0.11530  0.53418  0.54822  1.0000
  C   C364      1.0  0.11568  0.52515  0.56803  1.0000
  H   H440      1.0  0.11314  0.56684  0.59009  1.0000
  H   H441      1.0  0.11287  0.58267  0.55500  1.0000
  H   H442      1.0  0.11570  0.52500  0.53658  1.0000
  H   H443      1.0  0.11640  0.50916  0.57154  1.0000
  C   C365      1.0  0.34530  0.58191  0.52354  1.0000
  C   C366      1.0  0.09175  0.50824  0.71525  1.0000
  C   C367      1.0  0.10330  0.49601  0.70182  1.0000
  C   C368      1.0  0.12056  0.48389  0.70717  1.0000
  C   C369      1.0  0.10816  0.56326  0.71468  1.0000
  H   H444      1.0  0.36062  0.56246  0.49002  1.0000
  H   H445      1.0  0.07868  0.51792  0.71085  1.0000
  H   H446      1.0  0.09902  0.49606  0.68726  1.0000
  N   N25       1.0  0.36375  0.58379  0.50931  1.0000
  C   C370      1.0  0.44066  0.36347  0.57358  1.0000
  C   C371      1.0  0.12146  0.35531  0.58746  1.0000
  N   N26       1.0  0.33799  0.49884  0.72045  1.0000
  C   C372      1.0  0.24665  0.43458  0.60952  1.0000
  C   C373      1.0  0.23136  0.44123  0.62414  1.0000
  C   C374      1.0  0.21111  0.44438  0.62079  1.0000
  C   C375      1.0  0.20592  0.44078  0.60278  1.0000
  C   C376      1.0  0.22120  0.43415  0.58815  1.0000
  C   C377      1.0  0.24145  0.43113  0.59145  1.0000
  H   H447      1.0  0.23520  0.44391  0.63817  1.0000
  H   H448      1.0  0.19956  0.44943  0.63221  1.0000
  H   H449      1.0  0.21739  0.43132  0.57417  1.0000
  H   H450      1.0  0.25302  0.42601  0.58007  1.0000
  C   C378      1.0  0.39766  0.34540  0.55102  1.0000
  C   C379      1.0  0.37877  0.35438  0.55888  1.0000
  C   C380      1.0  0.36866  0.34547  0.57643  1.0000
  H   H451      1.0  0.16967  0.58247  0.51691  1.0000
  H   H452      1.0  0.40504  0.35206  0.53706  1.0000
  H   H453      1.0  0.37176  0.36785  0.55099  1.0000
  C   C381      1.0  0.33299  0.50155  0.50110  1.0000
  C   C382      1.0  0.34363  0.48749  0.51399  1.0000
  C   C383      1.0  0.33752  0.46859  0.52013  1.0000
  C   C384      1.0  0.32099  0.46351  0.51305  1.0000
  C   C385      1.0  0.31060  0.47743  0.49982  1.0000
  H   H454      1.0  0.33664  0.51624  0.69154  1.0000
  H   H455      1.0  0.35667  0.49118  0.51918  1.0000
  H   H456      1.0  0.34587  0.45772  0.52995  1.0000
  C   C386      1.0  0.46357  0.34616  0.59611  1.0000
  C   C387      1.0  0.36526  0.47342  0.64286  1.0000
  C   C388      1.0  0.38354  0.47068  0.63070  1.0000
  C   C389      1.0  0.38539  0.45975  0.61464  1.0000
  C   C390      1.0  0.36898  0.45155  0.61070  1.0000
  C   C391      1.0  0.35073  0.45404  0.62299  1.0000
  C   C392      1.0  0.34890  0.46495  0.63911  1.0000
  H   H457      1.0  0.39623  0.47710  0.63354  1.0000
  H   H458      1.0  0.39951  0.45785  0.60511  1.0000
  H   H459      1.0  0.33800  0.44773  0.62000  1.0000
  H   H460      1.0  0.33472  0.46706  0.64849  1.0000
  C   C393      1.0  0.31645  0.49650  0.49401  1.0000
  C   C394      1.0  0.46305  0.58578  0.57627  1.0000
  C   C395      1.0  0.45104  0.61907  0.56189  1.0000
  H   H461      1.0  0.37016  0.32071  0.59984  1.0000
  C   C396      1.0  0.46983  0.59696  0.53999  1.0000
  Fe  Fe67      1.0  0.11289  0.64245  0.49671  1.0000
  S   S130      1.0  0.09582  0.61944  0.48870  1.0000
  C   C397      1.0  0.40242  0.59432  0.57551  1.0000
  C   C398      1.0  0.40254  0.57395  0.58253  1.0000
  C   C399      1.0  0.40473  0.56670  0.60254  1.0000
  C   C400      1.0  0.40648  0.57983  0.61578  1.0000
  C   C401      1.0  0.40654  0.60017  0.60869  1.0000
  C   C402      1.0  0.40454  0.60740  0.58865  1.0000
  H   H462      1.0  0.40105  0.56369  0.57245  1.0000
  H   H463      1.0  0.40506  0.55097  0.60774  1.0000
  H   H464      1.0  0.40792  0.61041  0.61884  1.0000
  H   H465      1.0  0.40420  0.62315  0.58353  1.0000
  H   H466      1.0  0.29785  0.47352  0.49424  1.0000
  H   H467      1.0  0.40339  0.38939  0.59437  1.0000
  H   H468      1.0  0.39492  0.57170  0.50723  1.0000
  H   H469      1.0  0.16936  0.55901  0.49384  1.0000
  H   H470      1.0  0.39365  0.36721  0.59149  1.0000
  C   C403      1.0  0.13432  0.53563  0.71794  1.0000
  H   H471      1.0  0.38327  0.57423  0.53197  1.0000
  S   S131      1.0  0.39872  0.60282  0.55045  1.0000
  C   C404      1.0  0.46110  0.58851  0.59664  1.0000
  H   H472      1.0  0.42952  0.31730  0.62743  1.0000
  C   C405      1.0  0.40331  0.36416  0.62884  1.0000
  C   C406      1.0  0.41389  0.37025  0.64280  1.0000
  C   C407      1.0  0.40965  0.34481  0.62330  1.0000
  C   C408      1.0  0.42929  0.35738  0.65117  1.0000
  C   C409      1.0  0.42502  0.33210  0.63176  1.0000
  C   C410      1.0  0.43469  0.33829  0.64580  1.0000
  S   S132      1.0  0.34058  0.52537  0.49430  1.0000
  C   C411      1.0  0.18959  0.49867  0.55072  1.0000
  H   H473      1.0  0.46899  0.33216  0.60437  1.0000
  H   H474      1.0  0.35531  0.61521  0.50184  1.0000
  C   C412      1.0  0.32735  0.48400  0.71391  1.0000
  H   H475      1.0  0.17430  0.57381  0.54199  1.0000
  H   H476      1.0  0.40259  0.33927  0.61251  1.0000
  C   C413      1.0  0.13445  0.53299  0.69808  1.0000
  C   C414      1.0  0.16832  0.56979  0.52910  1.0000
  H   H477      1.0  0.41044  0.38480  0.64764  1.0000
  H   H478      1.0  0.34283  0.52941  0.70961  1.0000
  C   C415      1.0  0.10835  0.56097  0.69472  1.0000
  C   C416      1.0  0.37794  0.32782  0.58635  1.0000
  C   C417      1.0  0.38058  0.39614  0.62858  1.0000
  N   N27       1.0  0.02160  0.41533  0.68512  1.0000
  C   C418      1.0  0.02071  0.39799  0.70094  1.0000
  C   C419      1.0  0.04095  0.42297  0.68484  1.0000
  Fe  Fe68      1.0  0.15346  0.61803  0.48448  1.0000
  C   C420      1.0  0.01979  0.41055  0.66513  1.0000
  C   C421      1.0  0.02164  0.42527  0.64823  1.0000
  C   C422      1.0  0.01568  0.39164  0.66183  1.0000
  C   C423      1.0  0.01974  0.42123  0.62925  1.0000
  C   C424      1.0  0.01361  0.38784  0.64280  1.0000
  C   C425      1.0  0.01566  0.40257  0.62656  1.0000
  H   H479      1.0  0.03271  0.38562  0.69753  1.0000
  H   H480      1.0  0.02244  0.40195  0.71571  1.0000
  H   H481      1.0  0.48230  0.58474  0.53767  1.0000
  H   H482      1.0  0.05378  0.41212  0.67959  1.0000
  H   H483      1.0  0.04309  0.42598  0.69984  1.0000
  H   H484      1.0  0.04222  0.43717  0.67481  1.0000
  C   C426      1.0  0.47188  0.36384  0.59673  1.0000
  C   C427      1.0  0.46029  0.56671  0.57209  1.0000
  C   C428      1.0  0.00496  0.43084  0.69078  1.0000
  H   H485      1.0  0.02472  0.44001  0.64950  1.0000
  H   H486      1.0  0.01375  0.37952  0.67367  1.0000
  H   H487      1.0  0.02176  0.43250  0.61649  1.0000
  H   H488      1.0  0.01056  0.37326  0.64064  1.0000
  H   H489      1.0  0.36382  0.47809  0.72670  1.0000
  C   C429      1.0  0.38067  0.57050  0.51740  1.0000
  H   H490      1.0  0.33886  0.32040  0.55632  1.0000
  H   H491      1.0  0.17751  0.48755  0.58043  1.0000
  H   H492      1.0  0.09833  0.35940  0.63423  1.0000
  N   N28       1.0  0.33501  0.50560  0.57104  1.0000
  C   C430      1.0  0.35012  0.48868  0.56578  1.0000
  C   C431      1.0  0.31777  0.49761  0.58411  1.0000
  C   C432      1.0  0.32750  0.51597  0.55243  1.0000
  C   C433      1.0  0.34419  0.51855  0.58162  1.0000
  C   C434      1.0  0.34976  0.51156  0.60083  1.0000
  C   C435      1.0  0.34840  0.53799  0.57317  1.0000
  C   C436      1.0  0.35811  0.52353  0.61133  1.0000
  C   C437      1.0  0.35687  0.54983  0.58381  1.0000
  C   C438      1.0  0.36143  0.54271  0.60294  1.0000
  H   H493      1.0  0.36320  0.49388  0.55568  1.0000
  H   H494      1.0  0.35598  0.47983  0.57910  1.0000
  H   H495      1.0  0.34376  0.47816  0.55832  1.0000
  H   H496      1.0  0.32247  0.48660  0.59675  1.0000
  H   H497      1.0  0.30924  0.48952  0.57596  1.0000
  H   H498      1.0  0.30713  0.50977  0.59035  1.0000
  H   H499      1.0  0.33986  0.52069  0.54095  1.0000
  H   H500      1.0  0.31987  0.50608  0.54533  1.0000
  H   H501      1.0  0.31643  0.52919  0.55534  1.0000
  H   H502      1.0  0.34782  0.49668  0.60786  1.0000
  H   H503      1.0  0.34531  0.54435  0.55840  1.0000
  H   H504      1.0  0.37738  0.39004  0.59216  1.0000
  H   H505      1.0  0.36003  0.56462  0.57725  1.0000
  H   H506      1.0  0.36772  0.55201  0.61126  1.0000
  H   H507      1.0  0.44245  0.33224  0.58409  1.0000
  H   H508      1.0  0.37255  0.60911  0.51989  1.0000
  C   C439      1.0  0.17852  0.53371  0.53888  1.0000
  H   H509      1.0  0.39286  0.40565  0.62441  1.0000
  H   H510      1.0  0.45433  0.63214  0.55081  1.0000
  C   C440      1.0  0.32594  0.58750  0.55592  1.0000
  N   N29       1.0  0.38598  0.37669  0.62072  1.0000
  C   C441      1.0  0.13503  0.36909  0.58596  1.0000
  C   C442      1.0  0.10845  0.35168  0.60489  1.0000
  H   H511      1.0  0.37009  0.35201  0.61878  1.0000
  H   H512      1.0  0.37657  0.39421  0.64501  1.0000
  H   H513      1.0  0.36211  0.51784  0.62607  1.0000
  N   N30       1.0  0.14885  0.39559  0.60043  1.0000
  C   C443      1.0  0.13623  0.41513  0.59886  1.0000
  C   C444      1.0  0.15933  0.39339  0.61832  1.0000
  C   C445      1.0  0.16447  0.39563  0.58279  1.0000
  C   C446      1.0  0.13579  0.37982  0.60203  1.0000
  H   H514      1.0  0.12507  0.41679  0.61232  1.0000
  H   H515      1.0  0.14543  0.42752  0.59697  1.0000
  H   H516      1.0  0.12775  0.41724  0.58585  1.0000
  H   H517      1.0  0.14899  0.39631  0.63199  1.0000
  H   H518      1.0  0.17031  0.40429  0.61676  1.0000
  H   H519      1.0  0.16765  0.37820  0.62103  1.0000
  H   H520      1.0  0.15786  0.39971  0.56861  1.0000
  H   H521      1.0  0.17474  0.40694  0.58266  1.0000
  H   H522      1.0  0.17390  0.38092  0.58262  1.0000
  H   H523      1.0  0.14438  0.37143  0.57189  1.0000
  S   S133      1.0  0.42987  0.31621  0.54943  1.0000
  H   H524      1.0  0.44646  0.32820  0.65242  1.0000
  C   C447      1.0  0.33348  0.51803  0.70767  1.0000
  H   H525      1.0  0.00559  0.44504  0.68063  1.0000
  S   S134      1.0  0.00071  0.36276  0.60034  1.0000
  H   H526      1.0  0.34935  0.58767  0.48281  1.0000
  H   H527      1.0  0.45371  0.53705  0.58402  1.0000
  C   C448      1.0  0.34338  0.58873  0.54241  1.0000
  C   C449      1.0  0.36838  0.60461  0.50633  1.0000
  C   C450      1.0  0.40688  0.32771  0.56085  1.0000
  C   C451      1.0  0.36820  0.36587  0.62580  1.0000
  H   H528      1.0  0.48516  0.61624  0.57702  1.0000
  C   C452      1.0  0.16649  0.53482  0.55761  1.0000
  H   H529      1.0  0.44830  0.62440  0.57670  1.0000
  C   C453      1.0  0.07535  0.41247  0.72563  1.0000
  C   C454      1.0  0.16973  0.54635  0.50608  1.0000
  H   H530      1.0  0.20860  0.54212  0.50725  1.0000
  H   H531      1.0  0.15684  0.54813  0.56115  1.0000
  H   H532      1.0  0.35464  0.37485  0.62044  1.0000
  H   H533      1.0  0.09763  0.57462  0.72139  1.0000
  H   H534      1.0  0.43680  0.61460  0.55906  1.0000
  H   H535      1.0  0.32473  0.59314  0.57008  1.0000
  H   H536      1.0  0.46249  0.60270  0.60102  1.0000
  H   H537      1.0  0.20114  0.56813  0.50518  1.0000
  H   H538      1.0  0.44207  0.39478  0.56559  1.0000
  C   C455      1.0  0.36226  0.57848  0.48939  1.0000
  C   C456      1.0  0.44827  0.34604  0.58464  1.0000
  C   C457      1.0  0.46326  0.42715  0.66202  1.0000
  Fe  Fe69      1.0  0.99724  0.33809  0.62604  1.0000
  Fe  Fe70      1.0  0.40768  0.63159  0.53227  1.0000
  H   H539      1.0  0.33122  0.48314  0.69763  1.0000
  C   C458      1.0  0.47221  0.46058  0.65884  1.0000
  N   N31       1.0  0.12067  0.54305  0.66487  1.0000
  C   C459      1.0  0.13380  0.52520  0.65851  1.0000
  C   C460      1.0  0.09994  0.54119  0.66176  1.0000
  C   C461      1.0  0.12727  0.56068  0.65164  1.0000
  C   C462      1.0  0.12125  0.54554  0.68587  1.0000
  C   C463      1.0  0.31008  0.57916  0.55122  1.0000
  H   H540      1.0  0.45468  0.57572  0.62729  1.0000
  C   C464      1.0  0.45430  0.55462  0.60725  1.0000
  H   H541      1.0  0.14983  0.52597  0.65934  1.0000
  H   H542      1.0  0.12946  0.51126  0.66760  1.0000
  H   H543      1.0  0.13288  0.52365  0.64278  1.0000
  H   H544      1.0  0.09372  0.52922  0.67260  1.0000
  H   H545      1.0  0.09927  0.53755  0.64659  1.0000
  H   H546      1.0  0.08955  0.55512  0.66328  1.0000
  H   H547      1.0  0.14273  0.56271  0.65359  1.0000
  H   H548      1.0  0.12716  0.55916  0.63566  1.0000
  H   H549      1.0  0.11737  0.57462  0.65461  1.0000
  H   H550      1.0  0.14458  0.52060  0.69291  1.0000
  C   C465      1.0  0.48349  0.41952  0.65788  1.0000
  H   H551      1.0  0.17782  0.53305  0.49955  1.0000
  H   H552      1.0  0.09746  0.34154  0.60573  1.0000
  C   C466      1.0  0.18989  0.51504  0.53582  1.0000
  C   C467      1.0  0.39034  0.38095  0.59877  1.0000
  N   N32       1.0  0.17911  0.55079  0.52282  1.0000
  H   H553      1.0  0.01459  0.39936  0.61176  1.0000
  H   H554      1.0  0.08692  0.40861  0.71363  1.0000
  C   C468      1.0  0.10893  0.36181  0.62093  1.0000
  Fe  Fe71      1.0  0.41351  0.64549  0.48739  1.0000
  C   C469      1.0  0.16628  0.51833  0.57238  1.0000
  H   H555      1.0  0.47552  0.43152  0.70238  1.0000
  H   H556      1.0  0.33165  0.46869  0.72133  1.0000
  H   H557      1.0  0.12083  0.38436  0.63182  1.0000
  H   H558      1.0  0.99020  0.42584  0.69034  1.0000
  H   H559      1.0  0.44202  0.45350  0.66590  1.0000
  H   H560      1.0  0.45195  0.41719  0.66497  1.0000
  H   H561      1.0  0.15198  0.56909  0.53302  1.0000
  C   C470      1.0  0.31167  0.57186  0.53306  1.0000
  H   H562      1.0  0.15684  0.51942  0.58649  1.0000
  H   H563      1.0  0.48432  0.39439  0.61284  1.0000
  C   C471      1.0  0.12211  0.37593  0.61947  1.0000
  C   C472      1.0  0.32901  0.57306  0.51943  1.0000
  C   C473      1.0  0.45761  0.44767  0.66258  1.0000
  H   H564      1.0  0.36734  0.40498  0.62228  1.0000
  H   H565      1.0  0.31750  0.52430  0.71088  1.0000
  C   C474      1.0  0.48638  0.60959  0.56300  1.0000
  H   H566      1.0  0.43702  0.36219  0.66199  1.0000
  H   H567      1.0  0.32918  0.56713  0.50566  1.0000
  H   H568      1.0  0.48236  0.39493  0.70723  1.0000
  H   H569      1.0  0.37785  0.55467  0.51964  1.0000
  H   H570      1.0  0.34632  0.44009  0.48592  1.0000
  N   N33       1.0  0.46752  0.60240  0.56048  1.0000
  C   C475      1.0  0.12107  0.55056  0.72628  1.0000
  H   H571      1.0  0.15397  0.54344  0.51108  1.0000
  N   N34       1.0  0.48858  0.36337  0.60846  1.0000
  H   H572      1.0  0.35538  0.59513  0.54684  1.0000
  C   C476      1.0  0.45679  0.57314  0.61182  1.0000
  H   H573      1.0  0.09804  0.57119  0.68637  1.0000
  H   H574      1.0  0.36480  0.36177  0.64215  1.0000
  H   H575      1.0  0.19899  0.51289  0.52180  1.0000
  C   C477      1.0  0.44808  0.38121  0.57422  1.0000
  H   H576      1.0  0.19841  0.48454  0.54812  1.0000
  C   C478      1.0  0.20018  0.55411  0.51561  1.0000
  H   H577      1.0  0.00502  0.43425  0.70616  1.0000
  H   H578      1.0  0.36456  0.48917  0.70131  1.0000
  Fe  Fe72      1.0  0.99544  0.34048  0.58091  1.0000
  H   H579      1.0  0.12061  0.34774  0.57486  1.0000
  H   H580      1.0  0.47664  0.34240  0.63234  1.0000
  C   C479      1.0  0.12553  0.48334  0.72644  1.0000
  H   H581      1.0  0.20837  0.55520  0.52821  1.0000
  H   H582      1.0  0.46855  0.39575  0.58531  1.0000
  S   S135      1.0  0.18680  0.61914  0.48262  1.0000
  H   H583      1.0  0.30805  0.50728  0.48417  1.0000
  H   H584      1.0  0.08282  0.44171  0.72329  1.0000
  H   H585      1.0  0.45049  0.54291  0.61913  1.0000
  H   H586      1.0  0.31084  0.48792  0.71679  1.0000
  H   H587      1.0  0.46948  0.36811  0.63569  1.0000
  H   H588      1.0  0.06641  0.47359  0.72651  1.0000
  H   H589      1.0  0.45576  0.59249  0.53662  1.0000
  H   H590      1.0  0.46109  0.56326  0.55713  1.0000
  H   H591      1.0  0.14398  0.52547  0.72718  1.0000
  C   C480      1.0  0.39712  0.31916  0.57880  1.0000
  C   C481      1.0  0.45603  0.55141  0.58744  1.0000
  H   H592      1.0  0.47333  0.60978  0.52854  1.0000
  H   H593      1.0  0.37111  0.32095  0.53455  1.0000
  H   H594      1.0  0.00596  0.39230  0.70300  1.0000
  C   C482      1.0  0.48189  0.35724  0.62977  1.0000
  H   H595      1.0  0.00638  0.38496  0.49263  1.0000
  S   S136      1.0  0.98907  0.31715  0.60684  1.0000
  C   C483      1.0  0.99040  0.38421  0.49529  1.0000
  H   H596      1.0  0.22934  0.61614  0.48025  1.0000
  H   H597      1.0  0.45988  0.33151  0.81399  1.0000
  H   H598      1.0  0.06621  0.34541  0.87929  1.0000
  H   H599      1.0  0.11448  0.54892  0.86082  1.0000
  S   S137      1.0  0.39395  0.55242  0.95140  1.0000
  H   H600      1.0  0.38168  0.45893  0.76651  1.0000
  Fe  Fe73      1.0  0.35981  0.49363  0.87460  1.0000
  S   S138      1.0  0.33681  0.48249  0.85980  1.0000
  S   S139      1.0  0.35291  0.52472  0.88421  1.0000
  Fe  Fe74      1.0  0.38871  0.45493  0.87197  1.0000
  S   S140      1.0  0.36748  0.44074  0.85834  1.0000
  S   S141      1.0  0.42160  0.44283  0.87208  1.0000
  Fe  Fe75      1.0  0.36303  0.47013  0.83895  1.0000
  S   S142      1.0  0.36616  0.46526  0.80646  1.0000
  Fe  Fe76      1.0  0.34306  0.45414  0.88021  1.0000
  S   S143      1.0  0.31880  0.43758  0.89946  1.0000
  S   S144      1.0  0.38523  0.48393  0.85173  1.0000
  S   S145      1.0  0.36502  0.46577  0.89595  1.0000
  H   H601      1.0  0.03907  0.41118  0.86134  1.0000
  H   H602      1.0  0.42869  0.59301  0.91580  1.0000
  S   S146      1.0  0.45670  0.35130  0.88694  1.0000
  C   C484      1.0  0.40350  0.55804  0.88469  1.0000
  Fe  Fe77      1.0  0.20885  0.41792  0.90230  1.0000
  S   S147      1.0  0.19471  0.44175  0.92097  1.0000
  S   S148      1.0  0.23348  0.42659  0.87756  1.0000
  Fe  Fe78      1.0  0.18057  0.38769  0.92367  1.0000
  S   S149      1.0  0.16566  0.40901  0.94503  1.0000
  S   S150      1.0  0.16862  0.35745  0.92702  1.0000
  Fe  Fe79      1.0  0.16567  0.43166  0.91803  1.0000
  S   S151      1.0  0.13667  0.45011  0.91256  1.0000
  Fe  Fe80      1.0  0.19602  0.41722  0.94650  1.0000
  H   H603      1.0  0.44496  0.64310  0.96305  1.0000
  S   S152      1.0  0.17916  0.41035  0.89655  1.0000
  S   S153      1.0  0.21160  0.39345  0.92793  1.0000
  Fe  Fe81      1.0  0.10964  0.50095  0.81648  1.0000
  S   S154      1.0  0.10244  0.53225  0.80165  1.0000
  S   S155      1.0  0.14077  0.48860  0.82314  1.0000
  Fe  Fe82      1.0  0.06687  0.49163  0.82023  1.0000
  S   S156      1.0  0.05607  0.52225  0.80612  1.0000
  S   S157      1.0  0.04964  0.46535  0.83091  1.0000
  Fe  Fe83      1.0  0.08408  0.51798  0.78412  1.0000
  S   S158      1.0  0.08208  0.52362  0.75082  1.0000
  Fe  Fe84      1.0  0.07537  0.53374  0.82505  1.0000
  S   S159      1.0  0.06329  0.55602  0.84731  1.0000
  S   S160      1.0  0.09357  0.48674  0.79729  1.0000
  S   S161      1.0  0.08385  0.50318  0.84075  1.0000
  Fe  Fe85      1.0  0.10180  0.62314  0.95192  1.0000
  C   C485      1.0  0.10143  0.37112  0.94292  1.0000
  S   S162      1.0  0.01630  0.36052  0.78851  1.0000
  S   S163      1.0  0.07520  0.62089  0.93712  1.0000
  H   H604      1.0  0.11783  0.49471  0.75477  1.0000
  C   C486      1.0  0.07436  0.57409  0.85668  1.0000
  C   C487      1.0  0.08953  0.58414  0.84537  1.0000
  C   C488      1.0  0.09623  0.59990  0.85263  1.0000
  C   C489      1.0  0.08822  0.60551  0.87144  1.0000
  C   C490      1.0  0.07370  0.59484  0.88311  1.0000
  C   C491      1.0  0.06659  0.57950  0.87561  1.0000
  H   H605      1.0  0.09551  0.58034  0.83069  1.0000
  H   H606      1.0  0.06740  0.59884  0.89761  1.0000
  H   H607      1.0  0.05470  0.57198  0.88440  1.0000
  C   C492      1.0  0.00699  0.44251  0.80924  1.0000
  C   C493      1.0  0.02223  0.44484  0.82014  1.0000
  C   C494      1.0  0.02919  0.46337  0.81866  1.0000
  C   C495      1.0  0.02042  0.47968  0.80670  1.0000
  H   H608      1.0  0.02903  0.43216  0.82928  1.0000
  H   H609      1.0  0.02559  0.49403  0.80555  1.0000
  H   H610      1.0  0.06572  0.48550  0.74809  1.0000
  C   C496      1.0  0.09693  0.50793  0.73441  1.0000
  C   C497      1.0  0.38497  0.58338  0.86383  1.0000
  C   C498      1.0  0.03036  0.32375  0.83777  1.0000
  C   C499      1.0  0.08680  0.33534  0.93905  1.0000
  C   C500      1.0  0.12043  0.39765  0.92655  1.0000
  C   C501      1.0  0.13838  0.45952  0.88739  1.0000
  C   C502      1.0  0.15622  0.46578  0.87732  1.0000
  C   C503      1.0  0.15703  0.47453  0.85742  1.0000
  C   C504      1.0  0.14014  0.47654  0.84754  1.0000
  C   C505      1.0  0.12276  0.46909  0.85730  1.0000
  C   C506      1.0  0.12172  0.46097  0.87735  1.0000
  H   H611      1.0  0.16918  0.46451  0.88506  1.0000
  H   H612      1.0  0.17059  0.48008  0.84982  1.0000
  H   H613      1.0  0.11012  0.46949  0.84940  1.0000
  H   H614      1.0  0.10802  0.45585  0.88507  1.0000
  C   C507      1.0  0.15120  0.34842  0.91447  1.0000
  C   C508      1.0  0.14457  0.35864  0.89689  1.0000
  H   H615      1.0  0.15005  0.37253  0.89053  1.0000
  H   H616      1.0  0.43045  0.49249  0.82194  1.0000
  H   H617      1.0  0.04394  0.33032  0.80741  1.0000
  C   C509      1.0  0.46284  0.46197  0.77992  1.0000
  C   C510      1.0  0.39219  0.56346  0.86897  1.0000
  C   C511      1.0  0.29559  0.43417  0.89237  1.0000
  C   C512      1.0  0.28861  0.44428  0.87493  1.0000
  C   C513      1.0  0.26962  0.44178  0.87046  1.0000
  C   C514      1.0  0.25733  0.42942  0.88351  1.0000
  C   C515      1.0  0.26440  0.41921  0.90083  1.0000
  C   C516      1.0  0.28346  0.42146  0.90513  1.0000
  H   H618      1.0  0.29778  0.45407  0.86493  1.0000
  H   H619      1.0  0.26437  0.44961  0.85694  1.0000
  H   H620      1.0  0.25531  0.40930  0.91077  1.0000
  H   H621      1.0  0.28884  0.41327  0.91846  1.0000
  C   C517      1.0  0.43104  0.41736  0.87686  1.0000
  C   C518      1.0  0.41856  0.40288  0.88478  1.0000
  C   C519      1.0  0.42675  0.38276  0.88831  1.0000
  C   C520      1.0  0.44736  0.37690  0.88355  1.0000
  C   C521      1.0  0.45982  0.39138  0.87553  1.0000
  C   C522      1.0  0.45169  0.41153  0.87236  1.0000
  H   H622      1.0  0.40265  0.40721  0.88843  1.0000
  H   H623      1.0  0.41702  0.37165  0.89459  1.0000
  H   H624      1.0  0.47573  0.38707  0.87202  1.0000
  H   H625      1.0  0.46149  0.42267  0.86652  1.0000
  C   C523      1.0  0.38085  0.54458  0.93405  1.0000
  C   C524      1.0  0.38664  0.52541  0.92849  1.0000
  C   C525      1.0  0.37779  0.51892  0.91371  1.0000
  C   C526      1.0  0.36323  0.53168  0.90406  1.0000
  C   C527      1.0  0.35716  0.55077  0.90983  1.0000
  C   C528      1.0  0.36578  0.55715  0.92489  1.0000
  H   H626      1.0  0.39828  0.51557  0.93548  1.0000
  H   H627      1.0  0.38259  0.50420  0.90946  1.0000
  H   H628      1.0  0.34604  0.56081  0.90230  1.0000
  H   H629      1.0  0.36127  0.57197  0.92892  1.0000
  C   C529      1.0  0.39176  0.50663  0.75283  1.0000
  C   C530      1.0  0.38615  0.51358  0.77139  1.0000
  C   C531      1.0  0.37878  0.50093  0.78815  1.0000
  C   C532      1.0  0.37672  0.48131  0.78633  1.0000
  C   C533      1.0  0.38299  0.47418  0.76794  1.0000
  C   C534      1.0  0.39082  0.48669  0.75134  1.0000
  H   H630      1.0  0.38709  0.52895  0.77272  1.0000
  H   H631      1.0  0.37406  0.50655  0.80228  1.0000
  C   C535      1.0  0.06239  0.38602  0.86618  1.0000
  C   C536      1.0  0.03553  0.63777  0.86994  1.0000
  H   H632      1.0  0.01325  0.59745  0.86415  1.0000
  C   C537      1.0  0.02311  0.60890  0.86076  1.0000
  C   C538      1.0  0.05420  0.40641  0.86464  1.0000
  H   H633      1.0  0.45584  0.48167  0.82411  1.0000
  H   H634      1.0  0.22772  0.52353  0.93096  1.0000
  C   C539      1.0  0.10626  0.35312  0.95557  1.0000
  H   H635      1.0  0.02301  0.45754  0.76193  1.0000
  H   H636      1.0  0.05716  0.46919  0.78085  1.0000
  H   H637      1.0  0.39955  0.39827  0.78442  1.0000
  C   C540      1.0  0.09046  0.40525  0.94901  1.0000
  H   H638      1.0  0.31532  0.47599  0.75089  1.0000
  H   H639      1.0  0.22247  0.53114  0.96572  1.0000
  C   C541      1.0  0.14399  0.33024  0.92232  1.0000
  C   C542      1.0  0.05797  0.43697  0.74724  1.0000
  H   H640      1.0  0.38448  0.62955  0.92075  1.0000
  H   H641      1.0  0.38278  0.61315  0.87010  1.0000
  H   H642      1.0  0.45645  0.35252  0.79558  1.0000
  H   H643      1.0  0.46033  0.43408  0.73392  1.0000
  H   H644      1.0  0.44433  0.43875  0.83494  1.0000
  C   C543      1.0  0.04969  0.63731  0.85247  1.0000
  H   H645      1.0  0.06098  0.64725  0.84874  1.0000
  H   H646      1.0  0.11593  0.35204  0.96690  1.0000
  C   C544      1.0  0.03703  0.60900  0.84370  1.0000
  H   H647      1.0  0.08038  0.39990  0.96246  1.0000
  H   H648      1.0  0.44149  0.42759  0.76656  1.0000
  H   H649      1.0  0.40676  0.63097  0.87746  1.0000
  C   C545      1.0  0.44021  0.47823  0.82535  1.0000
  H   H650      1.0  0.03151  0.48127  0.75795  1.0000
  S   S164      1.0  0.01326  0.31810  0.87694  1.0000
  C   C546      1.0  0.18867  0.46185  0.97108  1.0000
  H   H651      1.0  0.46620  0.44605  0.81988  1.0000
  C   C547      1.0  0.04590  0.42218  0.75680  1.0000
  H   H652      1.0  0.32249  0.50615  0.79882  1.0000
  N   N35       1.0  0.18672  0.41951  0.83462  1.0000
  C   C548      1.0  0.16583  0.42945  0.83814  1.0000
  C   C549      1.0  0.19976  0.43230  0.84105  1.0000
  C   C550      1.0  0.19230  0.41887  0.81298  1.0000
  C   C551      1.0  0.18846  0.39891  0.84512  1.0000
  C   C552      1.0  0.20360  0.39120  0.85746  1.0000
  C   C553      1.0  0.17508  0.38562  0.84272  1.0000
  C   C554      1.0  0.20421  0.37200  0.86791  1.0000
  C   C555      1.0  0.17598  0.36637  0.85307  1.0000
  C   C556      1.0  0.19029  0.35970  0.86592  1.0000
  H   H653      1.0  0.16080  0.42967  0.85436  1.0000
  H   H654      1.0  0.16434  0.44515  0.83082  1.0000
  H   H655      1.0  0.15495  0.42231  0.83199  1.0000
  H   H656      1.0  0.19742  0.44794  0.83369  1.0000
  H   H657      1.0  0.19661  0.43297  0.85737  1.0000
  H   H658      1.0  0.19147  0.43412  0.80450  1.0000
  H   H659      1.0  0.18224  0.41063  0.80685  1.0000
  H   H660      1.0  0.21481  0.39988  0.85982  1.0000
  H   H661      1.0  0.16377  0.39001  0.83288  1.0000
  H   H662      1.0  0.21534  0.36676  0.87794  1.0000
  H   H663      1.0  0.16532  0.35661  0.85144  1.0000
  H   H664      1.0  0.19052  0.34502  0.87446  1.0000
  H   H665      1.0  0.12677  0.35835  0.87337  1.0000
  H   H666      1.0  0.08580  0.54738  0.90067  1.0000
  C   C557      1.0  0.45029  0.44434  0.81942  1.0000
  N   N36       1.0  0.10812  0.39021  0.94511  1.0000
  C   C558      1.0  0.08506  0.41613  0.87122  1.0000
  H   H667      1.0  0.08990  0.36624  0.87238  1.0000
  C   C559      1.0  0.00484  0.47746  0.79622  1.0000
  C   C560      1.0  0.09887  0.33561  0.95367  1.0000
  H   H668      1.0  0.34199  0.52968  0.77579  1.0000
  H   H669      1.0  0.40531  0.41750  0.83978  1.0000
  C   C561      1.0  0.46314  0.40382  0.77732  1.0000
  C   C562      1.0  0.08239  0.38132  0.87077  1.0000
  S   S165      1.0  0.11908  0.63712  0.92436  1.0000
  H   H670      1.0  0.09495  0.41962  0.95145  1.0000
  H   H671      1.0  0.42235  0.49673  0.78944  1.0000
  C   C563      1.0  0.40976  0.40704  0.82900  1.0000
  C   C564      1.0  0.99744  0.34152  0.84600  1.0000
  N   N37       1.0  0.05030  0.37075  0.86301  1.0000
  H   H672      1.0  0.42930  0.61584  0.88390  1.0000
  H   H673      1.0  0.32032  0.55198  0.93442  1.0000
  C   C565      1.0  0.46695  0.42245  0.74433  1.0000
  S   S166      1.0  0.10690  0.32326  0.88232  1.0000
  H   H674      1.0  0.11337  0.56301  0.88074  1.0000
  S   S167      1.0  0.09560  0.62690  0.87886  1.0000
  H   H675      1.0  0.10877  0.39236  0.87646  1.0000
  C   C566      1.0  0.13122  0.35061  0.88726  1.0000
  C   C567      1.0  0.03234  0.37051  0.87818  1.0000
  N   N38       1.0  0.40268  0.60840  0.90288  1.0000
  C   C568      1.0  0.45587  0.41879  0.76310  1.0000
  H   H676      1.0  0.12480  0.55914  0.94478  1.0000
  H   H677      1.0  0.15916  0.61648  0.93471  1.0000
  C   C569      1.0  0.05026  0.62317  0.83957  1.0000
  H   H678      1.0  0.41524  0.61245  0.92895  1.0000
  Fe  Fe86      1.0  0.09167  0.63652  0.91000  1.0000
  H   H679      1.0  0.21595  0.42698  0.83737  1.0000
  C   C570      1.0  0.41338  0.60044  0.92032  1.0000
  C   C571      1.0  0.03093  0.33340  0.81815  1.0000
  C   C572      1.0  0.18158  0.60700  0.95422  1.0000
  H   H680      1.0  0.08458  0.53390  0.88059  1.0000
  S   S168      1.0  0.36616  0.60745  0.96216  1.0000
  H   H681      1.0  0.40498  0.58963  0.93082  1.0000
  H   H682      1.0  0.44435  0.33236  0.84808  1.0000
  C   C573      1.0  0.11984  0.54855  0.87548  1.0000
  C   C574      1.0  0.06129  0.35028  0.86439  1.0000
  C   C575      1.0  0.41449  0.62315  0.89015  1.0000
  C   C576      1.0  0.03425  0.46635  0.75269  1.0000
  H   H683      1.0  0.05895  0.43672  0.86531  1.0000
  C   C577      1.0  0.09185  0.53342  0.89422  1.0000
  C   C578      1.0  0.08929  0.37023  0.92800  1.0000
  H   H684      1.0  0.20787  0.41137  0.80974  1.0000
  H   H685      1.0  0.02311  0.35886  0.87648  1.0000
  H   H686      1.0  0.13640  0.54816  0.87278  1.0000
  C   C579      1.0  0.40651  0.39609  0.79795  1.0000
  C   C580      1.0  0.42367  0.39034  0.83315  1.0000
  H   H687      1.0  0.42363  0.36895  0.79112  1.0000
  H   H688      1.0  0.07467  0.34903  0.85294  1.0000
  C   C581      1.0  0.38296  0.61883  0.91046  1.0000
  H   H689      1.0  0.18279  0.45855  0.95834  1.0000
  C   C582      1.0  0.42931  0.37580  0.81994  1.0000
  C   C583      1.0  0.32492  0.50505  0.78300  1.0000
  H   H690      1.0  0.13683  0.51048  0.87575  1.0000
  N   N39       1.0  0.11396  0.53117  0.88969  1.0000
  H   H691      1.0  0.08683  0.52080  0.90509  1.0000
  H   H692      1.0  0.04841  0.44549  0.78519  1.0000
  H   H693      1.0  0.27412  0.46806  0.92149  1.0000
  C   C584      1.0  0.12755  0.54619  0.93684  1.0000
  H   H694      1.0  0.03806  0.59760  0.83404  1.0000
  H   H695      1.0  0.01158  0.62202  0.88699  1.0000
  C   C585      1.0  0.41744  0.46003  0.81388  1.0000
  H   H696      1.0  0.41512  0.45049  0.80286  1.0000
  C   C586      1.0  0.42036  0.37921  0.80205  1.0000
  C   C587      1.0  0.12027  0.51320  0.87944  1.0000
  H   H697      1.0  0.11052  0.56046  0.91394  1.0000
  C   C588      1.0  0.40111  0.40989  0.81146  1.0000
  C   C589      1.0  0.12281  0.53015  0.90837  1.0000
  H   H698      1.0  0.11496  0.49972  0.88860  1.0000
  H   H699      1.0  0.46003  0.37115  0.84337  1.0000
  C   C590      1.0  0.30690  0.54969  0.94549  1.0000
  C   C591      1.0  0.39973  0.59283  0.89112  1.0000
  H   H700      1.0  0.26503  0.42816  0.96242  1.0000
  C   C592      1.0  0.43418  0.34597  0.84332  1.0000
  C   C593      1.0  0.11950  0.54681  0.91909  1.0000
  H   H701      1.0  0.11394  0.51465  0.86512  1.0000
  H   H702      1.0  0.41538  0.56689  0.90820  1.0000
  C   C594      1.0  0.46887  0.46970  0.76021  1.0000
  H   H703      1.0  0.13738  0.49909  0.90999  1.0000
  C   C595      1.0  0.04369  0.37551  0.84297  1.0000
  H   H704      1.0  0.41720  0.63491  0.89872  1.0000
  C   C596      1.0  0.13435  0.51269  0.91675  1.0000
  H   H705      1.0  0.44951  0.43248  0.81025  1.0000
  N   N40       1.0  0.44341  0.35784  0.82532  1.0000
  C   C597      1.0  0.14229  0.51225  0.93453  1.0000
  H   H706      1.0  0.47360  0.35066  0.83254  1.0000
  H   H707      1.0  0.05670  0.37626  0.83109  1.0000
  C   C598      1.0  0.13897  0.52896  0.94451  1.0000
  H   H708      1.0  0.15099  0.49877  0.94069  1.0000
  C   C599      1.0  0.99791  0.35097  0.82639  1.0000
  C   C600      1.0  0.46220  0.36375  0.82976  1.0000
  H   H709      1.0  0.43580  0.33854  0.80612  1.0000
  H   H710      1.0  0.28529  0.46698  0.94380  1.0000
  H   H711      1.0  0.28367  0.44462  0.93393  1.0000
  C   C601      1.0  0.17430  0.64649  0.96404  1.0000
  C   C602      1.0  0.27553  0.45952  0.93646  1.0000
  H   H712      1.0  0.14513  0.52852  0.95833  1.0000
  C   C603      1.0  0.44153  0.49631  0.76206  1.0000
  N   N41       1.0  0.25586  0.45805  0.94878  1.0000
  C   C604      1.0  0.25908  0.44323  0.96657  1.0000
  H   H713      1.0  0.24688  0.43419  0.93602  1.0000
  C   C605      1.0  0.01375  0.32811  0.85181  1.0000
  H   H714      1.0  0.38991  0.42265  0.80854  1.0000
  H   H715      1.0  0.38865  0.55210  0.86107  1.0000
  H   H716      1.0  0.32487  0.49367  0.90732  1.0000
  C   C606      1.0  0.24244  0.45026  0.93743  1.0000
  S   S169      1.0  0.99212  0.40738  0.75934  1.0000
  H   H717      1.0  0.45452  0.40108  0.79180  1.0000
  H   H718      1.0  0.24229  0.45796  0.92198  1.0000
  C   C607      1.0  0.01479  0.34724  0.81253  1.0000
  H   H719      1.0  0.39590  0.48099  0.73732  1.0000
  C   C608      1.0  0.24709  0.47809  0.95371  1.0000
  H   H720      1.0  0.22677  0.45174  0.94500  1.0000
  S   S170      1.0  0.20697  0.42291  0.97460  1.0000
  H   H721      1.0  0.43332  0.50970  0.75508  1.0000
  H   H722      1.0  0.09377  0.42771  0.87277  1.0000
  H   H723      1.0  0.47190  0.44881  0.78593  1.0000
  C   C609      1.0  0.24133  0.49335  0.93845  1.0000
  H   H724      1.0  0.10282  0.32200  0.96335  1.0000
  H   H725      1.0  0.28002  0.52749  0.96943  1.0000
  H   H726      1.0  0.10742  0.60807  0.84343  1.0000
  C   C610      1.0  0.23265  0.51231  0.94274  1.0000
  H   H727      1.0  0.24323  0.49058  0.92312  1.0000
  C   C611      1.0  0.45308  0.63444  0.97520  1.0000
  C   C612      1.0  0.38878  0.59792  0.87460  1.0000
  N   N42       1.0  0.31092  0.53198  0.96042  1.0000
  H   H728      1.0  0.30936  0.47956  0.78601  1.0000
  H   H729      1.0  0.13449  0.37828  0.95911  1.0000
  H   H730      1.0  0.03373  0.38986  0.84112  1.0000
  C   C613      1.0  0.22986  0.51671  0.96223  1.0000
  S   S171      1.0  0.39961  0.52344  0.73192  1.0000
  C   C614      1.0  0.45816  0.48676  0.75126  1.0000
  H   H731      1.0  0.32590  0.54949  0.97586  1.0000
  C   C615      1.0  0.02232  0.62303  0.87372  1.0000
  C   C616      1.0  0.32272  0.49394  0.92330  1.0000
  H   H732      1.0  0.03492  0.36408  0.83997  1.0000
  C   C617      1.0  0.31810  0.51213  0.93092  1.0000
  H   H733      1.0  0.08462  0.46515  0.74371  1.0000
  C   C618      1.0  0.16765  0.62096  0.94509  1.0000
  C   C619      1.0  0.32121  0.48813  0.75541  1.0000
  H   H734      1.0  0.46277  0.49275  0.73597  1.0000
  H   H735      1.0  0.34222  0.53441  0.95927  1.0000
  H   H736      1.0  0.40719  0.47411  0.81152  1.0000
  H   H737      1.0  0.42961  0.38861  0.84712  1.0000
  C   C620      1.0  0.12377  0.33258  0.89529  1.0000
  H   H738      1.0  0.27010  0.44731  0.97521  1.0000
  H   H739      1.0  0.99810  0.49016  0.78700  1.0000
  H   H740      1.0  0.43067  0.35439  0.85635  1.0000
  H   H741      1.0  0.03438  0.42513  0.76908  1.0000
  Fe  Fe87      1.0  0.48751  0.33778  0.87410  1.0000
  Fe  Fe88      1.0  0.38672  0.57919  0.96855  1.0000
  H   H742      1.0  0.31708  0.52527  0.92005  1.0000
  H   H743      1.0  0.12558  0.41205  0.92774  1.0000
  N   N43       1.0  0.05510  0.45681  0.75411  1.0000
  H   H744      1.0  0.08525  0.38319  0.91765  1.0000
  H   H745      1.0  0.00206  0.42809  0.81005  1.0000
  H   H746      1.0  0.02230  0.38487  0.87712  1.0000
  H   H747      1.0  0.40875  0.54245  0.88889  1.0000
  C   C621      1.0  0.06858  0.47073  0.74250  1.0000
  H   H748      1.0  0.07435  0.44721  0.77689  1.0000
  H   H749      1.0  0.46903  0.37380  0.81721  1.0000
  C   C622      1.0  0.31548  0.51301  0.95177  1.0000
  C   C623      1.0  0.40721  0.57239  0.89573  1.0000
  C   C624      1.0  0.44568  0.47120  0.79124  1.0000
  C   C625      1.0  0.09348  0.39624  0.87321  1.0000
  H   H750      1.0  0.03661  0.36727  0.89350  1.0000
  H   H751      1.0  0.06158  0.62267  0.82667  1.0000
  H   H752      1.0  0.05510  0.63323  0.90163  1.0000
  C   C626      1.0  0.06544  0.42118  0.86703  1.0000
  H   H753      1.0  0.41206  0.45285  0.82902  1.0000
  C   C627      1.0  0.99824  0.45884  0.79725  1.0000
  N   N44       1.0  0.43868  0.46344  0.81207  1.0000
  H   H754      1.0  0.05176  0.33912  0.86221  1.0000
  C   C628      1.0  0.31814  0.49461  0.96433  1.0000
  C   C629      1.0  0.44897  0.34466  0.80946  1.0000
  C   C630      1.0  0.33993  0.51633  0.74976  1.0000
  C   C631      1.0  0.43535  0.48872  0.78173  1.0000
  C   C632      1.0  0.33255  0.50130  0.74176  1.0000
  C   C633      1.0  0.11368  0.49512  0.74008  1.0000
  H   H755      1.0  0.43549  0.47273  0.84127  1.0000
  H   H756      1.0  0.37500  0.62767  0.89840  1.0000
  H   H757      1.0  0.30296  0.56363  0.95256  1.0000
  S   S172      1.0  0.11510  0.59431  0.96767  1.0000
  H   H758      1.0  0.13406  0.38699  0.92330  1.0000
  S   S173      1.0  0.40541  0.64780  0.94879  1.0000
  H   H759      1.0  0.37609  0.58750  0.85162  1.0000
  H   H760      1.0  0.32896  0.46213  0.92996  1.0000
  C   C634      1.0  0.31758  0.49004  0.77572  1.0000
  H   H761      1.0  0.20250  0.60142  0.97556  1.0000
  Fe  Fe89      1.0  0.39021  0.62357  0.96967  1.0000
  H   H762      1.0  0.29418  0.54833  0.93752  1.0000
  C   C635      1.0  0.12034  0.38862  0.96166  1.0000
  H   H763      1.0  0.41995  0.34125  0.84073  1.0000
  H   H764      1.0  0.34954  0.52625  0.74056  1.0000
  C   C636      1.0  0.05890  0.45454  0.77512  1.0000
  H   H765      1.0  0.18377  0.59174  0.95107  1.0000
  S   S174      1.0  0.41157  0.59536  0.97355  1.0000
  C   C637      1.0  0.29292  0.53143  0.97560  1.0000
  H   H766      1.0  0.11224  0.40024  0.91340  1.0000
  H   H767      1.0  0.37304  0.60798  0.91872  1.0000
  C   C638      1.0  0.33589  0.51829  0.77001  1.0000
  H   H768      1.0  0.48200  0.46251  0.75183  1.0000
  C   C639      1.0  0.32288  0.47650  0.95652  1.0000
  C   C640      1.0  0.32515  0.47617  0.93603  1.0000
  H   H769      1.0  0.08151  0.40885  0.93635  1.0000
  H   H770      1.0  0.12038  0.55192  0.74194  1.0000
  H   H771      1.0  0.14901  0.32211  0.93584  1.0000
  C   C641      1.0  0.48587  0.41118  0.73936  1.0000
  H   H772      1.0  0.46927  0.63256  0.96950  1.0000
  H   H773      1.0  0.12485  0.40326  0.96314  1.0000
  H   H774      1.0  0.17534  0.49252  0.96805  1.0000
  H   H775      1.0  0.24476  0.44152  0.97646  1.0000
  H   H776      1.0  0.07322  0.35207  0.91445  1.0000
  C   C642      1.0  0.13029  0.32244  0.91292  1.0000
  C   C643      1.0  0.08217  0.35256  0.92612  1.0000
  C   C644      1.0  0.18439  0.48110  0.97666  1.0000
  H   H777      1.0  0.08144  0.32160  0.93749  1.0000
  H   H778      1.0  0.32510  0.46265  0.96637  1.0000
  C   C645      1.0  0.18862  0.63191  0.97292  1.0000
  C   C646      1.0  0.19217  0.61251  0.96795  1.0000
  C   C647      1.0  0.16408  0.64045  0.94981  1.0000
  C   C648      1.0  0.32821  0.53489  0.97002  1.0000
  H   H779      1.0  0.44843  0.61923  0.97791  1.0000
  H   H780      1.0  0.13879  0.47391  0.73077  1.0000
  H   H781      1.0  0.03078  0.46833  0.73712  1.0000
  C   C649      1.0  0.23602  0.50232  0.97743  1.0000
  C   C650      1.0  0.24446  0.48324  0.97336  1.0000
  H   H782      1.0  0.03940  0.39201  0.75881  1.0000
  C   C651      1.0  0.04862  0.40315  0.75099  1.0000
  C   C652      1.0  0.48140  0.39225  0.77276  1.0000
  H   H783      1.0  0.02937  0.63068  0.91024  1.0000
  C   C653      1.0  0.03979  0.64158  0.90348  1.0000
  H   H784      1.0  0.11191  0.38346  0.97624  1.0000
  C   C654      1.0  0.07280  0.43156  0.73137  1.0000
  C   C655      1.0  0.06333  0.39830  0.73545  1.0000
  H   H785      1.0  0.48705  0.38029  0.78359  1.0000
  H   H786      1.0  0.06554  0.38343  0.73118  1.0000
  Fe  Fe90      1.0  0.03121  0.81509  0.11692  1.0000
  S   S175      1.0  0.02280  0.79388  0.14417  1.0000
  S   S176      1.0  0.06342  0.80664  0.10345  1.0000
  Fe  Fe91      1.0  0.00871  0.82097  0.15841  1.0000
  S   S177      1.0  0.01327  0.82142  0.19096  1.0000
  S   S178      1.0  0.01859  0.84233  0.13176  1.0000
  Fe  Fe92      1.0  0.13070  0.82370  0.00162  1.0000
  S   S179      1.0  0.14970  0.79572  0.01229  1.0000
  S   S180      1.0  0.10617  0.84218  0.01966  1.0000
  H   H787      1.0  0.14410  0.68546  0.98270  1.0000
  H   H788      1.0  0.30166  0.81554  0.99258  1.0000
  S   S181      1.0  0.20554  0.80677  0.00576  1.0000
  H   H789      1.0  0.47389  0.93287  0.16888  1.0000
  H   H790      1.0  0.08031  0.86897  0.98217  1.0000
  Fe  Fe93      1.0  0.47119  0.89724  0.14601  1.0000
  S   S182      1.0  0.43958  0.90988  0.15638  1.0000
  C   C656      1.0  0.47166  0.84929  0.07383  1.0000
  Fe  Fe94      1.0  0.45998  0.85515  0.14999  1.0000
  S   S183      1.0  0.42787  0.86431  0.16099  1.0000
  S   S184      1.0  0.46996  0.82305  0.14633  1.0000
  Fe  Fe95      1.0  0.42989  0.89011  0.13661  1.0000
  S   S185      1.0  0.40916  0.90004  0.11234  1.0000
  Fe  Fe96      1.0  0.44050  0.88274  0.17963  1.0000
  S   S186      1.0  0.46172  0.87963  0.12457  1.0000
  S   S187      1.0  0.47247  0.87141  0.17024  1.0000
  Fe  Fe97      1.0  0.27995  0.87061  0.04099  1.0000
  S   S188      1.0  0.29534  0.87820  0.01015  1.0000
  S   S189      1.0  0.24657  0.86812  0.04308  1.0000
  Fe  Fe98      1.0  0.31891  0.87258  0.05998  1.0000
  S   S190      1.0  0.33627  0.88026  0.03008  1.0000
  S   S191      1.0  0.33447  0.86629  0.08825  1.0000
  Fe  Fe99      1.0  0.30857  0.90076  0.02299  1.0000
  H   H791      1.0  0.32427  0.92157  0.04555  1.0000
  Fe  Fe100     1.0  0.32104  0.85689  0.02072  1.0000
  H   H792      1.0  0.47232  0.66765  0.05770  1.0000
  S   S192      1.0  0.29175  0.89460  0.05360  1.0000
  S   S193      1.0  0.30504  0.84792  0.05090  1.0000
  H   H793      1.0  0.29457  0.94101  0.06366  1.0000
  H   H794      1.0  0.01053  0.89961  0.22300  1.0000
  H   H795      1.0  0.42778  0.87225  0.05705  1.0000
  Fe  Fe101     1.0  0.17546  0.80968  0.99367  1.0000
  H   H796      1.0  0.35834  0.86277  0.99476  1.0000
  C   C657      1.0  0.99890  0.65098  0.01095  1.0000
  H   H797      1.0  0.45385  0.83420  0.19533  1.0000
  C   C658      1.0  0.01545  0.71001  0.07594  1.0000
  H   H798      1.0  0.46352  0.86740  0.04622  1.0000
  C   C659      1.0  0.48347  0.70772  0.02412  1.0000
  H   H799      1.0  0.45502  0.81653  0.02619  1.0000
  H   H800      1.0  0.46911  0.89631  0.20486  1.0000
  C   C660      1.0  0.45835  0.86051  0.06092  1.0000
  C   C661      1.0  0.38956  0.88886  0.10551  1.0000
  C   C662      1.0  0.37852  0.87584  0.11897  1.0000
  C   C663      1.0  0.36197  0.86882  0.11332  1.0000
  C   C664      1.0  0.35647  0.87433  0.09405  1.0000
  C   C665      1.0  0.36832  0.88629  0.08023  1.0000
  C   C666      1.0  0.38445  0.89384  0.08605  1.0000
  H   H801      1.0  0.38224  0.87182  0.13398  1.0000
  H   H802      1.0  0.35310  0.85941  0.12414  1.0000
  H   H803      1.0  0.36492  0.89000  0.06514  1.0000
  H   H804      1.0  0.39298  0.90373  0.07544  1.0000
  H   H805      1.0  0.34272  0.95737  0.04550  1.0000
  C   C667      1.0  0.03048  0.69023  0.02603  1.0000
  H   H806      1.0  0.04447  0.67157  0.06020  1.0000
  C   C668      1.0  0.30386  0.93933  0.07606  1.0000
  S   S194      1.0  0.43136  0.88001  0.21303  1.0000
  C   C669      1.0  0.35850  0.83165  0.99283  1.0000
  H   H807      1.0  0.48437  0.74844  0.01242  1.0000
  C   C670      1.0  0.02419  0.65145  0.98171  1.0000
  H   H808      1.0  0.38511  0.70884  0.98126  1.0000
  C   C671      1.0  0.36174  0.93449  0.11596  1.0000
  C   C672      1.0  0.21719  0.82459  0.01480  1.0000
  C   C673      1.0  0.23513  0.81823  0.02306  1.0000
  C   C674      1.0  0.24469  0.83159  0.03100  1.0000
  C   C675      1.0  0.23623  0.85146  0.03112  1.0000
  C   C676      1.0  0.21825  0.85783  0.02293  1.0000
  C   C677      1.0  0.20892  0.84458  0.01453  1.0000
  H   H809      1.0  0.24157  0.80278  0.02352  1.0000
  H   H810      1.0  0.25826  0.82635  0.03767  1.0000
  H   H811      1.0  0.21149  0.87314  0.02308  1.0000
  C   C678      1.0  0.03008  0.74033  0.07472  1.0000
  C   C679      1.0  0.02489  0.83701  0.20326  1.0000
  C   C680      1.0  0.03343  0.85370  0.19323  1.0000
  C   C681      1.0  0.04327  0.86493  0.20353  1.0000
  C   C682      1.0  0.47346  0.69174  0.03354  1.0000
  H   H812      1.0  0.09390  0.84322  0.17031  1.0000
  H   H813      1.0  0.03250  0.85796  0.17753  1.0000
  H   H814      1.0  0.05011  0.87756  0.19551  1.0000
  C   C683      1.0  0.07341  0.81594  0.07908  1.0000
  C   C684      1.0  0.08925  0.80430  0.06890  1.0000
  C   C685      1.0  0.09866  0.81178  0.05014  1.0000
  C   C686      1.0  0.09282  0.83129  0.04176  1.0000
  C   C687      1.0  0.07691  0.84290  0.05188  1.0000
  C   C688      1.0  0.06707  0.83519  0.07036  1.0000
  H   H815      1.0  0.09423  0.78939  0.07554  1.0000
  H   H816      1.0  0.11072  0.80261  0.04241  1.0000
  H   H817      1.0  0.07231  0.85801  0.04552  1.0000
  H   H818      1.0  0.05498  0.84434  0.07811  1.0000
  C   C689      1.0  0.35169  0.95176  0.08481  1.0000
  H   H819      1.0  0.32572  0.91232  0.10246  1.0000
  H   H820      1.0  0.00609  0.69951  0.08456  1.0000
  C   C690      1.0  0.44232  0.84406  0.09867  1.0000
  H   H821      1.0  0.04702  0.68936  0.02510  1.0000
  H   H822      1.0  0.99568  0.67816  0.03948  1.0000
  C   C691      1.0  0.42972  0.85516  0.08573  1.0000
  C   C692      1.0  0.36374  0.94959  0.10005  1.0000
  Fe  Fe102     1.0  0.99401  0.79365  0.13201  1.0000
  C   C693      1.0  0.03574  0.72261  0.04590  1.0000
  H   H823      1.0  0.36290  0.80079  0.98820  1.0000
  C   C694      1.0  0.02841  0.67178  0.05869  1.0000
  H   H824      1.0  0.02761  0.67703  0.01962  1.0000
  C   C695      1.0  0.31561  0.93970  0.98527  1.0000
  H   H825      1.0  0.47907  0.96090  0.18595  1.0000
  H   H826      1.0  0.42387  0.68077  0.99879  1.0000
  C   C696      1.0  0.46753  0.88924  0.22011  1.0000
  H   H827      1.0  0.03226  0.75282  0.08185  1.0000
  H   H828      1.0  0.41719  0.65076  0.99032  1.0000
  H   H829      1.0  0.46039  0.68853  0.02794  1.0000
  C   C697      1.0  0.33564  0.92346  0.10158  1.0000
  C   C698      1.0  0.36935  0.81461  0.98572  1.0000
  H   H830      1.0  0.44805  0.82781  0.22180  1.0000
  H   H831      1.0  0.31038  0.97121  0.98714  1.0000
  C   C699      1.0  0.07568  0.81049  0.21870  1.0000
  C   C700      1.0  0.43769  0.86336  0.06691  1.0000
  N   N45       1.0  0.32544  0.93942  0.06848  1.0000
  C   C701      1.0  0.34759  0.92159  0.11682  1.0000
  H   H832      1.0  0.99499  0.66867  0.98260  1.0000
  H   H833      1.0  0.17853  0.66093  0.99886  1.0000
  H   H834      1.0  0.48577  0.78694  0.20184  1.0000
  C   C702      1.0  0.02577  0.83223  0.22386  1.0000
  C   C703      1.0  0.33728  0.93864  0.08510  1.0000
  H   H835      1.0  0.47207  0.83257  0.10349  1.0000
  H   H836      1.0  0.09819  0.85190  0.20259  1.0000
  H   H837      1.0  0.19526  0.84979  0.00804  1.0000
  N   N46       1.0  0.16309  0.82584  0.05927  1.0000
  C   C704      1.0  0.15708  0.80556  0.06167  1.0000
  C   C705      1.0  0.16040  0.83565  0.03890  1.0000
  C   C706      1.0  0.18479  0.82348  0.06115  1.0000
  C   C707      1.0  0.15042  0.83773  0.07392  1.0000
  C   C708      1.0  0.12929  0.84025  0.07474  1.0000
  C   C709      1.0  0.15844  0.84751  0.08726  1.0000
  C   C710      1.0  0.11689  0.85147  0.08825  1.0000
  C   C711      1.0  0.14590  0.85880  0.10071  1.0000
  C   C712      1.0  0.12517  0.86075  0.10122  1.0000
  H   H838      1.0  0.14171  0.80567  0.05802  1.0000
  H   H839      1.0  0.16705  0.79592  0.05152  1.0000
  H   H840      1.0  0.15762  0.79810  0.07718  1.0000
  H   H841      1.0  0.17001  0.82739  0.02742  1.0000
  H   H842      1.0  0.16430  0.85111  0.03657  1.0000
  H   H843      1.0  0.14473  0.83654  0.03570  1.0000
  H   H844      1.0  0.18788  0.81632  0.07624  1.0000
  H   H845      1.0  0.19375  0.81384  0.05041  1.0000
  H   H846      1.0  0.19090  0.83800  0.05783  1.0000
  H   H847      1.0  0.12219  0.83379  0.06467  1.0000
  H   H848      1.0  0.17434  0.84685  0.08747  1.0000
  H   H849      1.0  0.10076  0.85312  0.08839  1.0000
  H   H850      1.0  0.15232  0.86627  0.11065  1.0000
  H   H851      1.0  0.11552  0.86968  0.11150  1.0000
  N   N47       1.0  0.47805  0.81669  0.20985  1.0000
  N   N48       1.0  0.07667  0.81184  0.16250  1.0000
  C   C713      1.0  0.09600  0.81000  0.14926  1.0000
  C   C714      1.0  0.06802  0.79296  0.16362  1.0000
  C   C715      1.0  0.06282  0.82803  0.15313  1.0000
  C   C716      1.0  0.07966  0.81662  0.18215  1.0000
  C   C717      1.0  0.07286  0.80533  0.20042  1.0000
  C   C718      1.0  0.08903  0.83349  0.18346  1.0000
  C   C719      1.0  0.01858  0.72600  0.08509  1.0000
  C   C720      1.0  0.48013  0.67998  0.05027  1.0000
  C   C721      1.0  0.44410  0.70138  0.98703  1.0000
  H   H852      1.0  0.10721  0.79867  0.15626  1.0000
  H   H853      1.0  0.09420  0.80546  0.13470  1.0000
  H   H854      1.0  0.10242  0.82427  0.14554  1.0000
  H   H855      1.0  0.06641  0.78959  0.14855  1.0000
  H   H856      1.0  0.05269  0.79380  0.17211  1.0000
  H   H857      1.0  0.07763  0.78007  0.17066  1.0000
  H   H858      1.0  0.06823  0.84278  0.15136  1.0000
  H   H859      1.0  0.06060  0.82528  0.13807  1.0000
  H   H860      1.0  0.04787  0.82926  0.16222  1.0000
  H   H861      1.0  0.06482  0.79277  0.20107  1.0000
  H   H862      1.0  0.99049  0.68914  0.06183  1.0000
  S   S195      1.0  0.13382  0.75342  0.98893  1.0000
  H   H863      1.0  0.35429  0.96356  0.07279  1.0000
  H   H864      1.0  0.31762  0.95760  0.04141  1.0000
  N   N49       1.0  0.37673  0.82186  0.05622  1.0000
  C   C722      1.0  0.36740  0.80587  0.05007  1.0000
  C   C723      1.0  0.37264  0.82052  0.07827  1.0000
  C   C724      1.0  0.36668  0.84133  0.04797  1.0000
  C   C725      1.0  0.39830  0.82015  0.04840  1.0000
  C   C726      1.0  0.40452  0.82055  0.02765  1.0000
  C   C727      1.0  0.41361  0.81848  0.06081  1.0000
  C   C728      1.0  0.42474  0.81924  0.01980  1.0000
  C   C729      1.0  0.43382  0.81716  0.05279  1.0000
  C   C730      1.0  0.43937  0.81753  0.03235  1.0000
  H   H865      1.0  0.37524  0.79090  0.05495  1.0000
  H   H866      1.0  0.35132  0.80630  0.05637  1.0000
  H   H867      1.0  0.36757  0.80728  0.03365  1.0000
  H   H868      1.0  0.37812  0.83293  0.08384  1.0000
  H   H869      1.0  0.37946  0.80603  0.08559  1.0000
  H   H870      1.0  0.35626  0.82187  0.08358  1.0000
  H   H871      1.0  0.36749  0.84294  0.03151  1.0000
  H   H872      1.0  0.35049  0.84330  0.05391  1.0000
  H   H873      1.0  0.37344  0.85385  0.05184  1.0000
  H   H874      1.0  0.39377  0.82199  0.01725  1.0000
  H   H875      1.0  0.41040  0.81824  0.07674  1.0000
  N   N50       1.0  0.02060  0.69050  0.04686  1.0000
  C   C731      1.0  0.99885  0.69069  0.04664  1.0000
  C   C732      1.0  0.43915  0.68202  0.99234  1.0000
  H   H876      1.0  0.02010  0.66960  0.07392  1.0000
  H   H877      1.0  0.04760  0.74985  0.04719  1.0000
  H   H878      1.0  0.48480  0.81637  0.00206  1.0000
  H   H879      1.0  0.34647  0.90953  0.12897  1.0000
  C   C733      1.0  0.03865  0.73863  0.05519  1.0000
  C   C734      1.0  0.18138  0.67091  0.98462  1.0000
  H   H880      1.0  0.10916  0.72215  0.99314  1.0000
  C   C735      1.0  0.08506  0.82705  0.21941  1.0000
  H   H881      1.0  0.27584  0.81586  0.00191  1.0000
  S   S196      1.0  0.30870  0.93327  0.01095  1.0000
  H   H882      1.0  0.02475  0.70357  0.01609  1.0000
  C   C736      1.0  0.33252  0.92164  0.05828  1.0000
  H   H883      1.0  0.44527  0.81595  0.06249  1.0000
  C   C737      1.0  0.46294  0.84108  0.09282  1.0000
  H   H884      1.0  0.41378  0.85761  0.09042  1.0000
  C   C738      1.0  0.09164  0.83858  0.20184  1.0000
  Fe  Fe103     1.0  0.98959  0.83878  0.12121  1.0000
  H   H885      1.0  0.04281  0.72226  0.03076  1.0000
  Fe  Fe104     1.0  0.14462  0.78422  0.98439  1.0000
  H   H886      1.0  0.42906  0.81963  0.00383  1.0000
  H   H887      1.0  0.43618  0.83811  0.11353  1.0000
  C   C739      1.0  0.28726  0.82550  0.99443  1.0000
  H   H888      1.0  0.28892  0.83596  0.00488  1.0000
  C   C740      1.0  0.02397  0.70776  0.05606  1.0000
  C   C741      1.0  0.47271  0.79874  0.20314  1.0000
  C   C742      1.0  0.48746  0.93978  0.16478  1.0000
  C   C743      1.0  0.00503  0.65803  0.99094  1.0000
  H   H889      1.0  0.26100  0.85811  0.99041  1.0000
  C   C744      1.0  0.04449  0.85987  0.22404  1.0000
  S   S197      1.0  0.33489  0.83000  0.00640  1.0000
  C   C745      1.0  0.32722  0.95726  0.05336  1.0000
  S   S198      1.0  0.00328  0.81327  0.10386  1.0000
  H   H890      1.0  0.34867  0.92113  0.05233  1.0000
  H   H891      1.0  0.30067  0.92513  0.08534  1.0000
  H   H892      1.0  0.47766  0.71656  0.01133  1.0000
  H   H893      1.0  0.46014  0.79265  0.21336  1.0000
  H   H894      1.0  0.33041  0.90760  0.06833  1.0000
  S   S199      1.0  0.15671  0.83861  0.98487  1.0000
  H   H895      1.0  0.01183  0.72742  0.10026  1.0000
  H   H896      1.0  0.37159  0.93242  0.12738  1.0000
  H   H897      1.0  0.25013  0.83732  0.98595  1.0000
  H   H898      1.0  0.14430  0.65926  0.99060  1.0000
  H   H899      1.0  0.99213  0.70489  0.03864  1.0000
  H   H900      1.0  0.02709  0.65845  0.05170  1.0000
  H   H901      1.0  0.43282  0.71404  0.98950  1.0000
  C   C746      1.0  0.45024  0.88059  0.22802  1.0000
  H   H902      1.0  0.46356  0.84672  0.21183  1.0000
  H   H903      1.0  0.37504  0.95935  0.09936  1.0000
  H   H904      1.0  0.29827  0.95167  0.08514  1.0000
  H   H905      1.0  0.32252  0.97125  0.06017  1.0000
  C   C747      1.0  0.46015  0.83192  0.20973  1.0000
  H   H906      1.0  0.17745  0.68647  0.98824  1.0000
  H   H907      1.0  0.46768  0.80220  0.18808  1.0000
  C   C748      1.0  0.45343  0.66518  0.98868  1.0000
  C   C749      1.0  0.36682  0.84950  0.98956  1.0000
  H   H908      1.0  0.36940  0.65699  0.06159  1.0000
  C   C750      1.0  0.47297  0.66900  0.97996  1.0000
  N   N51       1.0  0.99982  0.91170  0.25056  1.0000
  C   C751      1.0  0.01627  0.72270  0.33682  1.0000
  S   S200      1.0  0.35858  0.87299  0.45479  1.0000
  H   H909      1.0  0.05288  0.65000  0.40156  1.0000
  Fe  Fe105     1.0  0.38074  0.85114  0.43881  1.0000
  S   S201      1.0  0.39108  0.85657  0.40562  1.0000
  S   S202      1.0  0.36336  0.82534  0.44997  1.0000
  C   C752      1.0  0.32443  0.90518  0.41476  1.0000
  Fe  Fe106     1.0  0.21601  0.87807  0.41539  1.0000
  S   S203      1.0  0.20352  0.86674  0.44649  1.0000
  S   S204      1.0  0.24986  0.87433  0.40681  1.0000
  Fe  Fe107     1.0  0.17413  0.89194  0.40184  1.0000
  S   S205      1.0  0.15970  0.88183  0.43244  1.0000
  S   S206      1.0  0.14765  0.90527  0.38486  1.0000
  Fe  Fe108     1.0  0.18255  0.89533  0.44447  1.0000
  C   C753      1.0  0.46676  0.79582  0.39767  1.0000
  Fe  Fe109     1.0  0.18183  0.85458  0.43144  1.0000
  S   S207      1.0  0.16887  0.82584  0.44061  1.0000
  S   S208      1.0  0.19598  0.90761  0.41396  1.0000
  S   S209      1.0  0.19552  0.86365  0.40027  1.0000
  Fe  Fe110     1.0  0.08422  0.88129  0.30181  1.0000
  S   S210      1.0  0.05934  0.87533  0.32635  1.0000
  S   S211      1.0  0.11534  0.88622  0.30753  1.0000
  Fe  Fe111     1.0  0.05998  0.87269  0.26943  1.0000
  S   S212      1.0  0.03395  0.86578  0.29215  1.0000
  H   H910      1.0  0.07324  0.65774  0.46888  1.0000
  Fe  Fe112     1.0  0.03878  0.89254  0.30523  1.0000
  S   S213      1.0  0.00946  0.91006  0.31610  1.0000
  Fe  Fe113     1.0  0.05670  0.84929  0.31115  1.0000
  S   S214      1.0  0.05452  0.82033  0.33120  1.0000
  S   S215      1.0  0.06372  0.90080  0.28146  1.0000
  S   S216      1.0  0.08274  0.85396  0.28753  1.0000
  H   H911      1.0  0.27374  0.90753  0.42937  1.0000
  C   C754      1.0  0.02978  0.81574  0.33932  1.0000
  C   C755      1.0  0.01425  0.82444  0.32837  1.0000
  C   C756      1.0  0.44788  0.80793  0.39911  1.0000
  C   C757      1.0  0.02533  0.74002  0.33411  1.0000
  C   C758      1.0  0.00561  0.80134  0.36499  1.0000
  C   C759      1.0  0.02549  0.80371  0.35736  1.0000
  H   H912      1.0  0.01748  0.83318  0.31415  1.0000
  H   H913      1.0  0.02871  0.92096  0.23932  1.0000
  H   H914      1.0  0.03749  0.79658  0.36568  1.0000
  H   H915      1.0  0.48641  0.77474  0.41554  1.0000
  C   C760      1.0  0.00333  0.93549  0.30778  1.0000
  C   C761      1.0  0.01783  0.94731  0.29809  1.0000
  C   C762      1.0  0.00194  0.89554  0.23784  1.0000
  C   C763      1.0  0.47216  0.78406  0.41542  1.0000
  H   H916      1.0  0.03336  0.94091  0.29576  1.0000
  C   C764      1.0  0.15355  0.82838  0.46319  1.0000
  H   H917      1.0  0.06221  0.69379  0.46595  1.0000
  C   C765      1.0  0.15594  0.94300  0.42325  1.0000
  H   H918      1.0  0.34646  0.90381  0.36672  1.0000
  C   C766      1.0  0.36021  0.90257  0.40020  1.0000
  H   H919      1.0  0.34426  0.86860  0.41435  1.0000
  C   C767      1.0  0.13892  0.89742  0.36435  1.0000
  C   C768      1.0  0.15205  0.89084  0.34824  1.0000
  C   C769      1.0  0.14454  0.88731  0.33112  1.0000
  C   C770      1.0  0.12382  0.88971  0.33005  1.0000
  C   C771      1.0  0.11065  0.89547  0.34651  1.0000
  C   C772      1.0  0.11818  0.89960  0.36338  1.0000
  H   H920      1.0  0.16803  0.88945  0.34852  1.0000
  H   H921      1.0  0.15488  0.88299  0.31846  1.0000
  H   H922      1.0  0.09471  0.89750  0.34589  1.0000
  H   H923      1.0  0.10785  0.90492  0.37560  1.0000
  H   H924      1.0  0.37007  0.68100  0.44230  1.0000
  H   H925      1.0  0.37183  0.65418  0.47485  1.0000
  H   H926      1.0  0.36063  0.91879  0.39984  1.0000
  H   H927      1.0  0.19772  0.93789  0.44750  1.0000
  C   C773      1.0  0.29266  0.85719  0.45453  1.0000
  C   C774      1.0  0.27237  0.86399  0.45991  1.0000
  C   C775      1.0  0.25910  0.86894  0.44551  1.0000
  C   C776      1.0  0.26592  0.86700  0.42552  1.0000
  C   C777      1.0  0.28618  0.85995  0.42016  1.0000
  C   C778      1.0  0.29952  0.85509  0.43458  1.0000
  C   C779      1.0  0.33452  0.90782  0.37897  1.0000
  H   H928      1.0  0.24368  0.87462  0.44987  1.0000
  H   H929      1.0  0.29154  0.85824  0.40477  1.0000
  H   H930      1.0  0.31500  0.84950  0.43035  1.0000
  C   C780      1.0  0.41655  0.85841  0.39661  1.0000
  C   C781      1.0  0.43033  0.85950  0.40948  1.0000
  C   C782      1.0  0.45049  0.86090  0.40194  1.0000
  C   C783      1.0  0.45712  0.86114  0.38152  1.0000
  C   C784      1.0  0.44337  0.85999  0.36860  1.0000
  C   C785      1.0  0.42313  0.85871  0.37614  1.0000
  H   H931      1.0  0.42548  0.85940  0.42522  1.0000
  H   H932      1.0  0.46103  0.86185  0.41201  1.0000
  H   H933      1.0  0.44828  0.86034  0.35282  1.0000
  H   H934      1.0  0.41255  0.85792  0.36607  1.0000
  H   H935      1.0  0.42083  0.81730  0.41788  1.0000
  H   H936      1.0  0.00241  0.79240  0.37909  1.0000
  C   C786      1.0  0.99208  0.97593  0.29448  1.0000
  H   H937      1.0  0.01822  0.81177  0.39841  1.0000
  C   C787      1.0  0.46353  0.87143  0.25989  1.0000
  C   C788      1.0  0.44826  0.87174  0.24797  1.0000
  H   H938      1.0  0.48857  0.84391  0.23080  1.0000
  H   H939      1.0  0.46191  0.86449  0.27519  1.0000
  H   H940      1.0  0.43494  0.86498  0.25417  1.0000
  H   H941      1.0  0.16265  0.95663  0.41648  1.0000
  H   H942      1.0  0.03616  0.83949  0.24997  1.0000
  H   H943      1.0  0.02718  0.85701  0.35652  1.0000
  H   H944      1.0  0.01035  0.88157  0.24459  1.0000
  H   H945      1.0  0.11091  0.93015  0.44489  1.0000
  S   S217      1.0  0.40015  0.84478  0.46316  1.0000
  H   H946      1.0  0.39674  0.76897  0.44819  1.0000
  H   H947      1.0  0.00813  0.85781  0.42185  1.0000
  C   C789      1.0  0.32928  0.91267  0.43149  1.0000
  N   N52       1.0  0.33979  0.89821  0.39873  1.0000
  H   H948      1.0  0.46370  0.77498  0.44670  1.0000
  C   C790      1.0  0.35392  0.74032  0.44099  1.0000
  C   C791      1.0  0.48072  0.88026  0.25196  1.0000
  C   C792      1.0  0.03540  0.84360  0.23421  1.0000
  H   H949      1.0  0.03151  0.81579  0.41781  1.0000
  N   N53       1.0  0.02317  0.84224  0.39757  1.0000
  C   C793      1.0  0.44083  0.79601  0.43418  1.0000
  C   C794      1.0  0.99644  0.69764  0.38651  1.0000
  C   C795      1.0  0.02273  0.85632  0.41211  1.0000
  C   C796      1.0  0.00753  0.84989  0.38446  1.0000
  H   H950      1.0  0.04838  0.85429  0.37923  1.0000
  C   C797      1.0  0.01207  0.85719  0.36398  1.0000
  H   H951      1.0  0.44260  0.81775  0.38660  1.0000
  H   H952      1.0  0.03634  0.70889  0.44429  1.0000
  H   H953      1.0  0.99663  0.89052  0.27715  1.0000
  H   H954      1.0  0.16714  0.85313  0.46873  1.0000
  C   C798      1.0  0.99691  0.86472  0.35219  1.0000
  C   C799      1.0  0.05541  0.68451  0.45803  1.0000
  H   H955      1.0  0.39361  0.70371  0.47552  1.0000
  C   C800      1.0  0.12682  0.95022  0.47067  1.0000
  H   H956      1.0  0.37932  0.70106  0.42514  1.0000
  C   C801      1.0  0.03794  0.65998  0.43723  1.0000
  H   H957      1.0  0.15638  0.93407  0.41083  1.0000
  H   H958      1.0  0.20316  0.77268  0.47109  1.0000
  H   H959      1.0  0.35307  0.70176  0.43412  1.0000
  C   C802      1.0  0.48254  0.88927  0.23209  1.0000
  H   H960      1.0  0.02533  0.70848  0.33510  1.0000
  H   H961      1.0  0.47570  0.66150  0.47342  1.0000
  H   H962      1.0  0.34443  0.91422  0.43321  1.0000
  N   N54       1.0  0.13855  0.83344  0.38949  1.0000
  C   C803      1.0  0.12824  0.84812  0.40269  1.0000
  C   C804      1.0  0.13994  0.81327  0.40110  1.0000
  C   C805      1.0  0.15931  0.83822  0.38324  1.0000
  C   C806      1.0  0.12711  0.83392  0.37262  1.0000
  C   C807      1.0  0.10764  0.82796  0.37601  1.0000
  C   C808      1.0  0.13477  0.84009  0.35255  1.0000
  C   C809      1.0  0.09684  0.82765  0.36024  1.0000
  C   C810      1.0  0.12377  0.83981  0.33695  1.0000
  C   C811      1.0  0.10488  0.83360  0.34076  1.0000
  H   H963      1.0  0.11294  0.84491  0.40909  1.0000
  H   H964      1.0  0.13660  0.84830  0.41547  1.0000
  H   H965      1.0  0.12690  0.86347  0.39443  1.0000
  H   H966      1.0  0.12524  0.80947  0.40884  1.0000
  H   H967      1.0  0.14970  0.81191  0.41302  1.0000
  H   H968      1.0  0.14633  0.80167  0.39132  1.0000
  H   H969      1.0  0.15952  0.85385  0.37590  1.0000
  H   H970      1.0  0.16770  0.83682  0.39625  1.0000
  H   H971      1.0  0.16796  0.82792  0.37302  1.0000
  H   H972      1.0  0.10070  0.82341  0.39087  1.0000
  H   H973      1.0  0.14912  0.84545  0.34844  1.0000
  H   H974      1.0  0.08218  0.82270  0.36292  1.0000
  H   H975      1.0  0.12977  0.84484  0.32175  1.0000
  H   H976      1.0  0.09640  0.83353  0.32858  1.0000
  H   H977      1.0  0.20911  0.96861  0.45485  1.0000
  H   H978      1.0  0.01087  0.70137  0.37926  1.0000
  C   C812      1.0  0.99555  0.72347  0.34194  1.0000
  C   C813      1.0  0.01202  0.79110  0.46899  1.0000
  H   H979      1.0  0.32067  0.90319  0.37535  1.0000
  C   C814      1.0  0.30392  0.90372  0.41441  1.0000
  H   H980      1.0  0.29903  0.89769  0.40252  1.0000
  C   C815      1.0  0.18039  0.93236  0.47626  1.0000
  H   H981      1.0  0.18412  0.65941  0.41932  1.0000
  H   H982      1.0  0.00545  0.82321  0.41935  1.0000
  C   C816      1.0  0.45931  0.78413  0.43335  1.0000
  H   H983      1.0  0.36729  0.78704  0.43331  1.0000
  C   C817      1.0  0.48467  0.81299  0.22986  1.0000
  S   S218      1.0  0.17076  0.91114  0.47157  1.0000
  H   H984      1.0  0.37135  0.89743  0.38777  1.0000
  H   H985      1.0  0.04140  0.73936  0.33016  1.0000
  H   H986      1.0  0.32625  0.87194  0.39717  1.0000
  C   C818      1.0  0.48661  0.79379  0.24121  1.0000
  C   C819      1.0  0.31449  0.91790  0.44698  1.0000
  N   N55       1.0  0.37155  0.70758  0.45528  1.0000
  H   H987      1.0  0.08651  0.83145  0.23364  1.0000
  H   H988      1.0  0.03447  0.85131  0.42212  1.0000
  C   C820      1.0  0.03142  0.78926  0.47428  1.0000
  H   H989      1.0  0.16596  0.93450  0.43382  1.0000
  H   H990      1.0  0.33966  0.76902  0.42918  1.0000
  H   H991      1.0  0.33223  0.92433  0.37828  1.0000
  C   C821      1.0  0.12693  0.92807  0.43846  1.0000
  C   C822      1.0  0.19948  0.96037  0.46605  1.0000
  H   H992      1.0  0.36596  0.89449  0.41395  1.0000
  H   H993      1.0  0.31856  0.92306  0.45985  1.0000
  S   S219      1.0  0.00896  0.78416  0.44590  1.0000
  C   C823      1.0  0.04370  0.83978  0.38656  1.0000
  C   C824      1.0  0.01370  0.75822  0.33650  1.0000
  C   C825      1.0  0.34066  0.87636  0.39959  1.0000
  C   C826      1.0  0.19301  0.94298  0.46186  1.0000
  C   C827      1.0  0.98974  0.68015  0.38312  1.0000
  C   C828      1.0  0.29454  0.91610  0.44618  1.0000
  Fe  Fe114     1.0  0.34261  0.84683  0.46782  1.0000
  H   H994      1.0  0.48308  0.78079  0.23599  1.0000
  H   H995      1.0  0.13699  0.80426  0.46184  1.0000
  H   H996      1.0  0.34034  0.70876  0.46774  1.0000
  C   C829      1.0  0.03237  0.68093  0.43546  1.0000
  C   C830      1.0  0.37084  0.72931  0.44912  1.0000
  H   H997      1.0  0.26690  0.86559  0.47530  1.0000
  H   H998      1.0  0.03130  0.66806  0.39849  1.0000
  C   C831      1.0  0.28925  0.90922  0.42984  1.0000
  H   H999      1.0  0.05504  0.83307  0.39657  1.0000
  H   H1000     1.0  0.47204  0.76719  0.37467  1.0000
  S   S220      1.0  0.00466  0.66560  0.36575  1.0000
  H   H1001     1.0  0.99343  0.94740  0.26555  1.0000
  C   C832      1.0  0.13893  0.81577  0.47033  1.0000
  H   H1002     1.0  0.10751  0.96427  0.42685  1.0000
  C   C833      1.0  0.35276  0.76088  0.43528  1.0000
  C   C834      1.0  0.15585  0.84341  0.47404  1.0000
  H   H1003     1.0  0.04472  0.82980  0.37491  1.0000
  N   N56       1.0  0.48053  0.79520  0.37881  1.0000
  H   H1004     1.0  0.45781  0.80204  0.35911  1.0000
  H   H1005     1.0  0.35244  0.87027  0.38817  1.0000
  C   C835      1.0  0.05310  0.65193  0.44950  1.0000
  H   H1006     1.0  0.04407  0.78354  0.46429  1.0000
  H   H1007     1.0  0.02074  0.77173  0.33432  1.0000
  H   H1008     1.0  0.13552  0.91752  0.44911  1.0000
  C   C836      1.0  0.00680  0.65189  0.42867  1.0000
  H   H1009     1.0  0.02915  0.90033  0.25867  1.0000
  C   C837      1.0  0.13579  0.95724  0.45128  1.0000
  C   C838      1.0  0.99439  0.82173  0.33583  1.0000
  C   C839      1.0  0.04087  0.69293  0.44587  1.0000
  H   H1010     1.0  0.02163  0.68829  0.42574  1.0000
  H   H1011     1.0  0.43092  0.79614  0.44810  1.0000
  N   N57       1.0  0.13536  0.94728  0.43359  1.0000
  S   S221      1.0  0.05782  0.87413  0.23608  1.0000
  C   C840      1.0  0.36827  0.77110  0.43765  1.0000
  C   C841      1.0  0.14529  0.97466  0.44937  1.0000
  H   H1012     1.0  0.12764  0.92051  0.42498  1.0000
  H   H1013     1.0  0.20298  0.80698  0.47820  1.0000
  C   C842      1.0  0.38493  0.76085  0.44588  1.0000
  C   C843      1.0  0.48573  0.77434  0.37439  1.0000
  H   H1014     1.0  0.28315  0.91979  0.45836  1.0000
  C   C844      1.0  0.38628  0.74027  0.45162  1.0000
  C   C845      1.0  0.12309  0.96052  0.41961  1.0000
  Fe  Fe115     1.0  0.38153  0.82008  0.47552  1.0000
  H   H1015     1.0  0.02512  0.87144  0.40438  1.0000
  H   H1016     1.0  0.40369  0.70058  0.45002  1.0000
  H   H1017     1.0  0.34133  0.73314  0.43924  1.0000
  C   C846      1.0  0.36832  0.69751  0.43848  1.0000
  H   H1018     1.0  0.02033  0.92451  0.26490  1.0000
  H   H1019     1.0  0.12234  0.95337  0.40618  1.0000
  S   S222      1.0  0.30866  0.85122  0.47334  1.0000
  C   C847      1.0  0.01941  0.82252  0.40867  1.0000
  C   C848      1.0  0.39092  0.69809  0.46187  1.0000
  C   C849      1.0  0.43515  0.80788  0.41712  1.0000
  H   H1020     1.0  0.02347  0.97674  0.28423  1.0000
  C   C850      1.0  0.06156  0.66411  0.45974  1.0000
  C   C851      1.0  0.01221  0.96757  0.29162  1.0000
  H   H1021     1.0  0.00074  0.87004  0.33656  1.0000
  C   C852      1.0  0.99299  0.75913  0.34173  1.0000
  C   C853      1.0  0.02029  0.91462  0.25346  1.0000
  H   H1022     1.0  0.39134  0.68167  0.46572  1.0000
  H   H1023     1.0  0.15946  0.65313  0.42802  1.0000
  S   S223      1.0  0.48267  0.86301  0.37302  1.0000
  H   H1024     1.0  0.00123  0.66735  0.42268  1.0000
  H   H1025     1.0  0.01914  0.81945  0.23184  1.0000
  H   H1026     1.0  0.11951  0.93697  0.47371  1.0000
  C   C854      1.0  0.03625  0.65235  0.40432  1.0000
  H   H1027     1.0  0.39944  0.73342  0.45827  1.0000
  H   H1028     1.0  0.35624  0.68784  0.47814  1.0000
  H   H1029     1.0  0.06992  0.80202  0.23247  1.0000
  H   H1030     1.0  0.12932  0.97475  0.41421  1.0000
  H   H1031     1.0  0.98976  0.72417  0.40105  1.0000
  C   C855      1.0  0.47200  0.80707  0.36136  1.0000
  H   H1032     1.0  0.46925  0.82324  0.36290  1.0000
  C   C856      1.0  0.35555  0.70389  0.47208  1.0000
  H   H1033     1.0  0.48244  0.80569  0.34736  1.0000
  C   C857      1.0  0.99002  0.81057  0.35438  1.0000
  H   H1034     1.0  0.00078  0.64953  0.44472  1.0000
  H   H1035     1.0  0.98966  0.70941  0.34391  1.0000
  H   H1036     1.0  0.15235  0.98095  0.43514  1.0000
  C   C858      1.0  0.98904  0.93076  0.24212  1.0000
  C   C859      1.0  0.98888  0.90472  0.27011  1.0000
  H   H1037     1.0  0.20003  0.97444  0.61889  1.0000
  C   C860      1.0  0.16590  0.79278  0.51416  1.0000
  H   H1038     1.0  0.39691  0.82599  0.50892  1.0000
  C   C861      1.0  0.13011  0.77089  0.51688  1.0000
  Fe  Fe116     1.0  0.40145  0.67643  0.51553  1.0000
  S   S224      1.0  0.37964  0.70479  0.51763  1.0000
  C   C862      1.0  0.17460  0.93907  0.49486  1.0000
  H   H1039     1.0  0.35418  0.90197  0.69517  1.0000
  H   H1040     1.0  0.12623  0.78582  0.52198  1.0000
  S   S225      1.0  0.37943  0.96234  0.57639  1.0000
  Fe  Fe117     1.0  0.37494  0.95109  0.63410  1.0000
  S   S226      1.0  0.40181  0.93913  0.61418  1.0000
  S   S227      1.0  0.37131  0.94622  0.66804  1.0000
  H   H1041     1.0  0.17486  0.95513  0.61559  1.0000
  Fe  Fe118     1.0  0.37960  0.93265  0.59533  1.0000
  S   S228      1.0  0.37859  0.90255  0.58535  1.0000
  C   C863      1.0  0.02297  0.71769  0.51322  1.0000
  S   S229      1.0  0.35268  0.94240  0.61662  1.0000
  H   H1042     1.0  0.31099  0.88043  0.50046  1.0000
  H   H1043     1.0  0.14287  0.85824  0.53984  1.0000
  H   H1044     1.0  0.35201  0.93793  0.53721  1.0000
  N   N58       1.0  0.17781  0.96534  0.64328  1.0000
  S   S230      1.0  0.38480  0.89000  0.49415  1.0000
  S   S231      1.0  0.35934  0.83950  0.49466  1.0000
  Fe  Fe119     1.0  0.09380  0.81463  0.53630  1.0000
  S   S232      1.0  0.10107  0.79515  0.56425  1.0000
  S   S233      1.0  0.11609  0.83555  0.52297  1.0000
  Fe  Fe120     1.0  0.05170  0.80377  0.54043  1.0000
  S   S234      1.0  0.05567  0.78410  0.56936  1.0000
  S   S235      1.0  0.02150  0.80817  0.52893  1.0000
  Fe  Fe121     1.0  0.07085  0.80848  0.57761  1.0000
  S   S236      1.0  0.06278  0.82179  0.60710  1.0000
  Fe  Fe122     1.0  0.08553  0.77273  0.55323  1.0000
  S   S237      1.0  0.09857  0.73976  0.55620  1.0000
  S   S238      1.0  0.06427  0.82886  0.54995  1.0000
  S   S239      1.0  0.08082  0.79137  0.52397  1.0000
  Fe  Fe123     1.0  0.09524  0.89943  0.67111  1.0000
  S   S240      1.0  0.07450  0.92653  0.66138  1.0000
  S   S241      1.0  0.10773  0.87486  0.65150  1.0000
  Fe  Fe124     1.0  0.10117  0.91642  0.70959  1.0000
  S   S242      1.0  0.08043  0.94455  0.70264  1.0000
  Fe  Fe125     1.0  0.06076  0.92495  0.69336  1.0000
  S   S243      1.0  0.02739  0.92545  0.70129  1.0000
  Fe  Fe126     1.0  0.09580  0.94376  0.67137  1.0000
  S   S244      1.0  0.10521  0.97131  0.65273  1.0000
  S   S245      1.0  0.08010  0.89648  0.70274  1.0000
  S   S246      1.0  0.11793  0.91711  0.67869  1.0000
  H   H1045     1.0  0.17676  0.96104  0.51365  1.0000
  C   C864      1.0  0.00908  0.94661  0.70044  1.0000
  C   C865      1.0  0.41048  0.75133  0.49409  1.0000
  C   C866      1.0  0.01880  0.73994  0.55856  1.0000
  C   C867      1.0  0.01366  0.96622  0.69791  1.0000
  H   H1046     1.0  0.29864  0.95838  0.52896  1.0000
  C   C868      1.0  0.13748  0.97674  0.48467  1.0000
  C   C869      1.0  0.09929  0.72194  0.53955  1.0000
  C   C870      1.0  0.09190  0.72694  0.52123  1.0000
  C   C871      1.0  0.09164  0.71206  0.50911  1.0000
  C   C872      1.0  0.09932  0.69211  0.51482  1.0000
  C   C873      1.0  0.10755  0.68729  0.53271  1.0000
  C   C874      1.0  0.10741  0.70210  0.54503  1.0000
  H   H1047     1.0  0.08605  0.74217  0.51653  1.0000
  H   H1048     1.0  0.08514  0.71596  0.49536  1.0000
  H   H1049     1.0  0.11334  0.67201  0.53741  1.0000
  H   H1050     1.0  0.11329  0.69805  0.55911  1.0000
  C   C875      1.0  0.07544  0.83761  0.61810  1.0000
  C   C876      1.0  0.09616  0.83790  0.61407  1.0000
  C   C877      1.0  0.10571  0.84952  0.62426  1.0000
  C   C878      1.0  0.09470  0.86136  0.63830  1.0000
  C   C879      1.0  0.07393  0.86145  0.64199  1.0000
  C   C880      1.0  0.06445  0.84945  0.63215  1.0000
  H   H1051     1.0  0.10488  0.82882  0.60343  1.0000
  H   H1052     1.0  0.12177  0.84931  0.62124  1.0000
  H   H1053     1.0  0.06522  0.87032  0.65282  1.0000
  H   H1054     1.0  0.04844  0.84929  0.63552  1.0000
  C   C881      1.0  0.03459  0.79470  0.49246  1.0000
  C   C882      1.0  0.01835  0.80212  0.50548  1.0000
  H   H1055     1.0  0.04416  0.95812  0.64975  1.0000
  H   H1056     1.0  0.13533  0.85403  0.68365  1.0000
  H   H1057     1.0  0.04957  0.79318  0.49636  1.0000
  H   H1058     1.0  0.20547  0.96005  0.67115  1.0000
  C   C883      1.0  0.12951  0.83294  0.49951  1.0000
  H   H1059     1.0  0.16623  0.93992  0.72228  1.0000
  H   H1060     1.0  0.34157  0.89698  0.49307  1.0000
  H   H1061     1.0  0.14615  0.85705  0.50063  1.0000
  C   C884      1.0  0.29701  0.97017  0.59386  1.0000
  C   C885      1.0  0.17515  0.95811  0.66489  1.0000
  H   H1062     1.0  0.42977  0.80041  0.55689  1.0000
  C   C886      1.0  0.11661  0.96559  0.62935  1.0000
  C   C887      1.0  0.11967  0.94590  0.62525  1.0000
  C   C888      1.0  0.13093  0.94106  0.60741  1.0000
  C   C889      1.0  0.42133  0.83579  0.53282  1.0000
  H   H1063     1.0  0.28499  0.88958  0.52792  1.0000
  H   H1064     1.0  0.11403  0.93424  0.63609  1.0000
  C   C890      1.0  0.42228  0.84248  0.55130  1.0000
  C   C891      1.0  0.02904  0.69919  0.50642  1.0000
  C   C892      1.0  0.37988  0.89938  0.55994  1.0000
  C   C893      1.0  0.38676  0.91364  0.54469  1.0000
  C   C894      1.0  0.38802  0.91052  0.52467  1.0000
  C   C895      1.0  0.38235  0.89319  0.51965  1.0000
  C   C896      1.0  0.37527  0.87898  0.53488  1.0000
  C   C897      1.0  0.37415  0.88204  0.55495  1.0000
  H   H1065     1.0  0.39142  0.92695  0.54831  1.0000
  H   H1066     1.0  0.39364  0.92153  0.51299  1.0000
  H   H1067     1.0  0.37083  0.86560  0.53120  1.0000
  H   H1068     1.0  0.36885  0.87089  0.56664  1.0000
  C   C898      1.0  0.41965  0.92017  0.70869  1.0000
  C   C899      1.0  0.42368  0.91943  0.68806  1.0000
  C   C900      1.0  0.40944  0.92813  0.67528  1.0000
  C   C901      1.0  0.39076  0.93728  0.68307  1.0000
  C   C902      1.0  0.38692  0.93842  0.70365  1.0000
  C   C903      1.0  0.40134  0.93010  0.71637  1.0000
  H   H1069     1.0  0.43781  0.91183  0.68197  1.0000
  H   H1070     1.0  0.41281  0.92734  0.65949  1.0000
  H   H1071     1.0  0.37256  0.94549  0.70984  1.0000
  C   C904      1.0  0.38603  0.72875  0.50768  1.0000
  C   C905      1.0  0.37079  0.74495  0.50610  1.0000
  C   C906      1.0  0.37535  0.76426  0.49850  1.0000
  C   C907      1.0  0.39526  0.76754  0.49265  1.0000
  H   H1072     1.0  0.18007  0.75127  0.49057  1.0000
  C   C908      1.0  0.40589  0.73199  0.50143  1.0000
  H   H1073     1.0  0.20954  0.95580  0.63738  1.0000
  H   H1074     1.0  0.13875  0.94255  0.70198  1.0000
  C   C909      1.0  0.16877  0.94489  0.70641  1.0000
  H   H1075     1.0  0.41777  0.71967  0.50261  1.0000
  C   C910      1.0  0.42430  0.84969  0.51543  1.0000
  H   H1076     1.0  0.40301  0.80815  0.56164  1.0000
  C   C911      1.0  0.35207  0.89796  0.65932  1.0000
  H   H1077     1.0  0.36194  0.85796  0.66611  1.0000
  H   H1078     1.0  0.35180  0.91352  0.66241  1.0000
  H   H1079     1.0  0.34697  0.89921  0.64442  1.0000
  H   H1080     1.0  0.34076  0.89071  0.67031  1.0000
  H   H1081     1.0  0.40864  0.86776  0.67007  1.0000
  N   N59       1.0  0.14017  0.88970  0.54246  1.0000
  C   C912      1.0  0.15178  0.86955  0.54288  1.0000
  C   C913      1.0  0.13269  0.89528  0.52287  1.0000
  C   C914      1.0  0.15424  0.90388  0.54405  1.0000
  C   C915      1.0  0.12305  0.88950  0.55857  1.0000
  C   C916      1.0  0.10859  0.87634  0.55939  1.0000
  C   C917      1.0  0.12027  0.90195  0.57389  1.0000
  C   C918      1.0  0.09265  0.87539  0.57475  1.0000
  C   C919      1.0  0.10429  0.90080  0.58925  1.0000
  C   C920      1.0  0.09053  0.88756  0.58967  1.0000
  C   C921      1.0  0.33270  0.91605  0.51607  1.0000
  C   C922      1.0  0.46475  0.96626  0.71702  1.0000
  H   H1082     1.0  0.15693  0.86442  0.55769  1.0000
  H   H1083     1.0  0.14679  0.91955  0.54296  1.0000
  C   C923      1.0  0.31290  0.89189  0.50914  1.0000
  C   C924      1.0  0.15632  0.95295  0.67453  1.0000
  H   H1084     1.0  0.16073  0.90037  0.55834  1.0000
  Fe  Fe127     1.0  0.39903  0.97003  0.59728  1.0000
  H   H1085     1.0  0.00466  0.76957  0.53340  1.0000
  H   H1086     1.0  0.10958  0.86648  0.54826  1.0000
  H   H1087     1.0  0.13029  0.91262  0.57448  1.0000
  H   H1088     1.0  0.08204  0.86486  0.57532  1.0000
  C   C925      1.0  0.04308  0.75342  0.53281  1.0000
  H   H1089     1.0  0.07836  0.88648  0.60177  1.0000
  H   H1090     1.0  0.00624  0.73077  0.56234  1.0000
  H   H1091     1.0  0.36349  0.77660  0.49741  1.0000
  H   H1092     1.0  0.36552  0.86754  0.64003  1.0000
  S   S247      1.0  0.41913  0.65869  0.53913  1.0000
  N   N60       1.0  0.11928  0.84681  0.71309  1.0000
  S   S248      1.0  0.47536  0.65229  0.51695  1.0000
  H   H1093     1.0  0.12356  0.88422  0.51967  1.0000
  H   H1094     1.0  0.01366  0.75455  0.56419  1.0000
  N   N61       1.0  0.32012  0.93744  0.54398  1.0000
  H   H1095     1.0  0.12323  0.91000  0.52223  1.0000
  H   H1096     1.0  0.16462  0.93118  0.50594  1.0000
  N   N62       1.0  0.14996  0.76119  0.52183  1.0000
  Fe  Fe128     1.0  0.35346  0.97244  0.59850  1.0000
  C   C926      1.0  0.15234  0.74032  0.51738  1.0000
  C   C927      1.0  0.15029  0.76040  0.54355  1.0000
  C   C928      1.0  0.32234  0.92815  0.56463  1.0000
  H   H1097     1.0  0.42293  0.84608  0.50091  1.0000
  C   C929      1.0  0.12767  0.95994  0.48704  1.0000
  C   C930      1.0  0.40657  0.87247  0.70026  1.0000
  C   C931      1.0  0.18744  0.94986  0.69749  1.0000
  C   C932      1.0  0.39514  0.88081  0.71625  1.0000
  H   H1098     1.0  0.33717  0.95530  0.52087  1.0000
  C   C933      1.0  0.41536  0.80241  0.55057  1.0000
  C   C934      1.0  0.45627  0.96535  0.69996  1.0000
  C   C935      1.0  0.30208  0.95259  0.54430  1.0000
  H   H1099     1.0  0.01385  0.94267  0.65219  1.0000
  Fe  Fe129     1.0  0.44298  0.65353  0.51313  1.0000
  H   H1100     1.0  0.35694  0.71210  0.48459  1.0000
  S   S249      1.0  0.40205  0.79158  0.48388  1.0000
  H   H1101     1.0  0.15034  0.73963  0.50168  1.0000
  C   C936      1.0  0.19291  0.79743  0.48739  1.0000
  H   H1102     1.0  0.14082  0.73174  0.52672  1.0000
  H   H1103     1.0  0.34652  0.92246  0.51208  1.0000
  H   H1104     1.0  0.11913  0.87416  0.69324  1.0000
  H   H1105     1.0  0.41977  0.83322  0.56537  1.0000
  H   H1106     1.0  0.11507  0.80887  0.49377  1.0000
  C   C937      1.0  0.33776  0.94811  0.53647  1.0000
  H   H1107     1.0  0.38663  0.85773  0.65258  1.0000
  H   H1108     1.0  0.33554  0.91638  0.56495  1.0000
  H   H1109     1.0  0.44583  0.95470  0.70035  1.0000
  H   H1110     1.0  0.33866  0.96005  0.54561  1.0000
  H   H1111     1.0  0.35537  0.74257  0.51088  1.0000
  C   C938      1.0  0.14394  0.84562  0.49218  1.0000
  H   H1112     1.0  0.14606  0.77522  0.54878  1.0000
  N   N63       1.0  0.02539  0.74251  0.53678  1.0000
  H   H1113     1.0  0.13407  0.92569  0.60472  1.0000
  C   C939      1.0  0.27760  0.96614  0.59240  1.0000
  C   C940      1.0  0.19070  0.95637  0.67704  1.0000
  Fe  Fe130     1.0  0.17363  0.97412  0.56071  1.0000
  H   H1114     1.0  0.15517  0.79954  0.52530  1.0000
  H   H1115     1.0  0.42156  0.86509  0.70188  1.0000
  H   H1116     1.0  0.42992  0.87943  0.50296  1.0000
  H   H1117     1.0  0.06033  0.97477  0.66848  1.0000
  C   C941      1.0  0.12667  0.81824  0.48843  1.0000
  C   C942      1.0  0.16543  0.77301  0.51047  1.0000
  C   C943      1.0  0.43156  0.80570  0.51697  1.0000
  H   H1118     1.0  0.13933  0.75085  0.55241  1.0000
  H   H1119     1.0  0.45393  0.97655  0.66984  1.0000
  H   H1120     1.0  0.02906  0.96875  0.69682  1.0000
  H   H1121     1.0  0.12961  0.77287  0.50054  1.0000
  C   C944      1.0  0.17959  0.80467  0.50289  1.0000
  H   H1122     1.0  0.42621  0.86690  0.56636  1.0000
  H   H1123     1.0  0.16518  0.86926  0.53137  1.0000
  C   C945      1.0  0.29828  0.89707  0.52464  1.0000
  C   C946      1.0  0.31795  0.92187  0.53186  1.0000
  C   C947      1.0  0.13523  0.97573  0.59738  1.0000
  H   H1124     1.0  0.28851  0.94677  0.55286  1.0000
  C   C948      1.0  0.42919  0.87498  0.53473  1.0000
  H   H1125     1.0  0.08784  0.82267  0.66718  1.0000
  C   C949      1.0  0.01294  0.95879  0.65000  1.0000
  H   H1126     1.0  0.04997  0.84549  0.71654  1.0000
  C   C950      1.0  0.04540  0.70850  0.53834  1.0000
  C   C951      1.0  0.42833  0.86890  0.51643  1.0000
  H   H1127     1.0  0.14521  0.89624  0.51040  1.0000
  H   H1128     1.0  0.03934  0.76863  0.53721  1.0000
  H   H1129     1.0  0.06255  0.67940  0.53822  1.0000
  S   S250      1.0  0.15496  0.94950  0.57252  1.0000
  H   H1130     1.0  0.28911  0.91504  0.54796  1.0000
  C   C952      1.0  0.42611  0.86184  0.55213  1.0000
  H   H1131     1.0  0.03104  0.73270  0.56727  1.0000
  H   H1132     1.0  0.16711  0.90343  0.53195  1.0000
  C   C953      1.0  0.39906  0.87425  0.68208  1.0000
  S   S251      1.0  0.20414  0.96563  0.54504  1.0000
  H   H1133     1.0  0.38485  0.82641  0.53396  1.0000
  S   S252      1.0  0.09616  0.67363  0.50022  1.0000
  H   H1134     1.0  0.05413  0.83044  0.68528  1.0000
  N   N64       1.0  0.37239  0.88661  0.65978  1.0000
  H   H1135     1.0  0.30896  0.92112  0.57192  1.0000
  C   C954      1.0  0.37159  0.86658  0.65442  1.0000
  H   H1136     1.0  0.15697  0.94753  0.63581  1.0000
  H   H1137     1.0  0.38749  0.91192  0.64823  1.0000
  C   C955      1.0  0.17944  0.76596  0.49471  1.0000
  H   H1138     1.0  0.04901  0.75504  0.51670  1.0000
  C   C956      1.0  0.37983  0.88469  0.67932  1.0000
  H   H1139     1.0  0.43162  0.89012  0.53548  1.0000
  H   H1140     1.0  0.38073  0.89943  0.62942  1.0000
  C   C957      1.0  0.99441  0.97039  0.64957  1.0000
  C   C958      1.0  0.04315  0.68541  0.51553  1.0000
  C   C959      1.0  0.10296  0.83318  0.68830  1.0000
  C   C960      1.0  0.13321  0.82831  0.71702  1.0000
  C   C961      1.0  0.38612  0.89708  0.64428  1.0000
  H   H1141     1.0  0.10266  0.91005  0.60108  1.0000
  H   H1142     1.0  0.43149  0.81329  0.50146  1.0000
  S   S253      1.0  0.42627  0.67316  0.49021  1.0000
  C   C962      1.0  0.03026  0.96779  0.64872  1.0000
  C   C963      1.0  0.12395  0.98058  0.61521  1.0000
  H   H1143     1.0  0.40145  0.88887  0.64233  1.0000
  C   C964      1.0  0.10122  0.84201  0.70606  1.0000
  C   C965      1.0  0.06486  0.84177  0.70885  1.0000
  H   H1144     1.0  0.16720  0.73225  0.52043  1.0000
  C   C966      1.0  0.30076  0.91173  0.53594  1.0000
  C   C967      1.0  0.13900  0.95593  0.59363  1.0000
  C   C968      1.0  0.03095  0.72287  0.52953  1.0000
  C   C969      1.0  0.36860  0.89313  0.69594  1.0000
  C   C970      1.0  0.39659  0.81794  0.52424  1.0000
  H   H1145     1.0  0.32453  0.93929  0.57415  1.0000
  N   N65       1.0  0.41636  0.81576  0.53136  1.0000
  C   C971      1.0  0.05118  0.69000  0.53154  1.0000
  S   S254      1.0  0.37311  0.98229  0.61800  1.0000
  C   C972      1.0  0.37619  0.89105  0.71411  1.0000
  H   H1146     1.0  0.30651  0.95994  0.60313  1.0000
  H   H1147     1.0  0.18228  0.93579  0.63490  1.0000
  H   H1148     1.0  0.04824  0.67126  0.50995  1.0000
  H   H1149     1.0  0.02293  0.69558  0.49387  1.0000
  H   H1150     1.0  0.01220  0.72774  0.50528  1.0000
  H   H1151     1.0  0.06840  0.97497  0.63244  1.0000
  H   H1152     1.0  0.11728  0.83012  0.67943  1.0000
  C   C973      1.0  0.33007  0.90131  0.50494  1.0000
  H   H1153     1.0  0.16538  0.75432  0.54771  1.0000
  C   C974      1.0  0.99895  0.80400  0.50016  1.0000
  H   H1154     1.0  0.05541  0.74585  0.54126  1.0000
  C   C975      1.0  0.17278  0.95031  0.63196  1.0000
  H   H1155     1.0  0.14827  0.98217  0.64422  1.0000
  H   H1156     1.0  0.30405  0.96556  0.55149  1.0000
  C   C976      1.0  0.06714  0.83329  0.69127  1.0000
  C   C977      1.0  0.18141  0.95610  0.49921  1.0000
  C   C978      1.0  0.08616  0.82885  0.68112  1.0000
  H   H1157     1.0  0.05281  0.71163  0.55021  1.0000
  H   H1158     1.0  0.39169  0.80323  0.52367  1.0000
  C   C979      1.0  0.98907  0.94334  0.70240  1.0000
  H   H1159     1.0  0.41226  0.78730  0.54874  1.0000
  H   H1160     1.0  0.27236  0.95272  0.60056  1.0000
  C   C980      1.0  0.00893  0.75518  0.52715  1.0000
  H   H1161     1.0  0.17937  0.81986  0.50569  1.0000
  H   H1162     1.0  0.11802  0.76196  0.52401  1.0000
  C   C981      1.0  0.15327  0.94640  0.69494  1.0000
  H   H1163     1.0  0.44690  0.80496  0.52101  1.0000
  H   H1164     1.0  0.01341  0.75926  0.51091  1.0000
  C   C982      1.0  0.12956  0.86069  0.69755  1.0000
  C   C983      1.0  0.26484  0.97937  0.58065  1.0000
  H   H1165     1.0  0.14368  0.95410  0.66640  1.0000
  S   S255      1.0  0.24047  0.97342  0.57972  1.0000
  H   H1166     1.0  0.19941  0.94873  0.70655  1.0000
  H   H1167     1.0  0.13868  0.82118  0.70334  1.0000
  C   C984      1.0  0.19289  0.77810  0.48336  1.0000
  H   H1168     1.0  0.99519  0.74773  0.52934  1.0000
  H   H1169     1.0  0.14247  0.86577  0.70269  1.0000
  H   H1170     1.0  0.36769  0.89811  0.72642  1.0000
  C   C985      1.0  0.46115  0.97803  0.68245  1.0000
  C   C986      1.0  0.19852  0.96940  0.63523  1.0000
  H   H1171     1.0  0.42866  0.79024  0.51624  1.0000
  C   C987      1.0  0.47809  0.97989  0.71671  1.0000
  C   C988      1.0  0.19375  0.96694  0.48478  1.0000
  C   C989      1.0  0.99576  0.79847  0.48201  1.0000
  H   H1172     1.0  0.12117  0.95411  0.50177  1.0000
  H   H1173     1.0  0.42593  0.75371  0.48957  1.0000
  H   H1174     1.0  0.14670  0.83125  0.72294  1.0000
  S   S256      1.0  0.43726  0.90726  0.72436  1.0000
  Fe  Fe131     1.0  0.37663  0.86450  0.48038  1.0000
  H   H1175     1.0  0.12575  0.81721  0.72810  1.0000
  C   C990      1.0  0.99816  0.98245  0.69699  1.0000
  H   H1176     1.0  0.20303  0.98146  0.64216  1.0000
  C   C991      1.0  0.08159  0.84597  0.71631  1.0000
  S   S257      1.0  0.38765  0.64974  0.51117  1.0000
  H   H1177     1.0  0.10488  0.87064  0.72969  1.0000
  Fe  Fe132     1.0  0.15145  0.82422  0.95903  1.0000
  C   C992      1.0  0.47764  0.68845  0.97442  1.0000
  S   S258      1.0  0.14799  0.83982  0.92781  1.0000
  H   H1178     1.0  0.39717  0.80195  0.97048  1.0000
  C   C993      1.0  0.14807  0.67049  0.97767  1.0000
  C   C994      1.0  0.44072  0.97994  0.82120  1.0000
  H   H1179     1.0  0.47652  0.82104  0.87440  1.0000
  Fe  Fe133     1.0  0.15739  0.96338  0.82171  1.0000
  S   S259      1.0  0.13784  0.95725  0.85097  1.0000
  S   S260      1.0  0.14625  0.96434  0.79131  1.0000
  H   H1180     1.0  0.26842  0.81223  0.96785  1.0000
  Fe  Fe134     1.0  0.16632  0.94635  0.86456  1.0000
  S   S261      1.0  0.17516  0.92404  0.89098  1.0000
  H   H1181     1.0  0.17005  0.69722  0.95513  1.0000
  S   S262      1.0  0.18575  0.95001  0.83492  1.0000
  S   S263      1.0  0.44355  0.77607  0.96685  1.0000
  C   C995      1.0  0.33215  0.85298  0.95295  1.0000
  H   H1182     1.0  0.27787  0.87826  0.96497  1.0000
  H   H1183     1.0  0.08356  0.89486  0.97860  1.0000
  H   H1184     1.0  0.33062  0.96561  0.82501  1.0000
  C   C996      1.0  0.36654  0.97393  0.84651  1.0000
  S   S264      1.0  0.12346  0.69225  0.93026  1.0000
  C   C997      1.0  0.26138  0.84752  0.97943  1.0000
  C   C998      1.0  0.37462  0.91035  0.92025  1.0000
  Fe  Fe135     1.0  0.41575  0.92230  0.79649  1.0000
  S   S265      1.0  0.42578  0.89287  0.78506  1.0000
  S   S266      1.0  0.38722  0.92673  0.81721  1.0000
  Fe  Fe136     1.0  0.45405  0.93936  0.77894  1.0000
  S   S267      1.0  0.46728  0.91110  0.76678  1.0000
  Fe  Fe137     1.0  0.43711  0.91170  0.75675  1.0000
  Fe  Fe138     1.0  0.45463  0.89518  0.79623  1.0000
  C   C999      1.0  0.39510  0.70185  0.96976  1.0000
  S   S268      1.0  0.42457  0.94085  0.76751  1.0000
  S   S269      1.0  0.44391  0.92379  0.80904  1.0000
  Fe  Fe139     1.0  0.42993  0.76130  0.94575  1.0000
  H   H1185     1.0  0.24270  0.92032  0.88801  1.0000
  C   C1000     1.0  0.01412  0.66318  0.88725  1.0000
  Fe  Fe140     1.0  0.44655  0.78948  0.90921  1.0000
  S   S270      1.0  0.46204  0.80541  0.92755  1.0000
  S   S271      1.0  0.44121  0.80030  0.87695  1.0000
  Fe  Fe141     1.0  0.47079  0.77524  0.94417  1.0000
  Fe  Fe142     1.0  0.43384  0.80496  0.94886  1.0000
  H   H1186     1.0  0.13797  0.66981  0.96653  1.0000
  S   S272      1.0  0.45798  0.75867  0.92377  1.0000
  S   S273      1.0  0.41756  0.79079  0.92988  1.0000
  H   H1187     1.0  0.38315  0.67371  0.97736  1.0000
  C   C1001     1.0  0.31729  0.84108  0.96137  1.0000
  C   C1002     1.0  0.45025  0.82066  0.86060  1.0000
  C   C1003     1.0  0.46792  0.82790  0.86256  1.0000
  H   H1188     1.0  0.40916  0.83822  0.87727  1.0000
  C   C1004     1.0  0.46382  0.85277  0.83321  1.0000
  C   C1005     1.0  0.44592  0.84583  0.83156  1.0000
  C   C1006     1.0  0.43939  0.82966  0.84495  1.0000
  H   H1189     1.0  0.43742  0.85249  0.81956  1.0000
  H   H1190     1.0  0.42583  0.82405  0.84315  1.0000
  H   H1191     1.0  0.35793  0.97651  0.86065  1.0000
  C   C1007     1.0  0.38914  0.96687  0.81011  1.0000
  C   C1008     1.0  0.38235  0.95097  0.82339  1.0000
  C   C1009     1.0  0.37118  0.95450  0.84164  1.0000
  C   C1010     1.0  0.25961  0.98213  0.91277  1.0000
  C   C1011     1.0  0.11709  0.87098  0.96638  1.0000
  H   H1192     1.0  0.36607  0.94220  0.85200  1.0000
  C   C1012     1.0  0.47479  0.84369  0.84876  1.0000
  C   C1013     1.0  0.32078  0.96543  0.95701  1.0000
  S   S274      1.0  0.03167  0.66029  0.95662  1.0000
  C   C1014     1.0  0.17331  0.68163  0.95154  1.0000
  C   C1015     1.0  0.37727  0.90997  0.89978  1.0000
  C   C1016     1.0  0.12034  0.90549  0.93769  1.0000
  S   S275      1.0  0.33454  0.95720  0.91880  1.0000
  C   C1017     1.0  0.40658  0.67276  0.95261  1.0000
  C   C1018     1.0  0.42045  0.68377  0.93999  1.0000
  C   C1019     1.0  0.42168  0.70369  0.94226  1.0000
  C   C1020     1.0  0.40886  0.71293  0.95707  1.0000
  H   H1193     1.0  0.26534  0.92592  0.90811  1.0000
  H   H1194     1.0  0.06775  0.88574  0.96416  1.0000
  H   H1195     1.0  0.43026  0.67691  0.92831  1.0000
  H   H1196     1.0  0.43239  0.71197  0.93243  1.0000
  C   C1021     1.0  0.13804  0.94817  0.77685  1.0000
  C   C1022     1.0  0.12952  0.95655  0.75948  1.0000
  C   C1023     1.0  0.12299  0.94451  0.74732  1.0000
  C   C1024     1.0  0.12516  0.92379  0.75217  1.0000
  C   C1025     1.0  0.13368  0.91539  0.76954  1.0000
  C   C1026     1.0  0.13994  0.92747  0.78188  1.0000
  H   H1197     1.0  0.12800  0.97252  0.75536  1.0000
  H   H1198     1.0  0.23400  0.91533  0.91445  1.0000
  H   H1199     1.0  0.13546  0.89941  0.77351  1.0000
  H   H1200     1.0  0.14648  0.92073  0.79512  1.0000
  H   H1201     1.0  0.43091  0.83392  0.90178  1.0000
  H   H1202     1.0  0.39799  0.93076  0.73221  1.0000
  C   C1027     1.0  0.13924  0.73923  0.95206  1.0000
  C   C1028     1.0  0.13678  0.72545  0.93948  1.0000
  C   C1029     1.0  0.12430  0.71049  0.94608  1.0000
  C   C1030     1.0  0.11397  0.70973  0.96536  1.0000
  H   H1203     1.0  0.20914  0.94933  0.87713  1.0000
  H   H1204     1.0  0.14909  0.75046  0.94682  1.0000
  H   H1205     1.0  0.14479  0.72626  0.92458  1.0000
  C   C1031     1.0  0.38332  0.89449  0.93267  1.0000
  C   C1032     1.0  0.15538  0.86339  0.91792  1.0000
  C   C1033     1.0  0.14873  0.87315  0.90009  1.0000
  C   C1034     1.0  0.15446  0.89184  0.89165  1.0000
  C   C1035     1.0  0.16705  0.90079  0.90093  1.0000
  C   C1036     1.0  0.17358  0.89108  0.91884  1.0000
  C   C1037     1.0  0.16770  0.87251  0.92737  1.0000
  H   H1206     1.0  0.13920  0.86617  0.89270  1.0000
  H   H1207     1.0  0.14931  0.89918  0.87790  1.0000
  H   H1208     1.0  0.18329  0.89794  0.92614  1.0000
  H   H1209     1.0  0.17295  0.86510  0.94106  1.0000
  H   H1210     1.0  0.13070  0.86667  0.95604  1.0000
  C   C1038     1.0  0.39999  0.85136  0.88338  1.0000
  H   H1211     1.0  0.30394  0.89821  0.95005  1.0000
  C   C1039     1.0  0.39722  0.83297  0.97274  1.0000
  H   H1212     1.0  0.04566  0.67601  0.86284  1.0000
  H   H1213     1.0  0.10865  0.94425  0.90235  1.0000
  C   C1040     1.0  0.20976  0.94944  0.91692  1.0000
  S   S276      1.0  0.08957  0.65216  0.96352  1.0000
  H   H1214     1.0  0.16367  0.68086  0.94001  1.0000
  H   H1215     1.0  0.10790  0.84640  0.74432  1.0000
  H   H1216     1.0  0.29310  0.94041  0.91635  1.0000
  Fe  Fe143     1.0  0.18805  0.98059  0.84213  1.0000
  H   H1217     1.0  0.21695  0.91857  0.89653  1.0000
  C   C1041     1.0  0.22138  0.95591  0.88191  1.0000
  C   C1042     1.0  0.38901  0.89391  0.89158  1.0000
  H   H1218     1.0  0.47704  0.79761  0.97649  1.0000
  H   H1219     1.0  0.39777  0.96420  0.79600  1.0000
  C   C1043     1.0  0.11679  0.72323  0.97809  1.0000
  Fe  Fe144     1.0  0.06434  0.65126  0.94600  1.0000
  S   S277      1.0  0.11806  0.90775  0.73682  1.0000
  H   H1220     1.0  0.15289  0.65067  0.94254  1.0000
  C   C1044     1.0  0.32173  0.92509  0.97263  1.0000
  C   C1045     1.0  0.46313  0.70461  0.97772  1.0000
  C   C1046     1.0  0.30763  0.88219  0.95307  1.0000
  C   C1047     1.0  0.09633  0.86233  0.94453  1.0000
  C   C1048     1.0  0.39514  0.87836  0.92464  1.0000
  H   H1221     1.0  0.40961  0.83838  0.91977  1.0000
  H   H1222     1.0  0.03944  0.65196  0.91464  1.0000
  N   N66       1.0  0.16950  0.66695  0.96946  1.0000
  C   C1049     1.0  0.39857  0.87773  0.90374  1.0000
  H   H1223     1.0  0.04727  0.67836  0.88822  1.0000
  H   H1224     1.0  0.32221  0.90953  0.97862  1.0000
  C   C1050     1.0  0.08890  0.92296  0.91642  1.0000
  C   C1051     1.0  0.12243  0.92250  0.92385  1.0000
  S   S278      1.0  0.16944  0.97655  0.87192  1.0000
  H   H1225     1.0  0.19643  0.94309  0.91417  1.0000
  H   H1226     1.0  0.10867  0.85996  0.93215  1.0000
  S   S279      1.0  0.46953  0.96701  0.77154  1.0000
  H   H1227     1.0  0.34757  0.84625  0.95004  1.0000
  C   C1052     1.0  0.27909  0.94973  0.91402  1.0000
  C   C1053     1.0  0.42813  0.86974  0.88060  1.0000
  H   H1228     1.0  0.27699  0.82942  0.94692  1.0000
  H   H1229     1.0  0.42270  0.87965  0.86759  1.0000
  N   N67       1.0  0.09962  0.87841  0.95551  1.0000
  H   H1230     1.0  0.48470  0.65696  0.97703  1.0000
  C   C1054     1.0  0.42105  0.84591  0.90919  1.0000
  H   H1231     1.0  0.30694  0.97471  0.83836  1.0000
  S   S280      1.0  0.40958  0.73801  0.96076  1.0000
  H   H1232     1.0  0.40160  0.86670  0.93513  1.0000
  H   H1233     1.0  0.32191  0.82528  0.96468  1.0000
  H   H1234     1.0  0.48458  0.98050  0.73009  1.0000
  H   H1235     1.0  0.18913  0.67917  0.94454  1.0000
  H   H1236     1.0  0.10427  0.69839  0.97067  1.0000
  N   N68       1.0  0.03463  0.65230  0.88414  1.0000
  H   H1237     1.0  0.36586  0.92305  0.92647  1.0000
  H   H1238     1.0  0.08213  0.86567  0.93786  1.0000
  S   S281      1.0  0.47350  0.87200  0.81565  1.0000
  H   H1239     1.0  0.25593  0.85577  0.96562  1.0000
  C   C1055     1.0  0.10679  0.93120  0.91322  1.0000
  H   H1240     1.0  0.38688  0.84585  0.89318  1.0000
  C   C1056     1.0  0.23048  0.92403  0.90008  1.0000
  H   H1241     1.0  0.37029  0.92232  0.89023  1.0000
  N   N69       1.0  0.41171  0.86140  0.89456  1.0000
  H   H1242     1.0  0.43063  0.85219  0.91787  1.0000
  H   H1243     1.0  0.00291  0.65325  0.89448  1.0000
  H   H1244     1.0  0.38109  0.89480  0.94863  1.0000
  N   N70       1.0  0.22699  0.94576  0.90133  1.0000
  C   C1057     1.0  0.32041  0.97931  0.82842  1.0000
  H   H1245     1.0  0.21578  0.97193  0.88231  1.0000
  C   C1058     1.0  0.12946  0.73805  0.97158  1.0000
  C   C1059     1.0  0.24455  0.95375  0.90604  1.0000
  H   H1246     1.0  0.13646  0.92877  0.92103  1.0000
  H   H1247     1.0  0.12868  0.86014  0.73637  1.0000
  C   C1060     1.0  0.30672  0.97937  0.79823  1.0000
  C   C1061     1.0  0.04860  0.66742  0.87744  1.0000
  C   C1062     1.0  0.29709  0.84943  0.96613  1.0000
  H   H1248     1.0  0.26153  0.98144  0.84425  1.0000
  C   C1063     1.0  0.10228  0.89668  0.94134  1.0000
  C   C1064     1.0  0.08663  0.90595  0.93023  1.0000
  S   S282      1.0  0.17201  0.79590  0.96650  1.0000
  H   H1249     1.0  0.07680  0.92972  0.90800  1.0000
  H   H1250     1.0  0.07260  0.89993  0.93196  1.0000
  C   C1065     1.0  0.27739  0.96990  0.91583  1.0000
  N   N71       1.0  0.28170  0.83646  0.97527  1.0000
  H   H1251     1.0  0.33896  0.88268  0.94251  1.0000
  C   C1066     1.0  0.08202  0.88221  0.97068  1.0000
  H   H1252     1.0  0.10275  0.97115  0.80483  1.0000
  C   C1067     1.0  0.28039  0.82180  0.96177  1.0000
  C   C1068     1.0  0.26296  0.94164  0.90925  1.0000
  H   H1253     1.0  0.43537  0.97824  0.80746  1.0000
  S   S283      1.0  0.07870  0.66721  0.91753  1.0000
  C   C1069     1.0  0.43081  0.97235  0.83935  1.0000
  Fe  Fe145     1.0  0.10474  0.66638  0.93457  1.0000
  H   H1254     1.0  0.43660  0.87837  0.88823  1.0000
  H   H1255     1.0  0.41771  0.96494  0.83972  1.0000
  H   H1256     1.0  0.39443  0.86132  0.87047  1.0000
  H   H1257     1.0  0.39075  0.89438  0.87557  1.0000
  C   C1070     1.0  0.29267  0.87044  0.96163  1.0000
  H   H1258     1.0  0.39288  0.86384  0.97729  1.0000
  H   H1259     1.0  0.33203  0.91941  0.94246  1.0000
  C   C1071     1.0  0.24348  0.97429  0.90777  1.0000
  C   C1072     1.0  0.32735  0.93069  0.95222  1.0000
  C   C1073     1.0  0.32697  0.95084  0.94438  1.0000
  H   H1260     1.0  0.23433  0.95493  0.86994  1.0000
  H   H1261     1.0  0.21354  0.94269  0.93191  1.0000
  C   C1074     1.0  0.43801  0.97388  0.85697  1.0000
  H   H1262     1.0  0.43900  0.85784  0.87431  1.0000
  H   H1263     1.0  0.01325  0.67482  0.89723  1.0000
  C   C1075     1.0  0.32734  0.87350  0.94882  1.0000
  S   S284      1.0  0.12391  0.81163  0.97512  1.0000
  C   C1076     1.0  0.39400  0.68188  0.96763  1.0000
  H   H1264     1.0  0.29338  0.97293  0.80669  1.0000
  S   S285      1.0  0.42167  0.83367  0.96095  1.0000
  H   H1265     1.0  0.29454  0.81154  0.95943  1.0000
  H   H1266     1.0  0.06451  0.66044  0.87618  1.0000
  H   H1267     1.0  0.43040  0.96760  0.87104  1.0000
  H   H1268     1.0  0.28993  0.97608  0.91952  1.0000
  H   H1269     1.0  0.09462  0.97955  0.83837  1.0000
  H   H1270     1.0  0.11642  0.95128  0.73411  1.0000
  H   H1271     1.0  0.20482  0.96558  0.91747  1.0000
  H   H1272     1.0  0.00927  0.67060  0.87286  1.0000
  C   C1077     1.0  0.11490  0.85630  0.73168  1.0000
  H   H1273     1.0  0.32048  0.98099  0.95113  1.0000
  H   H1274     1.0  0.07715  0.97796  0.80124  1.0000
  H   H1275     1.0  0.31794  0.96653  0.79424  1.0000
  H   H1276     1.0  0.46653  0.71971  0.97289  1.0000
  C   C1078     1.0  0.31512  0.95985  0.97741  1.0000
  H   H1277     1.0  0.09579  0.84785  0.95432  1.0000
  H   H1278     1.0  0.11450  0.85739  0.97706  1.0000
  H   H1279     1.0  0.13327  0.89935  0.94502  1.0000
  C   C1079     1.0  0.38872  0.81526  0.97567  1.0000
  H   H1280     1.0  0.12030  0.88220  0.97525  1.0000
  H   H1281     1.0  0.48871  0.84884  0.85014  1.0000
  H   H1282     1.0  0.48858  0.94286  0.80389  1.0000
  H   H1283     1.0  0.19770  0.66899  0.97925  1.0000
  C   C1080     1.0  0.38627  0.85013  0.97959  1.0000
  H   H1284     1.0  0.07865  0.85282  0.72982  1.0000
  H   H1285     1.0  0.40131  0.87997  0.73011  1.0000
  H   H1286     1.0  0.46088  0.95642  0.73057  1.0000
  Fe  Fe146     1.0  0.85996  0.10333  0.00207  1.0000
  S   S286      1.0  0.83646  0.13028  0.00095  1.0000
  S   S287      1.0  0.85653  0.08565  0.03315  1.0000
  H   H1287     1.0  0.55947  0.10678  0.15049  1.0000
  C   C1081     1.0  0.55451  0.09762  0.16415  1.0000
  H   H1288     1.0  0.60019  0.30245  0.03811  1.0000
  C   C1082     1.0  0.59815  0.27042  0.07806  1.0000
  H   H1289     1.0  0.63680  0.29071  0.02996  1.0000
  S   S288      1.0  0.92030  0.02618  0.22440  1.0000
  C   C1083     1.0  0.82794  0.26024  0.03526  1.0000
  H   H1290     1.0  0.59109  0.30985  0.06216  1.0000
  S   S289      1.0  0.63867  0.27019  0.99543  1.0000
  Fe  Fe147     1.0  0.91018  0.25953  0.03357  1.0000
  S   S290      1.0  0.90698  0.27911  0.00480  1.0000
  S   S291      1.0  0.90150  0.22780  0.03849  1.0000
  Fe  Fe148     1.0  0.92216  0.29413  0.05304  1.0000
  C   C1084     1.0  0.89520  0.05067  0.13958  1.0000
  Fe  Fe149     1.0  0.63782  0.30404  0.98937  1.0000
  Fe  Fe150     1.0  0.89206  0.30260  0.02339  1.0000
  H   H1291     1.0  0.90349  0.02323  0.03703  1.0000
  Fe  Fe151     1.0  0.93545  0.28991  0.00890  1.0000
  C   C1085     1.0  0.87548  0.00849  0.18780  1.0000
  S   S292      1.0  0.89301  0.28259  0.05213  1.0000
  S   S293      1.0  0.93993  0.26891  0.03704  1.0000
  Fe  Fe152     1.0  0.57437  0.02072  0.16503  1.0000
  C   C1086     1.0  0.55387  0.22783  0.98787  1.0000
  S   S294      1.0  0.58603  0.04821  0.14616  1.0000
  Fe  Fe153     1.0  0.57172  0.99956  0.20825  1.0000
  H   H1292     1.0  0.82723  0.30000  0.01726  1.0000
  H   H1293     1.0  0.61258  0.98644  0.14098  1.0000
  C   C1087     1.0  0.52822  0.08212  0.18556  1.0000
  H   H1294     1.0  0.80447  0.00474  0.08106  1.0000
  S   S295      1.0  0.86754  0.17909  0.98056  1.0000
  S   S296      1.0  0.59710  0.00180  0.18335  1.0000
  S   S297      1.0  0.54954  0.02009  0.19082  1.0000
  Fe  Fe154     1.0  0.57673  0.17895  0.03999  1.0000
  S   S298      1.0  0.58208  0.16815  0.01010  1.0000
  S   S299      1.0  0.57752  0.21185  0.04230  1.0000
  Fe  Fe155     1.0  0.56145  0.13913  0.06134  1.0000
  S   S300      1.0  0.56520  0.12657  0.03240  1.0000
  S   S301      1.0  0.54588  0.12003  0.08790  1.0000
  Fe  Fe156     1.0  0.59437  0.13913  0.02676  1.0000
  S   S302      1.0  0.62098  0.11720  0.01818  1.0000
  Fe  Fe157     1.0  0.55238  0.15670  0.01882  1.0000
  N   N72       1.0  0.82343  0.99799  0.05430  1.0000
  S   S303      1.0  0.59139  0.15054  0.05635  1.0000
  S   S304      1.0  0.54630  0.16866  0.04810  1.0000
  N   N73       1.0  0.83900  0.26010  0.01490  1.0000
  C   C1088     1.0  0.62946  0.11879  0.99265  1.0000
  C   C1089     1.0  0.60314  0.23541  0.07422  1.0000
  H   H1295     1.0  0.64410  0.08865  0.99515  1.0000
  H   H1296     1.0  0.88554  0.04484  0.15313  1.0000
  H   H1297     1.0  0.64416  0.07875  0.03141  1.0000
  S   S305      1.0  0.84742  0.99778  0.11951  1.0000
  C   C1090     1.0  0.86394  0.07085  0.10266  1.0000
  H   H1298     1.0  0.65268  0.28598  0.04954  1.0000
  S   S306      1.0  0.92512  0.30430  0.08301  1.0000
  C   C1091     1.0  0.84436  0.08004  0.10126  1.0000
  C   C1092     1.0  0.55747  0.09958  0.10329  1.0000
  C   C1093     1.0  0.54564  0.08572  0.11475  1.0000
  C   C1094     1.0  0.55413  0.06965  0.12761  1.0000
  C   C1095     1.0  0.57454  0.06749  0.12948  1.0000
  C   C1096     1.0  0.58634  0.08136  0.11803  1.0000
  C   C1097     1.0  0.57793  0.09720  0.10491  1.0000
  H   H1299     1.0  0.52977  0.08744  0.11374  1.0000
  H   H1300     1.0  0.54482  0.05918  0.13636  1.0000
  H   H1301     1.0  0.60215  0.07983  0.11927  1.0000
  H   H1302     1.0  0.58724  0.10775  0.09629  1.0000
  S   S307      1.0  0.51178  0.98387  0.18253  1.0000
  H   H1303     1.0  0.89039  0.05644  0.02027  1.0000
  N   N74       1.0  0.88901  0.04618  0.12104  1.0000
  C   C1098     1.0  0.83962  0.98603  0.06486  1.0000
  H   H1304     1.0  0.53135  0.09857  0.06083  1.0000
  C   C1099     1.0  0.90274  0.01901  0.21087  1.0000
  H   H1305     1.0  0.58482  0.07692  0.07008  1.0000
  C   C1100     1.0  0.85223  0.05136  0.13353  1.0000
  C   C1101     1.0  0.62040  0.25451  0.00682  1.0000
  C   C1102     1.0  0.62510  0.23381  0.00680  1.0000
  C   C1103     1.0  0.61171  0.22061  0.01673  1.0000
  C   C1104     1.0  0.59353  0.22796  0.02712  1.0000
  C   C1105     1.0  0.58854  0.24871  0.02664  1.0000
  C   C1106     1.0  0.60178  0.26194  0.01637  1.0000
  H   H1306     1.0  0.63941  0.22788  0.99938  1.0000
  H   H1307     1.0  0.61580  0.20471  0.01700  1.0000
  H   H1308     1.0  0.57453  0.25455  0.03467  1.0000
  H   H1309     1.0  0.59783  0.27780  0.01635  1.0000
  H   H1310     1.0  0.85029  0.99545  0.06829  1.0000
  H   H1311     1.0  0.91077  0.04377  0.14150  1.0000
  H   H1312     1.0  0.81209  0.25789  0.03549  1.0000
  C   C1107     1.0  0.63928  0.29537  0.04419  1.0000
  C   C1108     1.0  0.77942  0.98383  0.03346  1.0000
  C   C1109     1.0  0.88942  0.02435  0.12227  1.0000
  S   S308      1.0  0.56589  0.99468  0.15296  1.0000
  H   H1313     1.0  0.62264  0.06457  0.01267  1.0000
  H   H1314     1.0  0.85077  0.23769  0.99565  1.0000
  H   H1315     1.0  0.65995  0.00073  0.00212  1.0000
  C   C1110     1.0  0.87806  0.19171  0.99671  1.0000
  C   C1111     1.0  0.87939  0.18422  0.01667  1.0000
  C   C1112     1.0  0.88684  0.19534  0.02909  1.0000
  C   C1113     1.0  0.89318  0.21403  0.02179  1.0000
  C   C1114     1.0  0.89228  0.22131  0.00169  1.0000
  C   C1115     1.0  0.88474  0.21024  0.98929  1.0000
  H   H1316     1.0  0.87437  0.17002  0.02266  1.0000
  H   H1317     1.0  0.88754  0.18947  0.04457  1.0000
  H   H1318     1.0  0.89730  0.23551  0.99573  1.0000
  S   S309      1.0  0.85751  0.00305  0.17371  1.0000
  C   C1116     1.0  0.86543  0.06109  0.04300  1.0000
  C   C1117     1.0  0.85558  0.05285  0.06117  1.0000
  C   C1118     1.0  0.86303  0.03423  0.07078  1.0000
  C   C1119     1.0  0.88040  0.02349  0.06222  1.0000
  C   C1120     1.0  0.89001  0.03144  0.04375  1.0000
  C   C1121     1.0  0.88255  0.05017  0.03414  1.0000
  H   H1319     1.0  0.84219  0.06109  0.06797  1.0000
  H   H1320     1.0  0.85547  0.02840  0.08496  1.0000
  N   N75       1.0  0.64177  0.04728  0.03332  1.0000
  C   C1122     1.0  0.65342  0.06396  0.03326  1.0000
  C   C1123     1.0  0.65614  0.02870  0.03333  1.0000
  C   C1124     1.0  0.63263  0.05022  0.01458  1.0000
  C   C1125     1.0  0.62578  0.04692  0.05052  1.0000
  C   C1126     1.0  0.61112  0.06378  0.05271  1.0000
  C   C1127     1.0  0.62408  0.03010  0.06534  1.0000
  C   C1128     1.0  0.59574  0.06380  0.06867  1.0000
  C   C1129     1.0  0.60859  0.03032  0.08123  1.0000
  C   C1130     1.0  0.59447  0.04710  0.08289  1.0000
  H   H1321     1.0  0.65991  0.06270  0.04743  1.0000
  H   H1322     1.0  0.56624  0.25457  0.98928  1.0000
  C   C1131     1.0  0.60464  0.30797  0.05107  1.0000
  H   H1323     1.0  0.66410  0.02581  0.04673  1.0000
  C   C1132     1.0  0.58749  0.08048  0.21433  1.0000
  H   H1324     1.0  0.64855  0.01554  0.03271  1.0000
  C   C1133     1.0  0.64085  0.10216  0.98528  1.0000
  C   C1134     1.0  0.51939  0.14998  0.98556  1.0000
  H   H1325     1.0  0.82281  0.02142  0.07232  1.0000
  H   H1326     1.0  0.61146  0.07717  0.04211  1.0000
  H   H1327     1.0  0.63450  0.01658  0.06510  1.0000
  C   C1135     1.0  0.83317  0.00905  0.03601  1.0000
  H   H1328     1.0  0.84478  0.01750  0.03940  1.0000
  S   S310      1.0  0.92001  0.31539  0.02497  1.0000
  H   H1329     1.0  0.90481  0.01631  0.12283  1.0000
  H   H1330     1.0  0.54081  0.12459  0.99329  1.0000
  C   C1136     1.0  0.62562  0.30146  0.07730  1.0000
  H   H1331     1.0  0.66592  0.06436  0.02077  1.0000
  H   H1332     1.0  0.87513  0.07533  0.09059  1.0000
  H   H1333     1.0  0.59802  0.22086  0.07731  1.0000
  H   H1334     1.0  0.74661  0.99165  0.14245  1.0000
  H   H1335     1.0  0.58260  0.04718  0.09531  1.0000
  H   H1336     1.0  0.87506  0.30055  0.98583  1.0000
  H   H1337     1.0  0.56208  0.04056  0.22115  1.0000
  H   H1338     1.0  0.63777  0.29128  0.08416  1.0000
  H   H1339     1.0  0.56215  0.21912  0.99933  1.0000
  Fe  Fe158     1.0  0.54296  0.99244  0.18013  1.0000
  C   C1137     1.0  0.86847  0.05617  0.11892  1.0000
  H   H1340     1.0  0.84126  0.09101  0.08856  1.0000
  C   C1138     1.0  0.88233  0.02022  0.21795  1.0000
  H   H1341     1.0  0.82242  0.02023  0.02827  1.0000
  C   C1139     1.0  0.90941  0.01262  0.19212  1.0000
  H   H1342     1.0  0.62878  0.22569  0.05419  1.0000
  C   C1140     1.0  0.56902  0.05282  0.22527  1.0000
  H   H1343     1.0  0.63322  0.99501  0.10879  1.0000
  C   C1141     1.0  0.81445  0.30947  0.99050  1.0000
  H   H1344     1.0  0.83484  0.24833  0.04606  1.0000
  Fe  Fe159     1.0  0.86055  0.14685  0.98261  1.0000
  H   H1345     1.0  0.52191  0.13346  0.05626  1.0000
  H   H1346     1.0  0.57630  0.09111  0.22229  1.0000
  C   C1142     1.0  0.80914  0.98581  0.04917  1.0000
  C   C1143     1.0  0.62050  0.23817  0.06117  1.0000
  H   H1347     1.0  0.58378  0.09052  0.17236  1.0000
  C   C1144     1.0  0.82426  0.27026  0.98221  1.0000
  H   H1348     1.0  0.84877  0.22853  0.02133  1.0000
  H   H1349     1.0  0.86777  0.25461  0.02565  1.0000
  H   H1350     1.0  0.60157  0.06090  0.18322  1.0000
  C   C1145     1.0  0.59203  0.25148  0.08272  1.0000
  H   H1351     1.0  0.62365  0.03805  0.01407  1.0000
  S   S311      1.0  0.52739  0.16609  0.99964  1.0000
  H   H1352     1.0  0.92515  0.01179  0.18641  1.0000
  C   C1146     1.0  0.56832  0.08824  0.17684  1.0000
  Fe  Fe160     1.0  0.86164  0.98543  0.14718  1.0000
  C   C1147     1.0  0.53452  0.09450  0.16845  1.0000
  C   C1148     1.0  0.83270  0.06051  0.13189  1.0000
  C   C1149     1.0  0.59286  0.05243  0.19584  1.0000
  C   C1150     1.0  0.49221  0.11046  0.06755  1.0000
  H   H1353     1.0  0.82646  0.23453  0.00953  1.0000
  H   H1354     1.0  0.89443  0.06701  0.13959  1.0000
  H   H1355     1.0  0.85296  0.01679  0.21174  1.0000
  H   H1356     1.0  0.91937  0.04436  0.10607  1.0000
  S   S312      1.0  0.88461  0.12059  0.98519  1.0000
  C   C1151     1.0  0.90415  0.05231  0.10416  1.0000
  H   H1357     1.0  0.81360  0.08185  0.11449  1.0000
  H   H1358     1.0  0.90056  0.04873  0.08982  1.0000
  N   N76       1.0  0.57754  0.06544  0.20736  1.0000
  H   H1359     1.0  0.60751  0.01742  0.09243  1.0000
  H   H1360     1.0  0.85448  0.04038  0.14635  1.0000
  N   N77       1.0  0.50480  0.11260  0.04795  1.0000
  C   C1152     1.0  0.82877  0.07483  0.11579  1.0000
  C   C1153     1.0  0.52247  0.09705  0.04885  1.0000
  C   C1154     1.0  0.82349  0.29503  0.00419  1.0000
  H   H1361     1.0  0.90531  0.06851  0.10274  1.0000
  C   C1155     1.0  0.52843  0.13033  0.98497  1.0000
  H   H1362     1.0  0.88383  0.02047  0.10909  1.0000
  C   C1156     1.0  0.89593  0.00709  0.18077  1.0000
  H   H1363     1.0  0.82057  0.05637  0.14318  1.0000
  H   H1364     1.0  0.66787  0.02946  0.02010  1.0000
  H   H1365     1.0  0.88010  0.01806  0.13578  1.0000
  H   H1366     1.0  0.58898  0.28241  0.08497  1.0000
  H   H1367     1.0  0.51010  0.08495  0.02018  1.0000
  H   H1368     1.0  0.64421  0.05044  0.00126  1.0000
  S   S313      1.0  0.89066  0.00031  0.07425  1.0000
  N   N78       1.0  0.62128  0.29421  0.05925  1.0000
  H   H1369     1.0  0.64320  0.31082  0.04058  1.0000
  H   H1370     1.0  0.86814  0.26528  0.00003  1.0000
  H   H1371     1.0  0.60381  0.04342  0.20523  1.0000
  C   C1157     1.0  0.61552  0.27387  0.06444  1.0000
  H   H1372     1.0  0.51269  0.07947  0.18866  1.0000
  C   C1158     1.0  0.62665  0.25707  0.05620  1.0000
  C   C1159     1.0  0.81250  0.01250  0.06742  1.0000
  C   C1160     1.0  0.86878  0.01531  0.20632  1.0000
  H   H1373     1.0  0.79161  0.01071  0.03315  1.0000
  C   C1161     1.0  0.82860  0.27492  0.00054  1.0000
  H   H1374     1.0  0.53290  0.09818  0.03470  1.0000
  H   H1375     1.0  0.57840  0.24924  0.09270  1.0000
  H   H1376     1.0  0.76744  0.99107  0.02508  1.0000
  H   H1377     1.0  0.82804  0.27440  0.04129  1.0000
  C   C1162     1.0  0.54189  0.07275  0.19845  1.0000
  H   H1378     1.0  0.80118  0.02322  0.05994  1.0000
  H   H1379     1.0  0.53601  0.06311  0.21122  1.0000
  H   H1380     1.0  0.59601  0.08931  0.20186  1.0000
  H   H1381     1.0  0.85891  0.28035  0.01949  1.0000
  H   H1382     1.0  0.63980  0.25814  0.04535  1.0000
  C   C1163     1.0  0.84122  0.23937  0.01009  1.0000
  H   H1383     1.0  0.61232  0.30262  0.08880  1.0000
  C   C1164     1.0  0.56246  0.07552  0.19442  1.0000
  C   C1165     1.0  0.85929  0.26532  0.01504  1.0000
  H   H1384     1.0  0.52401  0.10139  0.15825  1.0000
  H   H1385     1.0  0.98436  0.27588  0.00377  1.0000
  H   H1386     1.0  0.50018  0.14490  0.04558  1.0000
  Fe  Fe161     1.0  0.87554  0.98416  0.10276  1.0000
  H   H1387     1.0  0.53918  0.20363  0.98438  1.0000
  H   H1388     1.0  0.50104  0.11083  0.07994  1.0000
  H   H1389     1.0  0.51796  0.08182  0.05214  1.0000
  H   H1390     1.0  0.90132  0.00197  0.16653  1.0000
  H   H1391     1.0  0.49041  0.08515  0.99348  1.0000
  H   H1392     1.0  0.87401  0.03977  0.99137  1.0000
  H   H1393     1.0  0.58564  0.04199  0.18920  1.0000
  C   C1166     1.0  0.86587  0.31413  0.98120  1.0000
  C   C1167     1.0  0.79340  0.99490  0.03809  1.0000
  H   H1394     1.0  0.61677  0.14926  0.98533  1.0000
  C   C1168     1.0  0.55614  0.24782  0.98227  1.0000
  H   H1395     1.0  0.84065  0.99866  0.02532  1.0000
  C   C1169     1.0  0.49750  0.09644  0.01904  1.0000
  C   C1170     1.0  0.67490  0.99599  0.99532  1.0000
  C   C1171     1.0  0.51231  0.13220  0.04483  1.0000
  H   H1396     1.0  0.71508  0.98480  0.13365  1.0000
  C   C1172     1.0  0.49280  0.11142  0.03192  1.0000
  H   H1397     1.0  0.52134  0.13457  0.02999  1.0000
  H   H1398     1.0  0.90963  0.04495  0.98604  1.0000
  H   H1399     1.0  0.59844  0.07338  0.22466  1.0000
  H   H1400     1.0  0.50456  0.20403  0.98439  1.0000
  Fe  Fe162     1.0  0.62415  0.28180  0.45397  1.0000
  S   S314      1.0  0.63975  0.27385  0.42459  1.0000
  H   H1401     1.0  0.94975  0.19241  0.43084  1.0000
  Fe  Fe163     1.0  0.58314  0.28155  0.44262  1.0000
  S   S315      1.0  0.59533  0.27372  0.41194  1.0000
  C   C1173     1.0  0.53699  0.22790  0.46435  1.0000
  Fe  Fe164     1.0  0.61776  0.25184  0.42772  1.0000
  S   S316      1.0  0.62687  0.22029  0.42009  1.0000
  Fe  Fe165     1.0  0.61613  0.29660  0.41131  1.0000
  C   C1174     1.0  0.90553  0.24553  0.45253  1.0000
  S   S317      1.0  0.60405  0.25812  0.45817  1.0000
  C   C1175     1.0  0.71127  0.01407  0.43181  1.0000
  H   H1402     1.0  0.97028  0.03208  0.30996  1.0000
  S   S318      1.0  0.61267  0.98433  0.35267  1.0000
  S   S319      1.0  0.67286  0.10399  0.46599  1.0000
  S   S320      1.0  0.67234  0.05831  0.43993  1.0000
  C   C1176     1.0  0.96184  0.22543  0.43770  1.0000
  H   H1403     1.0  0.88052  0.05061  0.35870  1.0000
  H   H1404     1.0  0.69519  0.15821  0.45966  1.0000
  N   N79       1.0  0.97652  0.02795  0.34044  1.0000
  H   H1405     1.0  0.95140  0.06533  0.40557  1.0000
  H   H1406     1.0  0.95993  0.14614  0.47334  1.0000
  H   H1407     1.0  0.66931  0.15413  0.46715  1.0000
  S   S321      1.0  0.62412  0.00687  0.39797  1.0000
  C   C1177     1.0  0.86564  0.99544  0.33088  1.0000
  Fe  Fe166     1.0  0.96108  0.14026  0.42719  1.0000
  S   S322      1.0  0.95594  0.15880  0.39802  1.0000
  Fe  Fe167     1.0  0.63488  0.98790  0.37283  1.0000
  Fe  Fe168     1.0  0.92126  0.12493  0.43109  1.0000
  S   S323      1.0  0.91239  0.14324  0.40309  1.0000
  S   S324      1.0  0.90390  0.10007  0.44517  1.0000
  Fe  Fe169     1.0  0.94353  0.13270  0.38991  1.0000
  S   S325      1.0  0.95118  0.12173  0.35930  1.0000
  Fe  Fe170     1.0  0.92523  0.16780  0.41361  1.0000
  S   S326      1.0  0.91370  0.20075  0.40694  1.0000
  S   S327      1.0  0.95195  0.11337  0.41752  1.0000
  S   S328      1.0  0.93091  0.15031  0.44321  1.0000
  Fe  Fe171     1.0  0.92020  0.02469  0.25808  1.0000
  H   H1408     1.0  0.53046  0.22079  0.45368  1.0000
  Fe  Fe172     1.0  0.91710  0.04075  0.29891  1.0000
  S   S329      1.0  0.93011  0.01103  0.31347  1.0000
  S   S330      1.0  0.90652  0.06305  0.32152  1.0000
  Fe  Fe173     1.0  0.95212  0.01035  0.28585  1.0000
  C   C1178     1.0  0.95318  0.03799  0.39301  1.0000
  C   C1179     1.0  0.97835  0.20344  0.46339  1.0000
  C   C1180     1.0  0.90765  0.01815  0.36591  1.0000
  S   S331      1.0  0.94049  0.04079  0.27185  1.0000
  S   S332      1.0  0.89546  0.02756  0.28381  1.0000
  H   H1409     1.0  0.63673  0.01122  0.25483  1.0000
  H   H1410     1.0  0.56548  0.24570  0.47611  1.0000
  H   H1411     1.0  0.87793  0.07489  0.46946  1.0000
  H   H1412     1.0  0.97945  0.99736  0.35426  1.0000
  H   H1413     1.0  0.90895  0.13302  0.29004  1.0000
  H   H1414     1.0  0.75366  0.03604  0.41742  1.0000
  S   S333      1.0  0.98525  0.00125  0.28625  1.0000
  C   C1181     1.0  0.62233  0.00672  0.26117  1.0000
  C   C1182     1.0  0.90856  0.21118  0.44521  1.0000
  C   C1183     1.0  0.90997  0.21775  0.42480  1.0000
  C   C1184     1.0  0.90861  0.23833  0.41837  1.0000
  C   C1185     1.0  0.90638  0.25217  0.43214  1.0000
  Fe  Fe174     1.0  0.63796  0.98664  0.32778  1.0000
  H   H1415     1.0  0.90899  0.19544  0.45043  1.0000
  H   H1416     1.0  0.90946  0.24362  0.40263  1.0000
  H   H1417     1.0  0.90562  0.26794  0.42696  1.0000
  H   H1418     1.0  0.67551  0.99827  0.43155  1.0000
  H   H1419     1.0  0.90700  0.00868  0.35419  1.0000
  H   H1420     1.0  0.88587  0.18420  0.32651  1.0000
  C   C1186     1.0  0.93854  0.10537  0.34909  1.0000
  C   C1187     1.0  0.94724  0.09802  0.33123  1.0000
  C   C1188     1.0  0.93771  0.08513  0.32255  1.0000
  C   C1189     1.0  0.91924  0.07949  0.33157  1.0000
  C   C1190     1.0  0.91031  0.08728  0.34914  1.0000
  C   C1191     1.0  0.92003  0.09980  0.35807  1.0000
  H   H1421     1.0  0.96143  0.10240  0.32401  1.0000
  H   H1422     1.0  0.94445  0.07990  0.30865  1.0000
  H   H1423     1.0  0.89575  0.08357  0.35597  1.0000
  H   H1424     1.0  0.91307  0.10530  0.37178  1.0000
  H   H1425     1.0  0.87973  0.99540  0.37055  1.0000
  C   C1192     1.0  0.65868  0.04401  0.42852  1.0000
  C   C1193     1.0  0.63924  0.04038  0.43634  1.0000
  C   C1194     1.0  0.62896  0.02893  0.42680  1.0000
  C   C1195     1.0  0.63799  0.02089  0.40943  1.0000
  C   C1196     1.0  0.65745  0.02452  0.40156  1.0000
  C   C1197     1.0  0.66772  0.03603  0.41107  1.0000
  H   H1426     1.0  0.63208  0.04642  0.44973  1.0000
  H   H1427     1.0  0.61387  0.02627  0.43296  1.0000
  H   H1428     1.0  0.66445  0.01870  0.38803  1.0000
  H   H1429     1.0  0.68268  0.03895  0.40476  1.0000
  H   H1430     1.0  0.58306  0.19128  0.44358  1.0000
  C   C1198     1.0  0.98757  0.19975  0.42754  1.0000
  S   S334      1.0  0.90470  0.26198  0.47046  1.0000
  C   C1199     1.0  0.61811  0.00209  0.28196  1.0000
  H   H1431     1.0  0.79688  0.03497  0.45367  1.0000
  C   C1200     1.0  0.60811  0.00543  0.24853  1.0000
  H   H1432     1.0  0.61162  0.00886  0.23259  1.0000
  H   H1433     1.0  0.95685  0.01282  0.37772  1.0000
  C   C1201     1.0  0.73110  0.05249  0.47699  1.0000
  H   H1434     1.0  0.51209  0.28235  0.47832  1.0000
  C   C1202     1.0  0.62736  0.19916  0.43842  1.0000
  C   C1203     1.0  0.62088  0.20081  0.45850  1.0000
  S   S335      1.0  0.65941  0.99290  0.34756  1.0000
  C   C1204     1.0  0.84580  0.99664  0.47234  1.0000
  C   C1205     1.0  0.63416  0.16305  0.44679  1.0000
  C   C1206     1.0  0.63416  0.18022  0.43266  1.0000
  H   H1435     1.0  0.78794  0.06812  0.46816  1.0000
  H   H1436     1.0  0.91378  0.03164  0.35766  1.0000
  H   H1437     1.0  0.63910  0.14851  0.44214  1.0000
  H   H1438     1.0  0.63925  0.17883  0.41714  1.0000
  Fe  Fe175     1.0  0.91038  0.99815  0.29683  1.0000
  H   H1439     1.0  0.86277  0.00630  0.38927  1.0000
  C   C1207     1.0  0.95976  0.02805  0.37633  1.0000
  C   C1208     1.0  0.97175  0.00720  0.34250  1.0000
  C   C1209     1.0  0.71752  0.99517  0.42515  1.0000
  C   C1210     1.0  0.58925  0.00013  0.25665  1.0000
  C   C1211     1.0  0.90658  0.22496  0.45896  1.0000
  H   H1440     1.0  0.86968  0.00762  0.31976  1.0000
  C   C1212     1.0  0.97454  0.14550  0.47792  1.0000
  H   H1441     1.0  0.96911  0.08267  0.37545  1.0000
  H   H1442     1.0  0.66342  0.22039  0.43896  1.0000
  C   C1213     1.0  0.88660  0.12093  0.47616  1.0000
  C   C1214     1.0  0.58497  0.99580  0.27743  1.0000
  H   H1443     1.0  0.94800  0.22974  0.44771  1.0000
  H   H1444     1.0  0.71882  0.04312  0.43362  1.0000
  H   H1445     1.0  0.86919  0.01664  0.41708  1.0000
  H   H1446     1.0  0.52804  0.22528  0.47920  1.0000
  H   H1447     1.0  0.97682  0.00039  0.32852  1.0000
  H   H1448     1.0  0.67377  0.18555  0.44950  1.0000
  H   H1449     1.0  0.95705  0.22713  0.42261  1.0000
  H   H1450     1.0  0.56425  0.22144  0.43259  1.0000
  N   N80       1.0  0.97135  0.20489  0.44370  1.0000
  C   C1215     1.0  0.67220  0.19553  0.46058  1.0000
  H   H1451     1.0  0.86621  0.98324  0.23519  1.0000
  C   C1216     1.0  0.72545  0.03383  0.47676  1.0000
  H   H1452     1.0  0.58071  0.04535  0.23464  1.0000
  C   C1217     1.0  0.66614  0.21562  0.45427  1.0000
  C   C1218     1.0  0.87470  0.03614  0.36400  1.0000
  H   H1453     1.0  0.87221  0.03466  0.44427  1.0000
  C   C1219     1.0  0.56140  0.19846  0.46953  1.0000
  H   H1454     1.0  0.71016  0.03254  0.47496  1.0000
  S   S336      1.0  0.82655  0.98798  0.38112  1.0000
  H   H1455     1.0  0.85921  0.03947  0.37162  1.0000
  H   H1456     1.0  0.73109  0.31611  0.43866  1.0000
  S   S337      1.0  0.63575  0.00526  0.29752  1.0000
  H   H1457     1.0  0.98182  0.20140  0.41291  1.0000
  C   C1220     1.0  0.87689  0.08834  0.47623  1.0000
  H   H1458     1.0  0.81619  0.03096  0.46961  1.0000
  H   H1459     1.0  0.69635  0.01819  0.43905  1.0000
  H   H1460     1.0  0.56639  0.24416  0.44143  1.0000
  H   H1461     1.0  0.91851  0.01006  0.37586  1.0000
  H   H1462     1.0  0.94545  0.03046  0.40636  1.0000
  H   H1463     1.0  0.95538  0.00659  0.34578  1.0000
  H   H1464     1.0  0.72013  0.06567  0.47558  1.0000
  H   H1465     1.0  0.71612  0.30849  0.46178  1.0000
  H   H1466     1.0  0.88713  0.99387  0.39468  1.0000
  H   H1467     1.0  0.58570  0.22388  0.44427  1.0000
  H   H1468     1.0  0.87689  0.02546  0.23214  1.0000
  H   H1469     1.0  0.95016  0.04177  0.32744  1.0000
  C   C1221     1.0  0.87897  0.00386  0.38336  1.0000
  H   H1470     1.0  0.84213  0.01365  0.34717  1.0000
  Fe  Fe176     1.0  0.89586  0.29575  0.46716  1.0000
  C   C1222     1.0  0.66293  0.22954  0.46764  1.0000
  N   N81       1.0  0.88762  0.02289  0.37737  1.0000
  H   H1471     1.0  0.58849  0.15581  0.45403  1.0000
  H   H1472     1.0  0.69374  0.99102  0.39889  1.0000
  S   S338      1.0  0.93377  0.99447  0.27064  1.0000
  C   C1223     1.0  0.88916  0.03321  0.39451  1.0000
  C   C1224     1.0  0.90051  0.04941  0.39198  1.0000
  C   C1225     1.0  0.87871  0.02829  0.41381  1.0000
  C   C1226     1.0  0.90166  0.05977  0.40779  1.0000
  C   C1227     1.0  0.88017  0.03862  0.42959  1.0000
  C   C1228     1.0  0.89164  0.05428  0.42657  1.0000
  H   H1473     1.0  0.85533  0.00467  0.46087  1.0000
  C   C1229     1.0  0.72417  0.02862  0.42885  1.0000
  H   H1474     1.0  0.90837  0.05444  0.37769  1.0000
  C   C1230     1.0  0.80042  0.02885  0.46890  1.0000
  H   H1475     1.0  0.89518  0.13277  0.46926  1.0000
  C   C1231     1.0  0.74372  0.02471  0.41964  1.0000
  C   C1232     1.0  0.59941  0.99639  0.28999  1.0000
  H   H1476     1.0  0.80024  0.01248  0.47077  1.0000
  S   S339      1.0  0.60213  0.30608  0.44094  1.0000
  H   H1477     1.0  0.76075  0.30036  0.45515  1.0000
  C   C1233     1.0  0.62704  0.16472  0.46675  1.0000
  H   H1478     1.0  0.91015  0.07233  0.40550  1.0000
  C   C1234     1.0  0.56920  0.22764  0.44487  1.0000
  H   H1479     1.0  0.89257  0.06238  0.43876  1.0000
  N   N82       1.0  0.91082  0.16984  0.34176  1.0000
  C   C1235     1.0  0.89808  0.15694  0.35596  1.0000
  C   C1236     1.0  0.92507  0.17631  0.35320  1.0000
  C   C1237     1.0  0.89804  0.18789  0.33393  1.0000
  C   C1238     1.0  0.92071  0.15895  0.32507  1.0000
  C   C1239     1.0  0.94180  0.15637  0.31956  1.0000
  C   C1240     1.0  0.90911  0.15055  0.31367  1.0000
  C   C1241     1.0  0.95061  0.14567  0.30394  1.0000
  C   C1242     1.0  0.91808  0.13975  0.29819  1.0000
  C   C1243     1.0  0.93879  0.13730  0.29335  1.0000
  H   H1480     1.0  0.90705  0.14264  0.36110  1.0000
  H   H1481     1.0  0.89132  0.16420  0.36933  1.0000
  H   H1482     1.0  0.88538  0.15320  0.34942  1.0000
  H   H1483     1.0  0.93513  0.16337  0.35956  1.0000
  H   H1484     1.0  0.91723  0.18392  0.36604  1.0000
  H   H1485     1.0  0.93442  0.18707  0.34384  1.0000
  C   C1244     1.0  0.85004  0.99883  0.34635  1.0000
  H   H1486     1.0  0.89073  0.19675  0.34604  1.0000
  H   H1487     1.0  0.90704  0.19772  0.32282  1.0000
  H   H1488     1.0  0.95193  0.16188  0.32750  1.0000
  H   H1489     1.0  0.89299  0.15205  0.31679  1.0000
  H   H1490     1.0  0.96675  0.14346  0.30036  1.0000
  H   H1491     1.0  0.94572  0.12869  0.28152  1.0000
  C   C1245     1.0  0.95639  0.19099  0.44497  1.0000
  S   S340      1.0  0.55003  0.28358  0.45355  1.0000
  Fe  Fe177     1.0  0.66182  0.07419  0.46749  1.0000
  N   N83       1.0  0.62398  0.05373  0.34234  1.0000
  C   C1246     1.0  0.63862  0.04950  0.32463  1.0000
  C   C1247     1.0  0.61596  0.03487  0.35084  1.0000
  C   C1248     1.0  0.60737  0.06839  0.33540  1.0000
  C   C1249     1.0  0.63264  0.06157  0.35772  1.0000
  C   C1250     1.0  0.65267  0.06607  0.35505  1.0000
  C   C1251     1.0  0.62078  0.06528  0.37599  1.0000
  C   C1252     1.0  0.66017  0.07384  0.36979  1.0000
  C   C1253     1.0  0.62847  0.07298  0.39062  1.0000
  C   C1254     1.0  0.64809  0.07733  0.38749  1.0000
  H   H1492     1.0  0.65132  0.03817  0.32879  1.0000
  H   H1493     1.0  0.63173  0.04323  0.31355  1.0000
  H   H1494     1.0  0.64456  0.06319  0.31666  1.0000
  H   H1495     1.0  0.62771  0.02403  0.35749  1.0000
  H   H1496     1.0  0.61053  0.02783  0.33935  1.0000
  H   H1497     1.0  0.60321  0.03679  0.36283  1.0000
  H   H1498     1.0  0.61267  0.08297  0.32935  1.0000
  H   H1499     1.0  0.60074  0.06316  0.32349  1.0000
  H   H1500     1.0  0.59497  0.07108  0.34760  1.0000
  H   H1501     1.0  0.66293  0.06356  0.34182  1.0000
  H   H1502     1.0  0.60554  0.06195  0.37928  1.0000
  H   H1503     1.0  0.67556  0.07690  0.36764  1.0000
  H   H1504     1.0  0.61933  0.07512  0.40470  1.0000
  H   H1505     1.0  0.65411  0.08287  0.39910  1.0000
  C   C1255     1.0  0.75350  0.30653  0.46897  1.0000
  H   H1506     1.0  0.94392  0.19344  0.45709  1.0000
  H   H1507     1.0  0.61609  0.21529  0.46321  1.0000
  C   C1256     1.0  0.57459  0.18573  0.45738  1.0000
  H   H1508     1.0  0.87374  0.02935  0.35044  1.0000
  C   C1257     1.0  0.62049  0.18365  0.47256  1.0000
  H   H1509     1.0  0.76533  0.30902  0.47764  1.0000
  S   S341      1.0  0.57008  0.99978  0.24178  1.0000
  H   H1510     1.0  0.76555  0.00334  0.40563  1.0000
  C   C1258     1.0  0.95653  0.05761  0.39266  1.0000
  H   H1511     1.0  0.97170  0.05450  0.31934  1.0000
  C   C1259     1.0  0.96673  0.03956  0.32365  1.0000
  C   C1260     1.0  0.88802  0.10359  0.46724  1.0000
  C   C1261     1.0  0.54353  0.28219  0.47955  1.0000
  H   H1512     1.0  0.96330  0.17534  0.44806  1.0000
  H   H1513     1.0  0.97226  0.23652  0.43759  1.0000
  H   H1514     1.0  0.53459  0.24434  0.45987  1.0000
  H   H1515     1.0  0.68893  0.13845  0.47853  1.0000
  H   H1516     1.0  0.65786  0.24504  0.46273  1.0000
  N   N84       1.0  0.55855  0.22040  0.46458  1.0000
  C   C1262     1.0  0.68391  0.15416  0.47256  1.0000
  C   C1263     1.0  0.57786  0.16518  0.46319  1.0000
  C   C1264     1.0  0.97304  0.05767  0.35887  1.0000
  C   C1265     1.0  0.68419  0.98488  0.43889  1.0000
  H   H1517     1.0  0.55763  0.06168  0.23493  1.0000
  H   H1518     1.0  0.57030  0.99220  0.28396  1.0000
  C   C1266     1.0  0.96982  0.03771  0.35862  1.0000
  H   H1519     1.0  0.90083  0.98674  0.24160  1.0000
  C   C1267     1.0  0.96653  0.06737  0.37567  1.0000
  C   C1268     1.0  0.65202  0.30525  0.47625  1.0000
  C   C1269     1.0  0.75038  0.00631  0.41302  1.0000
  H   H1520     1.0  0.90577  0.21966  0.47470  1.0000
  H   H1521     1.0  0.59582  0.99307  0.30595  1.0000
  H   H1522     1.0  0.74531  0.29470  0.47812  1.0000
  H   H1523     1.0  0.64682  0.31352  0.44568  1.0000
  C   C1270     1.0  0.73747  0.99180  0.41553  1.0000
  H   H1524     1.0  0.68580  0.98758  0.45415  1.0000
  S   S342      1.0  0.91889  0.31520  0.47038  1.0000
  H   H1525     1.0  0.98045  0.06607  0.34598  1.0000
  H   H1526     1.0  0.94946  0.21523  0.47861  1.0000
  H   H1527     1.0  0.92923  0.09543  0.47845  1.0000
  H   H1528     1.0  0.73502  0.00236  0.47867  1.0000
  C   C1271     1.0  0.73945  0.01689  0.47884  1.0000
  C   C1272     1.0  0.84481  0.98314  0.36089  1.0000
  C   C1273     1.0  0.75073  0.05434  0.47942  1.0000
  H   H1529     1.0  0.98181  0.08931  0.56507  1.0000
  S   S343      1.0  0.50975  0.05237  0.61981  1.0000
  S   S344      1.0  0.52092  0.04578  0.67453  1.0000
  Fe  Fe178     1.0  0.52077  0.07966  0.60116  1.0000
  S   S345      1.0  0.53841  0.08426  0.57027  1.0000
  S   S346      1.0  0.52772  0.09233  0.62741  1.0000
  Fe  Fe179     1.0  0.64476  0.07421  0.51127  1.0000
  S   S347      1.0  0.65518  0.10332  0.51278  1.0000
  S   S348      1.0  0.63051  0.05895  0.54050  1.0000
  C   C1274     1.0  0.55825  0.28086  0.49206  1.0000
  S   S349      1.0  0.71321  0.10052  0.50083  1.0000
  H   H1530     1.0  0.54248  0.29323  0.61432  1.0000
  Fe  Fe180     1.0  0.80688  0.05214  0.55255  1.0000
  S   S350      1.0  0.81952  0.06388  0.52182  1.0000
  S   S351      1.0  0.77372  0.04858  0.55674  1.0000
  Fe  Fe181     1.0  0.84854  0.04327  0.56737  1.0000
  S   S352      1.0  0.86356  0.05329  0.53696  1.0000
  S   S353      1.0  0.87032  0.03186  0.59047  1.0000
  Fe  Fe182     1.0  0.83894  0.07874  0.53699  1.0000
  S   S354      1.0  0.84795  0.10906  0.52612  1.0000
  Fe  Fe183     1.0  0.84284  0.03724  0.52450  1.0000
  S   S355      1.0  0.82440  0.06960  0.56794  1.0000
  S   S356      1.0  0.82964  0.02455  0.55486  1.0000
  Fe  Fe184     1.0  0.95839  0.07177  0.70047  1.0000
  H   H1531     1.0  0.52526  0.15940  0.60600  1.0000
  Fe  Fe185     1.0  0.93907  0.06588  0.66312  1.0000
  S   S357      1.0  0.96336  0.04156  0.65535  1.0000
  S   S358      1.0  0.91451  0.07760  0.64299  1.0000
  Fe  Fe186     1.0  0.96089  0.03048  0.68794  1.0000
  N   N85       1.0  0.68204  0.16773  0.48793  1.0000
  H   H1532     1.0  0.97668  0.24721  0.57229  1.0000
  C   C1275     1.0  0.85956  0.02820  0.65139  1.0000
  S   S359      1.0  0.93480  0.05351  0.69565  1.0000
  S   S360      1.0  0.96037  0.08633  0.66841  1.0000
  C   C1276     1.0  0.83003  0.99158  0.50640  1.0000
  C   C1277     1.0  0.84233  0.00209  0.49164  1.0000
  C   C1278     1.0  0.94230  0.28262  0.52309  1.0000
  C   C1279     1.0  0.88310  0.04535  0.60392  1.0000
  C   C1280     1.0  0.89965  0.03538  0.61306  1.0000
  C   C1281     1.0  0.90972  0.04514  0.62459  1.0000
  C   C1282     1.0  0.90319  0.06497  0.62745  1.0000
  C   C1283     1.0  0.88691  0.07509  0.61795  1.0000
  C   C1284     1.0  0.87695  0.06539  0.60625  1.0000
  H   H1533     1.0  0.90459  0.01991  0.61137  1.0000
  H   H1534     1.0  0.92238  0.03729  0.63149  1.0000
  H   H1535     1.0  0.88164  0.09041  0.62006  1.0000
  H   H1536     1.0  0.86417  0.07327  0.59947  1.0000
  H   H1537     1.0  0.53779  0.12285  0.58753  1.0000
  S   S361      1.0  0.98403  0.04759  0.69483  1.0000
  C   C1285     1.0  0.86289  0.10752  0.50312  1.0000
  H   H1538     1.0  0.96036  0.21197  0.51138  1.0000
  H   H1539     1.0  0.95459  0.28001  0.58012  1.0000
  H   H1540     1.0  0.54146  0.17576  0.59150  1.0000
  H   H1541     1.0  0.85568  0.07852  0.50063  1.0000
  C   C1286     1.0  0.92333  0.11788  0.60009  1.0000
  C   C1287     1.0  0.73029  0.08534  0.51562  1.0000
  C   C1288     1.0  0.74766  0.09277  0.51844  1.0000
  C   C1289     1.0  0.76134  0.08143  0.53055  1.0000
  C   C1290     1.0  0.75768  0.06258  0.54012  1.0000
  C   C1291     1.0  0.74053  0.05494  0.53693  1.0000
  C   C1292     1.0  0.72697  0.06620  0.52460  1.0000
  H   H1542     1.0  0.75046  0.10750  0.51145  1.0000
  H   H1543     1.0  0.77446  0.08751  0.53289  1.0000
  H   H1544     1.0  0.73768  0.04029  0.54415  1.0000
  H   H1545     1.0  0.71391  0.06014  0.52212  1.0000
  C   C1293     1.0  0.56418  0.07721  0.56275  1.0000
  C   C1294     1.0  0.57669  0.06530  0.57548  1.0000
  C   C1295     1.0  0.59700  0.05976  0.56851  1.0000
  C   C1296     1.0  0.60502  0.06640  0.54894  1.0000
  C   C1297     1.0  0.59258  0.07861  0.53638  1.0000
  C   C1298     1.0  0.57223  0.08378  0.54319  1.0000
  H   H1546     1.0  0.57063  0.06006  0.59053  1.0000
  H   H1547     1.0  0.60645  0.05017  0.57830  1.0000
  H   H1548     1.0  0.59852  0.08370  0.52126  1.0000
  H   H1549     1.0  0.56262  0.09284  0.53319  1.0000
  C   C1299     1.0  0.95873  0.11656  0.58577  1.0000
  C   C1300     1.0  0.55796  0.06702  0.70600  1.0000
  C   C1301     1.0  0.54651  0.06517  0.69096  1.0000
  C   C1302     1.0  0.53526  0.04930  0.69308  1.0000
  C   C1303     1.0  0.53536  0.03555  0.71049  1.0000
  S   S362      1.0  0.85306  0.02252  0.49643  1.0000
  H   H1550     1.0  0.56689  0.07914  0.70409  1.0000
  H   H1551     1.0  0.54668  0.07581  0.67760  1.0000
  N   N86       1.0  0.98139  0.27697  0.55904  1.0000
  H   H1552     1.0  0.50841  0.98686  0.65627  1.0000
  C   C1304     1.0  0.51831  0.27898  0.50871  1.0000
  H   H1553     1.0  0.58119  0.18706  0.53252  1.0000
  C   C1305     1.0  0.52620  0.13406  0.58093  1.0000
  H   H1554     1.0  0.98386  0.13328  0.60266  1.0000
  H   H1555     1.0  0.91202  0.11316  0.61209  1.0000
  C   C1306     1.0  0.52355  0.28128  0.48792  1.0000
  H   H1556     1.0  0.67468  0.19963  0.50922  1.0000
  C   C1307     1.0  0.57746  0.13772  0.53735  1.0000
  H   H1557     1.0  0.50288  0.27839  0.51507  1.0000
  Fe  Fe187     1.0  0.51401  0.06666  0.64636  1.0000
  C   C1308     1.0  0.67239  0.20352  0.49380  1.0000
  C   C1309     1.0  0.70187  0.16590  0.49498  1.0000
  C   C1310     1.0  0.85928  0.04729  0.65615  1.0000
  C   C1311     1.0  0.51064  0.29266  0.62148  1.0000
  C   C1312     1.0  0.95120  0.10208  0.49507  1.0000
  H   H1558     1.0  0.55221  0.18610  0.55821  1.0000
  C   C1313     1.0  0.76542  0.03736  0.48155  1.0000
  C   C1314     1.0  0.87360  0.01264  0.65829  1.0000
  H   H1559     1.0  0.84873  0.05940  0.65032  1.0000
  H   H1560     1.0  0.76938  0.00495  0.48315  1.0000
  H   H1561     1.0  0.50960  0.28468  0.60927  1.0000
  C   C1315     1.0  0.97098  0.20764  0.49887  1.0000
  H   H1562     1.0  0.63270  0.30866  0.54348  1.0000
  N   N87       1.0  0.78632  0.03869  0.48426  1.0000
  H   H1563     1.0  0.97035  0.10759  0.51527  1.0000
  H   H1564     1.0  0.49818  0.10435  0.72517  1.0000
  H   H1565     1.0  0.90209  0.13711  0.58335  1.0000
  N   N88       1.0  0.90356  0.99995  0.67700  1.0000
  H   H1566     1.0  0.49530  0.18235  0.63079  1.0000
  H   H1567     1.0  0.97599  0.28745  0.58780  1.0000
  H   H1568     1.0  0.87324  0.99839  0.65359  1.0000
  H   H1569     1.0  0.73509  0.06327  0.61743  1.0000
  N   N89       1.0  0.98026  0.10958  0.58658  1.0000
  C   C1316     1.0  0.88787  0.01587  0.67028  1.0000
  N   N90       1.0  0.91372  0.07814  0.54701  1.0000
  C   C1317     1.0  0.89322  0.08915  0.54782  1.0000
  C   C1318     1.0  0.91267  0.05696  0.54542  1.0000
  C   C1319     1.0  0.92100  0.07876  0.56626  1.0000
  C   C1320     1.0  0.92658  0.08678  0.52945  1.0000
  C   C1321     1.0  0.98405  0.09359  0.60330  1.0000
  C   C1322     1.0  0.94455  0.09444  0.53093  1.0000
  C   C1323     1.0  0.49353  0.29795  0.63458  1.0000
  C   C1324     1.0  0.56817  0.15670  0.48108  1.0000
  H   H1570     1.0  0.65954  0.30084  0.50613  1.0000
  H   H1571     1.0  0.78200  0.06732  0.49494  1.0000
  H   H1572     1.0  0.89331  0.10532  0.54816  1.0000
  H   H1573     1.0  0.88589  0.08787  0.53474  1.0000
  H   H1574     1.0  0.51072  0.00713  0.66933  1.0000
  C   C1325     1.0  0.55162  0.18928  0.48759  1.0000
  H   H1575     1.0  0.90292  0.04995  0.55832  1.0000
  H   H1576     1.0  0.92151  0.09430  0.56878  1.0000
  H   H1577     1.0  0.91097  0.07214  0.57907  1.0000
  H   H1578     1.0  0.93605  0.07006  0.56710  1.0000
  C   C1326     1.0  0.49505  0.30811  0.65044  1.0000
  C   C1327     1.0  0.55493  0.16870  0.49318  1.0000
  C   C1328     1.0  0.95158  0.28485  0.53938  1.0000
  H   H1579     1.0  0.90638  0.05516  0.53185  1.0000
  H   H1580     1.0  0.50757  0.01198  0.64385  1.0000
  H   H1581     1.0  0.52198  0.12840  0.56792  1.0000
  C   C1329     1.0  0.55308  0.27826  0.51279  1.0000
  H   H1582     1.0  0.94310  0.29440  0.54970  1.0000
  C   C1330     1.0  0.50275  0.00267  0.65801  1.0000
  Fe  Fe188     1.0  0.64335  0.11327  0.48360  1.0000
  H   H1583     1.0  0.92158  0.00324  0.64847  1.0000
  H   H1584     1.0  0.54818  0.30602  0.57826  1.0000
  C   C1331     1.0  0.94348  0.11054  0.60110  1.0000
  C   C1332     1.0  0.56118  0.31218  0.56994  1.0000
  C   C1333     1.0  0.98109  0.26385  0.52669  1.0000
  H   H1585     1.0  0.70146  0.17429  0.50773  1.0000
  H   H1586     1.0  0.91633  0.98760  0.70405  1.0000
  C   C1334     1.0  0.66606  0.22353  0.48736  1.0000
  H   H1587     1.0  0.92777  0.04812  0.54483  1.0000
  C   C1335     1.0  0.95223  0.27096  0.50875  1.0000
  S   S363      1.0  0.95274  0.08926  0.72744  1.0000
  C   C1336     1.0  0.58473  0.15577  0.53035  1.0000
  H   H1588     1.0  0.61498  0.18507  0.48798  1.0000
  C   C1337     1.0  0.51622  0.16799  0.56817  1.0000
  H   H1589     1.0  0.97862  0.99994  0.64801  1.0000
  H   H1590     1.0  0.75386  0.06925  0.47991  1.0000
  Fe  Fe189     1.0  0.68379  0.09179  0.49530  1.0000
  C   C1338     1.0  0.93355  0.09504  0.49314  1.0000
  H   H1591     1.0  0.57368  0.28163  0.48577  1.0000
  C   C1339     1.0  0.53311  0.27739  0.52120  1.0000
  N   N91       1.0  0.67354  0.06281  0.57612  1.0000
  C   C1340     1.0  0.66937  0.08200  0.56321  1.0000
  C   C1341     1.0  0.67986  0.04676  0.56333  1.0000
  C   C1342     1.0  0.65441  0.05862  0.58850  1.0000
  C   C1343     1.0  0.68983  0.06371  0.58793  1.0000
  C   C1344     1.0  0.68830  0.05789  0.60887  1.0000
  C   C1345     1.0  0.70837  0.06958  0.57835  1.0000
  C   C1346     1.0  0.70444  0.05794  0.61933  1.0000
  C   C1347     1.0  0.72446  0.06936  0.58889  1.0000
  C   C1348     1.0  0.72250  0.06355  0.60935  1.0000
  H   H1592     1.0  0.68180  0.08482  0.55109  1.0000
  H   H1593     1.0  0.65598  0.08233  0.55555  1.0000
  H   H1594     1.0  0.66651  0.09472  0.57206  1.0000
  H   H1595     1.0  0.69353  0.04943  0.55281  1.0000
  H   H1596     1.0  0.66803  0.04540  0.55418  1.0000
  H   H1597     1.0  0.68321  0.03208  0.57243  1.0000
  H   H1598     1.0  0.64898  0.07003  0.59872  1.0000
  H   H1599     1.0  0.64229  0.05874  0.57918  1.0000
  H   H1600     1.0  0.65581  0.04358  0.59729  1.0000
  H   H1601     1.0  0.67488  0.05310  0.61751  1.0000
  H   H1602     1.0  0.71074  0.07407  0.56251  1.0000
  H   H1603     1.0  0.70303  0.05338  0.63527  1.0000
  C   C1349     1.0  0.87321  0.05101  0.66762  1.0000
  H   H1604     1.0  0.71319  0.17164  0.48287  1.0000
  H   H1605     1.0  0.93503  0.99120  0.66860  1.0000
  H   H1606     1.0  0.52288  0.09011  0.72399  1.0000
  S   S364      1.0  0.49056  0.25391  0.59119  1.0000
  C   C1350     1.0  0.97164  0.26166  0.51049  1.0000
  H   H1607     1.0  0.51268  0.16434  0.55391  1.0000
  C   C1351     1.0  0.96822  0.28737  0.57463  1.0000
  H   H1608     1.0  0.50242  0.16746  0.57902  1.0000
  C   C1352     1.0  0.55791  0.05333  0.72349  1.0000
  H   H1609     1.0  0.87359  0.06608  0.67052  1.0000
  H   H1610     1.0  0.89126  0.00044  0.70783  1.0000
  H   H1611     1.0  0.55603  0.12234  0.55674  1.0000
  H   H1612     1.0  0.92762  0.01750  0.66621  1.0000
  H   H1613     1.0  0.91265  0.01371  0.70028  1.0000
  C   C1353     1.0  0.56079  0.13685  0.55194  1.0000
  H   H1614     1.0  0.54751  0.16203  0.50715  1.0000
  C   C1354     1.0  0.55086  0.15422  0.55998  1.0000
  H   H1615     1.0  0.80571  0.02960  0.50707  1.0000
  S   S365      1.0  0.63110  0.08454  0.48295  1.0000
  C   C1355     1.0  0.53800  0.16018  0.59377  1.0000
  H   H1616     1.0  0.96065  0.10775  0.48191  1.0000
  H   H1617     1.0  0.51911  0.18375  0.56594  1.0000
  H   H1618     1.0  0.66344  0.23452  0.49765  1.0000
  C   C1356     1.0  0.97121  0.27523  0.54183  1.0000
  H   H1619     1.0  0.55107  0.15034  0.59933  1.0000
  H   H1620     1.0  0.80688  0.05994  0.48404  1.0000
  S   S366      1.0  0.52741  0.27409  0.54732  1.0000
  C   C1357     1.0  0.92278  0.00309  0.66450  1.0000
  H   H1621     1.0  0.49785  0.07416  0.71545  1.0000
  C   C1358     1.0  0.91773  0.13137  0.58395  1.0000
  C   C1359     1.0  0.51347  0.31361  0.65281  1.0000
  C   C1360     1.0  0.88748  0.03565  0.67437  1.0000
  C   C1361     1.0  0.95664  0.10189  0.51392  1.0000
  C   C1362     1.0  0.93228  0.13761  0.56872  1.0000
  H   H1622     1.0  0.73865  0.07341  0.58108  1.0000
  H   H1623     1.0  0.92795  0.14831  0.55626  1.0000
  H   H1624     1.0  0.97944  0.25277  0.49919  1.0000
  C   C1363     1.0  0.86433  0.09034  0.49404  1.0000
  S   S367      1.0  0.95773  0.99811  0.69765  1.0000
  C   C1364     1.0  0.55879  0.17234  0.55260  1.0000
  C   C1365     1.0  0.95248  0.13048  0.56964  1.0000
  H   H1625     1.0  0.54163  0.19804  0.49771  1.0000
  H   H1626     1.0  0.96324  0.13630  0.55778  1.0000
  N   N92       1.0  0.53316  0.15395  0.57541  1.0000
  H   H1627     1.0  0.94665  0.10037  0.61425  1.0000
  H   H1628     1.0  0.51273  0.13442  0.59236  1.0000
  H   H1629     1.0  0.92731  0.29015  0.52151  1.0000
  C   C1366     1.0  0.57542  0.17305  0.53795  1.0000
  H   H1630     1.0  0.89859  0.03964  0.68222  1.0000
  H   H1631     1.0  0.66690  0.16812  0.51806  1.0000
  H   H1632     1.0  0.59761  0.15632  0.51897  1.0000
  H   H1633     1.0  0.97964  0.09906  0.61805  1.0000
  H   H1634     1.0  0.96372  0.30329  0.56917  1.0000
  C   C1367     1.0  0.98019  0.13569  0.72643  1.0000
  C   C1368     1.0  0.97618  0.14766  0.49767  1.0000
  H   H1635     1.0  0.65200  0.16305  0.50041  1.0000
  H   H1636     1.0  0.58487  0.12427  0.53147  1.0000
  H   H1637     1.0  0.96278  0.15008  0.50812  1.0000
  H   H1638     1.0  0.70748  0.15007  0.50006  1.0000
  H   H1639     1.0  0.88314  0.08340  0.56111  1.0000
  H   H1640     1.0  0.52683  0.02315  0.71227  1.0000
  H   H1641     1.0  0.55505  0.30544  0.54209  1.0000
  C   C1369     1.0  0.52921  0.29760  0.62426  1.0000
  S   S368      1.0  0.48973  0.09663  0.60102  1.0000
  H   H1642     1.0  0.87294  0.13621  0.50118  1.0000
  S   S369      1.0  0.67463  0.06157  0.49598  1.0000
  H   H1643     1.0  0.97607  0.08064  0.60294  1.0000
  H   H1644     1.0  0.56463  0.27688  0.52235  1.0000
  H   H1645     1.0  0.77971  0.03507  0.51619  1.0000
  C   C1370     1.0  0.56514  0.31181  0.54948  1.0000
  H   H1646     1.0  0.94961  0.09486  0.54501  1.0000
  H   H1647     1.0  0.90782  0.08225  0.50762  1.0000
  H   H1648     1.0  0.67093  0.14430  0.50961  1.0000
  H   H1649     1.0  0.84923  0.02558  0.64172  1.0000
  C   C1371     1.0  0.92138  0.08750  0.51000  1.0000
  C   C1372     1.0  0.66738  0.16054  0.50474  1.0000
  Fe  Fe190     1.0  0.49626  0.10824  0.62788  1.0000
  H   H1650     1.0  0.97850  0.12823  0.71400  1.0000
  C   C1373     1.0  0.87400  0.12289  0.49417  1.0000
  H   H1651     1.0  0.57120  0.14082  0.48567  1.0000
  S   S370      1.0  0.87331  0.30811  0.49145  1.0000
  C   C1374     1.0  0.49383  0.06395  0.72857  1.0000
  C   C1375     1.0  0.79028  0.02847  0.50419  1.0000
  H   H1652     1.0  0.55719  0.22683  0.49482  1.0000
  H   H1653     1.0  0.82740  0.99556  0.52135  1.0000
  S   S371      1.0  0.49290  0.14081  0.63275  1.0000
  C   C1376     1.0  0.53059  0.30834  0.63974  1.0000
  S   S372      1.0  0.62490  0.14361  0.48478  1.0000
  Fe  Fe191     1.0  0.49545  0.27383  0.56211  1.0000
  H   H1654     1.0  0.94487  0.26927  0.49620  1.0000
  H   H1655     1.0  0.78881  0.01235  0.50602  1.0000
  H   H1656     1.0  0.58197  0.22324  0.48144  1.0000
  C   C1377     1.0  0.79085  0.05946  0.48274  1.0000
  C   C1378     1.0  0.90588  0.00050  0.69815  1.0000
  C   C1379     1.0  0.75913  0.01855  0.48128  1.0000
  C   C1380     1.0  0.66029  0.31032  0.49200  1.0000
  Fe  Fe192     1.0  0.98431  0.06082  0.66276  1.0000
  C   C1381     1.0  0.54637  0.03769  0.72572  1.0000
  S   S373      1.0  0.55365  0.31547  0.64233  1.0000
  C   C1382     1.0  0.96493  0.20947  0.47999  1.0000
  C   C1383     1.0  0.67554  0.18885  0.48064  1.0000
  H   H1657     1.0  0.49336  0.00311  0.69987  1.0000
  C   C1384     1.0  0.56612  0.22933  0.47994  1.0000
  S   S374      1.0  0.64013  0.28381  0.47984  1.0000
  Fe  Fe193     1.0  0.87460  0.11272  0.95775  1.0000
  S   S375      1.0  0.85146  0.13955  0.95442  1.0000
  S   S376      1.0  0.89175  0.10829  0.92724  1.0000
  C   C1385     1.0  0.88104  0.04449  0.97649  1.0000
  H   H1658     1.0  0.89020  0.05359  0.90070  1.0000
  H   H1659     1.0  0.97161  0.14443  0.89343  1.0000
  H   H1660     1.0  0.52378  0.26016  0.94826  1.0000
  C   C1386     1.0  0.50341  0.15729  0.97467  1.0000
  Fe  Fe194     1.0  0.51015  0.29582  0.87143  1.0000
  S   S377      1.0  0.57237  0.05626  0.74221  1.0000
  Fe  Fe195     1.0  0.53192  0.04583  0.80851  1.0000
  S   S378      1.0  0.55882  0.06181  0.79876  1.0000
  S   S379      1.0  0.49997  0.05825  0.81793  1.0000
  Fe  Fe196     1.0  0.55527  0.00554  0.80251  1.0000
  S   S380      1.0  0.58454  0.01815  0.79263  1.0000
  C   C1387     1.0  0.87766  0.06527  0.90472  1.0000
  Fe  Fe197     1.0  0.57544  0.03701  0.81795  1.0000
  S   S381      1.0  0.58944  0.04535  0.84387  1.0000
  Fe  Fe198     1.0  0.56563  0.04209  0.77439  1.0000
  S   S382      1.0  0.54760  0.02224  0.82894  1.0000
  S   S383      1.0  0.53738  0.02824  0.78301  1.0000
  Fe  Fe199     1.0  0.71751  0.07083  0.91893  1.0000
  S   S384      1.0  0.69614  0.07824  0.94570  1.0000
  S   S385      1.0  0.75054  0.07611  0.91596  1.0000
  Fe  Fe200     1.0  0.68360  0.05830  0.89878  1.0000
  S   S386      1.0  0.66042  0.06516  0.92436  1.0000
  S   S387      1.0  0.67531  0.04572  0.87225  1.0000
  Fe  Fe201     1.0  0.67506  0.09234  0.92382  1.0000
  S   S388      1.0  0.65598  0.12161  0.92742  1.0000
  Fe  Fe202     1.0  0.68350  0.05024  0.94381  1.0000
  S   S389      1.0  0.69705  0.08689  0.89680  1.0000
  S   S390      1.0  0.70623  0.04133  0.91836  1.0000
  C   C1388     1.0  0.56602  0.10920  0.92936  1.0000
  C   C1389     1.0  0.56729  0.25378  0.90256  1.0000
  C   C1390     1.0  0.61360  0.04546  0.85120  1.0000
  C   C1391     1.0  0.61478  0.05242  0.86930  1.0000
  C   C1392     1.0  0.63343  0.05296  0.87579  1.0000
  C   C1393     1.0  0.65129  0.04638  0.86432  1.0000
  C   C1394     1.0  0.65012  0.03922  0.84634  1.0000
  C   C1395     1.0  0.63146  0.03883  0.83977  1.0000
  H   H1661     1.0  0.60115  0.05734  0.87846  1.0000
  H   H1662     1.0  0.63396  0.05835  0.88973  1.0000
  H   H1663     1.0  0.66377  0.03399  0.83735  1.0000
  H   H1664     1.0  0.63092  0.03340  0.82586  1.0000
  H   H1665     1.0  0.90700  0.15042  0.92558  1.0000
  H   H1666     1.0  0.53749  0.20558  0.93642  1.0000
  C   C1396     1.0  0.49923  0.08113  0.82657  1.0000
  C   C1397     1.0  0.51407  0.09330  0.81907  1.0000
  H   H1667     1.0  0.92560  0.05674  0.95235  1.0000
  C   C1398     1.0  0.50322  0.22544  0.89002  1.0000
  H   H1668     1.0  0.52547  0.08920  0.80722  1.0000
  H   H1669     1.0  0.59893  0.27295  0.88718  1.0000
  H   H1670     1.0  0.55807  0.24647  0.91560  1.0000
  C   C1399     1.0  0.64471  0.12045  0.95219  1.0000
  H   H1671     1.0  0.85598  0.08928  0.93010  1.0000
  H   H1672     1.0  0.64932  0.00909  0.93312  1.0000
  H   H1673     1.0  0.85425  0.04607  0.96361  1.0000
  H   H1674     1.0  0.63057  0.15084  0.94948  1.0000
  H   H1675     1.0  0.55918  0.25441  0.88942  1.0000
  C   C1400     1.0  0.97109  0.10246  0.77767  1.0000
  H   H1676     1.0  0.57342  0.30609  0.92481  1.0000
  C   C1401     1.0  0.49645  0.06710  0.74802  1.0000
  H   H1677     1.0  0.73901  0.09011  0.95518  1.0000
  H   H1678     1.0  0.67494  0.01033  0.93520  1.0000
  H   H1679     1.0  0.49384  0.11046  0.76762  1.0000
  C   C1402     1.0  0.51421  0.11097  0.82694  1.0000
  Fe  Fe203     1.0  0.82971  0.12035  0.97294  1.0000
  H   H1680     1.0  0.94338  0.10388  0.76541  1.0000
  C   C1403     1.0  0.98420  0.15326  0.76041  1.0000
  H   H1681     1.0  0.65630  0.08968  0.95957  1.0000
  C   C1404     1.0  0.81549  0.28492  0.96849  1.0000
  C   C1405     1.0  0.84983  0.07555  0.92832  1.0000
  H   H1682     1.0  0.69811  0.12157  0.91835  1.0000
  C   C1406     1.0  0.75432  0.09256  0.95008  1.0000
  C   C1407     1.0  0.76358  0.08662  0.93189  1.0000
  C   C1408     1.0  0.78375  0.08953  0.92582  1.0000
  C   C1409     1.0  0.79440  0.09852  0.93754  1.0000
  C   C1410     1.0  0.76475  0.14694  0.93228  1.0000
  H   H1683     1.0  0.60611  0.24353  0.95875  1.0000
  H   H1684     1.0  0.79109  0.08508  0.91177  1.0000
  H   H1685     1.0  0.80964  0.10120  0.93234  1.0000
  C   C1411     1.0  0.91787  0.10640  0.91962  1.0000
  C   C1412     1.0  0.93173  0.10113  0.93322  1.0000
  C   C1413     1.0  0.95238  0.09911  0.92637  1.0000
  C   C1414     1.0  0.95936  0.10260  0.90593  1.0000
  C   C1415     1.0  0.94547  0.10810  0.89237  1.0000
  C   C1416     1.0  0.92482  0.10979  0.89920  1.0000
  H   H1686     1.0  0.92657  0.09829  0.94896  1.0000
  H   H1687     1.0  0.96306  0.09480  0.93694  1.0000
  H   H1688     1.0  0.95065  0.11074  0.87662  1.0000
  H   H1689     1.0  0.91418  0.11379  0.88857  1.0000
  H   H1690     1.0  0.55939  0.11319  0.94386  1.0000
  H   H1691     1.0  0.58947  0.30667  0.95400  1.0000
  C   C1417     1.0  0.58001  0.29205  0.93188  1.0000
  H   H1692     1.0  0.77899  0.14230  0.92381  1.0000
  H   H1693     1.0  0.90929  0.20283  0.93389  1.0000
  H   H1694     1.0  0.72274  0.11238  0.92415  1.0000
  H   H1695     1.0  0.69108  0.16675  0.94252  1.0000
  H   H1696     1.0  0.93593  0.16111  0.96426  1.0000
  C   C1418     1.0  0.98368  0.25875  0.92951  1.0000
  C   C1419     1.0  0.49865  0.21516  0.97239  1.0000
  N   N93       1.0  0.50428  0.08495  0.75210  1.0000
  H   H1697     1.0  0.70185  0.99488  0.91285  1.0000
  C   C1420     1.0  0.54526  0.25911  0.96786  1.0000
  C   C1421     1.0  0.52929  0.23009  0.96444  1.0000
  C   C1422     1.0  0.49957  0.11641  0.84241  1.0000
  H   H1698     1.0  0.52593  0.12020  0.82131  1.0000
  N   N94       1.0  0.86617  0.05919  0.92433  1.0000
  C   C1423     1.0  0.49248  0.00870  0.81800  1.0000
  H   H1699     1.0  0.71138  0.11537  0.96054  1.0000
  C   C1424     1.0  0.90109  0.04750  0.97355  1.0000
  H   H1700     1.0  0.51711  0.11119  0.73725  1.0000
  H   H1701     1.0  0.90688  0.06337  0.92433  1.0000
  H   H1702     1.0  0.88390  0.07944  0.90459  1.0000
  H   H1703     1.0  0.84636  0.03694  0.93574  1.0000
  C   C1425     1.0  0.51082  0.09818  0.73379  1.0000
  N   N95       1.0  0.57058  0.27394  0.90591  1.0000
  C   C1426     1.0  0.50532  0.12550  0.96261  1.0000
  C   C1427     1.0  0.55085  0.28656  0.90645  1.0000
  C   C1428     1.0  0.69101  0.99393  0.90253  1.0000
  C   C1429     1.0  0.57962  0.27394  0.92429  1.0000
  C   C1430     1.0  0.58942  0.25637  0.93441  1.0000
  H   H1704     1.0  0.86894  0.02823  0.92067  1.0000
  H   H1705     1.0  0.96401  0.10900  0.79075  1.0000
  C   C1431     1.0  0.89904  0.05777  0.93846  1.0000
  C   C1432     1.0  0.76426  0.15793  0.94789  1.0000
  H   H1706     1.0  0.89012  0.18751  0.94255  1.0000
  H   H1707     1.0  0.54067  0.28216  0.92010  1.0000
  H   H1708     1.0  0.89640  0.15292  0.95060  1.0000
  C   C1433     1.0  0.49100  0.05221  0.76385  1.0000
  H   H1709     1.0  0.58662  0.29753  0.88995  1.0000
  H   H1710     1.0  0.51772  0.07167  0.77849  1.0000
  H   H1711     1.0  0.50649  0.01511  0.81833  1.0000
  H   H1712     1.0  0.66394  0.02421  0.91446  1.0000
  S   S391      1.0  0.53437  0.30800  0.84889  1.0000
  H   H1713     1.0  0.59022  0.24192  0.92966  1.0000
  H   H1714     1.0  0.65799  0.00900  0.88708  1.0000
  H   H1715     1.0  0.51873  0.22005  0.88554  1.0000
  H   H1716     1.0  0.91042  0.17145  0.97063  1.0000
  H   H1717     1.0  0.54633  0.02690  0.73894  1.0000
  N   N96       1.0  0.91986  0.17128  0.93914  1.0000
  C   C1434     1.0  0.86988  0.04809  0.96046  1.0000
  C   C1435     1.0  0.92394  0.17297  0.95945  1.0000
  C   C1436     1.0  0.90477  0.18813  0.93291  1.0000
  C   C1437     1.0  0.93862  0.17192  0.92513  1.0000
  C   C1438     1.0  0.94742  0.15584  0.91447  1.0000
  C   C1439     1.0  0.94879  0.18902  0.92192  1.0000
  H   H1718     1.0  0.74893  0.13169  0.91645  1.0000
  C   C1440     1.0  0.96642  0.19007  0.90861  1.0000
  C   C1441     1.0  0.85717  0.04119  0.92253  1.0000
  S   S392      1.0  0.67090  0.03140  0.97136  1.0000
  H   H1719     1.0  0.60604  0.27561  0.97104  1.0000
  H   H1720     1.0  0.68110  0.15254  0.92750  1.0000
  C   C1442     1.0  0.96812  0.09089  0.74602  1.0000
  S   S393      1.0  0.50163  0.13702  0.85388  1.0000
  C   C1443     1.0  0.49713  0.24605  0.88919  1.0000
  S   S394      1.0  0.98548  0.09982  0.89817  1.0000
  H   H1721     1.0  0.53294  0.06810  0.75543  1.0000
  H   H1722     1.0  0.70171  0.16605  0.91697  1.0000
  H   H1723     1.0  0.94097  0.14215  0.91603  1.0000
  H   H1724     1.0  0.94313  0.20174  0.92967  1.0000
  C   C1444     1.0  0.65686  0.99490  0.89738  1.0000
  H   H1725     1.0  0.69173  0.00749  0.89133  1.0000
  H   H1726     1.0  0.53256  0.99289  0.77065  1.0000
  N   N97       1.0  0.54946  0.09952  0.88102  1.0000
  C   C1445     1.0  0.52780  0.10018  0.88862  1.0000
  C   C1446     1.0  0.55172  0.11594  0.86445  1.0000
  C   C1447     1.0  0.55598  0.08028  0.87299  1.0000
  C   C1448     1.0  0.56197  0.10167  0.89631  1.0000
  C   C1449     1.0  0.58318  0.09936  0.89195  1.0000
  C   C1450     1.0  0.55370  0.10683  0.91549  1.0000
  C   C1451     1.0  0.59533  0.10167  0.90598  1.0000
  H   H1727     1.0  0.97378  0.26875  0.90092  1.0000
  C   C1452     1.0  0.96512  0.15698  0.90131  1.0000
  H   H1728     1.0  0.52130  0.11499  0.89310  1.0000
  H   H1729     1.0  0.51890  0.09775  0.87701  1.0000
  C   C1453     1.0  0.52465  0.20231  0.94792  1.0000
  H   H1730     1.0  0.59628  0.10850  0.93542  1.0000
  H   H1731     1.0  0.54266  0.11482  0.85254  1.0000
  H   H1732     1.0  0.54661  0.13071  0.86970  1.0000
  H   H1733     1.0  0.54595  0.07757  0.86250  1.0000
  H   H1734     1.0  0.57112  0.07962  0.86426  1.0000
  H   H1735     1.0  0.55629  0.06753  0.88513  1.0000
  H   H1736     1.0  0.59057  0.09589  0.87756  1.0000
  H   H1737     1.0  0.71481  0.16207  0.96462  1.0000
  S   S395      1.0  0.49008  0.15221  0.90640  1.0000
  H   H1738     1.0  0.69562  0.13743  0.96713  1.0000
  H   H1739     1.0  0.84042  0.07947  0.91599  1.0000
  C   C1454     1.0  0.78497  0.10491  0.95550  1.0000
  H   H1740     1.0  0.95189  0.16155  0.76113  1.0000
  H   H1741     1.0  0.58162  0.24403  0.89928  1.0000
  H   H1742     1.0  0.53039  0.19058  0.95950  1.0000
  C   C1455     1.0  0.54067  0.21907  0.97914  1.0000
  H   H1743     1.0  0.52506  0.08852  0.90152  1.0000
  H   H1744     1.0  0.92068  0.13938  0.94608  1.0000
  C   C1456     1.0  0.91006  0.05409  0.95458  1.0000
  H   H1745     1.0  0.49580  0.24716  0.94543  1.0000
  H   H1746     1.0  0.83955  0.07173  0.94211  1.0000
  H   H1747     1.0  0.98683  0.19141  0.76167  1.0000
  C   C1457     1.0  0.96538  0.15435  0.75345  1.0000
  H   H1748     1.0  0.53776  0.10921  0.92017  1.0000
  S   S396      1.0  0.51557  0.26251  0.88254  1.0000
  H   H1749     1.0  0.84863  0.04354  0.90953  1.0000
  C   C1458     1.0  0.72847  0.15758  0.95530  1.0000
  H   H1750     1.0  0.95717  0.15449  0.79365  1.0000
  H   H1751     1.0  0.49258  0.05359  0.77900  1.0000
  C   C1459     1.0  0.58677  0.10659  0.92465  1.0000
  C   C1460     1.0  0.69531  0.15697  0.93063  1.0000
  C   C1461     1.0  0.96348  0.14560  0.73677  1.0000
  C   C1462     1.0  0.64807  0.10285  0.96508  1.0000
  H   H1752     1.0  0.97386  0.15945  0.80952  1.0000
  C   C1463     1.0  0.63324  0.13719  0.95944  1.0000
  H   H1753     1.0  0.71843  0.13398  0.90585  1.0000
  H   H1754     1.0  0.71031  0.01114  0.95798  1.0000
  H   H1755     1.0  0.56748  0.11593  0.85732  1.0000
  H   H1756     1.0  0.68706  0.12192  0.95259  1.0000
  C   C1464     1.0  0.87850  0.05496  0.94093  1.0000
  H   H1757     1.0  0.90205  0.18789  0.91734  1.0000
  H   H1758     1.0  0.77808  0.16176  0.95146  1.0000
  N   N98       1.0  0.70967  0.13932  0.93644  1.0000
  C   C1465     1.0  0.71248  0.12627  0.92051  1.0000
  C   C1466     1.0  0.70061  0.12808  0.95497  1.0000
  H   H1759     1.0  0.52958  0.09165  0.76458  1.0000
  C   C1467     1.0  0.72850  0.14585  0.93986  1.0000
  C   C1468     1.0  0.52181  0.07885  0.76313  1.0000
  H   H1760     1.0  0.57758  0.28308  0.87443  1.0000
  C   C1469     1.0  0.66440  0.00978  0.92442  1.0000
  H   H1761     1.0  0.92863  0.18759  0.96052  1.0000
  H   H1762     1.0  0.61151  0.09977  0.90232  1.0000
  H   H1763     1.0  0.55204  0.30267  0.90554  1.0000
  C   C1470     1.0  0.58404  0.28216  0.88862  1.0000
  N   N99       1.0  0.51467  0.22063  0.95621  1.0000
  C   C1471     1.0  0.91071  0.15268  0.94031  1.0000
  C   C1472     1.0  0.59871  0.25706  0.95116  1.0000
  C   C1473     1.0  0.95937  0.09942  0.76327  1.0000
  C   C1474     1.0  0.97455  0.17409  0.89828  1.0000
  N   N100      1.0  0.67040  0.99270  0.91290  1.0000
  H   H1764     1.0  0.98818  0.17490  0.88789  1.0000
  C   C1475     1.0  0.59866  0.27511  0.95821  1.0000
  S   S397      1.0  0.79684  0.11853  0.96975  1.0000
  H   H1765     1.0  0.50114  0.99069  0.75769  1.0000
  H   H1766     1.0  0.97332  0.26980  0.93691  1.0000
  H   H1767     1.0  0.49664  0.99709  0.80798  1.0000
  C   C1476     1.0  0.74722  0.14086  0.92827  1.0000
  C   C1477     1.0  0.76487  0.10180  0.96165  1.0000
  H   H1768     1.0  0.74592  0.17175  0.97156  1.0000
  H   H1769     1.0  0.54327  0.28550  0.89341  1.0000
  H   H1770     1.0  0.52814  0.10280  0.97323  1.0000
  C   C1478     1.0  0.70313  0.00174  0.97024  1.0000
  H   H1771     1.0  0.86809  0.06806  0.89251  1.0000
  H   H1772     1.0  0.75733  0.10678  0.97541  1.0000
  C   C1479     1.0  0.58931  0.29257  0.94861  1.0000
  H   H1773     1.0  0.97836  0.13666  0.79867  1.0000
  C   C1480     1.0  0.53200  0.25048  0.95902  1.0000
  H   H1774     1.0  0.51418  0.19532  0.94088  1.0000
  C   C1481     1.0  0.52132  0.11807  0.97354  1.0000
  C   C1482     1.0  0.97319  0.15289  0.79576  1.0000
  H   H1775     1.0  0.86541  0.30657  0.95183  1.0000
  C   C1483     1.0  0.74615  0.16336  0.95930  1.0000
  H   H1776     1.0  0.49437  0.22595  0.93396  1.0000
  C   C1484     1.0  0.50494  0.23369  0.94007  1.0000
  H   H1777     1.0  0.96228  0.18692  0.77348  1.0000
  C   C1485     1.0  0.98383  0.25810  0.90928  1.0000
  C   C1486     1.0  0.49953  0.98506  0.84635  1.0000
  H   H1778     1.0  0.88387  0.21619  0.97387  1.0000
  H   H1779     1.0  0.94887  0.14585  0.73217  1.0000
  H   H1780     1.0  0.54698  0.27474  0.96373  1.0000
  H   H1781     1.0  0.81279  0.28124  0.95436  1.0000
  H   H1782     1.0  0.51416  0.99091  0.84517  1.0000
  S   S398      1.0  0.85222  0.09302  0.97481  1.0000
  C   C1487     1.0  0.49651  0.14518  0.96310  1.0000
  N   N101      1.0  0.98570  0.16236  0.77837  1.0000
  C   C1488     1.0  0.98019  0.29111  0.97456  1.0000
  H   H1783     1.0  0.98095  0.30535  0.94426  1.0000
  S   S399      1.0  0.49584  0.10997  0.94903  1.0000
  H   H1784     1.0  0.51610  0.23838  0.92728  1.0000
  H   H1785     1.0  0.49431  0.19594  0.89688  1.0000
  H   H1786     1.0  0.98028  0.19148  0.78808  1.0000
  C   C1489     1.0  0.81066  0.30449  0.97259  1.0000
  C   C1490     1.0  0.97844  0.18396  0.77524  1.0000
  H   H1787     1.0  0.64088  0.99552  0.90399  1.0000
  H   H1788     1.0  0.97383  0.20335  0.90623  1.0000
  H   H1789     1.0  0.49328  0.02433  0.85015  1.0000
  S   S400      1.0  0.95407  0.29696  0.97926  1.0000
  H   H1790     1.0  0.82783  0.25550  0.97790  1.0000
  H   H1791     1.0  0.49116  0.22841  0.97944  1.0000
  H   H1792     1.0  0.49613  0.17231  0.97531  1.0000
  C   C1491     1.0  0.48938  0.21171  0.89647  1.0000
  H   H1793     1.0  0.80452  0.31596  0.96162  1.0000
  C   C1492     1.0  0.68402  0.00822  0.97938  1.0000
  C   C1493     1.0  0.71295  0.98293  0.97696  1.0000
  C   C1494     1.0  0.62542  0.13629  0.97968  1.0000
  Fe  Fe204     1.0  0.64332  0.45701  0.12490  1.0000
  S   S401      1.0  0.62539  0.47002  0.09972  1.0000
  S   S402      1.0  0.62308  0.44872  0.15378  1.0000
  Fe  Fe205     1.0  0.68277  0.46626  0.09966  1.0000
  S   S403      1.0  0.66743  0.48031  0.07344  1.0000
  S   S404      1.0  0.71681  0.46238  0.09703  1.0000
  Fe  Fe206     1.0  0.64418  0.49482  0.09547  1.0000
  S   S405      1.0  0.63338  0.52801  0.09185  1.0000
  Fe  Fe207     1.0  0.64992  0.45409  0.07977  1.0000
  S   S406      1.0  0.64452  0.44251  0.05159  1.0000
  S   S407      1.0  0.66101  0.48281  0.12144  1.0000
  S   S408      1.0  0.66647  0.43901  0.10515  1.0000
  Fe  Fe208     1.0  0.50871  0.60772  0.13327  1.0000
  C   C1495     1.0  0.94796  0.52628  0.12747  1.0000
  C   C1496     1.0  0.53853  0.52601  0.22611  1.0000
  S   S409      1.0  0.51601  0.62805  0.07646  1.0000
  Fe  Fe209     1.0  0.52984  0.59925  0.09267  1.0000
  S   S410      1.0  0.54762  0.57336  0.07807  1.0000
  S   S411      1.0  0.53856  0.61417  0.11650  1.0000
  Fe  Fe210     1.0  0.63809  0.34370  0.00599  1.0000
  C   C1497     1.0  0.90982  0.57069  0.01469  1.0000
  S   S412      1.0  0.63929  0.35374  0.03604  1.0000
  S   S413      1.0  0.61360  0.32765  0.99950  1.0000
  Fe  Fe211     1.0  0.93760  0.40891  0.18213  1.0000
  S   S414      1.0  0.94074  0.44121  0.17449  1.0000
  Fe  Fe212     1.0  0.93692  0.40261  0.13836  1.0000
  S   S415      1.0  0.93986  0.43514  0.12835  1.0000
  S   S416      1.0  0.93503  0.38791  0.11038  1.0000
  Fe  Fe213     1.0  0.96293  0.43234  0.14903  1.0000
  Fe  Fe214     1.0  0.91768  0.44145  0.15474  1.0000
  S   S417      1.0  0.89542  0.46884  0.15263  1.0000
  S   S418      1.0  0.96193  0.39942  0.15763  1.0000
  S   S419      1.0  0.91252  0.40960  0.16368  1.0000
  Fe  Fe215     1.0  0.80814  0.52064  0.05561  1.0000
  S   S420      1.0  0.81790  0.49060  0.04622  1.0000
  S   S421      1.0  0.77457  0.52860  0.06389  1.0000
  Fe  Fe216     1.0  0.85174  0.53045  0.05294  1.0000
  S   S422      1.0  0.86405  0.50042  0.04315  1.0000
  S   S423      1.0  0.87744  0.54598  0.05968  1.0000
  Fe  Fe217     1.0  0.83990  0.50526  0.02343  1.0000
  S   S424      1.0  0.84563  0.49655  0.99221  1.0000
  Fe  Fe218     1.0  0.84097  0.48824  0.06648  1.0000
  S   S425      1.0  0.84623  0.45890  0.08537  1.0000
  S   S426      1.0  0.82881  0.53629  0.03112  1.0000
  S   S427      1.0  0.82990  0.51742  0.07788  1.0000
  S   S428      1.0  0.95649  0.61839  0.08252  1.0000
  C   C1498     1.0  0.60347  0.49818  0.13798  1.0000
  C   C1499     1.0  0.76469  0.47357  0.00053  1.0000
  S   S429      1.0  0.95783  0.61887  0.13776  1.0000
  C   C1500     1.0  0.88402  0.57008  0.06102  1.0000
  C   C1501     1.0  0.90259  0.57140  0.06718  1.0000
  C   C1502     1.0  0.90892  0.59003  0.06780  1.0000
  C   C1503     1.0  0.89682  0.60774  0.06207  1.0000
  C   C1504     1.0  0.87821  0.60642  0.05604  1.0000
  C   C1505     1.0  0.87179  0.58777  0.05562  1.0000
  H   H1794     1.0  0.91224  0.55788  0.07135  1.0000
  H   H1795     1.0  0.92323  0.59067  0.07249  1.0000
  H   H1796     1.0  0.86870  0.61995  0.05158  1.0000
  H   H1797     1.0  0.85750  0.58712  0.05084  1.0000
  H   H1798     1.0  0.93544  0.34250  0.06072  1.0000
  C   C1506     1.0  0.82985  0.46097  0.00353  1.0000
  Fe  Fe219     1.0  0.95585  0.63628  0.10745  1.0000
  C   C1507     1.0  0.93979  0.49694  0.14996  1.0000
  H   H1799     1.0  0.82911  0.46384  0.01865  1.0000
  H   H1800     1.0  0.88609  0.33711  0.09407  1.0000
  C   C1508     1.0  0.84689  0.34558  0.98831  1.0000
  H   H1801     1.0  0.89064  0.36237  0.08809  1.0000
  H   H1802     1.0  0.90054  0.35780  0.05228  1.0000
  H   H1803     1.0  0.84149  0.35643  0.99847  1.0000
  H   H1804     1.0  0.77153  0.40665  0.98961  1.0000
  C   C1509     1.0  0.85836  0.46204  0.10511  1.0000
  C   C1510     1.0  0.86438  0.48048  0.10602  1.0000
  C   C1511     1.0  0.87501  0.48279  0.12126  1.0000
  C   C1512     1.0  0.88031  0.46643  0.13506  1.0000
  C   C1513     1.0  0.87440  0.44795  0.13413  1.0000
  C   C1514     1.0  0.86305  0.44585  0.11934  1.0000
  H   H1805     1.0  0.86137  0.49287  0.09472  1.0000
  H   H1806     1.0  0.87970  0.49706  0.12191  1.0000
  H   H1807     1.0  0.87842  0.43533  0.14492  1.0000
  H   H1808     1.0  0.85831  0.43159  0.11871  1.0000
  C   C1515     1.0  0.93288  0.36421  0.10332  1.0000
  H   H1809     1.0  0.51140  0.63919  0.17389  1.0000
  C   C1516     1.0  0.92841  0.34777  0.11717  1.0000
  H   H1810     1.0  0.61248  0.58051  0.04457  1.0000
  H   H1811     1.0  0.92658  0.34902  0.13290  1.0000
  C   C1517     1.0  0.86018  0.38990  0.07189  1.0000
  H   H1812     1.0  0.77098  0.49537  0.03048  1.0000
  C   C1518     1.0  0.92995  0.56467  0.01659  1.0000
  H   H1813     1.0  0.74767  0.50577  0.02099  1.0000
  Fe  Fe220     1.0  0.52212  0.64237  0.10209  1.0000
  C   C1519     1.0  0.73210  0.48113  0.08667  1.0000
  C   C1520     1.0  0.72469  0.50142  0.08464  1.0000
  C   C1521     1.0  0.73780  0.51580  0.07750  1.0000
  C   C1522     1.0  0.75834  0.51007  0.07209  1.0000
  C   C1523     1.0  0.76553  0.48976  0.07354  1.0000
  C   C1524     1.0  0.75257  0.47544  0.08103  1.0000
  H   H1814     1.0  0.70896  0.50603  0.08901  1.0000
  H   H1815     1.0  0.73200  0.53146  0.07638  1.0000
  H   H1816     1.0  0.78110  0.48494  0.06910  1.0000
  H   H1817     1.0  0.75843  0.45980  0.08246  1.0000
  C   C1525     1.0  0.64316  0.41766  0.04773  1.0000
  C   C1526     1.0  0.64514  0.40157  0.06280  1.0000
  C   C1527     1.0  0.64372  0.38216  0.05903  1.0000
  C   C1528     1.0  0.64039  0.37857  0.04017  1.0000
  C   C1529     1.0  0.63855  0.39463  0.02507  1.0000
  C   C1530     1.0  0.63996  0.41403  0.02884  1.0000
  H   H1818     1.0  0.64759  0.40412  0.07740  1.0000
  H   H1819     1.0  0.64518  0.36987  0.07084  1.0000
  H   H1820     1.0  0.63581  0.39218  0.01054  1.0000
  H   H1821     1.0  0.63833  0.42636  0.01710  1.0000
  C   C1531     1.0  0.60841  0.53961  0.09108  1.0000
  C   C1532     1.0  0.59316  0.52934  0.08785  1.0000
  C   C1533     1.0  0.57417  0.53970  0.08500  1.0000
  C   C1534     1.0  0.57004  0.56026  0.08596  1.0000
  C   C1535     1.0  0.58490  0.57030  0.09044  1.0000
  C   C1536     1.0  0.60407  0.56004  0.09276  1.0000
  H   H1822     1.0  0.59604  0.51357  0.08690  1.0000
  H   H1823     1.0  0.56276  0.53188  0.08143  1.0000
  H   H1824     1.0  0.58197  0.58618  0.09094  1.0000
  H   H1825     1.0  0.61576  0.56812  0.09527  1.0000
  H   H1826     1.0  0.89747  0.33217  0.06061  1.0000
  C   C1537     1.0  0.61931  0.43897  0.21417  1.0000
  C   C1538     1.0  0.61474  0.44429  0.19452  1.0000
  C   C1539     1.0  0.62988  0.44338  0.17819  1.0000
  C   C1540     1.0  0.64969  0.43722  0.18168  1.0000
  C   C1541     1.0  0.65418  0.43146  0.20130  1.0000
  H   H1827     1.0  0.58731  0.52050  0.03067  1.0000
  H   H1828     1.0  0.59935  0.44885  0.19197  1.0000
  H   H1829     1.0  0.66146  0.43631  0.16926  1.0000
  H   H1830     1.0  0.51703  0.57929  0.20541  1.0000
  H   H1831     1.0  0.59207  0.55291  0.13785  1.0000
  N   N102      1.0  0.90895  0.43277  0.06972  1.0000
  C   C1542     1.0  0.89845  0.42084  0.08686  1.0000
  C   C1543     1.0  0.93076  0.42596  0.06858  1.0000
  C   C1544     1.0  0.90583  0.45378  0.07381  1.0000
  C   C1545     1.0  0.90143  0.43002  0.05123  1.0000
  C   C1546     1.0  0.89062  0.44575  0.03956  1.0000
  C   C1547     1.0  0.90423  0.41093  0.04474  1.0000
  C   C1548     1.0  0.88335  0.44253  0.02242  1.0000
  C   C1549     1.0  0.89700  0.40790  0.02751  1.0000
  C   C1550     1.0  0.88659  0.42368  0.01636  1.0000
  H   H1832     1.0  0.90191  0.40459  0.08604  1.0000
  H   H1833     1.0  0.90292  0.42317  0.10127  1.0000
  H   H1834     1.0  0.88196  0.42489  0.08762  1.0000
  H   H1835     1.0  0.93442  0.40975  0.06781  1.0000
  H   H1836     1.0  0.93688  0.42839  0.08212  1.0000
  H   H1837     1.0  0.93917  0.43389  0.05534  1.0000
  H   H1838     1.0  0.88970  0.45974  0.07565  1.0000
  H   H1839     1.0  0.91142  0.45531  0.08792  1.0000
  H   H1840     1.0  0.91370  0.46355  0.06164  1.0000
  H   H1841     1.0  0.88746  0.46070  0.04336  1.0000
  H   H1842     1.0  0.91193  0.39819  0.05307  1.0000
  H   H1843     1.0  0.87508  0.45477  0.01378  1.0000
  H   H1844     1.0  0.89932  0.39321  0.02281  1.0000
  H   H1845     1.0  0.88084  0.42130  0.00309  1.0000
  H   H1846     1.0  0.61837  0.48905  0.13772  1.0000
  C   C1551     1.0  0.84637  0.39504  0.03479  1.0000
  H   H1847     1.0  0.84103  0.39712  0.02035  1.0000
  H   H1848     1.0  0.93538  0.54892  0.01890  1.0000
  C   C1552     1.0  0.49472  0.59282  0.18663  1.0000
  H   H1849     1.0  0.93531  0.48174  0.15153  1.0000
  N   N103      1.0  0.87197  0.35321  0.06912  1.0000
  C   C1553     1.0  0.63904  0.43224  0.21764  1.0000
  H   H1850     1.0  0.79036  0.45832  0.19218  1.0000
  C   C1554     1.0  0.94059  0.63521  0.01067  1.0000
  C   C1555     1.0  0.93317  0.34391  0.07643  1.0000
  H   H1851     1.0  0.56466  0.55138  0.03366  1.0000
  H   H1852     1.0  0.85258  0.33713  0.05697  1.0000
  H   H1853     1.0  0.92821  0.63871  0.02272  1.0000
  H   H1854     1.0  0.92283  0.54242  0.11234  1.0000
  C   C1556     1.0  0.87901  0.35237  0.08878  1.0000
  C   C1557     1.0  0.88957  0.34688  0.05494  1.0000
  H   H1855     1.0  0.69327  0.34487  0.00789  1.0000
  N   N104      1.0  0.62768  0.51348  0.03348  1.0000
  C   C1558     1.0  0.81880  0.46770  0.17978  1.0000
  H   H1856     1.0  0.53074  0.52073  0.16046  1.0000
  C   C1559     1.0  0.94291  0.57882  0.01608  1.0000
  C   C1560     1.0  0.98478  0.46725  0.17246  1.0000
  H   H1857     1.0  0.84392  0.34289  0.08171  1.0000
  H   H1858     1.0  0.93907  0.37442  0.07197  1.0000
  H   H1859     1.0  0.81629  0.43393  0.01190  1.0000
  S   S430      1.0  0.86388  0.32332  0.01920  1.0000
  C   C1561     1.0  0.82283  0.44384  0.99970  1.0000
  C   C1562     1.0  0.58047  0.55102  0.03459  1.0000
  Fe  Fe221     1.0  0.93124  0.64098  0.07317  1.0000
  H   H1860     1.0  0.85646  0.36429  0.03364  1.0000
  N   N105      1.0  0.60069  0.51229  0.15281  1.0000
  C   C1563     1.0  0.62064  0.54992  0.03931  1.0000
  C   C1564     1.0  0.61414  0.53236  0.03510  1.0000
  N   N106      1.0  0.94284  0.50581  0.12879  1.0000
  C   C1565     1.0  0.73152  0.38446  0.98430  1.0000
  H   H1861     1.0  0.55451  0.52630  0.22501  1.0000
  C   C1566     1.0  0.85882  0.32800  0.99451  1.0000
  C   C1567     1.0  0.79518  0.51153  0.00045  1.0000
  H   H1862     1.0  0.65115  0.51937  0.04895  1.0000
  C   C1568     1.0  0.62146  0.49828  0.05007  1.0000
  H   H1863     1.0  0.65884  0.50106  0.03253  1.0000
  C   C1569     1.0  0.95717  0.61099  0.03374  1.0000
  C   C1570     1.0  0.92864  0.32749  0.09028  1.0000
  H   H1864     1.0  0.79596  0.52430  0.00851  1.0000
  C   C1571     1.0  0.59357  0.53341  0.03301  1.0000
  H   H1865     1.0  0.90846  0.62046  0.01095  1.0000
  C   C1572     1.0  0.64899  0.51536  0.03429  1.0000
  H   H1866     1.0  0.97476  0.62761  0.20031  1.0000
  H   H1867     1.0  0.88676  0.59544  0.01146  1.0000
  N   N107      1.0  0.77428  0.50834  0.99968  1.0000
  C   C1573     1.0  0.85526  0.37631  0.04254  1.0000
  C   C1574     1.0  0.84437  0.41111  0.04552  1.0000
  H   H1868     1.0  0.83761  0.42567  0.03947  1.0000
  C   C1575     1.0  0.83779  0.47422  0.98783  1.0000
  H   H1869     1.0  0.63093  0.48368  0.04910  1.0000
  C   C1576     1.0  0.95946  0.49335  0.11810  1.0000
  C   C1577     1.0  0.91535  0.60516  0.01193  1.0000
  H   H1870     1.0  0.91099  0.51296  0.12815  1.0000
  H   H1871     1.0  0.95356  0.49531  0.15723  1.0000
  H   H1872     1.0  0.95621  0.47776  0.11887  1.0000
  N   N108      1.0  0.79097  0.49264  0.12732  1.0000
  C   C1578     1.0  0.80201  0.48286  0.11033  1.0000
  C   C1579     1.0  0.76955  0.48993  0.12854  1.0000
  C   C1580     1.0  0.79225  0.51433  0.12302  1.0000
  C   C1581     1.0  0.80010  0.48424  0.14558  1.0000
  C   C1582     1.0  0.78943  0.47409  0.16256  1.0000
  C   C1583     1.0  0.82049  0.48579  0.14660  1.0000
  H   H1873     1.0  0.80123  0.46654  0.11269  1.0000
  H   H1874     1.0  0.79609  0.48918  0.09618  1.0000
  H   H1875     1.0  0.81808  0.48479  0.10788  1.0000
  H   H1876     1.0  0.76747  0.47389  0.13064  1.0000
  H   H1877     1.0  0.76321  0.49661  0.11460  1.0000
  H   H1878     1.0  0.76018  0.49730  0.14077  1.0000
  H   H1879     1.0  0.80795  0.51771  0.12007  1.0000
  H   H1880     1.0  0.78517  0.52120  0.10951  1.0000
  H   H1881     1.0  0.78463  0.52219  0.13570  1.0000
  H   H1882     1.0  0.77392  0.47210  0.16321  1.0000
  H   H1883     1.0  0.82964  0.49320  0.13428  1.0000
  N   N109      1.0  0.70281  0.37341  0.00889  1.0000
  H   H1884     1.0  0.94432  0.61212  0.04580  1.0000
  C   C1584     1.0  0.68712  0.38497  0.99745  1.0000
  C   C1585     1.0  0.75754  0.40032  0.99359  1.0000
  C   C1586     1.0  0.72140  0.38294  0.00399  1.0000
  C   C1587     1.0  0.77426  0.49007  0.99054  1.0000
  C   C1588     1.0  0.72999  0.39095  0.01827  1.0000
  H   H1885     1.0  0.80343  0.49809  0.00815  1.0000
  H   H1886     1.0  0.65201  0.37648  0.17795  1.0000
  C   C1589     1.0  0.69462  0.37203  0.03033  1.0000
  H   H1887     1.0  0.68984  0.38703  0.03517  1.0000
  H   H1888     1.0  0.95829  0.57340  0.01806  1.0000
  H   H1889     1.0  0.93268  0.57528  0.11058  1.0000
  H   H1890     1.0  0.68364  0.40051  0.00115  1.0000
  Fe  Fe222     1.0  0.97663  0.63970  0.06503  1.0000
  H   H1891     1.0  0.89964  0.55969  0.01576  1.0000
  H   H1892     1.0  0.66838  0.34819  0.19925  1.0000
  C   C1590     1.0  0.49654  0.52558  0.22937  1.0000
  C   C1591     1.0  0.90259  0.59087  0.01225  1.0000
  C   C1592     1.0  0.76371  0.50762  0.02031  1.0000
  H   H1893     1.0  0.72323  0.39088  0.03356  1.0000
  H   H1894     1.0  0.63748  0.49243  0.01237  1.0000
  H   H1895     1.0  0.92776  0.50613  0.15868  1.0000
  H   H1896     1.0  0.71052  0.35255  0.98716  1.0000
  C   C1593     1.0  0.60740  0.56746  0.04077  1.0000
  C   C1594     1.0  0.50735  0.53504  0.21203  1.0000
  H   H1897     1.0  0.54028  0.62925  0.22616  1.0000
  H   H1898     1.0  0.86513  0.38903  0.08627  1.0000
  H   H1899     1.0  0.81121  0.32484  0.99336  1.0000
  C   C1595     1.0  0.85753  0.33856  0.07135  1.0000
  C   C1596     1.0  0.50136  0.58472  0.20492  1.0000
  H   H1900     1.0  0.92115  0.48916  0.12114  1.0000
  C   C1597     1.0  0.95886  0.56511  0.12504  1.0000
  C   C1598     1.0  0.62666  0.50611  0.01440  1.0000
  H   H1901     1.0  0.75438  0.40513  0.02420  1.0000
  H   H1902     1.0  0.96704  0.62218  0.03501  1.0000
  H   H1903     1.0  0.61640  0.53535  0.15894  1.0000
  H   H1904     1.0  0.66947  0.42616  0.20384  1.0000
  H   H1905     1.0  0.65462  0.52676  0.02229  1.0000
  C   C1599     1.0  0.92437  0.50479  0.12008  1.0000
  C   C1600     1.0  0.82965  0.47756  0.16342  1.0000
  S   S431      1.0  0.51246  0.59341  0.16499  1.0000
  S   S432      1.0  0.90457  0.63177  0.06122  1.0000
  H   H1906     1.0  0.61658  0.49204  0.17429  1.0000
  H   H1907     1.0  0.60246  0.50616  0.12276  1.0000
  H   H1908     1.0  0.63240  0.51424  0.15032  1.0000
  H   H1909     1.0  0.53587  0.54288  0.19732  1.0000
  C   C1601     1.0  0.70668  0.35286  0.00347  1.0000
  H   H1910     1.0  0.59218  0.48756  0.14113  1.0000
  H   H1911     1.0  0.61967  0.53142  0.13305  1.0000
  C   C1602     1.0  0.61794  0.52394  0.14866  1.0000
  C   C1603     1.0  0.96521  0.52963  0.13525  1.0000
  H   H1912     1.0  0.84533  0.47873  0.16371  1.0000
  H   H1913     1.0  0.86427  0.32336  0.07717  1.0000
  H   H1914     1.0  0.84954  0.42113  0.07223  1.0000
  H   H1915     1.0  0.91107  0.43631  0.20946  1.0000
  C   C1604     1.0  0.60152  0.50068  0.17288  1.0000
  H   H1916     1.0  0.59109  0.48925  0.17618  1.0000
  H   H1917     1.0  0.50017  0.54277  0.19952  1.0000
  C   C1605     1.0  0.58740  0.56803  0.03834  1.0000
  H   H1918     1.0  0.60572  0.49557  0.05043  1.0000
  C   C1606     1.0  0.58108  0.52477  0.15166  1.0000
  C   C1607     1.0  0.57927  0.54522  0.14350  1.0000
  H   H1919     1.0  0.59804  0.51061  0.18472  1.0000
  C   C1608     1.0  0.79874  0.46601  0.17938  1.0000
  C   C1609     1.0  0.76445  0.52576  0.98755  1.0000
  N   N110      1.0  0.94991  0.61416  0.01405  1.0000
  C   C1610     1.0  0.52803  0.53523  0.21054  1.0000
  H   H1920     1.0  0.67295  0.37812  0.00073  1.0000
  H   H1921     1.0  0.57701  0.58142  0.04028  1.0000
  H   H1922     1.0  0.55940  0.57189  0.13542  1.0000
  H   H1923     1.0  0.97815  0.58359  0.15773  1.0000
  C   C1611     1.0  0.76491  0.45663  0.99131  1.0000
  H   H1924     1.0  0.88543  0.34512  0.04029  1.0000
  C   C1612     1.0  0.56301  0.51623  0.15760  1.0000
  C   C1613     1.0  0.56051  0.55638  0.14190  1.0000
  H   H1925     1.0  0.56320  0.50059  0.16307  1.0000
  C   C1614     1.0  0.93521  0.36208  0.08290  1.0000
  C   C1615     1.0  0.93602  0.59954  0.01373  1.0000
  H   H1926     1.0  0.80376  0.51462  0.98545  1.0000
  H   H1927     1.0  0.86646  0.35626  0.10048  1.0000
  H   H1928     1.0  0.96239  0.49957  0.10216  1.0000
  C   C1616     1.0  0.54434  0.52757  0.15599  1.0000
  C   C1617     1.0  0.54310  0.54761  0.14818  1.0000
  C   C1618     1.0  0.85122  0.40853  0.06399  1.0000
  C   C1619     1.0  0.74789  0.39935  0.01306  1.0000
  H   H1929     1.0  0.61173  0.50184  0.01360  1.0000
  H   H1930     1.0  0.97474  0.51745  0.14240  1.0000
  H   H1931     1.0  0.71926  0.34397  0.01077  1.0000
  H   H1932     1.0  0.96300  0.57995  0.12410  1.0000
  H   H1933     1.0  0.96242  0.61271  0.98351  1.0000
  H   H1934     1.0  0.62479  0.39980  0.19284  1.0000
  C   C1620     1.0  0.86248  0.37316  0.06134  1.0000
  C   C1621     1.0  0.92633  0.32959  0.11068  1.0000
  H   H1935     1.0  0.63005  0.51761  0.00153  1.0000
  H   H1936     1.0  0.63571  0.55039  0.04214  1.0000
  H   H1937     1.0  0.82601  0.46132  0.19277  1.0000
  H   H1938     1.0  0.62283  0.50292  0.06460  1.0000
  H   H1939     1.0  0.52865  0.55638  0.14668  1.0000
  H   H1940     1.0  0.93465  0.63866  0.99611  1.0000
  H   H1941     1.0  0.97664  0.59683  0.00118  1.0000
  H   H1942     1.0  0.54208  0.63362  0.19016  1.0000
  H   H1943     1.0  0.96603  0.59617  0.03683  1.0000
  S   S433      1.0  0.50073  0.59145  0.10998  1.0000
  H   H1944     1.0  0.92565  0.51083  0.10401  1.0000
  C   C1622     1.0  0.52760  0.63459  0.19923  1.0000
  C   C1623     1.0  0.93630  0.54333  0.11852  1.0000
  H   H1945     1.0  0.97366  0.49216  0.12454  1.0000
  C   C1624     1.0  0.94178  0.56241  0.11737  1.0000
  C   C1625     1.0  0.91481  0.43420  0.22447  1.0000
  H   H1946     1.0  0.70565  0.36349  0.03987  1.0000
  S   S434      1.0  0.93654  0.39860  0.21541  1.0000
  C   C1626     1.0  0.62546  0.38467  0.22271  1.0000
  C   C1627     1.0  0.65626  0.35825  0.20584  1.0000
  H   H1947     1.0  0.76375  0.53970  0.99433  1.0000
  C   C1628     1.0  0.52630  0.63202  0.22001  1.0000
  C   C1629     1.0  0.64706  0.37412  0.19380  1.0000
  H   H1948     1.0  0.76395  0.52160  0.02671  1.0000
  H   H1949     1.0  0.60750  0.43952  0.22658  1.0000
  C   C1630     1.0  0.63165  0.38722  0.20221  1.0000
  H   H1950     1.0  0.97766  0.62282  0.99784  1.0000
  H   H1951     1.0  0.68108  0.36419  0.03359  1.0000
  H   H1952     1.0  0.95150  0.64582  0.01065  1.0000
  S   S435      1.0  0.49281  0.63690  0.12064  1.0000
  C   C1631     1.0  0.98268  0.61278  0.14261  1.0000
  C   C1632     1.0  0.97053  0.54876  0.13400  1.0000
  C   C1633     1.0  0.96735  0.61147  0.99846  1.0000
  C   C1634     1.0  0.51032  0.63783  0.18999  1.0000
  H   H1953     1.0  0.75714  0.47325  0.01556  1.0000
  S   S436      1.0  0.66198  0.31874  0.99820  1.0000
  H   H1954     1.0  0.75779  0.44411  0.99924  1.0000
  H   H1955     1.0  0.92292  0.31702  0.12159  1.0000
  H   H1956     1.0  0.98376  0.55096  0.14005  1.0000
  H   H1957     1.0  0.97080  0.55997  0.20307  1.0000
  H   H1958     1.0  0.97804  0.59393  0.19445  1.0000
  C   C1635     1.0  0.49165  0.63853  0.20146  1.0000
  H   H1959     1.0  0.74889  0.52362  0.98607  1.0000
  H   H1960     1.0  0.97462  0.45672  0.17894  1.0000
  C   C1636     1.0  0.98331  0.58575  0.20778  1.0000
  H   H1961     1.0  0.60889  0.32320  0.04600  1.0000
  H   H1962     1.0  0.98062  0.48213  0.19857  1.0000
  C   C1637     1.0  0.49016  0.63569  0.22222  1.0000
  H   H1963     1.0  0.61385  0.39578  0.22819  1.0000
  C   C1638     1.0  0.97887  0.56619  0.21267  1.0000
  C   C1639     1.0  0.65018  0.35554  0.22637  1.0000
  C   C1640     1.0  0.98530  0.55441  0.22948  1.0000
  H   H1964     1.0  0.69161  0.38579  0.98112  1.0000
  C   C1641     1.0  0.98841  0.48155  0.18369  1.0000
  H   H1965     1.0  0.63045  0.31661  0.07375  1.0000
  C   C1642     1.0  0.82406  0.43949  0.98017  1.0000
  C   C1643     1.0  0.98875  0.59419  0.15298  1.0000
  Fe  Fe223     1.0  0.68928  0.54875  0.39126  1.0000
  S   S437      1.0  0.71353  0.54293  0.36580  1.0000
  S   S438      1.0  0.67475  0.57876  0.40016  1.0000
  Fe  Fe224     1.0  0.68698  0.50456  0.40504  1.0000
  S   S439      1.0  0.71050  0.49507  0.38060  1.0000
  S   S440      1.0  0.66976  0.48195  0.42524  1.0000
  Fe  Fe225     1.0  0.72739  0.51850  0.38742  1.0000
  S   S441      1.0  0.75962  0.50784  0.39321  1.0000
  Fe  Fe226     1.0  0.69490  0.51988  0.36110  1.0000
  S   S442      1.0  0.68658  0.51582  0.33159  1.0000
  S   S443      1.0  0.70463  0.52629  0.41355  1.0000
  S   S444      1.0  0.66988  0.52744  0.38485  1.0000
  H   H1966     1.0  0.52241  0.62562  0.27904  1.0000
  S   S445      1.0  0.54574  0.63347  0.39244  1.0000
  H   H1967     1.0  0.75961  0.44276  0.39687  1.0000
  C   C1644     1.0  0.69089  0.47948  0.45710  1.0000
  S   S446      1.0  0.59849  0.62393  0.36140  1.0000
  Fe  Fe227     1.0  0.62572  0.42840  0.27103  1.0000
  S   S447      1.0  0.59241  0.42826  0.27843  1.0000
  H   H1968     1.0  0.61310  0.56338  0.40091  1.0000
  Fe  Fe228     1.0  0.63044  0.43434  0.31348  1.0000
  S   S448      1.0  0.59770  0.43487  0.32390  1.0000
  S   S449      1.0  0.64892  0.43593  0.33759  1.0000
  Fe  Fe229     1.0  0.59996  0.40889  0.30688  1.0000
  S   S450      1.0  0.58593  0.38114  0.32094  1.0000
  Fe  Fe230     1.0  0.59350  0.45407  0.29494  1.0000
  S   S451      1.0  0.57651  0.48506  0.29338  1.0000
  S   S452      1.0  0.63304  0.40720  0.29827  1.0000
  S   S453      1.0  0.62638  0.45541  0.28574  1.0000
  H   H1969     1.0  0.97297  0.50477  0.29268  1.0000
  H   H1970     1.0  0.62794  0.37133  0.42344  1.0000
  N   N111      1.0  0.50547  0.62874  0.25417  1.0000
  S   S454      1.0  0.95988  0.57788  0.37090  1.0000
  H   H1971     1.0  0.90396  0.37851  0.33235  1.0000
  S   S455      1.0  0.92296  0.35556  0.42353  1.0000
  Fe  Fe231     1.0  0.86810  0.49455  0.33333  1.0000
  S   S456      1.0  0.88761  0.48631  0.35781  1.0000
  S   S457      1.0  0.83975  0.51673  0.33312  1.0000
  Fe  Fe232     1.0  0.89668  0.46859  0.30488  1.0000
  S   S458      1.0  0.91792  0.45796  0.32745  1.0000
  S   S459      1.0  0.89965  0.46433  0.27222  1.0000
  Fe  Fe233     1.0  0.89011  0.45511  0.34972  1.0000
  S   S460      1.0  0.87920  0.42913  0.37121  1.0000
  Fe  Fe234     1.0  0.91372  0.49001  0.33359  1.0000
  S   S461      1.0  0.94128  0.50629  0.32930  1.0000
  S   S462      1.0  0.86917  0.46358  0.32641  1.0000
  S   S463      1.0  0.89394  0.50054  0.30979  1.0000
  C   C1645     1.0  0.91086  0.37621  0.40917  1.0000
  C   C1646     1.0  0.89001  0.38005  0.41101  1.0000
  C   C1647     1.0  0.88068  0.39641  0.39932  1.0000
  C   C1648     1.0  0.89205  0.40923  0.38583  1.0000
  C   C1649     1.0  0.91294  0.40550  0.38402  1.0000
  C   C1650     1.0  0.92231  0.38898  0.39563  1.0000
  H   H1972     1.0  0.88103  0.37030  0.42132  1.0000
  H   H1973     1.0  0.86451  0.39916  0.40076  1.0000
  H   H1974     1.0  0.92185  0.41523  0.37363  1.0000
  H   H1975     1.0  0.93846  0.38606  0.39408  1.0000
  C   C1651     1.0  0.95539  0.55746  0.35964  1.0000
  C   C1652     1.0  0.93886  0.54733  0.36760  1.0000
  C   C1653     1.0  0.93426  0.53168  0.35850  1.0000
  C   C1654     1.0  0.94622  0.52593  0.34138  1.0000
  C   C1655     1.0  0.96285  0.53592  0.33355  1.0000
  C   C1656     1.0  0.96739  0.55161  0.34257  1.0000
  H   H1976     1.0  0.92949  0.55173  0.38080  1.0000
  H   H1977     1.0  0.92168  0.52390  0.36490  1.0000
  H   H1978     1.0  0.97227  0.53155  0.32037  1.0000
  C   C1657     1.0  0.94722  0.50048  0.24691  1.0000
  C   C1658     1.0  0.94521  0.48957  0.28191  1.0000
  H   H1979     1.0  0.88007  0.41477  0.24978  1.0000
  H   H1980     1.0  0.50832  0.59705  0.25466  1.0000
  C   C1659     1.0  0.91075  0.44576  0.25706  1.0000
  C   C1660     1.0  0.92320  0.42874  0.26392  1.0000
  C   C1661     1.0  0.93122  0.41438  0.25106  1.0000
  H   H1981     1.0  0.66378  0.62800  0.36065  1.0000
  H   H1982     1.0  0.62942  0.54234  0.46549  1.0000
  H   H1983     1.0  0.92656  0.42656  0.27905  1.0000
  H   H1984     1.0  0.94059  0.40111  0.25647  1.0000
  H   H1985     1.0  0.94502  0.40429  0.45365  1.0000
  C   C1662     1.0  0.59776  0.36339  0.33862  1.0000
  C   C1663     1.0  0.61852  0.36088  0.33846  1.0000
  C   C1664     1.0  0.62760  0.34667  0.35257  1.0000
  H   H1986     1.0  0.62762  0.36980  0.32741  1.0000
  H   H1987     1.0  0.64367  0.34490  0.35234  1.0000
  C   C1665     1.0  0.52048  0.51422  0.29966  1.0000
  C   C1666     1.0  0.54132  0.50943  0.29789  1.0000
  C   C1667     1.0  0.55023  0.48989  0.29612  1.0000
  C   C1668     1.0  0.53816  0.47507  0.29608  1.0000
  C   C1669     1.0  0.51721  0.47995  0.29756  1.0000
  H   H1988     1.0  0.50789  0.46854  0.29730  1.0000
  H   H1989     1.0  0.55056  0.52099  0.29780  1.0000
  H   H1990     1.0  0.54495  0.45995  0.29469  1.0000
  H   H1991     1.0  0.78061  0.32520  0.44814  1.0000
  C   C1670     1.0  0.63465  0.36874  0.23549  1.0000
  H   H1992     1.0  0.98011  0.55928  0.33625  1.0000
  C   C1671     1.0  0.77583  0.43041  0.43314  1.0000
  H   H1993     1.0  0.93093  0.48359  0.28174  1.0000
  C   C1672     1.0  0.52535  0.62892  0.34242  1.0000
  H   H1994     1.0  0.86115  0.41613  0.33879  1.0000
  H   H1995     1.0  0.49610  0.60597  0.27720  1.0000
  H   H1996     1.0  0.93237  0.49533  0.24718  1.0000
  C   C1673     1.0  0.68124  0.44140  0.47288  1.0000
  Fe  Fe235     1.0  0.57353  0.64499  0.37601  1.0000
  C   C1674     1.0  0.78140  0.50967  0.37562  1.0000
  C   C1675     1.0  0.79948  0.49818  0.38002  1.0000
  C   C1676     1.0  0.81732  0.49970  0.36685  1.0000
  C   C1677     1.0  0.81734  0.51307  0.34930  1.0000
  C   C1678     1.0  0.79928  0.52456  0.34490  1.0000
  C   C1679     1.0  0.78134  0.52272  0.35787  1.0000
  H   H1997     1.0  0.79973  0.48815  0.39377  1.0000
  H   H1998     1.0  0.83112  0.49084  0.37047  1.0000
  H   H1999     1.0  0.79914  0.53496  0.33138  1.0000
  H   H2000     1.0  0.76757  0.53170  0.35433  1.0000
  C   C1680     1.0  0.67652  0.49343  0.33308  1.0000
  C   C1681     1.0  0.67195  0.48728  0.31587  1.0000
  C   C1682     1.0  0.66355  0.46954  0.31706  1.0000
  C   C1683     1.0  0.65981  0.45791  0.33547  1.0000
  C   C1684     1.0  0.66444  0.46405  0.35264  1.0000
  C   C1685     1.0  0.67260  0.48185  0.35148  1.0000
  H   H2001     1.0  0.67500  0.49619  0.30160  1.0000
  H   H2002     1.0  0.66027  0.46475  0.30371  1.0000
  H   H2003     1.0  0.66152  0.45515  0.36692  1.0000
  H   H2004     1.0  0.67576  0.48663  0.36487  1.0000
  C   C1686     1.0  0.65313  0.59066  0.38972  1.0000
  C   C1687     1.0  0.63991  0.60481  0.39972  1.0000
  C   C1688     1.0  0.62280  0.61477  0.39152  1.0000
  C   C1689     1.0  0.61909  0.61102  0.37297  1.0000
  C   C1690     1.0  0.63235  0.59691  0.36299  1.0000
  C   C1691     1.0  0.64909  0.58653  0.37147  1.0000
  H   H2005     1.0  0.64289  0.60803  0.41389  1.0000
  H   H2006     1.0  0.61266  0.62552  0.39942  1.0000
  H   H2007     1.0  0.62980  0.59414  0.34850  1.0000
  H   H2008     1.0  0.65925  0.57578  0.36355  1.0000
  H   H2009     1.0  0.95909  0.34260  0.47456  1.0000
  H   H2010     1.0  0.62306  0.36256  0.39402  1.0000
  C   C1692     1.0  0.49319  0.61843  0.32691  1.0000
  N   N112      1.0  0.87390  0.55644  0.34757  1.0000
  C   C1693     1.0  0.85398  0.56679  0.34331  1.0000
  C   C1694     1.0  0.88356  0.54724  0.32965  1.0000
  C   C1695     1.0  0.87103  0.54006  0.36412  1.0000
  C   C1696     1.0  0.88567  0.57072  0.35328  1.0000
  C   C1697     1.0  0.87880  0.58026  0.37052  1.0000
  C   C1698     1.0  0.90405  0.57560  0.34216  1.0000
  C   C1699     1.0  0.88989  0.59339  0.37654  1.0000
  C   C1700     1.0  0.91486  0.58897  0.34819  1.0000
  C   C1701     1.0  0.90796  0.59762  0.36546  1.0000
  H   H2011     1.0  0.85547  0.57954  0.33130  1.0000
  H   H2012     1.0  0.84489  0.55659  0.33839  1.0000
  H   H2013     1.0  0.84495  0.57257  0.35658  1.0000
  H   H2014     1.0  0.87424  0.53675  0.32570  1.0000
  H   H2015     1.0  0.89836  0.53851  0.33209  1.0000
  H   H2016     1.0  0.88554  0.55858  0.31635  1.0000
  H   H2017     1.0  0.86200  0.54530  0.37765  1.0000
  H   H2018     1.0  0.86290  0.52863  0.35999  1.0000
  H   H2019     1.0  0.88565  0.53242  0.36835  1.0000
  H   H2020     1.0  0.86490  0.57741  0.37962  1.0000
  H   H2021     1.0  0.91081  0.56887  0.32909  1.0000
  H   H2022     1.0  0.88464  0.60011  0.39003  1.0000
  H   H2023     1.0  0.92922  0.59193  0.33995  1.0000
  H   H2024     1.0  0.91694  0.60726  0.37044  1.0000
  C   C1702     1.0  0.64372  0.54815  0.42744  1.0000
  C   C1703     1.0  0.59531  0.33724  0.36720  1.0000
  C   C1704     1.0  0.50618  0.63917  0.34649  1.0000
  C   C1705     1.0  0.52591  0.64569  0.46520  1.0000
  C   C1706     1.0  0.49785  0.60941  0.26076  1.0000
  H   H2025     1.0  0.63499  0.33373  0.26122  1.0000
  H   H2026     1.0  0.61647  0.39609  0.26067  1.0000
  H   H2027     1.0  0.78383  0.40191  0.47709  1.0000
  C   C1707     1.0  0.62110  0.52544  0.42385  1.0000
  N   N113      1.0  0.95842  0.48873  0.26267  1.0000
  C   C1708     1.0  0.75579  0.43928  0.43804  1.0000
  H   H2028     1.0  0.60834  0.37833  0.28091  1.0000
  C   C1709     1.0  0.64230  0.38864  0.36891  1.0000
  H   H2029     1.0  0.65196  0.38237  0.26228  1.0000
  H   H2030     1.0  0.85200  0.40186  0.32282  1.0000
  C   C1710     1.0  0.77100  0.33903  0.44524  1.0000
  C   C1711     1.0  0.92704  0.41705  0.23125  1.0000
  C   C1712     1.0  0.50834  0.49957  0.29930  1.0000
  C   C1713     1.0  0.62548  0.53180  0.45624  1.0000
  H   H2031     1.0  0.53779  0.63283  0.34848  1.0000
  H   H2032     1.0  0.87809  0.37383  0.33509  1.0000
  C   C1714     1.0  0.74648  0.43390  0.45768  1.0000
  N   N114      1.0  0.62657  0.39371  0.38542  1.0000
  C   C1715     1.0  0.61344  0.41189  0.37834  1.0000
  C   C1716     1.0  0.63617  0.39726  0.40236  1.0000
  C   C1717     1.0  0.64719  0.41365  0.40053  1.0000
  C   C1718     1.0  0.63547  0.38447  0.42076  1.0000
  C   C1719     1.0  0.65654  0.41725  0.41625  1.0000
  C   C1720     1.0  0.64487  0.38824  0.43637  1.0000
  C   C1721     1.0  0.65540  0.40453  0.43413  1.0000
  H   H2033     1.0  0.65254  0.40019  0.36444  1.0000
  H   H2034     1.0  0.62195  0.42448  0.37194  1.0000
  H   H2035     1.0  0.60213  0.41689  0.39064  1.0000
  H   H2036     1.0  0.64890  0.42367  0.38679  1.0000
  H   H2037     1.0  0.66480  0.42992  0.41450  1.0000
  H   H2038     1.0  0.64423  0.37829  0.45027  1.0000
  H   H2039     1.0  0.66286  0.40711  0.44626  1.0000
  N   N115      1.0  0.60456  0.51463  0.32899  1.0000
  C   C1722     1.0  0.60882  0.51572  0.30702  1.0000
  C   C1723     1.0  0.62367  0.50727  0.33722  1.0000
  C   C1724     1.0  0.59070  0.49957  0.33645  1.0000
  C   C1725     1.0  0.59529  0.53438  0.33442  1.0000
  C   C1726     1.0  0.57637  0.54288  0.32864  1.0000
  C   C1727     1.0  0.60466  0.54586  0.34514  1.0000
  C   C1728     1.0  0.56723  0.56147  0.33359  1.0000
  C   C1729     1.0  0.59533  0.56443  0.35006  1.0000
  C   C1730     1.0  0.57669  0.57221  0.34432  1.0000
  H   H2040     1.0  0.61904  0.52700  0.30074  1.0000
  H   H2041     1.0  0.61596  0.50113  0.30234  1.0000
  H   H2042     1.0  0.59497  0.51968  0.29973  1.0000
  H   H2043     1.0  0.63554  0.51691  0.33101  1.0000
  H   H2044     1.0  0.62976  0.49212  0.33345  1.0000
  H   H2045     1.0  0.62171  0.50611  0.35373  1.0000
  H   H2046     1.0  0.57664  0.50276  0.32950  1.0000
  H   H2047     1.0  0.59744  0.48445  0.33292  1.0000
  H   H2048     1.0  0.58654  0.49871  0.35284  1.0000
  H   H2049     1.0  0.56851  0.53526  0.32011  1.0000
  H   H2050     1.0  0.61927  0.54094  0.34975  1.0000
  H   H2051     1.0  0.55275  0.56762  0.32898  1.0000
  H   H2052     1.0  0.60264  0.57302  0.35822  1.0000
  H   H2053     1.0  0.56967  0.58670  0.34805  1.0000
  H   H2054     1.0  0.65799  0.34323  0.23513  1.0000
  H   H2055     1.0  0.60530  0.40934  0.36617  1.0000
  N   N116      1.0  0.94954  0.37389  0.46736  1.0000
  C   C1731     1.0  0.62265  0.34592  0.26396  1.0000
  C   C1732     1.0  0.75645  0.42048  0.47148  1.0000
  H   H2056     1.0  0.64262  0.36629  0.28379  1.0000
  Fe  Fe236     1.0  0.90398  0.33733  0.44750  1.0000
  H   H2057     1.0  0.95237  0.48056  0.29449  1.0000
  C   C1733     1.0  0.61607  0.33492  0.36715  1.0000
  C   C1734     1.0  0.52842  0.51652  0.24322  1.0000
  H   H2058     1.0  0.89720  0.46154  0.23179  1.0000
  C   C1735     1.0  0.74893  0.37641  0.43723  1.0000
  H   H2059     1.0  0.54331  0.60579  0.32718  1.0000
  H   H2060     1.0  0.91391  0.40960  0.31333  1.0000
  H   H2061     1.0  0.65166  0.37430  0.37313  1.0000
  H   H2062     1.0  0.59833  0.55997  0.46526  1.0000
  H   H2063     1.0  0.60207  0.37987  0.40300  1.0000
  H   H2064     1.0  0.60609  0.52049  0.42863  1.0000
  H   H2065     1.0  0.63575  0.38734  0.35532  1.0000
  H   H2066     1.0  0.92076  0.36921  0.46072  1.0000
  C   C1736     1.0  0.89235  0.38470  0.25898  1.0000
  C   C1737     1.0  0.64646  0.36765  0.26731  1.0000
  H   H2067     1.0  0.97041  0.46580  0.24390  1.0000
  C   C1738     1.0  0.61398  0.37724  0.39035  1.0000
  C   C1739     1.0  0.58624  0.35130  0.35287  1.0000
  C   C1740     1.0  0.50744  0.63254  0.23217  1.0000
  C   C1741     1.0  0.51232  0.60805  0.32298  1.0000
  H   H2068     1.0  0.65923  0.35600  0.26414  1.0000
  H   H2069     1.0  0.60626  0.37559  0.37759  1.0000
  H   H2070     1.0  0.56713  0.60467  0.42696  1.0000
  H   H2071     1.0  0.59845  0.38011  0.25791  1.0000
  C   C1742     1.0  0.97768  0.49647  0.26231  1.0000
  C   C1743     1.0  0.49109  0.64454  0.26307  1.0000
  N   N117      1.0  0.62420  0.54118  0.43540  1.0000
  H   H2072     1.0  0.64457  0.55370  0.41133  1.0000
  H   H2073     1.0  0.79616  0.35260  0.42895  1.0000
  H   H2074     1.0  0.87500  0.42460  0.28300  1.0000
  H   H2075     1.0  0.97489  0.35472  0.45457  1.0000
  C   C1744     1.0  0.66232  0.33481  0.45550  1.0000
  C   C1745     1.0  0.78571  0.41698  0.44711  1.0000
  H   H2076     1.0  0.61739  0.34379  0.28026  1.0000
  C   C1746     1.0  0.89458  0.37595  0.29424  1.0000
  H   H2077     1.0  0.53657  0.50937  0.25539  1.0000
  Fe  Fe237     1.0  0.86191  0.33073  0.46712  1.0000
  C   C1747     1.0  0.96224  0.46763  0.25894  1.0000
  H   H2078     1.0  0.63257  0.51209  0.42572  1.0000
  H   H2079     1.0  0.57018  0.35299  0.35301  1.0000
  N   N118      1.0  0.62900  0.36592  0.25736  1.0000
  C   C1748     1.0  0.89770  0.37078  0.27491  1.0000
  C   C1749     1.0  0.88068  0.40922  0.28150  1.0000
  C   C1750     1.0  0.88808  0.38547  0.33423  1.0000
  C   C1751     1.0  0.86331  0.41183  0.32346  1.0000
  H   H2080     1.0  0.89524  0.42984  0.30670  1.0000
  H   H2081     1.0  0.69254  0.64211  0.33994  1.0000
  H   H2082     1.0  0.62240  0.53045  0.40759  1.0000
  H   H2083     1.0  0.89938  0.36453  0.30581  1.0000
  C   C1752     1.0  0.89825  0.41634  0.31760  1.0000
  H   H2084     1.0  0.80103  0.41042  0.44314  1.0000
  H   H2085     1.0  0.51384  0.52930  0.30129  1.0000
  H   H2086     1.0  0.73145  0.44028  0.46270  1.0000
  H   H2087     1.0  0.58625  0.32830  0.37832  1.0000
  C   C1753     1.0  0.88601  0.39545  0.29811  1.0000
  S   S464      1.0  0.68118  0.36219  0.46822  1.0000
  H   H2088     1.0  0.71284  0.33367  0.45055  1.0000
  C   C1754     1.0  0.57830  0.59168  0.42872  1.0000
  C   C1755     1.0  0.50777  0.51628  0.24487  1.0000
  C   C1756     1.0  0.88365  0.40380  0.26231  1.0000
  C   C1757     1.0  0.79219  0.35895  0.47804  1.0000
  H   H2089     1.0  0.72365  0.36369  0.45312  1.0000
  C   C1758     1.0  0.59636  0.56609  0.45014  1.0000
  H   H2090     1.0  0.85965  0.42588  0.31358  1.0000
  H   H2091     1.0  0.89753  0.42141  0.33240  1.0000
  H   H2092     1.0  0.63241  0.64916  0.36845  1.0000
  H   H2093     1.0  0.50062  0.50883  0.25851  1.0000
  S   S465      1.0  0.51639  0.58834  0.30863  1.0000
  H   H2094     1.0  0.79286  0.36970  0.46481  1.0000
  H   H2095     1.0  0.66426  0.44430  0.44823  1.0000
  H   H2096     1.0  0.63742  0.51875  0.45702  1.0000
  C   C1759     1.0  0.67879  0.47030  0.44744  1.0000
  H   H2097     1.0  0.78430  0.43380  0.41871  1.0000
  H   H2098     1.0  0.96732  0.39005  0.44313  1.0000
  C   C1760     1.0  0.52845  0.61356  0.33044  1.0000
  H   H2099     1.0  0.61120  0.52623  0.46321  1.0000
  H   H2100     1.0  0.66324  0.34414  0.44128  1.0000
  H   H2101     1.0  0.64640  0.56066  0.43499  1.0000
  S   S466      1.0  0.83001  0.34443  0.46275  1.0000
  S   S467      1.0  0.62841  0.31856  0.38546  1.0000
  S   S468      1.0  0.54652  0.64211  0.44662  1.0000
  H   H2102     1.0  0.71714  0.45811  0.41128  1.0000
  C   C1761     1.0  0.95151  0.38927  0.44973  1.0000
  C   C1762     1.0  0.77606  0.41210  0.46625  1.0000
  H   H2103     1.0  0.69468  0.49416  0.45108  1.0000
  H   H2104     1.0  0.73222  0.48486  0.42171  1.0000
  H   H2105     1.0  0.71533  0.44674  0.43628  1.0000
  H   H2106     1.0  0.49328  0.57695  0.23642  1.0000
  H   H2107     1.0  0.57312  0.58872  0.46053  1.0000
  C   C1763     1.0  0.75611  0.45688  0.40357  1.0000
  C   C1764     1.0  0.67378  0.45137  0.45553  1.0000
  C   C1765     1.0  0.72552  0.44750  0.42206  1.0000
  H   H2108     1.0  0.73253  0.47279  0.44662  1.0000
  H   H2109     1.0  0.95124  0.34940  0.45036  1.0000
  C   C1766     1.0  0.74105  0.47352  0.43150  1.0000
  H   H2110     1.0  0.72772  0.43258  0.41697  1.0000
  H   H2111     1.0  0.97120  0.45835  0.27008  1.0000
  H   H2112     1.0  0.88561  0.39089  0.34910  1.0000
  H   H2113     1.0  0.90472  0.35601  0.27213  1.0000
  C   C1767     1.0  0.66248  0.64376  0.35500  1.0000
  C   C1768     1.0  0.95912  0.35435  0.46149  1.0000
  H   H2114     1.0  0.53145  0.64185  0.25764  1.0000
  N   N119      1.0  0.74495  0.45396  0.42392  1.0000
  H   H2115     1.0  0.75528  0.47942  0.43220  1.0000
  H   H2116     1.0  0.74736  0.46775  0.39330  1.0000
  C   C1769     1.0  0.78021  0.35477  0.43404  1.0000
  N   N120      1.0  0.88393  0.40196  0.31805  1.0000
  H   H2117     1.0  0.77021  0.46332  0.40347  1.0000
  C   C1770     1.0  0.61231  0.38076  0.26443  1.0000
  C   C1771     1.0  0.60429  0.56795  0.41431  1.0000
  S   S469      1.0  0.64525  0.42311  0.24186  1.0000
  H   H2118     1.0  0.58688  0.59161  0.39733  1.0000
  C   C1772     1.0  0.72438  0.32064  0.45338  1.0000
  C   C1773     1.0  0.58174  0.58262  0.44768  1.0000
  H   H2119     1.0  0.61011  0.34378  0.25611  1.0000
  S   S470      1.0  0.88256  0.35244  0.47032  1.0000
  C   C1774     1.0  0.60811  0.55820  0.43343  1.0000
  H   H2120     1.0  0.94449  0.51654  0.24885  1.0000
  Fe  Fe238     1.0  0.98787  0.59349  0.36229  1.0000
  C   C1775     1.0  0.67016  0.34015  0.47142  1.0000
  C   C1776     1.0  0.52461  0.62786  0.26242  1.0000
  C   C1777     1.0  0.92785  0.37259  0.47322  1.0000
  C   C1778     1.0  0.98285  0.50409  0.27884  1.0000
  H   H2121     1.0  0.94360  0.38617  0.43759  1.0000
  H   H2122     1.0  0.94100  0.50513  0.28539  1.0000
  C   C1779     1.0  0.58944  0.58428  0.41207  1.0000
  H   H2123     1.0  0.89547  0.38089  0.24391  1.0000
  C   C1780     1.0  0.69791  0.46973  0.47478  1.0000
  C   C1781     1.0  0.75026  0.34154  0.45269  1.0000
  H   H2124     1.0  0.95530  0.49924  0.23172  1.0000
  C   C1782     1.0  0.73950  0.36069  0.44816  1.0000
  H   H2125     1.0  0.65646  0.53607  0.42918  1.0000
  C   C1783     1.0  0.76924  0.37344  0.43015  1.0000
  H   H2126     1.0  0.77657  0.38565  0.42178  1.0000
  C   C1784     1.0  0.90680  0.44845  0.23726  1.0000
  H   H2127     1.0  0.94801  0.46116  0.25978  1.0000
  H   H2128     1.0  0.74040  0.39096  0.43433  1.0000
  N   N121      1.0  0.73990  0.32521  0.46447  1.0000
  H   H2129     1.0  0.67757  0.42667  0.47880  1.0000
  H   H2130     1.0  0.53554  0.61497  0.25811  1.0000
  H   H2131     1.0  0.49884  0.63492  0.40649  1.0000
  H   H2132     1.0  0.97949  0.62613  0.23712  1.0000
  H   H2133     1.0  0.49032  0.64262  0.27961  1.0000
  C   C1785     1.0  0.65307  0.31746  0.45796  1.0000
  C   C1786     1.0  0.49019  0.63416  0.33841  1.0000
  S   S471      1.0  0.48935  0.55995  0.27873  1.0000
  H   H2134     1.0  0.98218  0.53915  0.23291  1.0000
  S   S472      1.0  0.88271  0.31692  0.44253  1.0000
  H   H2135     1.0  0.91962  0.38691  0.47750  1.0000
  Fe  Fe239     1.0  0.56775  0.38230  0.64786  1.0000
  S   S473      1.0  0.54384  0.37113  0.63502  1.0000
  S   S474      1.0  0.59122  0.39988  0.62908  1.0000
  Fe  Fe240     1.0  0.55177  0.36646  0.69083  1.0000
  S   S475      1.0  0.52710  0.35333  0.68121  1.0000
  Fe  Fe241     1.0  0.55007  0.34357  0.65630  1.0000
  H   H2136     1.0  0.61789  0.31934  0.51186  1.0000
  Fe  Fe242     1.0  0.52269  0.38189  0.66063  1.0000
  C   C1787     1.0  0.49239  0.45294  0.65440  1.0000
  S   S476      1.0  0.57548  0.35390  0.66765  1.0000
  S   S477      1.0  0.54591  0.39592  0.67178  1.0000
  Fe  Fe243     1.0  0.68964  0.37064  0.49604  1.0000
  S   S478      1.0  0.67000  0.39335  0.51293  1.0000
  H   H2137     1.0  0.79540  0.35828  0.54295  1.0000
  Fe  Fe244     1.0  0.72313  0.36567  0.52207  1.0000
  S   S479      1.0  0.70608  0.38784  0.54168  1.0000
  S   S480      1.0  0.75266  0.34671  0.52757  1.0000
  Fe  Fe245     1.0  0.67856  0.37347  0.54043  1.0000
  S   S481      1.0  0.65589  0.35978  0.56468  1.0000
  Fe  Fe246     1.0  0.69871  0.40596  0.51268  1.0000
  S   S482      1.0  0.70326  0.43827  0.50417  1.0000
  S   S483      1.0  0.69644  0.34978  0.52321  1.0000
  S   S484      1.0  0.71765  0.38480  0.49346  1.0000
  H   H2138     1.0  0.70716  0.47694  0.48230  1.0000
  H   H2139     1.0  0.92514  0.36051  0.48572  1.0000
  H   H2140     1.0  0.72299  0.31913  0.49355  1.0000
  C   C1788     1.0  0.52922  0.63983  0.48500  1.0000
  C   C1789     1.0  0.78098  0.38638  0.53216  1.0000
  S   S485      1.0  0.89964  0.33655  0.52320  1.0000
  C   C1790     1.0  0.64692  0.34651  0.63728  1.0000
  C   C1791     1.0  0.61591  0.33502  0.51517  1.0000
  H   H2141     1.0  0.63199  0.32639  0.56055  1.0000
  H   H2142     1.0  0.82049  0.31951  0.50072  1.0000
  C   C1792     1.0  0.95972  0.34001  0.54480  1.0000
  C   C1793     1.0  0.94176  0.34264  0.55753  1.0000
  C   C1794     1.0  0.95956  0.37888  0.48339  1.0000
  C   C1795     1.0  0.92304  0.33681  0.53151  1.0000
  C   C1796     1.0  0.94108  0.33332  0.51913  1.0000
  C   C1797     1.0  0.95928  0.33514  0.52567  1.0000
  H   H2143     1.0  0.94186  0.34654  0.57224  1.0000
  N   N122      1.0  0.61348  0.33603  0.53693  1.0000
  H   H2144     1.0  0.97311  0.33309  0.51572  1.0000
  H   H2145     1.0  0.64732  0.37861  0.69625  1.0000
  H   H2146     1.0  0.62857  0.39819  0.70437  1.0000
  H   H2147     1.0  0.50502  0.38301  0.71669  1.0000
  H   H2148     1.0  0.49900  0.59725  0.56307  1.0000
  C   C1798     1.0  0.77481  0.35960  0.49198  1.0000
  H   H2149     1.0  0.85412  0.38614  0.53305  1.0000
  C   C1799     1.0  0.77394  0.34593  0.50928  1.0000
  C   C1800     1.0  0.50567  0.34877  0.60166  1.0000
  C   C1801     1.0  0.63699  0.33688  0.65443  1.0000
  H   H2150     1.0  0.51452  0.32149  0.66504  1.0000
  C   C1802     1.0  0.84706  0.36005  0.51041  1.0000
  H   H2151     1.0  0.76941  0.41567  0.51951  1.0000
  N   N123      1.0  0.83598  0.36357  0.53013  1.0000
  C   C1803     1.0  0.92349  0.34120  0.55083  1.0000
  H   H2152     1.0  0.63604  0.32108  0.65551  1.0000
  C   C1804     1.0  0.95960  0.38528  0.51772  1.0000
  H   H2153     1.0  0.71785  0.34385  0.48191  1.0000
  H   H2154     1.0  0.86294  0.36171  0.54372  1.0000
  C   C1805     1.0  0.79053  0.33152  0.51238  1.0000
  C   C1806     1.0  0.78274  0.40521  0.52171  1.0000
  H   H2155     1.0  0.60271  0.37745  0.71460  1.0000
  H   H2156     1.0  0.88634  0.38343  0.72755  1.0000
  S   S486      1.0  0.98222  0.33816  0.65826  1.0000
  C   C1807     1.0  0.59087  0.32802  0.56885  1.0000
  C   C1808     1.0  0.73004  0.33137  0.48377  1.0000
  Fe  Fe247     1.0  0.89567  0.32880  0.49290  1.0000
  H   H2157     1.0  0.94096  0.32940  0.50448  1.0000
  H   H2158     1.0  0.50188  0.33328  0.60423  1.0000
  H   H2159     1.0  0.51874  0.34841  0.60980  1.0000
  H   H2160     1.0  0.83305  0.40171  0.51054  1.0000
  S   S487      1.0  0.98278  0.34440  0.55127  1.0000
  H   H2161     1.0  0.78991  0.32081  0.52569  1.0000
  H   H2162     1.0  0.50855  0.38202  0.61591  1.0000
  H   H2163     1.0  0.57093  0.32040  0.59565  1.0000
  C   C1809     1.0  0.49804  0.43244  0.65394  1.0000
  C   C1810     1.0  0.97836  0.35161  0.69469  1.0000
  H   H2164     1.0  0.90962  0.34382  0.56057  1.0000
  C   C1811     1.0  0.80160  0.41049  0.51403  1.0000
  H   H2165     1.0  0.86028  0.34850  0.51178  1.0000
  H   H2166     1.0  0.51364  0.42670  0.65050  1.0000
  C   C1812     1.0  0.96709  0.38570  0.70120  1.0000
  C   C1813     1.0  0.97726  0.35703  0.67421  1.0000
  C   C1814     1.0  0.60857  0.38885  0.61060  1.0000
  C   C1815     1.0  0.60984  0.36863  0.60881  1.0000
  C   C1816     1.0  0.62448  0.36005  0.59471  1.0000
  C   C1817     1.0  0.63775  0.37161  0.58200  1.0000
  C   C1818     1.0  0.63630  0.39191  0.58356  1.0000
  C   C1819     1.0  0.62184  0.40045  0.59790  1.0000
  H   H2167     1.0  0.59987  0.35948  0.61862  1.0000
  H   H2168     1.0  0.62572  0.34428  0.59389  1.0000
  H   H2169     1.0  0.64642  0.40099  0.57388  1.0000
  H   H2170     1.0  0.62097  0.41611  0.59918  1.0000
  H   H2171     1.0  0.59583  0.40469  0.68954  1.0000
  H   H2172     1.0  0.60973  0.40658  0.66518  1.0000
  H   H2173     1.0  0.50044  0.43539  0.69280  1.0000
  C   C1820     1.0  0.80788  0.33080  0.49832  1.0000
  H   H2174     1.0  0.76221  0.37081  0.48942  1.0000
  H   H2175     1.0  0.85281  0.37360  0.50193  1.0000
  H   H2176     1.0  0.59211  0.38924  0.67186  1.0000
  C   C1821     1.0  0.81877  0.39695  0.51684  1.0000
  C   C1822     1.0  0.80876  0.34459  0.48108  1.0000
  H   H2177     1.0  0.82305  0.33619  0.53335  1.0000
  S   S488      1.0  0.55739  0.36780  0.72257  1.0000
  C   C1823     1.0  0.98006  0.38643  0.51409  1.0000
  C   C1824     1.0  0.61250  0.35726  0.53967  1.0000
  H   H2178     1.0  0.65497  0.37441  0.62192  1.0000
  H   H2179     1.0  0.84637  0.33367  0.54288  1.0000
  H   H2180     1.0  0.50370  0.46293  0.65136  1.0000
  H   H2181     1.0  0.96083  0.40641  0.67526  1.0000
  H   H2182     1.0  0.59881  0.36621  0.53449  1.0000
  H   H2183     1.0  0.92264  0.38013  0.72146  1.0000
  H   H2184     1.0  0.62073  0.35642  0.70949  1.0000
  H   H2185     1.0  0.82441  0.34526  0.55655  1.0000
  C   C1825     1.0  0.83217  0.34386  0.54125  1.0000
  H   H2186     1.0  0.60291  0.34344  0.50821  1.0000
  H   H2187     1.0  0.76624  0.38220  0.53789  1.0000
  C   C1826     1.0  0.81754  0.37761  0.52745  1.0000
  C   C1827     1.0  0.63478  0.38987  0.69157  1.0000
  C   C1828     1.0  0.60364  0.39588  0.67763  1.0000
  C   C1829     1.0  0.69325  0.45060  0.48264  1.0000
  H   H2188     1.0  0.61244  0.35928  0.55546  1.0000
  H   H2189     1.0  0.83741  0.35486  0.50105  1.0000
  C   C1830     1.0  0.79804  0.37270  0.53502  1.0000
  C   C1831     1.0  0.96582  0.39112  0.68078  1.0000
  H   H2190     1.0  0.67512  0.33177  0.50197  1.0000
  S   S489      1.0  0.96049  0.40421  0.71747  1.0000
  C   C1832     1.0  0.49029  0.43266  0.70694  1.0000
  C   C1833     1.0  0.63858  0.37772  0.65094  1.0000
  C   C1834     1.0  0.64776  0.36687  0.63557  1.0000
  H   H2191     1.0  0.58424  0.31829  0.52279  1.0000
  H   H2192     1.0  0.64126  0.40082  0.67962  1.0000
  H   H2193     1.0  0.96954  0.38123  0.65171  1.0000
  N   N124      1.0  0.61927  0.38020  0.68496  1.0000
  C   C1835     1.0  0.94939  0.38154  0.50269  1.0000
  H   H2194     1.0  0.59737  0.36098  0.69906  1.0000
  H   H2195     1.0  0.80290  0.42515  0.50584  1.0000
  C   C1836     1.0  0.51895  0.41612  0.72183  1.0000
  C   C1837     1.0  0.84905  0.37213  0.54120  1.0000
  C   C1838     1.0  0.62797  0.34753  0.67003  1.0000
  C   C1839     1.0  0.97087  0.37689  0.66734  1.0000
  H   H2196     1.0  0.65360  0.33832  0.62505  1.0000
  H   H2197     1.0  0.51068  0.35229  0.58547  1.0000
  H   H2198     1.0  0.93370  0.38015  0.50685  1.0000
  H   H2199     1.0  0.62037  0.33911  0.68275  1.0000
  H   H2200     1.0  0.62578  0.36397  0.53140  1.0000
  C   C1840     1.0  0.49786  0.39712  0.70893  1.0000
  H   H2201     1.0  0.52805  0.41975  0.70717  1.0000
  C   C1841     1.0  0.60972  0.36817  0.70274  1.0000
  H   H2202     1.0  0.97461  0.36144  0.72376  1.0000
  H   H2203     1.0  0.84113  0.37546  0.55598  1.0000
  H   H2204     1.0  0.62939  0.34161  0.50731  1.0000
  H   H2205     1.0  0.50195  0.38825  0.59128  1.0000
  S   S490      1.0  0.49026  0.39374  0.65822  1.0000
  C   C1842     1.0  0.66918  0.32783  0.48964  1.0000
  H   H2206     1.0  0.51652  0.63780  0.51575  1.0000
  H   H2207     1.0  0.63907  0.39359  0.64853  1.0000
  C   C1843     1.0  0.62851  0.36837  0.66875  1.0000
  H   H2208     1.0  0.91394  0.41110  0.72509  1.0000
  N   N125      1.0  0.49793  0.41438  0.71960  1.0000
  C   C1844     1.0  0.51356  0.64205  0.50052  1.0000
  C   C1845     1.0  0.49610  0.38290  0.60689  1.0000
  C   C1846     1.0  0.97352  0.36587  0.70810  1.0000
  H   H2209     1.0  0.95179  0.38645  0.53257  1.0000
  H   H2210     1.0  0.52171  0.34715  0.72934  1.0000
  H   H2211     1.0  0.54410  0.63376  0.48838  1.0000
  C   C1847     1.0  0.59544  0.32782  0.54795  1.0000
  C   C1848     1.0  0.57401  0.32027  0.57964  1.0000
  H   H2212     1.0  0.50614  0.39919  0.69369  1.0000
  H   H2213     1.0  0.74887  0.41677  0.48639  1.0000
  H   H2214     1.0  0.60037  0.33409  0.57705  1.0000
  H   H2215     1.0  0.64558  0.33030  0.53645  1.0000
  H   H2216     1.0  0.74095  0.33621  0.49202  1.0000
  H   H2217     1.0  0.49424  0.35621  0.63903  1.0000
  C   C1849     1.0  0.58203  0.31937  0.53855  1.0000
  H   H2218     1.0  0.98301  0.33623  0.70021  1.0000
  H   H2219     1.0  0.52696  0.40200  0.72864  1.0000
  C   C1850     1.0  0.63166  0.32481  0.54470  1.0000
  H   H2220     1.0  0.49062  0.62149  0.55074  1.0000
  H   H2221     1.0  0.48906  0.44617  0.71447  1.0000
  H   H2222     1.0  0.98799  0.38855  0.52606  1.0000
  C   C1851     1.0  0.98035  0.38055  0.48010  1.0000
  C   C1852     1.0  0.92373  0.37273  0.73690  1.0000
  H   H2223     1.0  0.66243  0.36154  0.93378  1.0000
  S   S491      1.0  0.59227  0.35630  0.95296  1.0000
  H   H2224     1.0  0.91835  0.36632  0.77771  1.0000
  S   S492      1.0  0.69663  0.33527  0.95191  1.0000
  H   H2225     1.0  0.84541  0.47989  0.95601  1.0000
  H   H2226     1.0  0.56124  0.36600  0.76404  1.0000
  H   H2227     1.0  0.54090  0.35310  0.79520  1.0000
  C   C1853     1.0  0.90193  0.39804  0.75489  1.0000
  C   C1854     1.0  0.90694  0.36267  0.76923  1.0000
  S   S493      1.0  0.51066  0.35299  0.85269  1.0000
  Fe  Fe248     1.0  0.82893  0.40881  0.90088  1.0000
  S   S494      1.0  0.84289  0.39448  0.92806  1.0000
  S   S495      1.0  0.84948  0.42424  0.87568  1.0000
  Fe  Fe249     1.0  0.78708  0.39791  0.91946  1.0000
  S   S496      1.0  0.79858  0.38224  0.94728  1.0000
  S   S497      1.0  0.75328  0.40216  0.91865  1.0000
  Fe  Fe250     1.0  0.81551  0.40826  0.94596  1.0000
  Fe  Fe251     1.0  0.66469  0.33546  0.96745  1.0000
  Fe  Fe252     1.0  0.82488  0.37000  0.92706  1.0000
  S   S498      1.0  0.84039  0.33883  0.93219  1.0000
  S   S499      1.0  0.80259  0.42498  0.91907  1.0000
  S   S500      1.0  0.81225  0.38330  0.89887  1.0000
  Fe  Fe253     1.0  0.96377  0.40042  0.75063  1.0000
  C   C1855     1.0  0.88281  0.35544  0.89732  1.0000
  N   N126      1.0  0.66313  0.35780  0.90319  1.0000
  Fe  Fe254     1.0  0.94395  0.39435  0.79459  1.0000
  S   S501      1.0  0.97118  0.40074  0.80641  1.0000
  S   S502      1.0  0.91671  0.38244  0.81404  1.0000
  Fe  Fe255     1.0  0.53313  0.33138  0.86912  1.0000
  H   H2228     1.0  0.64489  0.37980  0.88507  1.0000
  C   C1856     1.0  0.59849  0.34040  0.91722  1.0000
  H   H2229     1.0  0.83348  0.44919  0.94930  1.0000
  S   S503      1.0  0.94406  0.42075  0.77065  1.0000
  S   S504      1.0  0.96164  0.37351  0.77364  1.0000
  H   H2230     1.0  0.87896  0.35986  0.88196  1.0000
  H   H2231     1.0  0.88379  0.33893  0.90056  1.0000
  H   H2232     1.0  0.67467  0.33028  0.91990  1.0000
  C   C1857     1.0  0.53664  0.35180  0.78090  1.0000
  C   C1858     1.0  0.83917  0.46981  0.96826  1.0000
  C   C1859     1.0  0.86788  0.41251  0.85837  1.0000
  C   C1860     1.0  0.88311  0.42316  0.84771  1.0000
  C   C1861     1.0  0.89819  0.41425  0.83411  1.0000
  C   C1862     1.0  0.89811  0.39458  0.83088  1.0000
  C   C1863     1.0  0.88273  0.38402  0.84134  1.0000
  C   C1864     1.0  0.86773  0.39290  0.85500  1.0000
  H   H2233     1.0  0.88334  0.43838  0.85011  1.0000
  H   H2234     1.0  0.90986  0.42262  0.82616  1.0000
  H   H2235     1.0  0.88240  0.36886  0.83885  1.0000
  H   H2236     1.0  0.85591  0.38466  0.86281  1.0000
  C   C1865     1.0  0.70127  0.35492  0.89700  1.0000
  H   H2237     1.0  0.91206  0.39034  0.90160  1.0000
  H   H2238     1.0  0.89210  0.45380  0.76500  1.0000
  H   H2239     1.0  0.61409  0.33719  0.91930  1.0000
  C   C1866     1.0  0.89444  0.43846  0.76206  1.0000
  C   C1867     1.0  0.89920  0.34828  0.95607  1.0000
  S   S505      1.0  0.50367  0.33482  0.80185  1.0000
  C   C1868     1.0  0.71886  0.36375  0.89152  1.0000
  H   H2240     1.0  0.88590  0.38985  0.90992  1.0000
  C   C1869     1.0  0.71200  0.35452  0.94440  1.0000
  C   C1870     1.0  0.73282  0.34923  0.94073  1.0000
  C   C1871     1.0  0.74567  0.36375  0.93356  1.0000
  C   C1872     1.0  0.73779  0.38373  0.92954  1.0000
  C   C1873     1.0  0.71696  0.38911  0.93351  1.0000
  C   C1874     1.0  0.70412  0.37461  0.94110  1.0000
  C   C1875     1.0  0.89416  0.35656  0.93729  1.0000
  H   H2241     1.0  0.76164  0.35940  0.93054  1.0000
  H   H2242     1.0  0.71075  0.40455  0.93039  1.0000
  H   H2243     1.0  0.77514  0.44224  0.96509  1.0000
  C   C1876     1.0  0.58470  0.34900  0.93176  1.0000
  C   C1877     1.0  0.56440  0.35292  0.92892  1.0000
  C   C1878     1.0  0.55790  0.34834  0.91175  1.0000
  H   H2244     1.0  0.63590  0.35637  0.89105  1.0000
  H   H2245     1.0  0.94559  0.32492  0.94265  1.0000
  H   H2246     1.0  0.73172  0.39106  0.88269  1.0000
  H   H2247     1.0  0.55363  0.35967  0.94004  1.0000
  H   H2248     1.0  0.54223  0.35148  0.90977  1.0000
  S   S506      1.0  0.98014  0.45629  0.78224  1.0000
  C   C1879     1.0  0.54288  0.35756  0.74444  1.0000
  C   C1880     1.0  0.52590  0.34863  0.74360  1.0000
  C   C1881     1.0  0.51422  0.34160  0.76132  1.0000
  C   C1882     1.0  0.51956  0.34303  0.78007  1.0000
  H   H2249     1.0  0.64884  0.38183  0.91968  1.0000
  H   H2250     1.0  0.89259  0.36236  0.77929  1.0000
  C   C1883     1.0  0.89845  0.38452  0.89888  1.0000
  H   H2251     1.0  0.79218  0.47022  0.94713  1.0000
  H   H2252     1.0  0.88862  0.35052  0.96924  1.0000
  H   H2253     1.0  0.65152  0.32953  0.91119  1.0000
  H   H2254     1.0  0.50643  0.38617  0.75119  1.0000
  H   H2255     1.0  0.50107  0.33481  0.76048  1.0000
  C   C1884     1.0  0.83242  0.45244  0.96442  1.0000
  H   H2256     1.0  0.88209  0.42718  0.79159  1.0000
  H   H2257     1.0  0.93769  0.33918  0.90972  1.0000
  H   H2258     1.0  0.87952  0.36503  0.93664  1.0000
  C   C1885     1.0  0.92642  0.34215  0.92212  1.0000
  H   H2259     1.0  0.93127  0.36302  0.88351  1.0000
  C   C1886     1.0  0.89219  0.40360  0.77346  1.0000
  H   H2260     1.0  0.70317  0.33908  0.90170  1.0000
  Fe  Fe256     1.0  0.97260  0.42554  0.78104  1.0000
  C   C1887     1.0  0.77457  0.45557  0.97204  1.0000
  S   S507      1.0  0.64206  0.36132  0.97558  1.0000
  C   C1888     1.0  0.91690  0.35733  0.88300  1.0000
  H   H2261     1.0  0.67394  0.32898  0.89384  1.0000
  C   C1889     1.0  0.88882  0.42347  0.77700  1.0000
  H   H2262     1.0  0.89465  0.39178  0.88403  1.0000
  C   C1890     1.0  0.93124  0.33386  0.94101  1.0000
  C   C1891     1.0  0.66603  0.33570  0.90713  1.0000
  H   H2263     1.0  0.83272  0.36286  0.96429  1.0000
  N   N127      1.0  0.90170  0.36250  0.89999  1.0000
  Fe  Fe257     1.0  0.51031  0.32852  0.83422  1.0000
  C   C1892     1.0  0.90757  0.35370  0.91970  1.0000
  H   H2264     1.0  0.69898  0.41205  0.88257  1.0000
  C   C1893     1.0  0.68211  0.36652  0.89711  1.0000
  H   H2265     1.0  0.73331  0.35476  0.89216  1.0000
  C   C1894     1.0  0.86037  0.31753  0.96194  1.0000
  H   H2266     1.0  0.63847  0.35903  0.92701  1.0000
  H   H2267     1.0  0.65763  0.35913  0.87288  1.0000
  C   C1895     1.0  0.68181  0.38739  0.89167  1.0000
  C   C1896     1.0  0.64989  0.36354  0.88736  1.0000
  C   C1897     1.0  0.69951  0.39605  0.88627  1.0000
  H   H2268     1.0  0.88735  0.39284  0.78571  1.0000
  H   H2269     1.0  0.91977  0.34096  0.88265  1.0000
  H   H2270     1.0  0.91196  0.36413  0.86841  1.0000
  C   C1898     1.0  0.57178  0.34040  0.89691  1.0000
  H   H2271     1.0  0.66788  0.39725  0.89193  1.0000
  H   H2272     1.0  0.86974  0.36166  0.90727  1.0000
  C   C1899     1.0  0.78408  0.48839  0.97096  1.0000
  C   C1900     1.0  0.71799  0.38425  0.88618  1.0000
  C   C1901     1.0  0.54815  0.35913  0.76318  1.0000
  H   H2273     1.0  0.68815  0.37894  0.94374  1.0000
  C   C1902     1.0  0.84184  0.34920  0.96892  1.0000
  H   H2274     1.0  0.75650  0.39418  0.96394  1.0000
  Fe  Fe258     1.0  0.61953  0.34315  0.96819  1.0000
  C   C1903     1.0  0.78415  0.47140  0.96190  1.0000
  C   C1904     1.0  0.84818  0.33499  0.95585  1.0000
  C   C1905     1.0  0.65276  0.36539  0.92167  1.0000
  H   H2275     1.0  0.87366  0.37611  0.75181  1.0000
  H   H2276     1.0  0.73907  0.33373  0.94319  1.0000
  H   H2277     1.0  0.98448  0.34479  0.85676  1.0000
  C   C1906     1.0  0.59211  0.33650  0.89971  1.0000
  S   S508      1.0  0.56455  0.33498  0.87470  1.0000
  H   H2278     1.0  0.90791  0.44532  0.73189  1.0000
  N   N128      1.0  0.90516  0.37705  0.75083  1.0000
  H   H2279     1.0  0.92143  0.33020  0.97249  1.0000
  C   C1907     1.0  0.90335  0.43365  0.74345  1.0000
  C   C1908     1.0  0.88792  0.37336  0.74173  1.0000
  H   H2280     1.0  0.98523  0.36124  0.82208  1.0000
  C   C1909     1.0  0.91765  0.33685  0.95792  1.0000
  C   C1910     1.0  0.74920  0.39312  0.97920  1.0000
  H   H2281     1.0  0.72585  0.37888  0.97264  1.0000
  H   H2282     1.0  0.93671  0.37756  0.74208  1.0000
  S   S509      1.0  0.81458  0.41791  0.97638  1.0000
  C   C1911     1.0  0.90694  0.41380  0.73980  1.0000
  H   H2283     1.0  0.91152  0.34709  0.76599  1.0000
  H   H2284     1.0  0.88955  0.35776  0.73836  1.0000
  H   H2285     1.0  0.60295  0.33032  0.88831  1.0000
  C   C1912     1.0  0.49256  0.39579  0.75408  1.0000
  H   H2286     1.0  0.79213  0.50006  0.96261  1.0000
  H   H2287     1.0  0.77261  0.52844  0.97230  1.0000
  H   H2288     1.0  0.92754  0.35660  0.73547  1.0000
  S   S510      1.0  0.64250  0.31869  0.95768  1.0000
  S   S511      1.0  0.50987  0.31838  0.89219  1.0000
  H   H2289     1.0  0.51962  0.42792  0.73114  1.0000
  Fe  Fe259     1.0  0.98862  0.38204  0.78378  1.0000
  Fe  Fe260     1.0  0.87692  0.94571  0.13181  1.0000
  S   S512      1.0  0.84816  0.95691  0.15012  1.0000
  S   S513      1.0  0.89251  0.91600  0.14514  1.0000
  Fe  Fe261     1.0  0.83646  0.96804  0.12084  1.0000
  S   S514      1.0  0.80448  0.97220  0.11254  1.0000
  H   H2290     1.0  0.53087  0.93695  0.13313  1.0000
  S   S515      1.0  0.86426  0.95484  0.10266  1.0000
  H   H2291     1.0  0.60731  0.74267  0.08130  1.0000
  H   H2292     1.0  0.67766  0.96812  0.01458  1.0000
  H   H2293     1.0  0.83351  0.97831  0.07942  1.0000
  H   H2294     1.0  0.84857  0.97479  0.05584  1.0000
  S   S516      1.0  0.52754  0.67441  0.10268  1.0000
  C   C1913     1.0  0.61029  0.74400  0.09660  1.0000
  C   C1914     1.0  0.51956  0.94206  0.14470  1.0000
  H   H2295     1.0  0.94802  0.86129  0.14586  1.0000
  Fe  Fe262     1.0  0.95227  0.67623  0.08139  1.0000
  C   C1915     1.0  0.78062  0.96346  0.03979  1.0000
  S   S517      1.0  0.95395  0.70994  0.07745  1.0000
  H   H2296     1.0  0.57126  0.66649  0.11747  1.0000
  H   H2297     1.0  0.60266  0.75842  0.13040  1.0000
  C   C1916     1.0  0.90791  0.80032  0.09478  1.0000
  H   H2298     1.0  0.60969  0.73203  0.13628  1.0000
  H   H2299     1.0  0.49655  0.87188  0.04615  1.0000
  Fe  Fe263     1.0  0.59143  0.81117  0.03809  1.0000
  S   S518      1.0  0.56174  0.82689  0.04986  1.0000
  S   S519      1.0  0.61563  0.83089  0.02442  1.0000
  Fe  Fe264     1.0  0.57627  0.76982  0.05061  1.0000
  S   S520      1.0  0.54623  0.78325  0.06392  1.0000
  S   S521      1.0  0.58229  0.73611  0.05099  1.0000
  Fe  Fe265     1.0  0.54783  0.80529  0.03615  1.0000
  S   S522      1.0  0.51945  0.81453  0.02169  1.0000
  Fe  Fe266     1.0  0.56352  0.80314  0.07592  1.0000
  S   S523      1.0  0.55958  0.81217  0.10650  1.0000
  S   S524      1.0  0.57729  0.79116  0.02208  1.0000
  S   S525      1.0  0.59373  0.78815  0.06487  1.0000
  Fe  Fe267     1.0  0.72022  0.92177  0.07215  1.0000
  S   S526      1.0  0.71007  0.95164  0.05616  1.0000
  S   S527      1.0  0.74713  0.91538  0.08972  1.0000
  Fe  Fe268     1.0  0.68477  0.90282  0.06100  1.0000
  S   S528      1.0  0.67252  0.93169  0.04415  1.0000
  S   S529      1.0  0.66701  0.87618  0.07030  1.0000
  Fe  Fe269     1.0  0.70469  0.93477  0.03227  1.0000
  S   S530      1.0  0.71580  0.94692  0.00079  1.0000
  Fe  Fe270     1.0  0.67903  0.94593  0.06945  1.0000
  S   S531      1.0  0.65793  0.97108  0.08160  1.0000
  S   S532      1.0  0.71687  0.90474  0.04726  1.0000
  S   S533      1.0  0.68932  0.91713  0.08731  1.0000
  H   H2300     1.0  0.62161  0.93499  0.08202  1.0000
  C   C1917     1.0  0.70385  0.97080  0.99307  1.0000
  H   H2301     1.0  0.51711  0.82161  0.06491  1.0000
  C   C1918     1.0  0.70269  0.95657  0.11003  1.0000
  H   H2302     1.0  0.54728  0.88706  0.18101  1.0000
  C   C1919     1.0  0.62939  0.84374  0.03750  1.0000
  C   C1920     1.0  0.64096  0.85822  0.02682  1.0000
  C   C1921     1.0  0.65249  0.86837  0.03652  1.0000
  C   C1922     1.0  0.65291  0.86388  0.05706  1.0000
  C   C1923     1.0  0.64128  0.84945  0.06777  1.0000
  C   C1924     1.0  0.62946  0.83959  0.05812  1.0000
  H   H2303     1.0  0.64110  0.86151  0.01087  1.0000
  H   H2304     1.0  0.66132  0.87939  0.02804  1.0000
  H   H2305     1.0  0.64151  0.84576  0.08364  1.0000
  H   H2306     1.0  0.62075  0.82845  0.06656  1.0000
  H   H2307     1.0  0.92934  0.96535  0.18165  1.0000
  C   C1925     1.0  0.52981  0.78811  0.99377  1.0000
  C   C1926     1.0  0.51505  0.80187  0.00239  1.0000
  H   H2308     1.0  0.97208  0.72373  0.14098  1.0000
  H   H2309     1.0  0.54454  0.78547  0.99844  1.0000
  H   H2310     1.0  0.91749  0.88141  0.16057  1.0000
  H   H2311     1.0  0.56044  0.66971  0.06986  1.0000
  C   C1927     1.0  0.52777  0.83076  0.12857  1.0000
  C   C1928     1.0  0.53474  0.81488  0.11764  1.0000
  C   C1929     1.0  0.52192  0.80125  0.11591  1.0000
  H   H2312     1.0  0.52455  0.73516  0.04557  1.0000
  H   H2313     1.0  0.53775  0.84121  0.13002  1.0000
  H   H2314     1.0  0.52734  0.78884  0.10764  1.0000
  H   H2315     1.0  0.52136  0.92122  0.21606  1.0000
  C   C1930     1.0  0.59757  0.74356  0.13115  1.0000
  H   H2316     1.0  0.54027  0.71872  0.02959  1.0000
  C   C1931     1.0  0.64382  0.96454  0.10460  1.0000
  C   C1932     1.0  0.79583  0.95407  0.05070  1.0000
  C   C1933     1.0  0.58858  0.87862  0.09122  1.0000
  H   H2317     1.0  0.50189  0.67507  0.07076  1.0000
  C   C1934     1.0  0.62071  0.95479  0.14127  1.0000
  C   C1935     1.0  0.52260  0.95781  0.15448  1.0000
  C   C1936     1.0  0.56267  0.92123  0.18176  1.0000
  N   N129      1.0  0.54835  0.91137  0.19726  1.0000
  C   C1937     1.0  0.54178  0.69132  0.08652  1.0000
  C   C1938     1.0  0.55728  0.68524  0.07202  1.0000
  C   C1939     1.0  0.56933  0.69919  0.06095  1.0000
  C   C1940     1.0  0.56578  0.71935  0.06400  1.0000
  C   C1941     1.0  0.54963  0.72551  0.07779  1.0000
  C   C1942     1.0  0.53789  0.71156  0.08911  1.0000
  H   H2318     1.0  0.58173  0.69427  0.05025  1.0000
  H   H2319     1.0  0.54635  0.74094  0.08011  1.0000
  H   H2320     1.0  0.52585  0.71641  0.10021  1.0000
  C   C1943     1.0  0.90094  0.78358  0.09009  1.0000
  C   C1944     1.0  0.60708  0.92910  0.08741  1.0000
  C   C1945     1.0  0.50044  0.85542  0.04788  1.0000
  C   C1946     1.0  0.96287  0.72425  0.09329  1.0000
  H   H2321     1.0  0.88093  0.93083  0.18737  1.0000
  H   H2322     1.0  0.93919  0.77613  0.12782  1.0000
  C   C1947     1.0  0.90773  0.76458  0.09888  1.0000
  H   H2323     1.0  0.60416  0.91313  0.05466  1.0000
  H   H2324     1.0  0.98417  0.65615  0.01798  1.0000
  C   C1948     1.0  0.96507  0.71707  0.11316  1.0000
  C   C1949     1.0  0.78982  0.95607  0.10464  1.0000
  C   C1950     1.0  0.77240  0.96444  0.09612  1.0000
  C   C1951     1.0  0.75958  0.95230  0.09072  1.0000
  C   C1952     1.0  0.76377  0.93154  0.09424  1.0000
  C   C1953     1.0  0.78134  0.92319  0.10251  1.0000
  C   C1954     1.0  0.79441  0.93535  0.10748  1.0000
  H   H2325     1.0  0.89043  0.78529  0.07935  1.0000
  H   H2326     1.0  0.74638  0.95904  0.08409  1.0000
  H   H2327     1.0  0.78477  0.90717  0.10530  1.0000
  H   H2328     1.0  0.80768  0.92865  0.11408  1.0000
  C   C1955     1.0  0.91444  0.90230  0.13403  1.0000
  C   C1956     1.0  0.92261  0.90748  0.11431  1.0000
  C   C1957     1.0  0.93975  0.89586  0.10592  1.0000
  C   C1958     1.0  0.94905  0.87915  0.11720  1.0000
  C   C1959     1.0  0.94099  0.87406  0.13698  1.0000
  C   C1960     1.0  0.92370  0.88552  0.14529  1.0000
  H   H2329     1.0  0.91563  0.92030  0.10545  1.0000
  H   H2330     1.0  0.94585  0.89989  0.09059  1.0000
  C   C1961     1.0  0.70133  0.92701  0.13353  1.0000
  N   N130      1.0  0.59270  0.74022  0.11162  1.0000
  C   C1962     1.0  0.57568  0.75515  0.10611  1.0000
  C   C1963     1.0  0.58717  0.71989  0.11301  1.0000
  C   C1964     1.0  0.59751  0.70560  0.10077  1.0000
  C   C1965     1.0  0.57091  0.71386  0.12699  1.0000
  C   C1966     1.0  0.59202  0.68645  0.10273  1.0000
  C   C1967     1.0  0.56541  0.69475  0.12864  1.0000
  C   C1968     1.0  0.96955  0.95112  0.21717  1.0000
  H   H2331     1.0  0.68656  0.92457  0.12991  1.0000
  H   H2332     1.0  0.57212  0.75357  0.09116  1.0000
  H   H2333     1.0  0.56183  0.75384  0.11675  1.0000
  H   H2334     1.0  0.58444  0.74320  0.14287  1.0000
  H   H2335     1.0  0.60955  0.70894  0.08916  1.0000
  H   H2336     1.0  0.56205  0.72399  0.13650  1.0000
  C   C1969     1.0  0.55803  0.89835  0.21333  1.0000
  S   S534      1.0  0.95166  0.66153  0.05397  1.0000
  H   H2337     1.0  0.90226  0.81454  0.08720  1.0000
  H   H2338     1.0  0.50516  0.72714  0.99099  1.0000
  H   H2339     1.0  0.96278  0.95245  0.20360  1.0000
  C   C1970     1.0  0.62410  0.89691  0.09772  1.0000
  H   H2340     1.0  0.71279  0.91887  0.12321  1.0000
  C   C1971     1.0  0.49682  0.68416  0.05761  1.0000
  C   C1972     1.0  0.88392  0.94357  0.21368  1.0000
  C   C1973     1.0  0.57085  0.87016  0.09738  1.0000
  S   S535      1.0  0.49905  0.91285  0.13749  1.0000
  C   C1974     1.0  0.50351  0.85473  0.08235  1.0000
  C   C1975     1.0  0.75622  0.94138  0.14645  1.0000
  C   C1976     1.0  0.75906  0.96097  0.14705  1.0000
  H   H2341     1.0  0.82085  0.95676  0.06445  1.0000
  H   H2342     1.0  0.53023  0.90896  0.17460  1.0000
  C   C1977     1.0  0.90587  0.94744  0.18258  1.0000
  H   H2343     1.0  0.76871  0.98044  0.09376  1.0000
  H   H2344     1.0  0.63854  0.90322  0.09354  1.0000
  C   C1978     1.0  0.57898  0.89620  0.21427  1.0000
  H   H2345     1.0  0.71529  0.94916  0.10033  1.0000
  C   C1979     1.0  0.49041  0.95569  0.17441  1.0000
  H   H2346     1.0  0.52700  0.73785  0.99198  1.0000
  H   H2347     1.0  0.58917  0.90375  0.20307  1.0000
  H   H2348     1.0  0.96557  0.74945  0.07056  1.0000
  H   H2349     1.0  0.61934  0.89774  0.11385  1.0000
  H   H2350     1.0  0.62768  0.88093  0.09563  1.0000
  H   H2351     1.0  0.57074  0.92599  0.10134  1.0000
  H   H2352     1.0  0.95959  0.82603  0.10774  1.0000
  H   H2353     1.0  0.62385  0.73355  0.09998  1.0000
  H   H2354     1.0  0.67164  0.95465  0.14017  1.0000
  S   S536      1.0  0.89077  0.97381  0.13032  1.0000
  H   H2355     1.0  0.52471  0.89336  0.19725  1.0000
  N   N131      1.0  0.70354  0.94853  0.13121  1.0000
  C   C1980     1.0  0.72252  0.95245  0.13705  1.0000
  H   H2356     1.0  0.49795  0.83869  0.19790  1.0000
  H   H2357     1.0  0.96173  0.70224  0.11917  1.0000
  H   H2358     1.0  0.93382  0.82967  0.13825  1.0000
  H   H2359     1.0  0.50435  0.76127  0.01516  1.0000
  H   H2360     1.0  0.51979  0.70232  0.05475  1.0000
  C   C1981     1.0  0.88945  0.93974  0.19399  1.0000
  C   C1982     1.0  0.52870  0.73202  0.02991  1.0000
  H   H2361     1.0  0.62993  0.91089  0.05903  1.0000
  C   C1983     1.0  0.91682  0.95907  0.19077  1.0000
  C   C1984     1.0  0.97094  0.72934  0.12552  1.0000
  C   C1985     1.0  0.49679  0.74798  0.02139  1.0000
  C   C1986     1.0  0.55388  0.90178  0.10594  1.0000
  H   H2362     1.0  0.65171  0.93293  0.10477  1.0000
  C   C1987     1.0  0.64346  0.94460  0.11275  1.0000
  S   S537      1.0  0.60593  0.94864  0.16393  1.0000
  H   H2363     1.0  0.61416  0.75934  0.09598  1.0000
  H   H2364     1.0  0.92032  0.97250  0.21566  1.0000
  H   H2365     1.0  0.70254  0.91988  0.14906  1.0000
  H   H2366     1.0  0.53977  0.87520  0.10944  1.0000
  C   C1988     1.0  0.51777  0.72626  0.99982  1.0000
  H   H2367     1.0  0.52729  0.93811  0.19446  1.0000
  N   N132      1.0  0.60854  0.90756  0.08559  1.0000
  C   C1989     1.0  0.50060  0.71232  0.03115  1.0000
  C   C1990     1.0  0.61531  0.90517  0.06437  1.0000
  H   H2368     1.0  0.49399  0.84925  0.03646  1.0000
  C   C1991     1.0  0.96720  0.74369  0.08589  1.0000
  H   H2369     1.0  0.61771  0.88936  0.06171  1.0000
  C   C1992     1.0  0.55353  0.88174  0.10470  1.0000
  C   C1993     1.0  0.53406  0.92720  0.20604  1.0000
  H   H2370     1.0  0.53618  0.74486  0.02179  1.0000
  H   H2371     1.0  0.96064  0.79961  0.11310  1.0000
  H   H2372     1.0  0.92864  0.84767  0.10737  1.0000
  H   H2373     1.0  0.57098  0.93109  0.18807  1.0000
  S   S538      1.0  0.97866  0.65531  0.09102  1.0000
  C   C1994     1.0  0.68609  0.95843  0.14343  1.0000
  H   H2374     1.0  0.76831  0.92951  0.14912  1.0000
  H   H2375     1.0  0.53619  0.96467  0.15044  1.0000
  H   H2376     1.0  0.50827  0.81342  0.19502  1.0000
  C   C1995     1.0  0.63199  0.93972  0.13112  1.0000
  H   H2377     1.0  0.90269  0.75158  0.09489  1.0000
  C   C1996     1.0  0.92197  0.79840  0.10857  1.0000
  H   H2378     1.0  0.51700  0.85236  0.04406  1.0000
  C   C1997     1.0  0.95243  0.81313  0.10543  1.0000
  C   C1998     1.0  0.92833  0.81624  0.13469  1.0000
  C   C1999     1.0  0.92127  0.76224  0.11263  1.0000
  S   S539      1.0  0.97877  0.81903  0.14873  1.0000
  Fe  Fe271     1.0  0.58652  0.97606  0.17311  1.0000
  H   H2379     1.0  0.68695  0.95389  0.15959  1.0000
  H   H2380     1.0  0.60160  0.86898  0.08561  1.0000
  H   H2381     1.0  0.49010  0.82661  0.17970  1.0000
  C   C2000     1.0  0.96811  0.96769  0.22713  1.0000
  C   C2001     1.0  0.80989  0.96498  0.05543  1.0000
  S   S540      1.0  0.98127  0.76389  0.13502  1.0000
  H   H2382     1.0  0.91232  0.81658  0.14115  1.0000
  C   C2002     1.0  0.73833  0.93708  0.14139  1.0000
  C   C2003     1.0  0.50199  0.93298  0.14978  1.0000
  S   S541      1.0  0.92916  0.65796  0.09951  1.0000
  C   C2004     1.0  0.97515  0.74881  0.11818  1.0000
  C   C2005     1.0  0.57602  0.68105  0.11661  1.0000
  N   N133      1.0  0.93079  0.81553  0.11290  1.0000
  C   C2006     1.0  0.92182  0.83514  0.10347  1.0000
  H   H2383     1.0  0.54026  0.91067  0.11162  1.0000
  H   H2384     1.0  0.92682  0.74741  0.11920  1.0000
  H   H2385     1.0  0.79638  0.93829  0.05605  1.0000
  H   H2386     1.0  0.90547  0.83796  0.10846  1.0000
  H   H2387     1.0  0.57369  0.91021  0.17417  1.0000
  H   H2388     1.0  0.95506  0.81188  0.08922  1.0000
  C   C2007     1.0  0.92827  0.77885  0.11747  1.0000
  H   H2389     1.0  0.92449  0.83636  0.08694  1.0000
  S   S542      1.0  0.97012  0.86462  0.10567  1.0000
  S   S543      1.0  0.56311  0.97212  0.19936  1.0000
  H   H2390     1.0  0.50236  0.84606  0.14520  1.0000
  H   H2391     1.0  0.68855  0.95419  0.10506  1.0000
  H   H2392     1.0  0.57056  0.85451  0.09643  1.0000
  C   C2008     1.0  0.57157  0.91041  0.09988  1.0000
  H   H2393     1.0  0.60308  0.93198  0.10317  1.0000
  N   N134      1.0  0.51091  0.72930  0.02087  1.0000
  H   H2394     1.0  0.73759  0.92165  0.14032  1.0000
  H   H2395     1.0  0.70351  0.97284  0.10706  1.0000
  H   H2396     1.0  0.90999  0.94444  0.16729  1.0000
  H   H2397     1.0  0.55247  0.69065  0.13883  1.0000
  H   H2398     1.0  0.52707  0.71157  0.99881  1.0000
  C   C2009     1.0  0.50798  0.96476  0.16931  1.0000
  H   H2399     1.0  0.54159  0.93564  0.21475  1.0000
  C   C2010     1.0  0.50213  0.80346  0.12533  1.0000
  H   H2400     1.0  0.55493  0.93094  0.16993  1.0000
  C   C2011     1.0  0.62115  0.97472  0.13316  1.0000
  H   H2401     1.0  0.63165  0.92429  0.13736  1.0000
  C   C2012     1.0  0.50780  0.83341  0.13729  1.0000
  H   H2402     1.0  0.59974  0.67596  0.09288  1.0000
  H   H2403     1.0  0.97669  0.77069  0.09217  1.0000
  H   H2404     1.0  0.68485  0.97491  0.14049  1.0000
  C   C2013     1.0  0.97987  0.93287  0.22444  1.0000
  C   C2014     1.0  0.63276  0.97957  0.11490  1.0000
  H   H2405     1.0  0.57907  0.77064  0.10561  1.0000
  C   C2015     1.0  0.49432  0.82416  0.19504  1.0000
  C   C2016     1.0  0.97351  0.75582  0.09815  1.0000
  C   C2017     1.0  0.53721  0.89964  0.18716  1.0000
  C   C2018     1.0  0.49614  0.80543  0.99582  1.0000
  H   H2406     1.0  0.59592  0.93816  0.07831  1.0000
  H   H2407     1.0  0.93699  0.80328  0.14275  1.0000
  C   C2019     1.0  0.50700  0.70001  0.04824  1.0000
  C   C2020     1.0  0.68487  0.97746  0.00233  1.0000
  C   C2021     1.0  0.58951  0.89904  0.09221  1.0000
  H   H2408     1.0  0.50049  0.84745  0.09788  1.0000
  H   H2409     1.0  0.52010  0.85292  0.07850  1.0000
  H   H2410     1.0  0.49778  0.81657  0.08470  1.0000
  C   C2022     1.0  0.49502  0.81967  0.13580  1.0000
  H   H2411     1.0  0.49814  0.87089  0.08243  1.0000
  C   C2023     1.0  0.50069  0.82452  0.06945  1.0000
  C   C2024     1.0  0.72603  0.97228  0.13759  1.0000
  H   H2412     1.0  0.77327  0.96424  0.15023  1.0000
  N   N135      1.0  0.49364  0.84616  0.06831  1.0000
  H   H2413     1.0  0.49557  0.89643  0.22590  1.0000
  H   H2414     1.0  0.49222  0.79283  0.12416  1.0000
  H   H2415     1.0  0.49329  0.81742  0.05942  1.0000
  C   C2025     1.0  0.49175  0.79489  0.98124  1.0000
  H   H2416     1.0  0.98056  0.92071  0.21590  1.0000
  C   C2026     1.0  0.74403  0.97640  0.14256  1.0000
  C   C2027     1.0  0.89474  0.95534  0.22255  1.0000
  C   C2028     1.0  0.91142  0.96304  0.21045  1.0000
  H   H2417     1.0  0.76958  0.95494  0.03648  1.0000
  H   H2418     1.0  0.49014  0.74998  0.03691  1.0000
  H   H2419     1.0  0.87099  0.93733  0.22184  1.0000
  H   H2420     1.0  0.51626  0.97746  0.22820  1.0000
  H   H2421     1.0  0.53024  0.88886  0.22963  1.0000
  H   H2422     1.0  0.96026  0.98188  0.22140  1.0000
  C   C2029     1.0  0.54628  0.88778  0.22910  1.0000
  Fe  Fe272     1.0  0.55697  0.68855  0.38136  1.0000
  S   S544      1.0  0.50177  0.65770  0.36223  1.0000
  S   S545      1.0  0.56577  0.71996  0.37563  1.0000
  H   H2423     1.0  0.65211  0.86880  0.33561  1.0000
  C   C2030     1.0  0.87015  0.96048  0.34393  1.0000
  H   H2424     1.0  0.87888  0.93022  0.25394  1.0000
  C   C2031     1.0  0.85182  0.90526  0.46523  1.0000
  Fe  Fe273     1.0  0.66776  0.95970  0.35277  1.0000
  S   S546      1.0  0.64439  0.95495  0.37917  1.0000
  S   S547      1.0  0.70075  0.94705  0.35055  1.0000
  Fe  Fe274     1.0  0.62415  0.95176  0.35684  1.0000
  S   S548      1.0  0.60138  0.92973  0.36528  1.0000
  S   S549      1.0  0.64838  0.95380  0.33075  1.0000
  Fe  Fe275     1.0  0.51991  0.82433  0.32109  1.0000
  S   S550      1.0  0.52901  0.83959  0.34443  1.0000
  S   S551      1.0  0.51974  0.79102  0.32169  1.0000
  H   H2425     1.0  0.89628  0.97430  0.26624  1.0000
  H   H2426     1.0  0.62598  0.85165  0.32748  1.0000
  H   H2427     1.0  0.61754  0.67356  0.38728  1.0000
  Fe  Fe276     1.0  0.54092  0.86184  0.31946  1.0000
  S   S552      1.0  0.57041  0.87504  0.31207  1.0000
  C   C2032     1.0  0.60659  0.68119  0.35050  1.0000
  S   S553      1.0  0.53459  0.84455  0.29613  1.0000
  H   H2428     1.0  0.60783  0.71916  0.35275  1.0000
  Fe  Fe277     1.0  0.96172  0.79389  0.39584  1.0000
  S   S554      1.0  0.93348  0.78085  0.40809  1.0000
  H   H2429     1.0  0.81150  0.89116  0.37414  1.0000
  H   H2430     1.0  0.58843  0.86554  0.38066  1.0000
  S   S555      1.0  0.95196  0.77009  0.45046  1.0000
  Fe  Fe278     1.0  0.95375  0.75559  0.42260  1.0000
  S   S556      1.0  0.94899  0.72343  0.42173  1.0000
  Fe  Fe279     1.0  0.93411  0.79664  0.43436  1.0000
  S   S557      1.0  0.90572  0.81392  0.44875  1.0000
  C   C2033     1.0  0.62382  0.85813  0.34126  1.0000
  S   S558      1.0  0.96121  0.81141  0.42105  1.0000
  Fe  Fe280     1.0  0.78999  0.93143  0.41692  1.0000
  S   S559      1.0  0.79318  0.96132  0.42493  1.0000
  S   S560      1.0  0.75938  0.92172  0.41693  1.0000
  Fe  Fe281     1.0  0.83532  0.91711  0.41544  1.0000
  S   S561      1.0  0.84181  0.94611  0.42307  1.0000
  S   S562      1.0  0.86222  0.89476  0.40637  1.0000
  Fe  Fe282     1.0  0.81444  0.94472  0.44553  1.0000
  Fe  Fe283     1.0  0.82026  0.96028  0.40180  1.0000
  C   C2034     1.0  0.56046  0.91528  0.27203  1.0000
  S   S563      1.0  0.80929  0.91454  0.43961  1.0000
  S   S564      1.0  0.81562  0.93156  0.39213  1.0000
  H   H2431     1.0  0.49462  0.77616  0.26843  1.0000
  C   C2035     1.0  0.96548  0.70643  0.40781  1.0000
  C   C2036     1.0  0.95911  0.68851  0.40509  1.0000
  C   C2037     1.0  0.97117  0.67540  0.39281  1.0000
  H   H2432     1.0  0.82868  0.87223  0.36322  1.0000
  C   C2038     1.0  0.64223  0.67665  0.35234  1.0000
  C   C2039     1.0  0.54092  0.93231  0.29820  1.0000
  H   H2433     1.0  0.94452  0.68500  0.41211  1.0000
  H   H2434     1.0  0.97343  0.90227  0.26864  1.0000
  C   C2040     1.0  0.51765  0.92886  0.26536  1.0000
  H   H2435     1.0  0.63101  0.69445  0.38529  1.0000
  C   C2041     1.0  0.89370  0.83635  0.43682  1.0000
  C   C2042     1.0  0.90213  0.84563  0.41858  1.0000
  C   C2043     1.0  0.89230  0.86354  0.40962  1.0000
  C   C2044     1.0  0.87387  0.87231  0.41866  1.0000
  S   S565      1.0  0.52811  0.68027  0.39895  1.0000
  H   H2436     1.0  0.80588  0.84676  0.37667  1.0000
  H   H2437     1.0  0.91626  0.83902  0.41140  1.0000
  H   H2438     1.0  0.89899  0.87059  0.39552  1.0000
  C   C2045     1.0  0.87526  0.84513  0.44589  1.0000
  C   C2046     1.0  0.55488  0.87577  0.24474  1.0000
  H   H2439     1.0  0.56630  0.91609  0.25593  1.0000
  H   H2440     1.0  0.84419  0.80743  0.43377  1.0000
  H   H2441     1.0  0.86290  0.97328  0.26106  1.0000
  H   H2442     1.0  0.49545  0.65956  0.25726  1.0000
  H   H2443     1.0  0.60976  0.67991  0.33431  1.0000
  H   H2444     1.0  0.65873  0.69980  0.33438  1.0000
  C   C2047     1.0  0.71615  0.94183  0.36990  1.0000
  C   C2048     1.0  0.73596  0.94631  0.36593  1.0000
  C   C2049     1.0  0.74923  0.94077  0.38034  1.0000
  C   C2050     1.0  0.74300  0.93008  0.39866  1.0000
  C   C2051     1.0  0.72318  0.92558  0.40265  1.0000
  C   C2052     1.0  0.70975  0.93160  0.38845  1.0000
  H   H2445     1.0  0.74113  0.95395  0.35151  1.0000
  H   H2446     1.0  0.76443  0.94430  0.37701  1.0000
  H   H2447     1.0  0.71826  0.91721  0.41675  1.0000
  H   H2448     1.0  0.69468  0.92773  0.39158  1.0000
  C   C2053     1.0  0.59179  0.91658  0.34915  1.0000
  C   C2054     1.0  0.57429  0.90773  0.35610  1.0000
  C   C2055     1.0  0.56714  0.89556  0.34461  1.0000
  C   C2056     1.0  0.57767  0.89184  0.32615  1.0000
  C   C2057     1.0  0.59489  0.90110  0.31893  1.0000
  C   C2058     1.0  0.60185  0.91356  0.33029  1.0000
  H   H2449     1.0  0.56641  0.90998  0.37067  1.0000
  H   H2450     1.0  0.55386  0.88855  0.35034  1.0000
  H   H2451     1.0  0.60315  0.89828  0.30467  1.0000
  H   H2452     1.0  0.61531  0.92029  0.32472  1.0000
  C   C2059     1.0  0.60270  0.86586  0.37127  1.0000
  C   C2060     1.0  0.55238  0.73968  0.36111  1.0000
  C   C2061     1.0  0.53840  0.73611  0.34948  1.0000
  C   C2062     1.0  0.52869  0.75199  0.33742  1.0000
  C   C2063     1.0  0.53259  0.77164  0.33706  1.0000
  C   C2064     1.0  0.54628  0.77529  0.34898  1.0000
  C   C2065     1.0  0.55623  0.75935  0.36082  1.0000
  H   H2453     1.0  0.53529  0.72106  0.34954  1.0000
  H   H2454     1.0  0.51809  0.74899  0.32831  1.0000
  H   H2455     1.0  0.54943  0.79032  0.34886  1.0000
  H   H2456     1.0  0.56701  0.76226  0.36977  1.0000
  N   N136      1.0  0.70398  0.97975  0.42714  1.0000
  H   H2457     1.0  0.86860  0.83799  0.45996  1.0000
  H   H2458     1.0  0.89184  0.90012  0.44122  1.0000
  C   C2066     1.0  0.97695  0.96608  0.24445  1.0000
  N   N137      1.0  0.54946  0.93465  0.27688  1.0000
  S   S566      1.0  0.81298  0.95078  0.47732  1.0000
  H   H2459     1.0  0.91888  0.87286  0.43778  1.0000
  C   C2067     1.0  0.50657  0.65365  0.46098  1.0000
  C   C2068     1.0  0.53317  0.94086  0.26424  1.0000
  C   C2069     1.0  0.64619  0.89743  0.38676  1.0000
  H   H2460     1.0  0.57608  0.94422  0.28419  1.0000
  C   C2070     1.0  0.63861  0.86810  0.34603  1.0000
  H   H2461     1.0  0.87789  0.94560  0.34303  1.0000
  N   N138      1.0  0.81808  0.86425  0.39431  1.0000
  H   H2462     1.0  0.49517  0.76496  0.38503  1.0000
  C   C2071     1.0  0.81107  0.87513  0.41174  1.0000
  C   C2072     1.0  0.86530  0.86294  0.43680  1.0000
  C   C2073     1.0  0.82403  0.87915  0.37716  1.0000
  H   H2463     1.0  0.86172  0.94181  0.46768  1.0000
  H   H2464     1.0  0.53130  0.92017  0.30201  1.0000
  H   H2465     1.0  0.96524  0.87031  0.35086  1.0000
  H   H2466     1.0  0.57203  0.95096  0.25875  1.0000
  C   C2074     1.0  0.98708  0.94791  0.25194  1.0000
  C   C2075     1.0  0.63578  0.87745  0.36357  1.0000
  H   H2467     1.0  0.63256  0.90861  0.38619  1.0000
  Fe  Fe284     1.0  0.52924  0.65996  0.37576  1.0000
  H   H2468     1.0  0.98076  0.79994  0.47808  1.0000
  C   C2076     1.0  0.50154  0.95190  0.24041  1.0000
  H   H2469     1.0  0.68989  0.96568  0.40768  1.0000
  C   C2077     1.0  0.60591  0.85702  0.35386  1.0000
  H   H2470     1.0  0.95846  0.76794  0.36731  1.0000
  C   C2078     1.0  0.61888  0.68880  0.37940  1.0000
  C   C2079     1.0  0.67696  0.67192  0.33609  1.0000
  C   C2080     1.0  0.58744  0.88413  0.23005  1.0000
  H   H2471     1.0  0.54336  0.96871  0.24835  1.0000
  H   H2472     1.0  0.55690  0.96394  0.27793  1.0000
  C   C2081     1.0  0.83447  0.84823  0.39909  1.0000
  S   S567      1.0  0.98187  0.76764  0.40830  1.0000
  C   C2082     1.0  0.85377  0.84682  0.38773  1.0000
  H   H2473     1.0  0.59420  0.84987  0.34978  1.0000
  S   S568      1.0  0.55676  0.66986  0.35712  1.0000
  H   H2474     1.0  0.54545  0.86798  0.25662  1.0000
  H   H2475     1.0  0.85097  0.86925  0.44375  1.0000
  H   H2476     1.0  0.80398  0.86572  0.42470  1.0000
  H   H2477     1.0  0.84720  0.89047  0.47162  1.0000
  C   C2083     1.0  0.67867  0.65170  0.34334  1.0000
  H   H2478     1.0  0.88709  0.93288  0.47204  1.0000
  H   H2479     1.0  0.50978  0.80307  0.36668  1.0000
  H   H2480     1.0  0.66614  0.91405  0.35480  1.0000
  H   H2481     1.0  0.83920  0.97724  0.45271  1.0000
  C   C2084     1.0  0.88951  0.93994  0.25685  1.0000
  H   H2482     1.0  0.50398  0.65843  0.44571  1.0000
  H   H2483     1.0  0.71693  0.96244  0.45205  1.0000
  H   H2484     1.0  0.58194  0.86473  0.25756  1.0000
  H   H2485     1.0  0.92749  0.84907  0.46695  1.0000
  C   C2085     1.0  0.86888  0.83152  0.39281  1.0000
  C   C2086     1.0  0.49637  0.82577  0.25717  1.0000
  H   H2486     1.0  0.79469  0.84524  0.40217  1.0000
  H   H2487     1.0  0.98463  0.77359  0.34342  1.0000
  C   C2087     1.0  0.53224  0.95861  0.25045  1.0000
  S   S569      1.0  0.50051  0.88040  0.26597  1.0000
  H   H2488     1.0  0.98239  0.82866  0.32742  1.0000
  H   H2489     1.0  0.85783  0.85764  0.37520  1.0000
  S   S570      1.0  0.51195  0.88206  0.31938  1.0000
  C   C2088     1.0  0.83136  0.83335  0.41565  1.0000
  H   H2490     1.0  0.64108  0.91448  0.34918  1.0000
  H   H2491     1.0  0.96202  0.97034  0.30623  1.0000
  H   H2492     1.0  0.50725  0.79431  0.39267  1.0000
  C   C2089     1.0  0.97759  0.96404  0.30401  1.0000
  H   H2493     1.0  0.85650  0.90490  0.44901  1.0000
  H   H2494     1.0  0.93925  0.75232  0.37450  1.0000
  C   C2090     1.0  0.87412  0.92938  0.46567  1.0000
  H   H2495     1.0  0.67459  0.97276  0.44051  1.0000
  H   H2496     1.0  0.72744  0.95461  0.42856  1.0000
  H   H2497     1.0  0.66145  0.89913  0.33722  1.0000
  C   C2091     1.0  0.91611  0.86175  0.46888  1.0000
  C   C2092     1.0  0.86541  0.81741  0.40935  1.0000
  C   C2093     1.0  0.95124  0.75616  0.33429  1.0000
  C   C2094     1.0  0.70036  0.97685  0.40703  1.0000
  H   H2498     1.0  0.88368  0.83103  0.38433  1.0000
  C   C2095     1.0  0.49812  0.80682  0.26790  1.0000
  C   C2096     1.0  0.62262  0.71033  0.34855  1.0000
  C   C2097     1.0  0.95547  0.75226  0.36899  1.0000
  H   H2499     1.0  0.83833  0.91650  0.46680  1.0000
  H   H2500     1.0  0.79963  0.88816  0.40833  1.0000
  H   H2501     1.0  0.82382  0.88069  0.41666  1.0000
  H   H2502     1.0  0.93701  0.72526  0.35788  1.0000
  C   C2098     1.0  0.80109  0.85545  0.38945  1.0000
  H   H2503     1.0  0.97604  0.97902  0.25214  1.0000
  Fe  Fe285     1.0  0.97906  0.78395  0.43500  1.0000
  H   H2504     1.0  0.81712  0.83342  0.42500  1.0000
  Fe  Fe286     1.0  0.49918  0.85856  0.34244  1.0000
  N   N139      1.0  0.62302  0.68916  0.35749  1.0000
  H   H2505     1.0  0.68962  0.67799  0.32699  1.0000
  C   C2099     1.0  0.56422  0.94908  0.27426  1.0000
  H   H2506     1.0  0.91716  0.96471  0.24988  1.0000
  H   H2507     1.0  0.70336  0.94880  0.43919  1.0000
  H   H2508     1.0  0.96584  0.66195  0.39038  1.0000
  C   C2100     1.0  0.88504  0.89392  0.47359  1.0000
  C   C2101     1.0  0.87566  0.97622  0.32961  1.0000
  Fe  Fe287     1.0  0.54702  0.65451  0.41420  1.0000
  S   S571      1.0  0.89508  0.97153  0.31031  1.0000
  C   C2102     1.0  0.71331  0.96065  0.43716  1.0000
  H   H2509     1.0  0.95652  0.71642  0.33957  1.0000
  H   H2510     1.0  0.57336  0.91048  0.28066  1.0000
  H   H2511     1.0  0.68234  0.88230  0.37344  1.0000
  H   H2512     1.0  0.55283  0.92836  0.30816  1.0000
  H   H2513     1.0  0.60452  0.69812  0.38391  1.0000
  H   H2514     1.0  0.85112  0.95181  0.37093  1.0000
  C   C2103     1.0  0.85492  0.96396  0.35968  1.0000
  C   C2104     1.0  0.61728  0.87604  0.37610  1.0000
  H   H2515     1.0  0.66795  0.86179  0.38139  1.0000
  C   C2105     1.0  0.83667  0.98111  0.46769  1.0000
  H   H2516     1.0  0.97198  0.93483  0.31828  1.0000
  C   C2106     1.0  0.65526  0.90465  0.35160  1.0000
  H   H2517     1.0  0.83653  0.88669  0.38002  1.0000
  H   H2518     1.0  0.51741  0.91505  0.27533  1.0000
  H   H2519     1.0  0.61334  0.88328  0.38935  1.0000
  H   H2520     1.0  0.55090  0.90306  0.27577  1.0000
  C   C2107     1.0  0.67034  0.87463  0.36964  1.0000
  H   H2521     1.0  0.67640  0.86854  0.35551  1.0000
  H   H2522     1.0  0.65826  0.90557  0.38959  1.0000
  C   C2108     1.0  0.50206  0.93438  0.25368  1.0000
  N   N140      1.0  0.88856  0.95910  0.24348  1.0000
  H   H2523     1.0  0.87745  0.80608  0.41369  1.0000
  H   H2524     1.0  0.95632  0.85815  0.38646  1.0000
  H   H2525     1.0  0.71438  0.97155  0.39772  1.0000
  N   N141      1.0  0.96127  0.74326  0.35025  1.0000
  H   H2526     1.0  0.64354  0.88599  0.39986  1.0000
  C   C2109     1.0  0.84667  0.81830  0.42073  1.0000
  S   S572      1.0  0.96508  0.80800  0.36397  1.0000
  N   N142      1.0  0.65150  0.88835  0.36797  1.0000
  C   C2110     1.0  0.49914  0.80316  0.38070  1.0000
  H   H2527     1.0  0.63401  0.71764  0.35384  1.0000
  H   H2528     1.0  0.90481  0.93152  0.25501  1.0000
  H   H2529     1.0  0.78860  0.86714  0.38543  1.0000
  S   S573      1.0  0.57608  0.66441  0.39880  1.0000
  H   H2530     1.0  0.60408  0.66618  0.35831  1.0000
  H   H2531     1.0  0.62500  0.71177  0.33201  1.0000
  Fe  Fe288     1.0  0.50511  0.86415  0.29678  1.0000
  H   H2532     1.0  0.93465  0.75709  0.33758  1.0000
  H   H2533     1.0  0.59208  0.69091  0.35306  1.0000
  H   H2534     1.0  0.87829  0.92982  0.44933  1.0000
  C   C2111     1.0  0.57541  0.87394  0.24525  1.0000
  H   H2535     1.0  0.95481  0.77173  0.33244  1.0000
  C   C2112     1.0  0.48975  0.82888  0.23846  1.0000
  H   H2536     1.0  0.53169  0.94628  0.30229  1.0000
  H   H2537     1.0  0.95593  0.75042  0.31972  1.0000
  C   C2113     1.0  0.97193  0.85814  0.38028  1.0000
  H   H2538     1.0  0.74321  0.97798  0.40961  1.0000
  C   C2114     1.0  0.97690  0.86495  0.36024  1.0000
  C   C2115     1.0  0.98697  0.85105  0.39233  1.0000
  C   C2116     1.0  0.49324  0.79087  0.25994  1.0000
  H   H2539     1.0  0.50009  0.83816  0.26347  1.0000
  C   C2117     1.0  0.65904  0.68432  0.34048  1.0000
  H   H2540     1.0  0.96021  0.71348  0.36549  1.0000
  C   C2118     1.0  0.64455  0.65601  0.35943  1.0000
  H   H2541     1.0  0.98235  0.84641  0.40787  1.0000
  H   H2542     1.0  0.98763  0.91555  0.28092  1.0000
  H   H2543     1.0  0.50324  0.80448  0.28243  1.0000
  C   C2119     1.0  0.98325  0.94394  0.31081  1.0000
  H   H2544     1.0  0.88576  0.94229  0.27281  1.0000
  C   C2120     1.0  0.90132  0.97174  0.25048  1.0000
  C   C2121     1.0  0.95349  0.72374  0.35335  1.0000
  H   H2545     1.0  0.96384  0.74396  0.38099  1.0000
  C   C2122     1.0  0.86771  0.96927  0.24574  1.0000
  C   C2123     1.0  0.89578  0.89087  0.45465  1.0000
  H   H2546     1.0  0.49453  0.77352  0.35943  1.0000
  C   C2124     1.0  0.91121  0.87515  0.45245  1.0000
  H   H2547     1.0  0.60344  0.88271  0.23051  1.0000
  H   H2548     1.0  0.48952  0.95611  0.23124  1.0000
  H   H2549     1.0  0.49583  0.81884  0.38410  1.0000
  H   H2550     1.0  0.98719  0.89158  0.23581  1.0000
  C   C2125     1.0  0.51663  0.96393  0.23875  1.0000
  H   H2551     1.0  0.85674  0.95995  0.24279  1.0000
  N   N143      1.0  0.86796  0.90995  0.47533  1.0000
  C   C2126     1.0  0.98326  0.74178  0.34473  1.0000
  C   C2127     1.0  0.49060  0.65538  0.47664  1.0000
  S   S574      1.0  0.48959  0.84251  0.31987  1.0000
  H   H2552     1.0  0.49034  0.92493  0.25493  1.0000
  C   C2128     1.0  0.98445  0.71066  0.39883  1.0000
  H   H2553     1.0  0.95837  0.95644  0.70324  1.0000
  C   C2129     1.0  0.82435  0.97062  0.48246  1.0000
  H   H2554     1.0  0.98540  0.92827  0.70454  1.0000
  C   C2130     1.0  0.85946  0.91243  0.49622  1.0000
  H   H2555     1.0  0.88329  0.88108  0.50509  1.0000
  H   H2556     1.0  0.98094  0.96332  0.65133  1.0000
  C   C2131     1.0  0.97374  0.95933  0.70163  1.0000
  C   C2132     1.0  0.82116  0.97583  0.50183  1.0000
  H   H2557     1.0  0.87099  0.91566  0.50479  1.0000
  H   H2558     1.0  0.88431  0.97692  0.68355  1.0000
  H   H2559     1.0  0.81172  0.96771  0.51335  1.0000
  C   C2133     1.0  0.97812  0.97893  0.69881  1.0000
  H   H2560     1.0  0.84708  0.92507  0.49694  1.0000
  C   C2134     1.0  0.89927  0.97962  0.67545  1.0000
  C   C2135     1.0  0.89068  0.88018  0.49014  1.0000
  C   C2136     1.0  0.90596  0.86433  0.48769  1.0000
  H   H2561     1.0  0.98630  0.80966  0.51020  1.0000
  H   H2562     1.0  0.91054  0.96790  0.68192  1.0000
  H   H2563     1.0  0.89998  0.97705  0.65970  1.0000
  H   H2564     1.0  0.85276  0.89906  0.50399  1.0000
  H   H2565     1.0  0.90976  0.85370  0.50039  1.0000
  H   H2566     1.0  0.51481  0.93013  0.72695  1.0000
  C   C2137     1.0  0.49420  0.64970  0.49649  1.0000
  H   H2567     1.0  0.54829  0.92220  0.78751  1.0000
  C   C2138     1.0  0.54642  0.88119  0.79322  1.0000
  H   H2568     1.0  0.69249  0.94825  0.96617  1.0000
  C   C2139     1.0  0.65659  0.94218  0.93902  1.0000
  H   H2569     1.0  0.54478  0.86746  0.80400  1.0000
  H   H2570     1.0  0.64627  0.96206  0.91492  1.0000
  C   C2140     1.0  0.52796  0.97000  0.79539  1.0000
  C   C2141     1.0  0.68248  0.95152  0.95483  1.0000
  C   C2142     1.0  0.54382  0.93937  0.75977  1.0000
  H   H2571     1.0  0.51178  0.88623  0.81755  1.0000
  H   H2572     1.0  0.49954  0.90594  0.80165  1.0000
  H   H2573     1.0  0.51997  0.94555  0.81733  1.0000
  C   C2143     1.0  0.52284  0.98229  0.77823  1.0000
  C   C2144     1.0  0.52024  0.91115  0.75417  1.0000
  H   H2574     1.0  0.55273  0.95052  0.76210  1.0000
  C   C2145     1.0  0.51450  0.89855  0.80528  1.0000
  C   C2146     1.0  0.68265  0.96918  0.94167  1.0000
  H   H2575     1.0  0.64647  0.93163  0.93811  1.0000
  H   H2576     1.0  0.66942  0.92439  0.96382  1.0000
  H   H2577     1.0  0.72763  0.97778  0.96974  1.0000
  C   C2147     1.0  0.54135  0.92290  0.77419  1.0000
  C   C2148     1.0  0.51659  0.87562  0.78156  1.0000
  H   H2578     1.0  0.52165  0.90954  0.81127  1.0000
  H   H2579     1.0  0.49247  0.69104  0.96719  1.0000
  N   N144      1.0  0.52680  0.89110  0.78755  1.0000
  C   C2149     1.0  0.52963  0.90814  0.77178  1.0000
  H   H2580     1.0  0.51514  0.86276  0.79352  1.0000
  H   H2581     1.0  0.51082  0.90094  0.75108  1.0000
  C   C2150     1.0  0.51595  0.95526  0.80418  1.0000
  S   S575      1.0  0.50075  0.76610  0.95583  1.0000
  H   H2582     1.0  0.52482  0.86971  0.76796  1.0000
  H   H2583     1.0  0.69657  0.98076  0.89458  1.0000
  C   C2151     1.0  0.66948  0.93805  0.95352  1.0000
  S   S576      1.0  0.54852  0.97361  0.80667  1.0000
  H   H2584     1.0  0.55396  0.89076  0.80068  1.0000
  C   C2152     1.0  0.49825  0.95366  0.79658  1.0000
  H   H2585     1.0  0.55672  0.87688  0.77992  1.0000
  H   H2586     1.0  0.49532  0.97962  0.86230  1.0000
  H   H2587     1.0  0.69287  0.97922  0.94345  1.0000
  H   H2588     1.0  0.50093  0.88136  0.77893  1.0000
  C   C2153     1.0  0.49268  0.96671  0.78002  1.0000
  C   C2154     1.0  0.53427  0.94197  0.74281  1.0000
  C   C2155     1.0  0.52247  0.92792  0.74004  1.0000
  C   C2156     1.0  0.66985  0.97385  0.92662  1.0000
  C   C2157     1.0  0.65667  0.95980  0.92573  1.0000
  H   H2589     1.0  0.50228  0.97192  0.83811  1.0000
  C   C2158     1.0  0.50516  0.98080  0.77071  1.0000
  C   C2159     1.0  0.50637  0.78084  0.97287  1.0000
  H   H2590     1.0  0.66070  0.98266  0.88793  1.0000
  H   H2591     1.0  0.53711  0.76743  0.97209  1.0000
  H   H2592     1.0  0.53581  0.95506  0.73195  1.0000
  C   C2160     1.0  0.52553  0.77782  0.97891  1.0000
