data_image0
_chemical_formula_structural       FeS2FeS2FeS2FeSFeS3FeS2FeS2FeS2FeSFeS3CH5C2HC7H6C6H4CHSFeH2C4H2C6H4CNCFeHNH2C3HC3HC2H4CH8CH2CH4SHCHCH4CH2CH4SCHCHCH6CH2CHNC3HCH4CH4CHNC10H4C2H4CH2NC8HCHC2SCHFeCH7FeS2FeS2FeSFeS3H2CHCFeS2FeS2FeS2FeSFeS3FeS2H2FeSCSHCH2C3H3C8H4NH3CHC6H4C2H2NC6H6C2H2CHC3HSCFeH2C2HCH2CHCH2NC7H10NC8H12C3NC9H14NCHC6HCHCH4CH2C3HCSH3FeHC4H4SHCH2FeS2FeS2FeS2FeSFeS3FeS2FeS2FeS2FeSFeS3CHCHCSH2C6H4FeCHC6H5C3HC3H2C6H5CH2NCHCNHCHCH2SCHSC2H6C2H7CHC2H2CHCHCHCH2C2H3C2HCNHC2HCNC9H16C2HCH5C2H2C2H3CNHC3H2C4HCH3C3H5CFeS2FeS2FeS2FeSFeS3CHC3HFeS2FeS2FeS2FeSFeS3CH5SHSHC6H9C8H4C2H2CHC3H3C6H5CHC4NC9H14CH2NH4CH2CH2NC2NH2CH5C2HCH4C3H4CHC2NC7H6CH9C2HCH2C2H2C4HCHNH2C2H4CH2NHCH3CHC2HC6SHC4SC3HCH4CHC2FeH2FeS2FeS2FeS2FeSFeS3FeS2FeS2FeS2FeSFeS3C4HC4HC6H4CH3C6H4CHCHC2H2C6H5CHNHC2H2FeSHSHSC6H2CNH5C2HC2NCNC9H18CHC2H2C2HC2HC2H9CH3C2NCH3CHCSH2NC2H4CHC2HCH6C2H4FeH2C2H4NC5HCHCHC2HCHFeS2FeS2FeSFeS3FeS2CH3FeS2FeS2FeSFeS3C3NH2FeS2NCH5C7H5C3H4CHCH2CH2C7H4C6H4C2H3C2H3NC9H14C3H3CHCNC4HC2H11CFeC2SH3NH2SHCH3CH2CHC4HCH2C3HCH2CH2C4SC4HCH2C3H2CHC2HC3H2CH6CHC2SHFeCH4Fe2S2H2FeS2FeS2FeSFeS3FeS2FeS2FeS2FeSFeS3CH4CH2C3H3C6H7C8H4C2HCHC2H3C6H4C2NC5HCH11CHCH2CHCHCH2C2H3CFeHC2H2NCH2CHC2H2SC2NHCHC5H2CH6SCHSH2CNH2NC3H13CH2C2H2CH2CHC5NC4HC2H4CH7NHC2H6CHNCHCH3CH2CSH2SHCFeS2FeS2FeS2FeSFeS3NC2HC2FeS2FeS2FeS2FeSFeS3C4HC2HC6H6CHCFeC7H4C2H2C2H2C6H5CSCSNC9H16CH6CH2CSHCH2CH2CH2CNH3CH2C2HC3HC3H3CH2C3NFeCH2C3HCH2CH3CH3CH3NCH3CH3C2H4C2H8CH4FeS2FeS2FeS2FeSFeS3FeS2HFeS2FeS2FeSFeS3C3HCNCH2C7H4C6H4C3SCHC3H4C6H4NSCH2CH3FeH3C3HCH4NSHC2HSH2C5HCSH4CHCNC6HSCH14CH3C3NC2H2CHCHCH7CH2C3HNCHCH4CH2C2H2NC9H11C2H3CH3CHCHC4HCH2C3H4CH2C5HCHCH3CH3FeH2FeH2C4Fe2S2FeS2FeSFeS3Fe2SH3C2HFeS2FeS2FeSFeS3FeS2HCHSCHC2NC4H6C6H6C3HC6H4C6H5C2HNHC2H2NSHCFeCH2CH4C2H3C3HCH5CH8C2SC2HC2HCH3C2HC3HC2HCHCH2CH2CH7NCHNC9H5CNH2C2H4SCHCH2SCH3CHCHC3HCHCH4C2H2CH2C2H2FeS2FeS2FeS2FeSFeS3FeS2FeS2FeS2FeSFeS3C2HC2HCH2C7H4CHC7H4C3H3C3HSC6H4CNH2CH2C2H4CHCH2C2HCFeHC2HC3HSH2NC3HCHCH8CHCHCH4NC3H10NC9H15C2HCFeSHC2H3CH2CHCHCHCHCHCH3CH3N3CH6CH3CHCSCH8FeS2FeS2FeS2FeSFeS3FeS2H5FeS2FeS2FeSFeS3C2HC3H2C6H6C11H4C4H4C2H2C6H8CN2CH2CHC2H2CH3C2H5CH2NC5HCH11C3H2NCH3CHC3H2CNC2HC6H4C2HCH2CHCSC2H2CHSH2CH2C3H3C2H2CH3C2FeS2FeS2FeS2FeSFeS3CHCFeS2FeS2FeS2FeSFeS3C2SH2NC12H5C2NH2C7H7C3HC6H4C2HC3H2CHSHCH2NCH4NC9H16CHCH3CHFeH4CH4CHCHNH3FeHC2H8CHC2H2NCH3C2HCHCHC2HCHCHCH4C2HC3HCH4C3HCHCH3C2HC4HCHCH2C2SH3C3HC3HFeS2FeS2FeSFeS3HCH3CFeS2FeS2FeS2FeSFeS3FeS2NH2SH4CNH3CSHC6H4C4H3CHCH3C6H4CHCHCH2CNHC6H3C3H4C2NC2HC3HCHC2H2CH3CH4CH2NC2HC4H8CHCH3CH3CH3C3H2C2HCH3C2HCHC2H2C3HNHCHC2H2CHC4H2CFeH6C2HCHCHCH3CFeHCHC2SHCH2CSH2CHFeS2FeS2FeS2FeSFeS3FeS2FeS2FeS2FeSFeS3CHC3HC2HCHC7H6C9H4C3H2C2H2C7H7CNC9H13FeCSHCH3CSH3NCH3C2HCHC2NC9H14NH6CH2C4HCHCNH3C3HC3H4SC2HC2H2C4H3CH5C2FeC2H2CH5SCH2CH2CH2FeS2FeS2FeS2FeSFeS3CH2FeS2FeS2FeS2FeSFeS3C2H2C3H3C6H6CH2C7H4CH3CH2C6H5C3H3NC5H3C3H2CHCHC3H4FeSCH2C4H3CH2CH2C2H2NH3FeC2H5CHCHSC3H2CSC2H3C2H4C2H5CH6N2H3C2HNC3HSH3SCH7CHC4NC2
_chemical_formula_sum              "Fe192 S384 C1440 H1728 N96"
_cell_length_a       57.1229
_cell_length_b       57.164
_cell_length_c       73.5003
_cell_angle_alpha    87.599
_cell_angle_beta     87.6363
_cell_angle_gamma    85.9965

_space_group_name_H-M_alt    "P 1"
_space_group_IT_number       1

loop_
  _space_group_symop_operation_xyz
  'x, y, z'

loop_
  _atom_site_type_symbol
  _atom_site_label
  _atom_site_symmetry_multiplicity
  _atom_site_fract_x
  _atom_site_fract_y
  _atom_site_fract_z
  _atom_site_occupancy
  Fe  Fe1       1.0  0.35188  0.12330  0.01732  1.0000
  S   S1        1.0  0.32414  0.13824  0.03797  1.0000
  S   S2        1.0  0.38711  0.10764  0.02566  1.0000
  Fe  Fe2       1.0  0.29895  0.12436  0.14903  1.0000
  S   S3        1.0  0.26039  0.12000  0.14767  1.0000
  S   S4        1.0  0.32561  0.12340  0.12479  1.0000
  Fe  Fe3       1.0  0.29620  0.12542  0.19156  1.0000
  S   S5        1.0  0.25733  0.11992  0.19257  1.0000
  S   S6        1.0  0.32000  0.12629  0.21616  1.0000
  Fe  Fe4       1.0  0.26601  0.09304  0.17083  1.0000
  S   S7        1.0  0.25048  0.05766  0.16625  1.0000
  Fe  Fe5       1.0  0.25515  0.14713  0.16927  1.0000
  S   S8        1.0  0.23394  0.18300  0.16811  1.0000
  S   S9        1.0  0.30473  0.09676  0.17146  1.0000
  S   S10       1.0  0.29393  0.15321  0.16905  1.0000
  Fe  Fe6       1.0  0.09046  0.37478  0.02205  1.0000
  S   S11       1.0  0.09182  0.34526  0.04424  1.0000
  S   S12       1.0  0.07250  0.41059  0.02554  1.0000
  Fe  Fe7       1.0  0.11341  0.26473  0.16848  1.0000
  S   S13       1.0  0.13317  0.29739  0.16552  1.0000
  S   S14       1.0  0.12762  0.22697  0.16317  1.0000
  Fe  Fe8       1.0  0.06781  0.29175  0.18143  1.0000
  S   S15       1.0  0.08506  0.32613  0.17999  1.0000
  S   S16       1.0  0.02963  0.29221  0.19267  1.0000
  Fe  Fe9       1.0  0.10058  0.31450  0.15283  1.0000
  S   S17       1.0  0.10025  0.34450  0.13102  1.0000
  Fe  Fe10      1.0  0.11624  0.30681  0.19290  1.0000
  S   S18       1.0  0.14189  0.31994  0.21306  1.0000
  S   S19       1.0  0.08171  0.28111  0.15369  1.0000
  S   S20       1.0  0.09803  0.27317  0.19637  1.0000
  C   C1        1.0  0.13993  0.39405  0.15191  1.0000
  H   H1        1.0  0.17128  0.41922  0.22784  1.0000
  H   H2        1.0  0.10128  0.37473  0.18444  1.0000
  H   H3        1.0  0.02972  0.24447  0.20650  1.0000
  H   H4        1.0  0.16342  0.42022  0.17036  1.0000
  H   H5        1.0  0.26720  0.07396  0.12863  1.0000
  C   C2        1.0  0.14085  0.33285  0.23487  1.0000
  C   C3        1.0  0.05718  0.22985  0.17858  1.0000
  H   H6        1.0  0.30142  0.01802  0.11816  1.0000
  C   C4        1.0  0.13930  0.38444  0.20354  1.0000
  C   C5        1.0  0.09449  0.34555  0.06834  1.0000
  C   C6        1.0  0.09674  0.36624  0.07746  1.0000
  C   C7        1.0  0.09835  0.36554  0.09661  1.0000
  C   C8        1.0  0.09780  0.34422  0.10691  1.0000
  C   C9        1.0  0.09531  0.32358  0.09781  1.0000
  C   C10       1.0  0.09366  0.32428  0.07867  1.0000
  H   H7        1.0  0.09750  0.38273  0.06976  1.0000
  H   H8        1.0  0.10030  0.38164  0.10346  1.0000
  H   H9        1.0  0.09493  0.30703  0.10549  1.0000
  H   H10       1.0  0.09197  0.30815  0.07179  1.0000
  H   H11       1.0  0.13364  0.41292  0.15116  1.0000
  H   H12       1.0  0.09931  0.37705  0.16036  1.0000
  C   C11       1.0  0.20401  0.19441  0.16737  1.0000
  C   C12       1.0  0.18545  0.18036  0.16459  1.0000
  C   C13       1.0  0.16224  0.19057  0.16343  1.0000
  C   C14       1.0  0.15718  0.21489  0.16518  1.0000
  C   C15       1.0  0.17570  0.22887  0.16817  1.0000
  C   C16       1.0  0.19892  0.21871  0.16913  1.0000
  H   H13       1.0  0.18899  0.16168  0.16316  1.0000
  H   H14       1.0  0.14811  0.17954  0.16109  1.0000
  H   H15       1.0  0.17220  0.24756  0.16956  1.0000
  H   H16       1.0  0.21305  0.22980  0.17131  1.0000
  C   C17       1.0  0.32312  0.14670  0.23360  1.0000
  H   H17       1.0  0.13530  0.34722  0.18116  1.0000
  S   S21       1.0  0.12120  0.38864  0.00577  1.0000
  Fe  Fe11      1.0  0.10165  0.42428  0.00758  1.0000
  H   H18       1.0  0.10071  0.40313  0.17308  1.0000
  H   H19       1.0  0.25482  0.22955  0.11538  1.0000
  C   C18       1.0  0.28374  0.02106  0.17539  1.0000
  C   C19       1.0  0.26133  0.02763  0.16910  1.0000
  C   C20       1.0  0.24707  0.00980  0.16443  1.0000
  C   C21       1.0  0.34488  0.99284  0.09397  1.0000
  H   H20       1.0  0.29492  0.03443  0.17919  1.0000
  H   H21       1.0  0.22970  0.01458  0.15956  1.0000
  C   C22       1.0  0.32437  0.13165  0.06191  1.0000
  C   C23       1.0  0.30325  0.13394  0.07248  1.0000
  C   C24       1.0  0.30306  0.13061  0.09165  1.0000
  C   C25       1.0  0.32414  0.12560  0.10056  1.0000
  C   C26       1.0  0.34518  0.12303  0.08997  1.0000
  C   C27       1.0  0.34530  0.12576  0.07079  1.0000
  H   H22       1.0  0.28698  0.13864  0.06578  1.0000
  H   H23       1.0  0.28669  0.13253  0.09948  1.0000
  H   H24       1.0  0.36160  0.11918  0.09665  1.0000
  H   H25       1.0  0.36171  0.12409  0.06292  1.0000
  C   C28       1.0  0.99578  0.37228  0.06058  1.0000
  N   N1        1.0  0.13365  0.38278  0.16987  1.0000
  C   C29       1.0  0.09587  0.20965  0.20256  1.0000
  Fe  Fe12      1.0  0.37750  0.07670  0.01053  1.0000
  H   H26       1.0  0.24167  0.21027  0.13210  1.0000
  N   N2        1.0  0.02098  0.36624  0.05622  1.0000
  H   H27       1.0  0.34936  0.01098  0.09396  1.0000
  H   H28       1.0  0.26320  0.21598  0.08499  1.0000
  C   C30       1.0  0.00168  0.26930  0.16956  1.0000
  C   C31       1.0  0.49024  0.09934  0.01477  1.0000
  C   C32       1.0  0.07043  0.22998  0.22482  1.0000
  H   H29       1.0  0.29245  0.16922  0.22759  1.0000
  C   C33       1.0  0.10765  0.38454  0.17206  1.0000
  C   C34       1.0  0.28779  0.03289  0.11828  1.0000
  C   C35       1.0  0.02572  0.31903  0.13353  1.0000
  H   H30       1.0  0.27623  0.03112  0.10671  1.0000
  C   C36       1.0  0.14901  0.39378  0.21856  1.0000
  C   C37       1.0  0.16846  0.42152  0.19865  1.0000
  H   H31       1.0  0.14538  0.38642  0.23217  1.0000
  H   H32       1.0  0.05381  0.23768  0.22997  1.0000
  H   H33       1.0  0.34291  0.17585  0.08544  1.0000
  H   H34       1.0  0.24004  0.20429  0.10873  1.0000
  C   C38       1.0  0.30706  0.16597  0.23648  1.0000
  H   H35       1.0  0.28482  0.15990  0.12591  1.0000
  H   H36       1.0  0.25970  0.16467  0.11198  1.0000
  H   H37       1.0  0.01761  0.26452  0.16174  1.0000
  H   H38       1.0  0.27591  0.20463  0.14800  1.0000
  H   H39       1.0  0.25704  0.16995  0.13586  1.0000
  H   H40       1.0  0.45226  0.10078  0.01754  1.0000
  H   H41       1.0  0.23829  0.28528  0.24513  1.0000
  H   H42       1.0  0.02714  0.34467  0.08065  1.0000
  C   C39       1.0  0.14201  0.35767  0.16927  1.0000
  H   H43       1.0  0.12838  0.36986  0.20617  1.0000
  H   H44       1.0  0.02545  0.21579  0.21696  1.0000
  C   C40       1.0  0.07290  0.21854  0.20795  1.0000
  H   H45       1.0  0.02336  0.31069  0.10553  1.0000
  H   H46       1.0  0.16153  0.35537  0.16918  1.0000
  H   H47       1.0  0.02968  0.40225  0.05651  1.0000
  H   H48       1.0  0.01536  0.22363  0.19458  1.0000
  S   S22       1.0  0.37898  0.04133  0.02509  1.0000
  H   H49       1.0  0.36194  0.99562  0.03033  1.0000
  C   C41       1.0  0.46729  0.10757  0.01019  1.0000
  H   H50       1.0  0.00013  0.37626  0.08963  1.0000
  C   C42       1.0  0.29421  0.20609  0.06970  1.0000
  H   H51       1.0  0.28719  0.21334  0.05703  1.0000
  H   H52       1.0  0.49195  0.18933  0.05479  1.0000
  H   H53       1.0  0.17858  0.33180  0.23591  1.0000
  H   H54       1.0  0.03338  0.46614  0.00916  1.0000
  C   C43       1.0  0.32570  0.18516  0.08569  1.0000
  H   H55       1.0  0.04971  0.18037  0.20473  1.0000
  H   H56       1.0  0.10322  0.33691  0.23813  1.0000
  C   C44       1.0  0.11107  0.48554  0.00799  1.0000
  H   H57       1.0  0.26927  0.07423  0.10429  1.0000
  H   H58       1.0  0.35446  0.12798  0.24343  1.0000
  H   H59       1.0  0.31461  0.05560  0.05465  1.0000
  H   H60       1.0  0.29314  0.22220  0.13233  1.0000
  S   S23       1.0  0.11949  0.45648  0.01569  1.0000
  C   C45       1.0  0.11973  0.33980  0.24409  1.0000
  H   H61       1.0  0.05799  0.24883  0.18106  1.0000
  C   C46       1.0  0.37719  0.01884  0.01002  1.0000
  H   H62       1.0  0.02178  0.38062  0.02865  1.0000
  C   C47       1.0  0.02995  0.22539  0.20394  1.0000
  H   H63       1.0  0.13610  0.34937  0.15697  1.0000
  H   H64       1.0  0.01707  0.32947  0.06174  1.0000
  H   H65       1.0  0.13265  0.20621  0.20828  1.0000
  H   H66       1.0  0.27640  0.03062  0.13086  1.0000
  H   H67       1.0  0.02286  0.32664  0.16192  1.0000
  H   H68       1.0  0.17994  0.43584  0.19683  1.0000
  C   C48       1.0  0.36800  0.99779  0.01626  1.0000
  H   H69       1.0  0.31770  0.07500  0.13614  1.0000
  H   H70       1.0  0.03537  0.18896  0.18389  1.0000
  C   C49       1.0  0.27977  0.07487  0.11662  1.0000
  H   H71       1.0  0.04554  0.35968  0.03353  1.0000
  N   N3        1.0  0.05300  0.21638  0.19595  1.0000
  C   C50       1.0  0.11518  0.21239  0.21314  1.0000
  C   C51       1.0  0.29154  0.99707  0.17721  1.0000
  C   C52       1.0  0.16361  0.41224  0.21613  1.0000
  H   H72       1.0  0.06647  0.18409  0.18370  1.0000
  C   C53       1.0  0.08988  0.23244  0.23541  1.0000
  H   H73       1.0  0.15923  0.39234  0.14893  1.0000
  H   H74       1.0  0.12731  0.22625  0.23753  1.0000
  H   H75       1.0  0.07400  0.22400  0.17141  1.0000
  H   H76       1.0  0.13172  0.38559  0.14054  1.0000
  C   C54       1.0  0.15880  0.41231  0.18349  1.0000
  H   H77       1.0  0.04674  0.33774  0.06187  1.0000
  H   H78       1.0  0.31957  0.17712  0.11384  1.0000
  H   H79       1.0  0.30278  0.19242  0.13857  1.0000
  H   H80       1.0  0.32683  0.19302  0.05683  1.0000
  C   C55       1.0  0.14390  0.39336  0.18552  1.0000
  H   H81       1.0  0.04293  0.22824  0.16893  1.0000
  N   N4        1.0  0.29866  0.05578  0.11762  1.0000
  C   C56       1.0  0.11220  0.22377  0.22954  1.0000
  C   C57       1.0  0.31037  0.05757  0.13513  1.0000
  C   C58       1.0  0.31664  0.19483  0.06956  1.0000
  C   C59       1.0  0.31480  0.05772  0.10139  1.0000
  C   C60       1.0  0.30658  0.05495  0.08367  1.0000
  C   C61       1.0  0.33867  0.06306  0.10248  1.0000
  C   C62       1.0  0.32132  0.05722  0.06810  1.0000
  C   C63       1.0  0.35327  0.06511  0.08681  1.0000
  C   C64       1.0  0.34461  0.06227  0.06967  1.0000
  C   C65       1.0  0.00158  0.48339  0.99926  1.0000
  H   H82       1.0  0.29779  0.05587  0.14704  1.0000
  H   H83       1.0  0.37123  0.06979  0.08788  1.0000
  H   H84       1.0  0.32470  0.04360  0.13697  1.0000
  H   H85       1.0  0.01737  0.34943  0.03072  1.0000
  C   C66       1.0  0.01358  0.31518  0.11800  1.0000
  C   C67       1.0  0.02821  0.34357  0.06558  1.0000
  H   H86       1.0  0.03505  0.38575  0.07755  1.0000
  H   H87       1.0  0.28724  0.09235  0.11632  1.0000
  H   H88       1.0  0.28851  0.05160  0.08169  1.0000
  H   H89       1.0  0.34634  0.06651  0.11520  1.0000
  C   C68       1.0  0.05108  0.19138  0.19192  1.0000
  H   H90       1.0  0.09931  0.20121  0.18974  1.0000
  H   H91       1.0  0.35586  0.06453  0.05753  1.0000
  N   N5        1.0  0.27440  0.19625  0.11966  1.0000
  C   C69       1.0  0.25183  0.21082  0.11878  1.0000
  C   C70       1.0  0.26878  0.17162  0.12351  1.0000
  C   C71       1.0  0.28718  0.20426  0.13521  1.0000
  C   C72       1.0  0.28914  0.19730  0.10261  1.0000
  C   C73       1.0  0.28057  0.20742  0.08595  1.0000
  C   C74       1.0  0.31217  0.18618  0.10196  1.0000
  C   C75       1.0  0.01333  0.32418  0.14974  1.0000
  C   C76       1.0  0.02648  0.36391  0.03642  1.0000
  H   H92       1.0  0.04480  0.31779  0.13308  1.0000
  C   C77       1.0  0.00267  0.28305  0.18480  1.0000
  H   H93       1.0  0.05437  0.38120  0.05839  1.0000
  C   C78       1.0  0.03549  0.38468  0.06251  1.0000
  C   C79       1.0  0.16211  0.33694  0.24291  1.0000
  S   S24       1.0  0.34174  0.09150  0.00325  1.0000
  C   C80       1.0  0.34190  0.14279  0.24547  1.0000
  H   H94       1.0  0.48687  0.14568  0.03419  1.0000
  Fe  Fe13      1.0  0.05583  0.40488  0.99915  1.0000
  C   C81       1.0  0.02342  0.48286  0.00707  1.0000
  H   H95       1.0  0.48122  0.18780  0.03243  1.0000
  H   H96       1.0  0.08773  0.24165  0.24803  1.0000
  H   H97       1.0  0.49265  0.08622  0.02570  1.0000
  H   H98       1.0  0.30874  0.99229  0.18239  1.0000
  H   H99       1.0  0.34501  0.99238  0.06469  1.0000
  H   H100      1.0  0.44462  0.99200  0.01119  1.0000
  H   H101      1.0  0.27686  0.26514  0.24809  1.0000
  Fe  Fe14      1.0  0.35261  0.20204  0.30610  1.0000
  S   S25       1.0  0.37526  0.23291  0.30500  1.0000
  S   S26       1.0  0.32945  0.19523  0.28208  1.0000
  Fe  Fe15      1.0  0.35809  0.19498  0.34817  1.0000
  S   S27       1.0  0.38035  0.22571  0.34955  1.0000
  S   S28       1.0  0.34593  0.17022  0.37140  1.0000
  Fe  Fe16      1.0  0.35437  0.24424  0.33031  1.0000
  S   S29       1.0  0.33955  0.28242  0.33235  1.0000
  Fe  Fe17      1.0  0.39941  0.21178  0.32425  1.0000
  S   S30       1.0  0.43913  0.20095  0.32182  1.0000
  S   S31       1.0  0.33100  0.21443  0.33072  1.0000
  S   S32       1.0  0.37777  0.18004  0.32364  1.0000
  H   H102      1.0  0.40843  0.05617  0.44996  1.0000
  H   H103      1.0  0.19563  0.40571  0.41891  1.0000
  C   C82       1.0  0.44110  0.01072  0.47024  1.0000
  H   H104      1.0  0.09782  0.44563  0.42805  1.0000
  C   C83       1.0  0.99944  0.38714  0.48717  1.0000
  Fe  Fe18      1.0  0.37220  0.13939  0.47766  1.0000
  S   S33       1.0  0.36367  0.16963  0.45689  1.0000
  S   S34       1.0  0.38289  0.10276  0.46962  1.0000
  Fe  Fe19      1.0  0.21248  0.36313  0.33187  1.0000
  S   S35       1.0  0.17372  0.35784  0.33612  1.0000
  S   S36       1.0  0.23362  0.32770  0.33664  1.0000
  Fe  Fe20      1.0  0.20218  0.41535  0.32094  1.0000
  S   S37       1.0  0.16329  0.41245  0.32399  1.0000
  S   S38       1.0  0.21607  0.45017  0.30962  1.0000
  Fe  Fe21      1.0  0.17089  0.39206  0.35028  1.0000
  S   S39       1.0  0.14491  0.40331  0.37360  1.0000
  Fe  Fe22      1.0  0.16890  0.37832  0.30957  1.0000
  S   S40       1.0  0.14020  0.36860  0.29051  1.0000
  S   S41       1.0  0.20988  0.39643  0.34794  1.0000
  S   S42       1.0  0.20759  0.38227  0.30457  1.0000
  Fe  Fe23      1.0  0.10562  0.38805  0.47895  1.0000
  S   S43       1.0  0.06939  0.40581  0.47620  1.0000
  S   S44       1.0  0.12723  0.36837  0.45670  1.0000
  H   H105      1.0  0.33463  0.24532  0.26373  1.0000
  H   H106      1.0  0.35913  0.15434  0.26890  1.0000
  Fe  Fe24      1.0  0.08450  0.43591  0.48905  1.0000
  S   S45       1.0  0.07372  0.47257  0.47916  1.0000
  C   C84       1.0  0.16468  0.48758  0.29307  1.0000
  S   S46       1.0  0.12110  0.41929  0.48992  1.0000
  H   H107      1.0  0.28291  0.29845  0.29969  1.0000
  C   C85       1.0  0.01045  0.46748  0.49389  1.0000
  H   H108      1.0  0.32335  0.24203  0.29575  1.0000
  H   H109      1.0  0.01553  0.38416  0.47907  1.0000
  C   C86       1.0  0.14121  0.35463  0.26911  1.0000
  C   C87       1.0  0.49258  0.24540  0.32385  1.0000
  C   C88       1.0  0.16233  0.34769  0.25990  1.0000
  H   H110      1.0  0.12168  0.35705  0.37142  1.0000
  H   H111      1.0  0.32562  0.29881  0.26945  1.0000
  H   H112      1.0  0.42736  0.03371  0.43929  1.0000
  C   C89       1.0  0.39828  0.01562  0.46523  1.0000
  C   C90       1.0  0.25161  0.30658  0.28553  1.0000
  C   C91       1.0  0.14011  0.39262  0.39649  1.0000
  C   C92       1.0  0.15403  0.37407  0.40434  1.0000
  C   C93       1.0  0.14980  0.36677  0.42273  1.0000
  C   C94       1.0  0.13174  0.37797  0.43352  1.0000
  C   C95       1.0  0.11757  0.39618  0.42555  1.0000
  C   C96       1.0  0.12172  0.40344  0.40717  1.0000
  H   H113      1.0  0.16818  0.36549  0.39633  1.0000
  H   H114      1.0  0.16074  0.35249  0.42870  1.0000
  H   H115      1.0  0.10327  0.40444  0.43356  1.0000
  H   H116      1.0  0.11065  0.41758  0.40117  1.0000
  N   N6        1.0  0.42021  0.02731  0.46797  1.0000
  H   H117      1.0  0.13556  0.47919  0.45612  1.0000
  H   H118      1.0  0.06760  0.37569  0.32684  1.0000
  H   H119      1.0  0.39970  0.05260  0.48414  1.0000
  C   C97       1.0  0.10294  0.35564  0.37334  1.0000
  H   H120      1.0  0.29351  0.23760  0.29079  1.0000
  C   C98       1.0  0.31000  0.29474  0.33380  1.0000
  C   C99       1.0  0.29096  0.28090  0.33734  1.0000
  C   C100      1.0  0.26784  0.29138  0.33828  1.0000
  C   C101      1.0  0.26333  0.31581  0.33557  1.0000
  C   C102      1.0  0.28238  0.32966  0.33201  1.0000
  C   C103      1.0  0.30555  0.31918  0.33125  1.0000
  H   H121      1.0  0.29401  0.26210  0.33921  1.0000
  H   H122      1.0  0.25325  0.28047  0.34094  1.0000
  H   H123      1.0  0.27927  0.34845  0.32992  1.0000
  H   H124      1.0  0.32011  0.33013  0.32857  1.0000
  C   C104      1.0  0.46679  0.21297  0.32480  1.0000
  C   C105      1.0  0.46990  0.23706  0.32296  1.0000
  H   H125      1.0  0.48455  0.17887  0.32953  1.0000
  H   H126      1.0  0.45492  0.24921  0.32038  1.0000
  N   N7        1.0  0.30762  0.26777  0.27699  1.0000
  C   C106      1.0  0.35379  0.16918  0.39473  1.0000
  C   C107      1.0  0.36472  0.18742  0.40238  1.0000
  C   C108      1.0  0.36850  0.18686  0.42129  1.0000
  C   C109      1.0  0.36205  0.16780  0.43276  1.0000
  C   C110      1.0  0.35195  0.14916  0.42497  1.0000
  C   C111      1.0  0.34761  0.15000  0.40615  1.0000
  H   H127      1.0  0.36973  0.20224  0.39385  1.0000
  H   H128      1.0  0.37609  0.20150  0.42715  1.0000
  H   H129      1.0  0.34657  0.13453  0.43359  1.0000
  H   H130      1.0  0.33911  0.13580  0.40048  1.0000
  H   H131      1.0  0.16461  0.46897  0.29667  1.0000
  H   H132      1.0  0.24410  0.31801  0.29603  1.0000
  C   C112      1.0  0.32819  0.17663  0.26316  1.0000
  C   C113      1.0  0.42396  0.04353  0.45198  1.0000
  H   H133      1.0  0.02654  0.45636  0.49529  1.0000
  H   H134      1.0  0.34310  0.27638  0.28172  1.0000
  C   C114      1.0  0.30601  0.25124  0.29297  1.0000
  H   H135      1.0  0.29668  0.19520  0.25340  1.0000
  C   C115      1.0  0.34454  0.15768  0.26005  1.0000
  C   C116      1.0  0.30955  0.18072  0.25117  1.0000
  C   C117      1.0  0.24839  0.28811  0.25694  1.0000
  H   H136      1.0  0.17884  0.35066  0.26582  1.0000
  S   S47       1.0  0.40510  0.14321  0.49282  1.0000
  C   C118      1.0  0.15561  0.45097  0.40922  1.0000
  Fe  Fe25      1.0  0.36586  0.09075  0.49620  1.0000
  H   H137      1.0  0.19774  0.46977  0.34430  1.0000
  H   H138      1.0  0.43903  0.05449  0.45349  1.0000
  C   C119      1.0  0.41637  0.04125  0.48452  1.0000
  C   C120      1.0  0.21418  0.47900  0.31840  1.0000
  H   H139      1.0  0.38284  0.02857  0.46381  1.0000
  C   C121      1.0  0.46341  0.01931  0.47291  1.0000
  H   H140      1.0  0.10567  0.35323  0.40255  1.0000
  H   H141      1.0  0.12182  0.46718  0.49002  1.0000
  C   C122      1.0  0.11603  0.48548  0.48993  1.0000
  H   H142      1.0  0.14404  0.43902  0.45456  1.0000
  C   C123      1.0  0.09395  0.35347  0.39127  1.0000
  H   H143      1.0  0.22152  0.31176  0.26883  1.0000
  H   H144      1.0  0.08757  0.47152  0.43981  1.0000
  N   N8        1.0  0.09814  0.35884  0.33943  1.0000
  C   C124      1.0  0.11086  0.38063  0.33752  1.0000
  C   C125      1.0  0.11487  0.33844  0.33562  1.0000
  C   C126      1.0  0.08038  0.36025  0.32515  1.0000
  C   C127      1.0  0.08809  0.35629  0.35826  1.0000
  C   C128      1.0  0.06369  0.35447  0.36226  1.0000
  C   C129      1.0  0.05488  0.35232  0.38028  1.0000
  C   C130      1.0  0.06997  0.35187  0.39474  1.0000
  H   H145      1.0  0.12675  0.37957  0.34572  1.0000
  H   H146      1.0  0.11712  0.38433  0.32321  1.0000
  H   H147      1.0  0.09958  0.39614  0.34201  1.0000
  H   H148      1.0  0.12947  0.33669  0.34521  1.0000
  H   H149      1.0  0.12319  0.33995  0.32166  1.0000
  H   H150      1.0  0.10593  0.32173  0.33677  1.0000
  H   H151      1.0  0.08879  0.36226  0.31122  1.0000
  H   H152      1.0  0.07073  0.34399  0.32519  1.0000
  H   H153      1.0  0.05102  0.35476  0.35175  1.0000
  H   H154      1.0  0.15038  0.46123  0.39722  1.0000
  N   N9        1.0  0.32816  0.12745  0.31547  1.0000
  C   C131      1.0  0.32012  0.14973  0.32424  1.0000
  C   C132      1.0  0.32429  0.10796  0.32899  1.0000
  C   C133      1.0  0.35374  0.12819  0.31130  1.0000
  C   C134      1.0  0.31590  0.12356  0.29858  1.0000
  C   C135      1.0  0.29791  0.13955  0.29163  1.0000
  C   C136      1.0  0.32199  0.10324  0.28844  1.0000
  C   C137      1.0  0.28700  0.13540  0.27548  1.0000
  C   C138      1.0  0.31117  0.09946  0.27220  1.0000
  H   H155      1.0  0.32132  0.29382  0.29363  1.0000
  H   H156      1.0  0.30118  0.15012  0.32847  1.0000
  H   H157      1.0  0.32985  0.15224  0.33680  1.0000
  H   H158      1.0  0.32314  0.16521  0.31496  1.0000
  H   H159      1.0  0.30519  0.10624  0.33191  1.0000
  H   H160      1.0  0.33248  0.11083  0.34217  1.0000
  H   H161      1.0  0.33198  0.09079  0.32422  1.0000
  H   H162      1.0  0.35727  0.14254  0.30103  1.0000
  H   H163      1.0  0.36350  0.13131  0.32370  1.0000
  H   H164      1.0  0.36175  0.11158  0.30579  1.0000
  H   H165      1.0  0.29241  0.15577  0.29804  1.0000
  H   H166      1.0  0.33549  0.09030  0.29282  1.0000
  C   C139      1.0  0.27392  0.29529  0.28750  1.0000
  C   C140      1.0  0.32507  0.28497  0.28053  1.0000
  C   C141      1.0  0.17435  0.43417  0.40669  1.0000
  N   N10       1.0  0.31126  0.24949  0.39023  1.0000
  C   C142      1.0  0.28679  0.24797  0.38456  1.0000
  C   C143      1.0  0.31620  0.27472  0.38948  1.0000
  C   C144      1.0  0.32760  0.23756  0.37683  1.0000
  C   C145      1.0  0.31407  0.23780  0.40845  1.0000
  C   C146      1.0  0.30943  0.21381  0.41132  1.0000
  C   C147      1.0  0.32154  0.24951  0.42369  1.0000
  C   C148      1.0  0.31190  0.20233  0.42836  1.0000
  C   C149      1.0  0.32418  0.23773  0.44064  1.0000
  C   C150      1.0  0.31938  0.21422  0.44296  1.0000
  H   H167      1.0  0.27394  0.25528  0.39501  1.0000
  H   H168      1.0  0.28344  0.25796  0.37151  1.0000
  H   H169      1.0  0.28259  0.22961  0.38241  1.0000
  H   H170      1.0  0.30413  0.28501  0.39890  1.0000
  H   H171      1.0  0.31386  0.28292  0.37555  1.0000
  H   H172      1.0  0.33473  0.27710  0.39276  1.0000
  H   H173      1.0  0.32378  0.21897  0.37516  1.0000
  H   H174      1.0  0.32685  0.24650  0.36309  1.0000
  H   H175      1.0  0.34606  0.23738  0.38118  1.0000
  H   H176      1.0  0.30446  0.20348  0.40028  1.0000
  H   H177      1.0  0.32574  0.26763  0.42284  1.0000
  H   H178      1.0  0.30900  0.18380  0.43011  1.0000
  H   H179      1.0  0.33037  0.24671  0.45203  1.0000
  H   H180      1.0  0.32210  0.20494  0.45597  1.0000
  N   N11       1.0  0.12377  0.47090  0.42978  1.0000
  C   C151      1.0  0.27070  0.27665  0.25881  1.0000
  H   H181      1.0  0.10347  0.35594  0.26795  1.0000
  C   C152      1.0  0.10308  0.45894  0.43742  1.0000
  C   C153      1.0  0.14378  0.45345  0.42653  1.0000
  C   C154      1.0  0.48326  0.00403  0.47575  1.0000
  C   C155      1.0  0.17068  0.42141  0.43829  1.0000
  C   C156      1.0  0.29374  0.11553  0.26572  1.0000
  C   C157      1.0  0.18176  0.41933  0.42115  1.0000
  H   H182      1.0  0.17597  0.40932  0.44938  1.0000
  C   C158      1.0  0.47187  0.08812  0.48742  1.0000
  H   H183      1.0  0.18248  0.43188  0.39321  1.0000
  C   C159      1.0  0.15213  0.43832  0.44103  1.0000
  H   H184      1.0  0.03621  0.35107  0.38309  1.0000
  H   H185      1.0  0.30010  0.26025  0.30555  1.0000
  H   H186      1.0  0.27387  0.14815  0.27008  1.0000
  H   H187      1.0  0.10629  0.44987  0.45084  1.0000
  C   C160      1.0  0.11994  0.35062  0.26104  1.0000
  H   H188      1.0  0.33267  0.01346  0.48266  1.0000
  H   H189      1.0  0.11076  0.47250  0.40261  1.0000
  C   C161      1.0  0.28423  0.28001  0.27421  1.0000
  C   C162      1.0  0.31688  0.25400  0.26122  1.0000
  C   C163      1.0  0.48667  0.19752  0.32801  1.0000
  H   H190      1.0  0.06311  0.35034  0.40869  1.0000
  C   C164      1.0  0.34621  0.01025  0.49252  1.0000
  S   S48       1.0  0.44906  0.09499  0.47267  1.0000
  H   H191      1.0  0.43061  0.05309  0.48622  1.0000
  H   H192      1.0  0.31662  0.08427  0.26431  1.0000
  H   H193      1.0  0.46554  0.03798  0.47305  1.0000
  Fe  Fe26      1.0  0.41431  0.10589  0.48617  1.0000
  H   H194      1.0  0.28595  0.11294  0.25279  1.0000
  C   C165      1.0  0.20430  0.48388  0.33570  1.0000
  C   C166      1.0  0.11628  0.48439  0.41305  1.0000
  C   C167      1.0  0.13039  0.48795  0.44300  1.0000
  C   C168      1.0  0.23887  0.30303  0.27026  1.0000
  H   H195      1.0  0.30568  0.23936  0.25870  1.0000
  H   H196      1.0  0.41554  0.02961  0.49699  1.0000
  H   H197      1.0  0.39962  0.00525  0.45271  1.0000
  H   H198      1.0  0.39389  0.00383  0.47710  1.0000
  S   S49       1.0  0.34492  0.05842  0.49415  1.0000
  H   H199      1.0  0.17244  0.48216  0.26474  1.0000
  C   C169      1.0  0.01131  0.49186  0.49199  1.0000
  H   H200      1.0  0.31850  0.26532  0.24861  1.0000
  H   H201      1.0  0.43837  0.19598  0.61389  1.0000
  Fe  Fe27      1.0  0.38632  0.12896  0.51810  1.0000
  S   S50       1.0  0.39769  0.14187  0.54565  1.0000
  S   S51       1.0  0.39844  0.09132  0.51221  1.0000
  Fe  Fe28      1.0  0.36233  0.20652  0.64343  1.0000
  S   S52       1.0  0.38396  0.23727  0.64826  1.0000
  S   S53       1.0  0.35199  0.19617  0.61501  1.0000
  Fe  Fe29      1.0  0.35000  0.19878  0.68496  1.0000
  S   S54       1.0  0.37129  0.22825  0.69196  1.0000
  S   S55       1.0  0.32520  0.18014  0.70546  1.0000
  Fe  Fe30      1.0  0.35469  0.24875  0.66840  1.0000
  S   S56       1.0  0.34078  0.28569  0.67647  1.0000
  Fe  Fe31      1.0  0.39880  0.21442  0.67144  1.0000
  S   S57       1.0  0.43685  0.20852  0.68080  1.0000
  S   S58       1.0  0.33220  0.21981  0.66216  1.0000
  S   S59       1.0  0.37836  0.18307  0.66578  1.0000
  Fe  Fe32      1.0  0.11075  0.40543  0.51814  1.0000
  S   S60       1.0  0.07524  0.42494  0.51780  1.0000
  S   S61       1.0  0.13757  0.41124  0.53984  1.0000
  Fe  Fe33      1.0  0.17199  0.38663  0.64693  1.0000
  S   S62       1.0  0.20551  0.40484  0.64398  1.0000
  S   S63       1.0  0.14645  0.38074  0.62440  1.0000
  Fe  Fe34      1.0  0.17998  0.37315  0.68836  1.0000
  S   S64       1.0  0.21410  0.39110  0.68763  1.0000
  S   S65       1.0  0.16599  0.34674  0.71012  1.0000
  Fe  Fe35      1.0  0.19471  0.42059  0.67104  1.0000
  S   S66       1.0  0.18727  0.46071  0.67345  1.0000
  Fe  Fe36      1.0  0.22202  0.37395  0.66055  1.0000
  S   S67       1.0  0.25188  0.34975  0.64801  1.0000
  S   S68       1.0  0.16023  0.40306  0.67337  1.0000
  S   S69       1.0  0.18878  0.35526  0.66200  1.0000
  C   C170      1.0  0.22173  0.28198  0.71293  1.0000
  H   H202      1.0  0.11707  0.38134  0.71249  1.0000
  C   C171      1.0  0.25594  0.27553  0.68502  1.0000
  H   H203      1.0  0.48052  0.15774  0.50087  1.0000
  C   C172      1.0  0.15758  0.34686  0.73380  1.0000
  S   S70       1.0  0.35222  0.12766  0.50348  1.0000
  H   H204      1.0  0.00035  0.32270  0.54550  1.0000
  H   H205      1.0  0.14673  0.31149  0.73405  1.0000
  C   C173      1.0  0.13880  0.40373  0.56361  1.0000
  C   C174      1.0  0.12219  0.39032  0.57287  1.0000
  C   C175      1.0  0.12466  0.38388  0.59150  1.0000
  C   C176      1.0  0.14355  0.39092  0.60122  1.0000
  C   C177      1.0  0.15967  0.40513  0.59211  1.0000
  C   C178      1.0  0.15738  0.41131  0.57342  1.0000
  H   H206      1.0  0.10776  0.38440  0.56559  1.0000
  H   H207      1.0  0.11199  0.37302  0.59838  1.0000
  H   H208      1.0  0.17405  0.41110  0.59938  1.0000
  H   H209      1.0  0.17031  0.42174  0.56643  1.0000
  Fe  Fe37      1.0  0.06242  0.39324  0.50518  1.0000
  C   C179      1.0  0.45875  0.12864  0.53844  1.0000
  H   H210      1.0  0.20858  0.31207  0.69684  1.0000
  C   C180      1.0  0.31493  0.30212  0.66898  1.0000
  C   C181      1.0  0.30441  0.32000  0.67985  1.0000
  C   C182      1.0  0.28467  0.33424  0.67399  1.0000
  C   C183      1.0  0.27553  0.33118  0.65694  1.0000
  C   C184      1.0  0.28588  0.31309  0.64619  1.0000
  C   C185      1.0  0.30522  0.29847  0.65225  1.0000
  H   H211      1.0  0.31173  0.32306  0.69281  1.0000
  H   H212      1.0  0.27700  0.34805  0.68243  1.0000
  H   H213      1.0  0.27905  0.31049  0.63297  1.0000
  H   H214      1.0  0.31313  0.28493  0.64365  1.0000
  H   H215      1.0  0.39436  0.99871  0.52791  1.0000
  C   C186      1.0  0.46560  0.21705  0.67423  1.0000
  C   C187      1.0  0.46972  0.23410  0.66045  1.0000
  C   C188      1.0  0.27273  0.22422  0.68579  1.0000
  H   H216      1.0  0.45521  0.24220  0.65296  1.0000
  C   C189      1.0  0.32460  0.17558  0.72973  1.0000
  C   C190      1.0  0.47364  0.14278  0.50912  1.0000
  C   C191      1.0  0.99566  0.32892  0.51689  1.0000
  H   H217      1.0  0.35526  0.19393  0.73445  1.0000
  H   H218      1.0  0.29351  0.15623  0.72995  1.0000
  C   C192      1.0  0.38444  0.15681  0.56485  1.0000
  C   C193      1.0  0.39821  0.16008  0.57993  1.0000
  C   C194      1.0  0.38868  0.17189  0.59540  1.0000
  C   C195      1.0  0.36518  0.18078  0.59599  1.0000
  C   C196      1.0  0.35148  0.17758  0.58087  1.0000
  C   C197      1.0  0.36096  0.16567  0.56546  1.0000
  H   H219      1.0  0.41634  0.15326  0.57973  1.0000
  H   H220      1.0  0.39945  0.17403  0.60688  1.0000
  H   H221      1.0  0.33331  0.18433  0.58110  1.0000
  H   H222      1.0  0.35008  0.16340  0.55404  1.0000
  H   H223      1.0  0.30046  0.26252  0.71008  1.0000
  C   C198      1.0  0.48492  0.20658  0.68359  1.0000
  H   H224      1.0  0.20830  0.28464  0.72364  1.0000
  H   H225      1.0  0.16570  0.46066  0.59054  1.0000
  N   N12       1.0  0.46767  0.14931  0.52816  1.0000
  C   C199      1.0  0.45859  0.29870  0.67774  1.0000
  H   H226      1.0  0.25682  0.21639  0.71984  1.0000
  C   C200      1.0  0.27362  0.22515  0.71832  1.0000
  N   N13       1.0  0.11187  0.48139  0.54842  1.0000
  H   H227      1.0  0.41814  0.27170  0.71940  1.0000
  C   C201      1.0  0.47329  0.19367  0.60152  1.0000
  H   H228      1.0  0.37938  0.03957  0.52008  1.0000
  C   C202      1.0  0.30644  0.16312  0.73824  1.0000
  H   H229      1.0  0.08678  0.46536  0.56698  1.0000
  H   H230      1.0  0.44963  0.07779  0.51034  1.0000
  S   S71       1.0  0.02710  0.38309  0.51746  1.0000
  C   C203      1.0  0.37256  0.02504  0.51349  1.0000
  H   H231      1.0  0.27591  0.23563  0.73045  1.0000
  S   S72       1.0  0.09765  0.37252  0.50733  1.0000
  C   C204      1.0  0.10316  0.46068  0.55884  1.0000
  C   C205      1.0  0.17247  0.47610  0.59595  1.0000
  H   H232      1.0  0.46725  0.19828  0.58797  1.0000
  H   H233      1.0  0.01433  0.32917  0.51359  1.0000
  H   H234      1.0  0.28589  0.20883  0.68634  1.0000
  H   H235      1.0  0.25497  0.21734  0.68592  1.0000
  H   H236      1.0  0.17085  0.46257  0.62373  1.0000
  H   H237      1.0  0.45484  0.25341  0.70953  1.0000
  C   C206      1.0  0.45698  0.19240  0.61609  1.0000
  C   C207      1.0  0.23876  0.26318  0.71425  1.0000
  H   H238      1.0  0.41727  0.24858  0.70336  1.0000
  H   H239      1.0  0.41751  0.31415  0.70697  1.0000
  H   H240      1.0  0.47617  0.19279  0.54267  1.0000
  H   H241      1.0  0.30225  0.25765  0.68615  1.0000
  H   H242      1.0  0.44870  0.31084  0.66884  1.0000
  H   H243      1.0  0.11077  0.48329  0.58683  1.0000
  H   H244      1.0  0.23868  0.30629  0.67208  1.0000
  C   C208      1.0  0.14833  0.32665  0.74212  1.0000
  H   H245      1.0  0.45808  0.13712  0.50219  1.0000
  C   C209      1.0  0.13323  0.47322  0.53772  1.0000
  C   C210      1.0  0.15957  0.36631  0.74443  1.0000
  H   H246      1.0  0.43246  0.16163  0.52114  1.0000
  H   H247      1.0  0.41415  0.31985  0.68292  1.0000
  C   C211      1.0  0.46741  0.08025  0.50542  1.0000
  H   H248      1.0  0.44180  0.17287  0.54152  1.0000
  C   C212      1.0  0.08228  0.34273  0.73492  1.0000
  H   H249      1.0  0.39328  0.27556  0.67385  1.0000
  C   C213      1.0  0.09339  0.48998  0.53565  1.0000
  H   H250      1.0  0.48714  0.12790  0.50834  1.0000
  C   C214      1.0  0.48853  0.18202  0.63659  1.0000
  H   H251      1.0  0.16670  0.38196  0.73831  1.0000
  H   H252      1.0  0.23605  0.47401  0.67656  1.0000
  C   C215      1.0  0.10596  0.37392  0.72327  1.0000
  C   C216      1.0  0.46459  0.18666  0.63357  1.0000
  H   H253      1.0  0.45326  0.13298  0.55269  1.0000
  H   H254      1.0  0.48201  0.19335  0.69425  1.0000
  H   H255      1.0  0.31281  0.23503  0.70159  1.0000
  C   C217      1.0  0.41197  0.26736  0.70587  1.0000
  C   C218      1.0  0.44713  0.28300  0.69006  1.0000
  H   H256      1.0  0.47191  0.11346  0.53903  1.0000
  C   C219      1.0  0.23877  0.29418  0.68384  1.0000
  N   N14       1.0  0.42115  0.28321  0.69112  1.0000
  H   H257      1.0  0.08825  0.47577  0.52698  1.0000
  C   C220      1.0  0.41065  0.30724  0.69444  1.0000
  C   C221      1.0  0.25654  0.25945  0.70029  1.0000
  H   H258      1.0  0.23758  0.25183  0.72630  1.0000
  C   C222      1.0  0.48625  0.26697  0.69896  1.0000
  N   N15       1.0  0.20908  0.34390  0.60120  1.0000
  C   C223      1.0  0.21319  0.36785  0.60675  1.0000
  C   C224      1.0  0.19909  0.33109  0.61740  1.0000
  C   C225      1.0  0.23206  0.33159  0.59623  1.0000
  C   C226      1.0  0.19367  0.34555  0.58540  1.0000
  C   C227      1.0  0.17074  0.33719  0.58620  1.0000
  C   C228      1.0  0.20120  0.35648  0.56866  1.0000
  C   C229      1.0  0.15655  0.33945  0.57108  1.0000
  C   C230      1.0  0.18674  0.35886  0.55370  1.0000
  C   C231      1.0  0.16449  0.35031  0.55490  1.0000
  H   H259      1.0  0.22497  0.36740  0.61846  1.0000
  H   H260      1.0  0.22152  0.37854  0.59566  1.0000
  H   H261      1.0  0.19636  0.37738  0.61101  1.0000
  H   H262      1.0  0.18246  0.34023  0.62267  1.0000
  H   H263      1.0  0.21129  0.32993  0.62893  1.0000
  H   H264      1.0  0.19564  0.31280  0.61427  1.0000
  H   H265      1.0  0.24211  0.34141  0.58555  1.0000
  H   H266      1.0  0.24362  0.32929  0.60816  1.0000
  H   H267      1.0  0.22965  0.31387  0.59115  1.0000
  H   H268      1.0  0.16305  0.32943  0.59848  1.0000
  H   H269      1.0  0.21816  0.36373  0.56713  1.0000
  H   H270      1.0  0.13892  0.33348  0.57210  1.0000
  H   H271      1.0  0.19254  0.36783  0.54120  1.0000
  H   H272      1.0  0.15308  0.35278  0.54343  1.0000
  H   H273      1.0  0.26882  0.27387  0.67387  1.0000
  H   H274      1.0  0.09916  0.34412  0.70807  1.0000
  C   C232      1.0  0.48893  0.15666  0.53668  1.0000
  C   C233      1.0  0.29854  0.24918  0.69974  1.0000
  H   H275      1.0  0.09900  0.44665  0.54963  1.0000
  C   C234      1.0  0.44809  0.16783  0.52758  1.0000
  H   H276      1.0  0.28778  0.21074  0.71857  1.0000
  H   H277      1.0  0.39111  0.30756  0.69611  1.0000
  H   H278      1.0  0.45302  0.18367  0.51940  1.0000
  H   H279      1.0  0.39240  0.26868  0.70683  1.0000
  H   H280      1.0  0.41796  0.28729  0.66189  1.0000
  C   C235      1.0  0.17534  0.47719  0.61461  1.0000
  C   C236      1.0  0.46177  0.26685  0.70050  1.0000
  H   H281      1.0  0.42018  0.25756  0.67073  1.0000
  H   H282      1.0  0.11662  0.45230  0.56802  1.0000
  C   C237      1.0  0.48309  0.29859  0.67628  1.0000
  C   C238      1.0  0.41280  0.27563  0.67364  1.0000
  H   H283      1.0  0.44307  0.12235  0.53207  1.0000
  H   H284      1.0  0.14116  0.48769  0.52965  1.0000
  H   H285      1.0  0.27578  0.23333  0.67231  1.0000
  C   C239      1.0  0.09588  0.35286  0.72083  1.0000
  N   N16       1.0  0.27492  0.23983  0.70118  1.0000
  H   H286      1.0  0.07515  0.32620  0.73242  1.0000
  C   C240      1.0  0.22178  0.29747  0.69779  1.0000
  C   C241      1.0  0.35534  0.02941  0.50059  1.0000
  C   C242      1.0  0.34119  0.18431  0.74071  1.0000
  H   H287      1.0  0.45184  0.18597  0.64494  1.0000
  H   H288      1.0  0.12934  0.45981  0.52788  1.0000
  C   C243      1.0  0.00031  0.38843  0.50609  1.0000
  C   C244      1.0  0.22444  0.48980  0.67633  1.0000
  C   C245      1.0  0.10256  0.38490  0.73982  1.0000
  C   C246      1.0  0.20023  0.48808  0.67512  1.0000
  H   H289      1.0  0.48268  0.06967  0.53110  1.0000
  C   C247      1.0  0.38095  0.00184  0.51795  1.0000
  H   H290      1.0  0.49152  0.31041  0.66655  1.0000
  H   H291      1.0  0.11105  0.40094  0.74179  1.0000
  H   H292      1.0  0.14694  0.46497  0.54673  1.0000
  C   C248      1.0  0.49061  0.17957  0.54318  1.0000
  C   C249      1.0  0.48609  0.07561  0.51713  1.0000
  C   C250      1.0  0.49272  0.24109  0.65660  1.0000
  H   H293      1.0  0.17797  0.00668  0.81701  1.0000
  H   H294      1.0  0.32807  0.03819  0.99179  1.0000
  H   H295      1.0  0.14176  0.47435  0.97832  1.0000
  H   H296      1.0  0.39023  0.00537  0.96595  1.0000
  H   H297      1.0  0.25461  0.21681  0.77773  1.0000
  C   C251      1.0  0.32686  0.99772  0.89129  1.0000
  Fe  Fe38      1.0  0.35876  0.10624  0.97740  1.0000
  S   S73       1.0  0.34646  0.09757  0.94897  1.0000
  S   S74       1.0  0.39413  0.08831  0.98381  1.0000
  Fe  Fe39      1.0  0.28188  0.13272  0.85183  1.0000
  S   S75       1.0  0.25077  0.11240  0.84545  1.0000
  S   S76       1.0  0.29139  0.14345  0.88030  1.0000
  Fe  Fe40      1.0  0.29447  0.14324  0.81086  1.0000
  S   S77       1.0  0.26480  0.12335  0.80206  1.0000
  S   S78       1.0  0.32091  0.16299  0.79262  1.0000
  Fe  Fe41      1.0  0.24283  0.14157  0.82428  1.0000
  S   S79       1.0  0.20650  0.15684  0.81571  1.0000
  Fe  Fe42      1.0  0.27496  0.09578  0.82379  1.0000
  S   S80       1.0  0.28221  0.05720  0.81611  1.0000
  S   S81       1.0  0.27212  0.16288  0.83197  1.0000
  S   S82       1.0  0.30642  0.11471  0.83130  1.0000
  C   C252      1.0  0.20894  0.99926  0.80018  1.0000
  H   H298      1.0  0.28653  0.04834  0.87022  1.0000
  C   C253      1.0  0.08920  0.37482  0.75408  1.0000
  C   C254      1.0  0.32373  0.01934  0.89966  1.0000
  C   C255      1.0  0.09223  0.30113  0.94276  1.0000
  H   H299      1.0  0.14860  0.30795  0.95289  1.0000
  Fe  Fe43      1.0  0.10060  0.38447  0.98056  1.0000
  S   S83       1.0  0.12041  0.37063  0.95491  1.0000
  S   S84       1.0  0.08361  0.42121  0.98137  1.0000
  Fe  Fe44      1.0  0.11674  0.27406  0.83588  1.0000
  S   S85       1.0  0.12912  0.30956  0.84156  1.0000
  S   S86       1.0  0.14506  0.24646  0.84575  1.0000
  Fe  Fe45      1.0  0.06853  0.29610  0.82322  1.0000
  S   S87       1.0  0.07924  0.33231  0.82832  1.0000
  S   S88       1.0  0.03228  0.30068  0.81042  1.0000
  Fe  Fe46      1.0  0.11387  0.32105  0.81455  1.0000
  S   S89       1.0  0.13273  0.34615  0.79466  1.0000
  Fe  Fe47      1.0  0.09338  0.31738  0.85477  1.0000
  S   S90       1.0  0.08031  0.33273  0.88213  1.0000
  S   S91       1.0  0.10305  0.28540  0.80817  1.0000
  S   S92       1.0  0.08128  0.28147  0.85031  1.0000
  C   C256      1.0  0.14228  0.34564  0.77120  1.0000
  H   H300      1.0  0.13401  0.43268  0.98296  1.0000
  H   H301      1.0  0.07450  0.30607  0.94771  1.0000
  H   H302      1.0  0.15344  0.38092  0.77099  1.0000
  H   H303      1.0  0.13372  0.31029  0.76671  1.0000
  H   H304      1.0  0.35334  0.02221  0.95504  1.0000
  S   S93       1.0  0.01850  0.41918  0.99659  1.0000
  H   H305      1.0  0.07878  0.35806  0.78974  1.0000
  S   S94       1.0  0.36619  0.13970  0.99074  1.0000
  H   H306      1.0  0.14544  0.41152  0.96704  1.0000
  C   C257      1.0  0.10875  0.36155  0.93436  1.0000
  C   C258      1.0  0.12430  0.35519  0.91974  1.0000
  C   C259      1.0  0.11601  0.34686  0.90352  1.0000
  C   C260      1.0  0.09197  0.34448  0.90177  1.0000
  C   C261      1.0  0.07640  0.35125  0.91628  1.0000
  C   C262      1.0  0.08468  0.35981  0.93243  1.0000
  H   H307      1.0  0.14295  0.35655  0.92103  1.0000
  H   H308      1.0  0.12824  0.34233  0.89242  1.0000
  H   H309      1.0  0.05777  0.34964  0.91512  1.0000
  H   H310      1.0  0.07245  0.36462  0.94350  1.0000
  H   H311      1.0  0.15599  0.28700  0.92469  1.0000
  H   H312      1.0  0.08044  0.28567  0.91953  1.0000
  H   H313      1.0  0.21042  0.31501  0.79245  1.0000
  H   H314      1.0  0.33136  0.00934  0.98379  1.0000
  H   H315      1.0  0.09264  0.25167  0.90340  1.0000
  C   C263      1.0  0.12596  0.45040  0.94941  1.0000
  C   C264      1.0  0.09598  0.28934  0.92648  1.0000
  C   C265      1.0  0.19003  0.18226  0.82390  1.0000
  C   C266      1.0  0.16989  0.19118  0.81475  1.0000
  C   C267      1.0  0.15607  0.21097  0.82099  1.0000
  C   C268      1.0  0.16206  0.22193  0.83667  1.0000
  C   C269      1.0  0.18228  0.21311  0.84573  1.0000
  C   C270      1.0  0.19628  0.19357  0.83933  1.0000
  H   H316      1.0  0.16484  0.18261  0.80281  1.0000
  H   H317      1.0  0.14055  0.21738  0.81390  1.0000
  H   H318      1.0  0.18715  0.22137  0.85786  1.0000
  H   H319      1.0  0.21165  0.18698  0.84655  1.0000
  C   C271      1.0  0.19302  0.30862  0.78965  1.0000
  C   C272      1.0  0.32173  0.16764  0.76835  1.0000
  H   H320      1.0  0.22741  0.28808  0.77235  1.0000
  H   H321      1.0  0.35283  0.18701  0.76812  1.0000
  C   C273      1.0  0.24242  0.25318  0.77381  1.0000
  H   H322      1.0  0.02985  0.32996  0.77202  1.0000
  C   C274      1.0  0.28468  0.00932  0.81241  1.0000
  C   C275      1.0  0.27226  0.02852  0.82065  1.0000
  C   C276      1.0  0.25245  0.02428  0.83183  1.0000
  H   H323      1.0  0.09019  0.41764  0.92574  1.0000
  H   H324      1.0  0.29998  0.01234  0.80368  1.0000
  H   H325      1.0  0.24264  0.03873  0.83830  1.0000
  C   C277      1.0  0.33098  0.11082  0.93012  1.0000
  C   C278      1.0  0.32895  0.09762  0.91453  1.0000
  C   C279      1.0  0.31685  0.10716  0.89922  1.0000
  C   C280      1.0  0.30649  0.13010  0.89931  1.0000
  C   C281      1.0  0.30856  0.14327  0.91488  1.0000
  C   C282      1.0  0.32069  0.13375  0.93017  1.0000
  H   H326      1.0  0.33704  0.07996  0.91422  1.0000
  H   H327      1.0  0.31567  0.09688  0.88732  1.0000
  H   H328      1.0  0.30075  0.16106  0.91512  1.0000
  H   H329      1.0  0.32207  0.14418  0.94198  1.0000
  H   H330      1.0  0.28747  0.05794  0.97027  1.0000
  C   C283      1.0  0.11909  0.28337  0.91939  1.0000
  H   H331      1.0  0.33262  0.02201  0.91208  1.0000
  C   C284      1.0  0.38363  0.00340  0.97990  1.0000
  C   C285      1.0  0.06160  0.35563  0.78364  1.0000
  C   C286      1.0  0.13798  0.29031  0.92945  1.0000
  C   C287      1.0  0.00048  0.26922  0.82524  1.0000
  N   N17       1.0  0.35769  0.16490  0.84214  1.0000
  C   C288      1.0  0.36087  0.14140  0.83421  1.0000
  C   C289      1.0  0.33220  0.17175  0.84410  1.0000
  C   C290      1.0  0.36810  0.18191  0.82884  1.0000
  C   C291      1.0  0.36826  0.16393  0.86026  1.0000
  C   C292      1.0  0.38761  0.17701  0.86420  1.0000
  C   C293      1.0  0.35927  0.14932  0.87463  1.0000
  C   C294      1.0  0.39710  0.17555  0.88151  1.0000
  C   C295      1.0  0.36886  0.14803  0.89186  1.0000
  C   C296      1.0  0.38771  0.16113  0.89531  1.0000
  H   H332      1.0  0.37981  0.13561  0.83251  1.0000
  H   H333      1.0  0.35241  0.12776  0.84290  1.0000
  H   H334      1.0  0.35299  0.14134  0.82056  1.0000
  H   H335      1.0  0.32233  0.15819  0.85171  1.0000
  H   H336      1.0  0.32393  0.17439  0.83064  1.0000
  H   H337      1.0  0.32892  0.18832  0.85151  1.0000
  H   H338      1.0  0.38706  0.17718  0.82587  1.0000
  H   H339      1.0  0.35944  0.18222  0.81546  1.0000
  H   H340      1.0  0.36589  0.20010  0.83378  1.0000
  H   H341      1.0  0.39573  0.18853  0.85418  1.0000
  H   H342      1.0  0.34461  0.13882  0.87268  1.0000
  H   H343      1.0  0.41181  0.18569  0.88431  1.0000
  H   H344      1.0  0.36154  0.13688  0.90266  1.0000
  H   H345      1.0  0.39502  0.16008  0.90874  1.0000
  C   C297      1.0  0.20762  0.26668  0.79235  1.0000
  H   H346      1.0  0.15728  0.25362  0.90937  1.0000
  H   H347      1.0  0.04141  0.32535  0.74955  1.0000
  N   N18       1.0  0.18985  0.28511  0.79849  1.0000
  H   H348      1.0  0.39240  0.03778  0.98705  1.0000
  H   H349      1.0  0.17208  0.46708  0.97381  1.0000
  H   H350      1.0  0.08803  0.38391  0.76670  1.0000
  H   H351      1.0  0.48120  0.14739  0.97661  1.0000
  C   C298      1.0  0.20721  0.24343  0.79988  1.0000
  H   H352      1.0  0.30538  0.06846  0.95104  1.0000
  H   H353      1.0  0.16104  0.26242  0.80230  1.0000
  C   C299      1.0  0.10229  0.26366  0.89394  1.0000
  H   H354      1.0  0.12379  0.30262  0.88533  1.0000
  H   H355      1.0  0.02077  0.36851  0.99317  1.0000
  N   N19       1.0  0.06470  0.34184  0.76690  1.0000
  C   C300      1.0  0.19095  0.28748  0.81848  1.0000
  C   C301      1.0  0.11117  0.30755  0.95231  1.0000
  N   N20       1.0  0.12382  0.27103  0.90214  1.0000
  H   H356      1.0  0.27951  0.04367  0.94142  1.0000
  H   H357      1.0  0.22912  0.99835  0.84247  1.0000
  C   C302      1.0  0.22730  0.00866  0.78992  1.0000
  H   H358      1.0  0.29134  0.01091  0.85543  1.0000
  H   H359      1.0  0.02727  0.33317  0.88192  1.0000
  H   H360      1.0  0.24913  0.07651  0.78708  1.0000
  H   H361      1.0  0.22321  0.20808  0.80064  1.0000
  H   H362      1.0  0.15210  0.29273  0.89339  1.0000
  C   C303      1.0  0.33975  0.18033  0.75985  1.0000
  C   C304      1.0  0.24489  0.00127  0.83428  1.0000
  H   H363      1.0  0.19095  0.30858  0.77464  1.0000
  C   C305      1.0  0.15483  0.46951  0.96721  1.0000
  H   H364      1.0  0.13981  0.27784  0.87554  1.0000
  H   H365      1.0  0.16504  0.42660  0.98002  1.0000
  H   H366      1.0  0.14246  0.23932  0.89269  1.0000
  H   H367      1.0  0.13200  0.23785  0.91615  1.0000
  C   C306      1.0  0.30732  0.01916  0.95238  1.0000
  C   C307      1.0  0.00375  0.31640  0.86530  1.0000
  C   C308      1.0  0.19193  0.01414  0.80870  1.0000
  H   H368      1.0  0.01557  0.25822  0.82956  1.0000
  H   H369      1.0  0.08787  0.47570  0.98774  1.0000
  H   H370      1.0  0.26278  0.01562  0.92272  1.0000
  H   H371      1.0  0.09022  0.27911  0.89013  1.0000
  C   C309      1.0  0.13545  0.28672  0.88856  1.0000
  H   H372      1.0  0.10815  0.31743  0.96458  1.0000
  C   C310      1.0  0.14837  0.42883  0.97262  1.0000
  C   C311      1.0  0.09601  0.43274  0.93233  1.0000
  N   N21       1.0  0.21233  0.07456  0.79465  1.0000
  C   C312      1.0  0.23146  0.08234  0.78197  1.0000
  C   C313      1.0  0.18985  0.08549  0.78780  1.0000
  C   C314      1.0  0.21605  0.08378  0.81278  1.0000
  C   C315      1.0  0.21145  0.04870  0.79633  1.0000
  C   C316      1.0  0.22876  0.03297  0.78806  1.0000
  C   C317      1.0  0.19313  0.03849  0.80688  1.0000
  C   C318      1.0  0.30500  0.15915  0.75737  1.0000
  H   H373      1.0  0.35225  0.05026  0.96502  1.0000
  H   H374      1.0  0.30245  0.02227  0.98877  1.0000
  H   H375      1.0  0.22997  0.07561  0.76811  1.0000
  H   H376      1.0  0.23105  0.10182  0.78036  1.0000
  H   H377      1.0  0.05083  0.34658  0.79443  1.0000
  H   H378      1.0  0.17475  0.08291  0.79751  1.0000
  C   C319      1.0  0.11072  0.47114  0.95006  1.0000
  H   H379      1.0  0.19044  0.10489  0.78567  1.0000
  H   H380      1.0  0.23279  0.07599  0.81840  1.0000
  H   H381      1.0  0.21687  0.10324  0.81211  1.0000
  H   H382      1.0  0.20172  0.07985  0.82289  1.0000
  H   H383      1.0  0.16790  0.45509  0.93312  1.0000
  H   H384      1.0  0.17976  0.04925  0.81403  1.0000
  H   H385      1.0  0.01653  0.31425  0.85402  1.0000
  H   H386      1.0  0.05244  0.37315  0.78082  1.0000
  H   H387      1.0  0.07906  0.30694  0.76050  1.0000
  C   C320      1.0  0.15199  0.36565  0.76299  1.0000
  C   C321      1.0  0.34260  0.03901  0.95627  1.0000
  H   H388      1.0  0.10651  0.25412  0.88115  1.0000
  C   C322      1.0  0.22391  0.22571  0.79458  1.0000
  H   H389      1.0  0.31455  0.07089  0.97353  1.0000
  H   H390      1.0  0.18553  0.44104  0.95075  1.0000
  C   C323      1.0  0.16605  0.27847  0.79439  1.0000
  C   C324      1.0  0.07851  0.35339  0.75201  1.0000
  H   H391      1.0  0.18577  0.07812  0.77460  1.0000
  H   H392      1.0  0.15583  0.48464  0.95725  1.0000
  C   C325      1.0  0.13955  0.24957  0.90529  1.0000
  C   C326      1.0  0.30922  0.03751  0.89212  1.0000
  C   C327      1.0  0.28761  0.02602  0.94167  1.0000
  C   C328      1.0  0.13399  0.30222  0.94564  1.0000
  H   H393      1.0  0.30688  0.05424  0.89861  1.0000
  C   C329      1.0  0.22570  0.27103  0.77896  1.0000
  H   H394      1.0  0.24395  0.03892  0.78046  1.0000
  N   N22       1.0  0.14885  0.44792  0.95833  1.0000
  H   H395      1.0  0.18591  0.27141  0.82636  1.0000
  H   H396      1.0  0.16482  0.27515  0.77965  1.0000
  C   C330      1.0  0.14077  0.32598  0.76067  1.0000
  C   C331      1.0  0.16794  0.44186  0.94468  1.0000
  H   H397      1.0  0.20896  0.29106  0.82232  1.0000
  H   H398      1.0  0.34222  0.04774  0.94245  1.0000
  H   H399      1.0  0.19397  0.23877  0.81003  1.0000
  H   H400      1.0  0.29105  0.14934  0.76359  1.0000
  C   C332      1.0  0.24155  0.23059  0.78163  1.0000
  H   H401      1.0  0.15242  0.29266  0.79785  1.0000
  H   H402      1.0  0.17864  0.30204  0.82342  1.0000
  N   N23       1.0  0.31854  0.03562  0.96379  1.0000
  H   H403      1.0  0.25627  0.25693  0.76380  1.0000
  C   C333      1.0  0.00377  0.29082  0.81615  1.0000
  H   H404      1.0  0.17962  0.32214  0.79480  1.0000
  H   H405      1.0  0.06678  0.30948  0.78305  1.0000
  H   H406      1.0  0.16627  0.42438  0.93895  1.0000
  C   C334      1.0  0.30574  0.05912  0.96464  1.0000
  H   H407      1.0  0.09448  0.32134  0.77713  1.0000
  C   C335      1.0  0.29771  0.03414  0.87619  1.0000
  C   C336      1.0  0.07679  0.31890  0.77205  1.0000
  H   H408      1.0  0.12863  0.41509  0.93894  1.0000
  C   C337      1.0  0.04092  0.33779  0.76078  1.0000
  C   C338      1.0  0.11805  0.43141  0.94002  1.0000
  C   C339      1.0  0.27779  0.01002  0.93079  1.0000
  C   C340      1.0  0.32010  0.02590  0.98280  1.0000
  C   C341      1.0  0.08129  0.45312  0.93355  1.0000
  C   C342      1.0  0.30070  0.01263  0.86773  1.0000
  S   S95       1.0  0.07129  0.36789  0.99664  1.0000
  H   H409      1.0  0.03163  0.35454  0.75597  1.0000
  C   C343      1.0  0.38490  0.02170  0.99182  1.0000
  C   C344      1.0  0.00980  0.32705  0.88097  1.0000
  C   C345      1.0  0.31662  0.99553  0.95123  1.0000
  C   C346      1.0  0.08868  0.47233  0.94229  1.0000
  S   S96       1.0  0.43545  0.13821  0.99192  1.0000
  C   C347      1.0  0.48366  0.13384  0.98722  1.0000
  C   C348      1.0  0.09588  0.49007  0.99364  1.0000
  C   C349      1.0  0.31558  0.99381  0.87488  1.0000
  H   H410      1.0  0.99463  0.46715  0.99547  1.0000
  C   C350      1.0  0.00265  0.37490  0.99508  1.0000
  H   H411      1.0  0.24095  0.99694  0.78388  1.0000
  H   H412      1.0  0.06404  0.45395  0.92784  1.0000
  H   H413      1.0  0.07714  0.48815  0.94329  1.0000
  H   H414      1.0  0.11520  0.48661  0.95672  1.0000
  C   C351      1.0  0.99680  0.39897  0.99642  1.0000
  H   H415      1.0  0.99813  0.33831  0.90754  1.0000
  C   C352      1.0  0.99334  0.32990  0.89539  1.0000
  C   C353      1.0  0.46387  0.12519  0.99659  1.0000
  Fe  Fe48      1.0  0.40098  0.12085  0.99824  1.0000
  H   H416      1.0  0.06300  0.76135  0.21460  1.0000
  H   H417      1.0  0.05611  0.56230  0.02931  1.0000
  Fe  Fe49      1.0  0.34716  0.89460  0.01591  1.0000
  S   S97       1.0  0.31793  0.89842  0.03821  1.0000
  S   S98       1.0  0.37775  0.91725  0.01487  1.0000
  Fe  Fe50      1.0  0.29349  0.86169  0.18926  1.0000
  S   S99       1.0  0.26054  0.88552  0.19272  1.0000
  S   S100      1.0  0.31292  0.83678  0.20991  1.0000
  Fe  Fe51      1.0  0.29574  0.87220  0.14724  1.0000
  S   S101      1.0  0.26298  0.89617  0.14812  1.0000
  S   S102      1.0  0.31971  0.86469  0.12221  1.0000
  Fe  Fe52      1.0  0.27789  0.91118  0.17278  1.0000
  S   S103      1.0  0.28811  0.94923  0.17563  1.0000
  Fe  Fe53      1.0  0.24842  0.86838  0.16768  1.0000
  S   S104      1.0  0.21100  0.85658  0.16450  1.0000
  S   S105      1.0  0.31149  0.88792  0.17095  1.0000
  S   S106      1.0  0.28053  0.84366  0.16520  1.0000
  Fe  Fe54      1.0  0.10835  0.63615  0.01977  1.0000
  S   S107      1.0  0.12871  0.65365  0.04108  1.0000
  S   S108      1.0  0.08337  0.60722  0.02259  1.0000
  Fe  Fe55      1.0  0.13067  0.73895  0.15940  1.0000
  S   S109      1.0  0.13885  0.70016  0.16575  1.0000
  S   S110      1.0  0.16530  0.75779  0.15651  1.0000
  Fe  Fe56      1.0  0.07671  0.73234  0.16276  1.0000
  S   S111      1.0  0.08257  0.69415  0.17005  1.0000
  S   S112      1.0  0.03915  0.74922  0.16011  1.0000
  Fe  Fe57      1.0  0.11099  0.70406  0.18816  1.0000
  S   S113      1.0  0.11223  0.69685  0.21913  1.0000
  Fe  Fe58      1.0  0.10979  0.69403  0.14676  1.0000
  S   S114      1.0  0.10539  0.66524  0.12651  1.0000
  S   S115      1.0  0.10343  0.74282  0.18228  1.0000
  S   S116      1.0  0.10324  0.73226  0.13898  1.0000
  C   C354      1.0  0.13113  0.67902  0.23356  1.0000
  C   C355      1.0  0.16675  0.71105  0.00512  1.0000
  C   C356      1.0  0.46309  0.88023  0.00674  1.0000
  C   C357      1.0  0.01990  0.52580  0.00924  1.0000
  H   H418      1.0  0.04655  0.72086  0.19379  1.0000
  C   C358      1.0  0.18367  0.71036  0.03538  1.0000
  C   C359      1.0  0.01122  0.73683  0.16307  1.0000
  C   C360      1.0  0.00886  0.71376  0.16974  1.0000
  C   C361      1.0  0.14709  0.66144  0.22688  1.0000
  H   H419      1.0  0.02424  0.70266  0.17319  1.0000
  C   C362      1.0  0.12046  0.65789  0.06449  1.0000
  C   C363      1.0  0.13049  0.67557  0.07379  1.0000
  C   C364      1.0  0.12558  0.67858  0.09260  1.0000
  C   C365      1.0  0.11105  0.66349  0.10250  1.0000
  C   C366      1.0  0.10088  0.64595  0.09317  1.0000
  C   C367      1.0  0.10526  0.64336  0.07427  1.0000
  H   H420      1.0  0.14237  0.68685  0.06645  1.0000
  H   H421      1.0  0.13364  0.69208  0.09955  1.0000
  H   H422      1.0  0.08972  0.63407  0.10065  1.0000
  H   H423      1.0  0.09756  0.62955  0.06742  1.0000
  C   C368      1.0  0.04116  0.73344  0.23848  1.0000
  H   H424      1.0  0.33497  0.95087  0.06435  1.0000
  H   H425      1.0  0.12145  0.72510  0.00335  1.0000
  H   H426      1.0  0.16423  0.70312  0.20681  1.0000
  C   C369      1.0  0.19874  0.82869  0.16316  1.0000
  C   C370      1.0  0.17412  0.82778  0.16329  1.0000
  C   C371      1.0  0.16353  0.80635  0.16160  1.0000
  C   C372      1.0  0.17744  0.78544  0.15938  1.0000
  C   C373      1.0  0.20207  0.78632  0.15927  1.0000
  C   C374      1.0  0.21265  0.80767  0.16131  1.0000
  H   H427      1.0  0.16311  0.84383  0.16471  1.0000
  H   H428      1.0  0.14461  0.80611  0.16172  1.0000
  H   H429      1.0  0.21308  0.77032  0.15759  1.0000
  H   H430      1.0  0.23156  0.80787  0.16131  1.0000
  C   C375      1.0  0.31858  0.83811  0.23351  1.0000
  H   H431      1.0  0.34399  0.98915  0.12276  1.0000
  C   C376      1.0  0.20218  0.71912  0.19022  1.0000
  H   H432      1.0  0.15583  0.72864  0.21995  1.0000
  C   C377      1.0  0.16781  0.70239  0.02346  1.0000
  C   C378      1.0  0.00020  0.71333  0.22209  1.0000
  H   H433      1.0  0.47968  0.97734  0.01965  1.0000
  H   H434      1.0  0.06269  0.69368  0.13158  1.0000
  C   C379      1.0  0.31932  0.89008  0.06175  1.0000
  C   C380      1.0  0.30004  0.89620  0.07359  1.0000
  C   C381      1.0  0.29991  0.88892  0.09219  1.0000
  C   C382      1.0  0.31908  0.87532  0.09913  1.0000
  C   C383      1.0  0.33847  0.86953  0.08735  1.0000
  C   C384      1.0  0.33866  0.87691  0.06880  1.0000
  H   H435      1.0  0.28493  0.90628  0.06824  1.0000
  H   H436      1.0  0.28480  0.89338  0.10100  1.0000
  H   H437      1.0  0.35340  0.85901  0.09256  1.0000
  H   H438      1.0  0.35359  0.87202  0.05987  1.0000
  H   H439      1.0  0.04655  0.66842  0.12854  1.0000
  C   C385      1.0  0.16149  0.64767  0.23895  1.0000
  H   H440      1.0  0.47971  0.89387  0.02949  1.0000
  N   N24       1.0  0.33271  0.94192  0.12786  1.0000
  H   H441      1.0  0.07111  0.69808  0.09934  1.0000
  C   C386      1.0  0.00084  0.62481  0.00636  1.0000
  C   C387      1.0  0.33702  0.95445  0.14459  1.0000
  H   H442      1.0  0.30401  0.92370  0.11814  1.0000
  H   H443      1.0  0.30465  0.92487  0.14224  1.0000
  Fe  Fe59      1.0  0.05911  0.63233  0.00691  1.0000
  S   S117      1.0  0.43483  0.88220  0.01778  1.0000
  H   H444      1.0  0.14813  0.65824  0.21245  1.0000
  S   S118      1.0  0.36911  0.86247  0.00691  1.0000
  H   H445      1.0  0.04982  0.50193  0.01761  1.0000
  S   S119      1.0  0.08287  0.66168  0.00581  1.0000
  C   C388      1.0  0.19382  0.70333  0.23659  1.0000
  C   C389      1.0  0.05003  0.54514  0.02547  1.0000
  C   C390      1.0  0.38122  0.85383  0.22242  1.0000
  C   C391      1.0  0.37460  0.86103  0.23984  1.0000
  C   C392      1.0  0.12555  0.70624  0.00059  1.0000
  C   C393      1.0  0.11660  0.52763  0.00865  1.0000
  H   H446      1.0  0.29541  0.95068  0.12919  1.0000
  H   H447      1.0  0.01976  0.67217  0.08361  1.0000
  C   C394      1.0  0.19064  0.75442  0.20620  1.0000
  N   N25       1.0  0.03589  0.73687  0.21890  1.0000
  H   H448      1.0  0.15213  0.66639  0.00409  1.0000
  H   H449      1.0  0.03354  0.69279  0.14088  1.0000
  H   H450      1.0  0.33640  0.80360  0.23449  1.0000
  H   H451      1.0  0.33461  0.94304  0.15714  1.0000
  H   H452      1.0  0.17363  0.63402  0.23362  1.0000
  C   C395      1.0  0.33625  0.95610  0.11075  1.0000
  C   C396      1.0  0.18269  0.72822  0.99941  1.0000
  H   H453      1.0  0.15626  0.73054  0.19562  1.0000
  C   C397      1.0  0.22744  0.72372  0.22502  1.0000
  C   C398      1.0  0.30815  0.93502  0.12931  1.0000
  N   N26       1.0  0.02954  0.54824  0.01356  1.0000
  C   C399      1.0  0.04498  0.68793  0.12890  1.0000
  N   N27       1.0  0.24061  0.84463  0.10882  1.0000
  C   C400      1.0  0.23079  0.86872  0.11276  1.0000
  C   C401      1.0  0.22101  0.82895  0.10860  1.0000
  C   C402      1.0  0.25555  0.83641  0.12418  1.0000
  C   C403      1.0  0.25351  0.84480  0.09090  1.0000
  C   C404      1.0  0.24208  0.85362  0.07498  1.0000
  C   C405      1.0  0.27757  0.83672  0.08868  1.0000
  C   C406      1.0  0.25420  0.85517  0.05809  1.0000
  C   C407      1.0  0.28943  0.83815  0.07168  1.0000
  C   C408      1.0  0.27789  0.84763  0.05648  1.0000
  H   H454      1.0  0.21705  0.87532  0.10322  1.0000
  H   H455      1.0  0.22226  0.86954  0.12668  1.0000
  H   H456      1.0  0.24482  0.88132  0.11197  1.0000
  H   H457      1.0  0.21118  0.82821  0.12204  1.0000
  H   H458      1.0  0.22762  0.81070  0.10552  1.0000
  H   H459      1.0  0.20795  0.83490  0.09830  1.0000
  H   H460      1.0  0.27055  0.84766  0.12524  1.0000
  H   H461      1.0  0.24549  0.83701  0.13747  1.0000
  H   H462      1.0  0.26256  0.81789  0.12280  1.0000
  H   H463      1.0  0.22377  0.85979  0.07557  1.0000
  H   H464      1.0  0.28797  0.82996  0.09993  1.0000
  H   H465      1.0  0.24537  0.86267  0.04621  1.0000
  H   H466      1.0  0.30801  0.83277  0.07043  1.0000
  H   H467      1.0  0.28752  0.84962  0.04352  1.0000
  H   H468      1.0  0.35818  0.96388  0.00891  1.0000
  H   H469      1.0  0.12484  0.54196  0.01440  1.0000
  H   H470      1.0  0.32429  0.96993  0.14643  1.0000
  H   H471      1.0  0.32936  0.92811  0.09271  1.0000
  C   C409      1.0  0.01147  0.56387  0.02303  1.0000
  H   H472      1.0  0.99676  0.57001  0.01425  1.0000
  C   C410      1.0  0.25485  0.98579  0.16629  1.0000
  C   C411      1.0  0.05342  0.69204  0.09682  1.0000
  H   H473      1.0  0.18338  0.76198  0.21913  1.0000
  H   H474      1.0  0.34679  0.90944  0.14061  1.0000
  C   C412      1.0  0.04391  0.76013  0.21256  1.0000
  C   C413      1.0  0.03512  0.72462  0.11273  1.0000
  H   H475      1.0  0.00189  0.76890  0.20293  1.0000
  C   C414      1.0  0.41192  0.82732  0.23504  1.0000
  C   C415      1.0  0.19853  0.73609  0.01145  1.0000
  H   H476      1.0  0.36744  0.92469  0.12609  1.0000
  C   C416      1.0  0.33374  0.94611  0.09361  1.0000
  C   C417      1.0  0.01218  0.69106  0.10890  1.0000
  H   H477      1.0  0.22028  0.72484  0.18787  1.0000
  H   H478      1.0  0.15640  0.68922  0.02874  1.0000
  H   H479      1.0  0.25865  0.71787  0.24066  1.0000
  H   H480      1.0  0.42043  0.94767  0.02564  1.0000
  H   H481      1.0  0.03015  0.74605  0.24689  1.0000
  H   H482      1.0  0.34530  0.90859  0.11667  1.0000
  H   H483      1.0  0.20843  0.76073  0.20342  1.0000
  H   H484      1.0  0.40486  0.83146  0.20640  1.0000
  H   H485      1.0  0.02746  0.73346  0.10035  1.0000
  C   C418      1.0  0.16572  0.72237  0.20751  1.0000
  H   H486      1.0  0.19235  0.72519  0.17793  1.0000
  H   H487      1.0  0.02445  0.73101  0.12474  1.0000
  H   H488      1.0  0.17974  0.76230  0.19497  1.0000
  C   C419      1.0  0.33088  0.81884  0.24223  1.0000
  C   C420      1.0  0.27711  0.97922  0.17284  1.0000
  N   N28       1.0  0.19063  0.72841  0.20713  1.0000
  C   C421      1.0  0.01057  0.73445  0.21641  1.0000
  H   H489      1.0  0.24347  0.97240  0.16289  1.0000
  H   H490      1.0  0.05290  0.73102  0.11424  1.0000
  H   H491      1.0  0.04813  0.69988  0.08337  1.0000
  C   C422      1.0  0.20370  0.71865  0.22305  1.0000
  H   H492      1.0  0.21058  0.74914  0.00684  1.0000
  C   C423      1.0  0.00677  0.67760  0.09395  1.0000
  S   S120      1.0  0.02195  0.63915  0.01742  1.0000
  H   H493      1.0  0.23622  0.73501  0.21517  1.0000
  H   H494      1.0  0.00391  0.55486  0.03540  1.0000
  N   N29       1.0  0.03602  0.69870  0.11162  1.0000
  C   C424      1.0  0.34181  0.98001  0.11046  1.0000
  C   C425      1.0  0.19901  0.72718  0.02939  1.0000
  H   H495      1.0  0.35527  0.96009  0.14456  1.0000
  H   H496      1.0  0.42594  0.81418  0.23221  1.0000
  H   H497      1.0  0.06551  0.53610  0.01850  1.0000
  H   H498      1.0  0.20322  0.69957  0.19068  1.0000
  C   C426      1.0  0.34878  0.92034  0.12777  1.0000
  H   H499      1.0  0.04150  0.76337  0.19766  1.0000
  C   C427      1.0  0.39994  0.83714  0.22000  1.0000
  C   C428      1.0  0.33685  0.95907  0.07724  1.0000
  H   H500      1.0  0.01882  0.58029  0.02729  1.0000
  C   C429      1.0  0.12118  0.50446  0.01559  1.0000
  H   H501      1.0  0.01052  0.69867  0.22811  1.0000
  H   H502      1.0  0.37148  0.86087  0.21082  1.0000
  H   H503      1.0  0.30209  0.87265  0.23722  1.0000
  H   H504      1.0  0.18405  0.70330  0.04932  1.0000
  H   H505      1.0  0.05600  0.67263  0.09585  1.0000
  H   H506      1.0  0.03437  0.77463  0.22005  1.0000
  C   C430      1.0  0.34246  0.98239  0.07742  1.0000
  C   C431      1.0  0.24048  0.71392  0.23951  1.0000
  H   H507      1.0  0.04639  0.70063  0.21312  1.0000
  H   H508      1.0  0.44755  0.95770  0.03260  1.0000
  H   H509      1.0  0.99620  0.70701  0.13330  1.0000
  H   H510      1.0  0.35974  0.87370  0.24170  1.0000
  Fe  Fe60      1.0  0.39948  0.88608  0.00416  1.0000
  H   H511      1.0  0.17597  0.69838  0.23631  1.0000
  H   H512      1.0  0.21135  0.73326  0.03867  1.0000
  C   C432      1.0  0.05002  0.71883  0.20854  1.0000
  C   C433      1.0  0.99348  0.69689  0.12160  1.0000
  H   H513      1.0  0.04569  0.53505  0.03829  1.0000
  H   H514      1.0  0.12258  0.69595  0.01359  1.0000
  H   H515      1.0  0.44668  0.92858  0.02459  1.0000
  H   H516      1.0  0.06915  0.72026  0.20995  1.0000
  N   N30       1.0  0.44489  0.95567  0.00344  1.0000
  C   C434      1.0  0.99797  0.52572  0.00076  1.0000
  C   C435      1.0  0.36615  0.97973  0.00421  1.0000
  C   C436      1.0  0.31158  0.85771  0.24368  1.0000
  C   C437      1.0  0.43655  0.98081  0.00155  1.0000
  C   C438      1.0  0.03260  0.50368  0.01196  1.0000
  H   H517      1.0  0.13298  0.50112  0.02669  1.0000
  C   C439      1.0  0.99559  0.75251  0.20823  1.0000
  H   H518      1.0  0.03801  0.71543  0.24386  1.0000
  C   C440      1.0  0.43969  0.94712  0.02239  1.0000
  H   H519      1.0  0.05998  0.73590  0.24086  1.0000
  C   C441      1.0  0.48246  0.88685  0.01607  1.0000
  C   C442      1.0  0.48612  0.96553  0.00919  1.0000
  H   H520      1.0  0.41733  0.98331  0.00450  1.0000
  C   C443      1.0  0.47054  0.95282  0.99946  1.0000
  H   H521      1.0  0.04520  0.57691  0.99868  1.0000
  Fe  Fe61      1.0  0.35531  0.81494  0.31422  1.0000
  S   S121      1.0  0.36455  0.77677  0.30944  1.0000
  S   S122      1.0  0.33687  0.84099  0.29409  1.0000
  Fe  Fe62      1.0  0.37280  0.81089  0.35381  1.0000
  S   S123      1.0  0.38269  0.77235  0.35109  1.0000
  S   S124      1.0  0.38539  0.82453  0.38036  1.0000
  Fe  Fe63      1.0  0.39829  0.78278  0.32358  1.0000
  S   S125      1.0  0.43503  0.76974  0.31278  1.0000
  Fe  Fe64      1.0  0.34818  0.77022  0.33751  1.0000
  S   S126      1.0  0.31857  0.74741  0.34834  1.0000
  S   S127      1.0  0.38972  0.82130  0.32666  1.0000
  S   S128      1.0  0.33755  0.80841  0.34175  1.0000
  Fe  Fe65      1.0  0.36481  0.88360  0.47557  1.0000
  S   S129      1.0  0.39505  0.90698  0.47554  1.0000
  S   S130      1.0  0.34356  0.87804  0.45062  1.0000
  C   C444      1.0  0.18166  0.57832  0.38246  1.0000
  H   H522      1.0  0.11775  0.69625  0.25779  1.0000
  H   H523      1.0  0.17008  0.59387  0.38640  1.0000
  H   H524      1.0  0.02845  0.49880  0.49195  1.0000
  Fe  Fe66      1.0  0.22984  0.64337  0.32567  1.0000
  S   S131      1.0  0.19393  0.66147  0.32133  1.0000
  S   S132      1.0  0.26377  0.66249  0.31949  1.0000
  Fe  Fe67      1.0  0.20956  0.59343  0.32954  1.0000
  S   S133      1.0  0.17332  0.60947  0.32472  1.0000
  S   S134      1.0  0.20912  0.55462  0.33967  1.0000
  Fe  Fe68      1.0  0.18885  0.63237  0.30237  1.0000
  S   S135      1.0  0.17885  0.63313  0.27228  1.0000
  Fe  Fe69      1.0  0.18173  0.63669  0.34432  1.0000
  S   S136      1.0  0.15255  0.64113  0.36652  1.0000
  S   S137      1.0  0.22500  0.61470  0.30607  1.0000
  S   S138      1.0  0.21781  0.62035  0.34969  1.0000
  C   C445      1.0  0.18181  0.71769  0.45901  1.0000
  C   C446      1.0  0.21410  0.59182  0.39825  1.0000
  C   C447      1.0  0.14462  0.66914  0.26446  1.0000
  N   N31       1.0  0.41594  0.82231  0.26940  1.0000
  H   H525      1.0  0.20321  0.60803  0.40164  1.0000
  H   H526      1.0  0.16952  0.59929  0.41703  1.0000
  Fe  Fe70      1.0  0.12751  0.62751  0.47487  1.0000
  S   S139      1.0  0.15160  0.64512  0.45355  1.0000
  S   S140      1.0  0.10892  0.59481  0.47179  1.0000
  N   N32       1.0  0.19972  0.57155  0.39602  1.0000
  C   C448      1.0  0.17108  0.56782  0.26009  1.0000
  H   H527      1.0  0.14846  0.57468  0.30302  1.0000
  H   H528      1.0  0.24689  0.71855  0.30907  1.0000
  H   H529      1.0  0.06824  0.52251  0.48122  1.0000
  H   H530      1.0  0.30666  0.77520  0.27950  1.0000
  H   H531      1.0  0.20262  0.52851  0.41658  1.0000
  C   C449      1.0  0.24718  0.77673  0.27990  1.0000
  C   C450      1.0  0.15321  0.64147  0.39074  1.0000
  C   C451      1.0  0.13334  0.63504  0.40126  1.0000
  C   C452      1.0  0.13271  0.63561  0.42047  1.0000
  C   C453      1.0  0.15181  0.64314  0.42942  1.0000
  C   C454      1.0  0.17170  0.64961  0.41891  1.0000
  C   C455      1.0  0.17252  0.64855  0.39971  1.0000
  H   H532      1.0  0.11822  0.62971  0.39449  1.0000
  H   H533      1.0  0.11723  0.63070  0.42830  1.0000
  H   H534      1.0  0.18655  0.65554  0.42566  1.0000
  H   H535      1.0  0.18781  0.65383  0.39183  1.0000
  H   H536      1.0  0.39267  0.79432  0.26936  1.0000
  C   C456      1.0  0.22133  0.52084  0.31368  1.0000
  C   C457      1.0  0.21128  0.52576  0.33091  1.0000
  C   C458      1.0  0.20296  0.50706  0.34190  1.0000
  H   H537      1.0  0.22676  0.58809  0.40929  1.0000
  H   H538      1.0  0.22853  0.53474  0.30527  1.0000
  H   H539      1.0  0.19533  0.51050  0.35530  1.0000
  H   H540      1.0  0.43182  0.83141  0.29415  1.0000
  C   C459      1.0  0.16036  0.65138  0.25781  1.0000
  H   H541      1.0  0.42375  0.97762  0.46897  1.0000
  C   C460      1.0  0.43993  0.98591  0.47060  1.0000
  H   H542      1.0  0.14348  0.67222  0.27891  1.0000
  H   H543      1.0  0.27503  0.74717  0.31508  1.0000
  C   C461      1.0  0.39843  0.80754  0.27863  1.0000
  H   H544      1.0  0.38247  0.81815  0.28340  1.0000
  H   H545      1.0  0.37945  0.85646  0.26824  1.0000
  C   C462      1.0  0.21554  0.55234  0.38838  1.0000
  C   C463      1.0  0.30381  0.72363  0.34007  1.0000
  C   C464      1.0  0.28348  0.71642  0.34964  1.0000
  C   C465      1.0  0.27095  0.69791  0.34358  1.0000
  C   C466      1.0  0.27869  0.68612  0.32790  1.0000
  C   C467      1.0  0.29896  0.69343  0.31828  1.0000
  C   C468      1.0  0.31139  0.71207  0.32424  1.0000
  H   H546      1.0  0.27733  0.72522  0.36185  1.0000
  H   H547      1.0  0.25541  0.69262  0.35114  1.0000
  H   H548      1.0  0.30517  0.68449  0.30613  1.0000
  H   H549      1.0  0.32698  0.71725  0.31671  1.0000
  C   C469      1.0  0.37323  0.84030  0.39933  1.0000
  C   C470      1.0  0.38790  0.84401  0.41371  1.0000
  C   C471      1.0  0.37919  0.85583  0.42931  1.0000
  C   C472      1.0  0.35557  0.86408  0.43077  1.0000
  C   C473      1.0  0.34091  0.86061  0.41631  1.0000
  C   C474      1.0  0.34966  0.84885  0.40066  1.0000
  H   H550      1.0  0.40616  0.83758  0.41284  1.0000
  H   H551      1.0  0.39069  0.85837  0.44029  1.0000
  H   H552      1.0  0.32266  0.86704  0.41727  1.0000
  H   H553      1.0  0.33821  0.84657  0.38962  1.0000
  C   C475      1.0  0.46363  0.80122  0.32767  1.0000
  C   C476      1.0  0.46245  0.78085  0.31792  1.0000
  H   H554      1.0  0.22435  0.59628  0.38552  1.0000
  H   H555      1.0  0.44759  0.81050  0.33256  1.0000
  H   H556      1.0  0.22439  0.55804  0.37530  1.0000
  C   C477      1.0  0.33640  0.81923  0.26077  1.0000
  C   C478      1.0  0.32982  0.83904  0.27082  1.0000
  H   H557      1.0  0.17442  0.52353  0.25640  1.0000
  H   H558      1.0  0.34599  0.80433  0.26714  1.0000
  H   H559      1.0  0.31194  0.87356  0.26983  1.0000
  N   N33       1.0  0.33795  0.77418  0.40355  1.0000
  C   C479      1.0  0.36001  0.76221  0.39614  1.0000
  C   C480      1.0  0.32107  0.75592  0.40770  1.0000
  C   C481      1.0  0.32848  0.79040  0.38896  1.0000
  C   C482      1.0  0.34121  0.78742  0.42008  1.0000
  C   C483      1.0  0.32167  0.79946  0.42898  1.0000
  C   C484      1.0  0.36353  0.78905  0.42768  1.0000
  C   C485      1.0  0.32431  0.81228  0.44448  1.0000
  C   C486      1.0  0.36589  0.80171  0.44331  1.0000
  C   C487      1.0  0.34635  0.81332  0.45166  1.0000
  H   H560      1.0  0.36799  0.74936  0.40627  1.0000
  H   H561      1.0  0.35688  0.75225  0.38383  1.0000
  H   H562      1.0  0.37314  0.77510  0.39182  1.0000
  H   H563      1.0  0.32712  0.74384  0.41910  1.0000
  H   H564      1.0  0.31889  0.74513  0.39564  1.0000
  H   H565      1.0  0.30324  0.76356  0.41159  1.0000
  H   H566      1.0  0.34081  0.80422  0.38530  1.0000
  H   H567      1.0  0.32575  0.78097  0.37634  1.0000
  H   H568      1.0  0.31132  0.79942  0.39294  1.0000
  H   H569      1.0  0.30426  0.79952  0.42379  1.0000
  H   H570      1.0  0.37958  0.78132  0.42155  1.0000
  H   H571      1.0  0.30936  0.82211  0.45070  1.0000
  H   H572      1.0  0.38313  0.80338  0.44858  1.0000
  H   H573      1.0  0.34845  0.82396  0.46330  1.0000
  C   C488      1.0  0.48363  0.76918  0.31165  1.0000
  C   C489      1.0  0.45992  0.97081  0.47341  1.0000
  C   C490      1.0  0.17312  0.58190  0.42296  1.0000
  H   H574      1.0  0.16153  0.53960  0.31345  1.0000
  H   H575      1.0  0.20102  0.75796  0.48648  1.0000
  H   H576      1.0  0.20569  0.53699  0.38516  1.0000
  C   C491      1.0  0.31721  0.85815  0.26220  1.0000
  H   H577      1.0  0.28073  0.81066  0.27263  1.0000
  C   C492      1.0  0.16925  0.49509  0.27509  1.0000
  N   N34       1.0  0.28043  0.79033  0.29817  1.0000
  C   C493      1.0  0.27707  0.81291  0.28749  1.0000
  C   C494      1.0  0.27849  0.79582  0.31779  1.0000
  C   C495      1.0  0.30455  0.78024  0.29397  1.0000
  C   C496      1.0  0.26335  0.77306  0.29415  1.0000
  H   H578      1.0  0.16262  0.68838  0.46741  1.0000
  C   C497      1.0  0.19131  0.56837  0.28798  1.0000
  C   C498      1.0  0.12428  0.52574  0.49438  1.0000
  H   H579      1.0  0.28933  0.82595  0.29153  1.0000
  H   H580      1.0  0.19410  0.58723  0.28502  1.0000
  H   H581      1.0  0.18187  0.71345  0.44475  1.0000
  H   H582      1.0  0.14960  0.49631  0.49744  1.0000
  H   H583      1.0  0.44545  0.79919  0.27796  1.0000
  H   H584      1.0  0.26014  0.80179  0.32191  1.0000
  H   H585      1.0  0.29008  0.80990  0.32095  1.0000
  H   H586      1.0  0.28398  0.78052  0.32687  1.0000
  H   H587      1.0  0.30920  0.76433  0.30271  1.0000
  H   H588      1.0  0.31782  0.79309  0.29621  1.0000
  H   H589      1.0  0.14992  0.59473  0.28410  1.0000
  C   C499      1.0  0.01552  0.61346  0.48957  1.0000
  Fe  Fe71      1.0  0.08012  0.61071  0.49043  1.0000
  C   C500      1.0  0.24689  0.73491  0.30099  1.0000
  C   C501      1.0  0.23117  0.76004  0.27665  1.0000
  S   S141      1.0  0.44957  0.86371  0.48552  1.0000
  H   H590      1.0  0.20704  0.55801  0.28247  1.0000
  H   H591      1.0  0.19929  0.68150  0.26094  1.0000
  H   H592      1.0  0.16766  0.66056  0.49062  1.0000
  N   N35       1.0  0.16959  0.56151  0.27992  1.0000
  H   H593      1.0  0.17026  0.56370  0.38049  1.0000
  H   H594      1.0  0.17182  0.58714  0.25752  1.0000
  S   S142      1.0  0.09779  0.64478  0.49182  1.0000
  H   H595      1.0  0.45108  0.81688  0.25773  1.0000
  C   C502      1.0  0.13174  0.50197  0.49416  1.0000
  H   H596      1.0  0.18973  0.58310  0.36890  1.0000
  H   H597      1.0  0.43351  0.79161  0.25733  1.0000
  H   H598      1.0  0.48302  0.75345  0.30405  1.0000
  C   C503      1.0  0.19163  0.54252  0.42256  1.0000
  H   H599      1.0  0.00790  0.55703  0.46814  1.0000
  H   H600      1.0  0.22983  0.54660  0.39774  1.0000
  C   C504      1.0  0.16677  0.55474  0.44850  1.0000
  H   H601      1.0  0.18435  0.52049  0.44646  1.0000
  C   C505      1.0  0.13002  0.68274  0.25242  1.0000
  C   C506      1.0  0.18812  0.56508  0.41374  1.0000
  C   C507      1.0  0.20707  0.69351  0.25095  1.0000
  C   C508      1.0  0.43743  0.80694  0.26527  1.0000
  H   H602      1.0  0.19091  0.56556  0.30305  1.0000
  C   C509      1.0  0.46286  0.90532  0.49786  1.0000
  H   H603      1.0  0.40693  0.84998  0.28838  1.0000
  H   H604      1.0  0.21837  0.72646  0.28487  1.0000
  C   C510      1.0  0.09320  0.49287  0.48513  1.0000
  C   C511      1.0  0.08591  0.51671  0.48491  1.0000
  C   C512      1.0  0.23091  0.73928  0.28727  1.0000
  H   H605      1.0  0.21884  0.76322  0.26585  1.0000
  C   C513      1.0  0.16719  0.53618  0.28404  1.0000
  H   H606      1.0  0.15888  0.55102  0.46191  1.0000
  H   H607      1.0  0.13056  0.49488  0.40699  1.0000
  C   C514      1.0  0.16276  0.57684  0.44008  1.0000
  H   H608      1.0  0.24652  0.79234  0.27110  1.0000
  H   H609      1.0  0.15182  0.59034  0.44693  1.0000
  C   C515      1.0  0.26291  0.75147  0.30438  1.0000
  C   C516      1.0  0.40530  0.83399  0.25307  1.0000
  C   C517      1.0  0.17078  0.70339  0.47213  1.0000
  C   C518      1.0  0.35478  0.98700  0.49684  1.0000
  S   S143      1.0  0.04375  0.60354  0.48081  1.0000
  C   C519      1.0  0.19254  0.74267  0.48251  1.0000
  C   C520      1.0  0.19266  0.73731  0.46418  1.0000
  C   C521      1.0  0.48563  0.80966  0.33115  1.0000
  C   C522      1.0  0.00638  0.53781  0.47053  1.0000
  H   H610      1.0  0.40573  0.79787  0.29075  1.0000
  C   C523      1.0  0.16125  0.50394  0.30659  1.0000
  H   H611      1.0  0.18737  0.55980  0.25341  1.0000
  H   H612      1.0  0.24058  0.69078  0.26344  1.0000
  C   C524      1.0  0.42246  0.83990  0.28230  1.0000
  C   C525      1.0  0.38625  0.85118  0.25497  1.0000
  C   C526      1.0  0.16282  0.52784  0.30226  1.0000
  H   H613      1.0  0.99796  0.59826  0.46800  1.0000
  H   H614      1.0  0.20117  0.74839  0.45395  1.0000
  C   C527      1.0  0.14919  0.57568  0.28789  1.0000
  H   H615      1.0  0.48614  0.82554  0.33857  1.0000
  C   C528      1.0  0.18110  0.53758  0.43973  1.0000
  C   C529      1.0  0.22273  0.49767  0.30750  1.0000
  H   H616      1.0  0.34784  0.97246  0.49034  1.0000
  C   C530      1.0  0.17044  0.51901  0.27052  1.0000
  C   C531      1.0  0.99566  0.60768  0.48045  1.0000
  C   C532      1.0  0.17023  0.70831  0.49093  1.0000
  H   H617      1.0  0.25903  0.82121  0.28971  1.0000
  H   H618      1.0  0.09537  0.55147  0.49016  1.0000
  C   C533      1.0  0.10134  0.53313  0.48981  1.0000
  H   H619      1.0  0.02467  0.52987  0.47113  1.0000
  H   H620      1.0  0.15550  0.56248  0.25310  1.0000
  H   H621      1.0  0.45859  0.95194  0.47372  1.0000
  H   H622      1.0  0.43415  0.85262  0.27544  1.0000
  H   H623      1.0  0.99845  0.53101  0.45839  1.0000
  H   H624      1.0  0.13235  0.56991  0.28314  1.0000
  C   C534      1.0  0.18153  0.72845  0.49577  1.0000
  H   H625      1.0  0.13111  0.68393  0.48678  1.0000
  C   C535      1.0  0.23036  0.69869  0.25237  1.0000
  C   C536      1.0  0.46966  0.88477  0.48875  1.0000
  S   S144      1.0  0.38329  0.85294  0.49027  1.0000
  H   H626      1.0  0.11554  0.50099  0.44632  1.0000
  Fe  Fe72      1.0  0.41239  0.87704  0.49173  1.0000
  C   C537      1.0  0.48151  0.97982  0.47603  1.0000
  H   H627      1.0  0.14552  0.49773  0.43762  1.0000
  H   H628      1.0  0.23058  0.49413  0.29417  1.0000
  H   H629      1.0  0.15848  0.49793  0.32064  1.0000
  H   H630      1.0  0.10100  0.49706  0.41596  1.0000
  Fe  Fe73      1.0  0.12552  0.58188  0.49769  1.0000
  Fe  Fe74      1.0  0.36923  0.86900  0.51635  1.0000
  S   S145      1.0  0.40010  0.89042  0.51887  1.0000
  S   S146      1.0  0.35379  0.84622  0.53955  1.0000
  H   H631      1.0  0.19103  0.52878  0.58151  1.0000
  H   H632      1.0  0.18882  0.66861  0.50622  1.0000
  Fe  Fe75      1.0  0.35066  0.81502  0.68902  1.0000
  S   S147      1.0  0.36796  0.77955  0.69610  1.0000
  S   S148      1.0  0.33098  0.84103  0.70843  1.0000
  Fe  Fe76      1.0  0.36844  0.81229  0.64842  1.0000
  S   S149      1.0  0.38663  0.77633  0.65330  1.0000
  S   S150      1.0  0.37657  0.83740  0.62410  1.0000
  Fe  Fe77      1.0  0.35354  0.76796  0.66993  1.0000
  S   S151      1.0  0.34075  0.73034  0.67127  1.0000
  Fe  Fe78      1.0  0.39948  0.79041  0.67893  1.0000
  S   S152      1.0  0.43582  0.78589  0.69166  1.0000
  S   S153      1.0  0.33457  0.80330  0.66351  1.0000
  S   S154      1.0  0.38282  0.82655  0.67346  1.0000
  Fe  Fe79      1.0  0.11583  0.62762  0.51645  1.0000
  S   S155      1.0  0.12317  0.64838  0.54136  1.0000
  S   S156      1.0  0.09581  0.59502  0.51626  1.0000
  Fe  Fe80      1.0  0.22406  0.64939  0.65951  1.0000
  S   S157      1.0  0.18550  0.65688  0.65368  1.0000
  S   S158      1.0  0.24424  0.68323  0.65631  1.0000
  Fe  Fe81      1.0  0.21545  0.59723  0.66974  1.0000
  S   S159      1.0  0.17697  0.60265  0.66534  1.0000
  S   S160      1.0  0.23163  0.56051  0.67757  1.0000
  Fe  Fe82      1.0  0.18735  0.62253  0.63942  1.0000
  S   S161      1.0  0.17373  0.60755  0.61353  1.0000
  Fe  Fe83      1.0  0.17879  0.63632  0.68001  1.0000
  S   S162      1.0  0.14960  0.64870  0.70045  1.0000
  S   S163      1.0  0.22626  0.61618  0.64349  1.0000
  S   S164      1.0  0.21687  0.62979  0.68628  1.0000
  C   C538      1.0  0.15069  0.65783  0.72329  1.0000
  H   H633      1.0  0.34300  0.96045  0.54550  1.0000
  H   H634      1.0  0.12343  0.68153  0.51047  1.0000
  H   H635      1.0  0.46237  0.83140  0.53445  1.0000
  H   H636      1.0  0.18683  0.64619  0.72711  1.0000
  C   C539      1.0  0.17196  0.55224  0.72673  1.0000
  H   H637      1.0  0.11433  0.67088  0.72422  1.0000
  H   H638      1.0  0.16002  0.71156  0.71378  1.0000
  C   C540      1.0  0.23369  0.51203  0.67734  1.0000
  C   C541      1.0  0.21899  0.53287  0.67682  1.0000
  C   C542      1.0  0.19478  0.53115  0.67567  1.0000
  H   H639      1.0  0.40137  0.88111  0.71205  1.0000
  H   H640      1.0  0.25244  0.51306  0.67833  1.0000
  H   H641      1.0  0.18320  0.54692  0.67529  1.0000
  C   C543      1.0  0.13753  0.63684  0.56125  1.0000
  C   C544      1.0  0.14202  0.65205  0.57510  1.0000
  C   C545      1.0  0.15323  0.64355  0.59111  1.0000
  C   C546      1.0  0.15999  0.61964  0.59351  1.0000
  C   C547      1.0  0.15552  0.60446  0.57961  1.0000
  C   C548      1.0  0.14448  0.61298  0.56358  1.0000
  H   H642      1.0  0.13665  0.67052  0.57352  1.0000
  H   H643      1.0  0.15643  0.65547  0.60164  1.0000
  H   H644      1.0  0.16061  0.58597  0.58123  1.0000
  H   H645      1.0  0.14121  0.60110  0.55304  1.0000
  H   H646      1.0  0.37675  0.82363  0.72101  1.0000
  H   H647      1.0  0.48039  0.65753  0.68491  1.0000
  H   H648      1.0  0.12671  0.52476  0.53731  1.0000
  C   C549      1.0  0.39372  0.85409  0.74318  1.0000
  C   C550      1.0  0.44869  0.67959  0.68065  1.0000
  C   C551      1.0  0.31343  0.71785  0.66748  1.0000
  C   C552      1.0  0.31122  0.69378  0.67177  1.0000
  C   C553      1.0  0.29027  0.68291  0.66866  1.0000
  C   C554      1.0  0.27118  0.69589  0.66097  1.0000
  C   C555      1.0  0.27334  0.71998  0.65679  1.0000
  C   C556      1.0  0.29419  0.73091  0.66008  1.0000
  H   H649      1.0  0.32589  0.68338  0.67747  1.0000
  H   H650      1.0  0.28906  0.66440  0.67194  1.0000
  H   H651      1.0  0.25884  0.73028  0.65075  1.0000
  H   H652      1.0  0.29549  0.74935  0.65658  1.0000
  C   C557      1.0  0.46531  0.78442  0.68233  1.0000
  C   C558      1.0  0.44434  0.88303  0.55361  1.0000
  H   H653      1.0  0.14377  0.59821  0.70425  1.0000
  C   C559      1.0  0.35345  0.91418  0.54734  1.0000
  H   H654      1.0  0.45668  0.77960  0.65457  1.0000
  C   C560      1.0  0.13021  0.66820  0.73179  1.0000
  C   C561      1.0  0.32619  0.84274  0.73255  1.0000
  H   H655      1.0  0.02221  0.53473  0.50415  1.0000
  H   H656      1.0  0.30527  0.87552  0.73008  1.0000
  H   H657      1.0  0.45612  0.82667  0.56856  1.0000
  C   C562      1.0  0.36184  0.84281  0.56270  1.0000
  C   C563      1.0  0.35168  0.82552  0.57406  1.0000
  C   C564      1.0  0.35655  0.82304  0.59275  1.0000
  C   C565      1.0  0.37142  0.83809  0.60036  1.0000
  C   C566      1.0  0.38182  0.85520  0.58893  1.0000
  C   C567      1.0  0.37719  0.85747  0.57020  1.0000
  H   H658      1.0  0.33975  0.81410  0.56841  1.0000
  H   H659      1.0  0.34834  0.80987  0.60134  1.0000
  H   H660      1.0  0.39315  0.86709  0.59472  1.0000
  H   H661      1.0  0.38494  0.87094  0.56170  1.0000
  C   C568      1.0  0.47298  0.67525  0.68220  1.0000
  C   C569      1.0  0.18708  0.51483  0.59127  1.0000
  N   N36       1.0  0.19994  0.53706  0.61814  1.0000
  C   C570      1.0  0.20742  0.55504  0.60431  1.0000
  C   C571      1.0  0.18163  0.54857  0.63026  1.0000
  C   C572      1.0  0.22075  0.52962  0.62896  1.0000
  C   C573      1.0  0.19053  0.51636  0.61024  1.0000
  C   C574      1.0  0.15899  0.58962  0.73977  1.0000
  H   H662      1.0  0.12491  0.60597  0.73130  1.0000
  C   C575      1.0  0.45224  0.84862  0.53583  1.0000
  H   H663      1.0  0.21013  0.74304  0.69276  1.0000
  H   H664      1.0  0.40575  0.85754  0.69676  1.0000
  H   H665      1.0  0.19238  0.56279  0.59641  1.0000
  H   H666      1.0  0.21459  0.57020  0.61080  1.0000
  H   H667      1.0  0.22138  0.54772  0.59475  1.0000
  H   H668      1.0  0.16606  0.55533  0.62249  1.0000
  H   H669      1.0  0.18826  0.56387  0.63689  1.0000
  H   H670      1.0  0.17539  0.53647  0.64133  1.0000
  H   H671      1.0  0.22829  0.54482  0.63510  1.0000
  H   H672      1.0  0.21653  0.51740  0.64055  1.0000
  H   H673      1.0  0.23482  0.52056  0.62040  1.0000
  C   C576      1.0  0.00367  0.54178  0.50308  1.0000
  H   H674      1.0  0.43802  0.84058  0.71177  1.0000
  C   C577      1.0  0.34081  0.91214  0.60988  1.0000
  H   H675      1.0  0.13153  0.55322  0.58964  1.0000
  H   H676      1.0  0.43325  0.84564  0.53489  1.0000
  C   C578      1.0  0.48398  0.78569  0.69413  1.0000
  H   H677      1.0  0.31300  0.93798  0.53673  1.0000
  C   C579      1.0  0.17104  0.65442  0.73329  1.0000
  H   H678      1.0  0.23632  0.73132  0.70359  1.0000
  C   C580      1.0  0.17825  0.49490  0.58432  1.0000
  H   H679      1.0  0.48013  0.78844  0.70844  1.0000
  H   H680      1.0  0.20109  0.69546  0.67688  1.0000
  C   C581      1.0  0.18550  0.50894  0.67493  1.0000
  C   C582      1.0  0.12987  0.54074  0.56256  1.0000
  H   H681      1.0  0.37098  0.91317  0.55350  1.0000
  H   H682      1.0  0.44792  0.73891  0.67224  1.0000
  H   H683      1.0  0.13509  0.55704  0.55598  1.0000
  C   C583      1.0  0.12486  0.52211  0.55196  1.0000
  Fe  Fe84      1.0  0.37989  0.91894  0.50267  1.0000
  H   H684      1.0  0.18165  0.68591  0.69487  1.0000
  C   C584      1.0  0.15897  0.70046  0.52353  1.0000
  C   C585      1.0  0.17190  0.71624  0.72389  1.0000
  H   H685      1.0  0.40364  0.81686  0.70849  1.0000
  H   H686      1.0  0.23965  0.69083  0.71543  1.0000
  N   N37       1.0  0.40393  0.84666  0.72531  1.0000
  C   C586      1.0  0.39617  0.82319  0.72170  1.0000
  H   H687      1.0  0.36038  0.95259  0.56449  1.0000
  H   H688      1.0  0.44874  0.89249  0.56582  1.0000
  C   C587      1.0  0.43000  0.84516  0.72538  1.0000
  H   H689      1.0  0.42836  0.84280  0.56710  1.0000
  C   C588      1.0  0.48782  0.69363  0.68027  1.0000
  C   C589      1.0  0.33565  0.82571  0.74494  1.0000
  H   H690      1.0  0.43825  0.66457  0.68227  1.0000
  H   H691      1.0  0.37760  0.86292  0.70761  1.0000
  S   S165      1.0  0.38413  0.95405  0.51550  1.0000
  C   C590      1.0  0.39681  0.86286  0.70985  1.0000
  C   C591      1.0  0.18730  0.58810  0.71445  1.0000
  N   N38       1.0  0.33558  0.92715  0.55888  1.0000
  H   H692      1.0  0.35535  0.92290  0.53364  1.0000
  C   C592      1.0  0.31264  0.92777  0.55000  1.0000
  H   H693      1.0  0.18211  0.73362  0.50969  1.0000
  C   C593      1.0  0.33403  0.91494  0.57702  1.0000
  C   C594      1.0  0.34121  0.92483  0.59317  1.0000
  C   C595      1.0  0.32626  0.89185  0.57876  1.0000
  C   C596      1.0  0.16158  0.72289  0.74064  1.0000
  C   C597      1.0  0.32567  0.87949  0.59556  1.0000
  H   H694      1.0  0.09919  0.50411  0.52604  1.0000
  H   H695      1.0  0.34888  0.89594  0.54518  1.0000
  C   C598      1.0  0.47983  0.92071  0.50203  1.0000
  H   H696      1.0  0.32968  0.96261  0.56794  1.0000
  H   H697      1.0  0.30767  0.91000  0.54675  1.0000
  H   H698      1.0  0.13134  0.57210  0.71423  1.0000
  H   H699      1.0  0.44945  0.85258  0.58178  1.0000
  H   H700      1.0  0.34677  0.91974  0.62200  1.0000
  H   H701      1.0  0.20259  0.58589  0.72338  1.0000
  S   S166      1.0  0.14650  0.61304  0.49956  1.0000
  C   C599      1.0  0.01229  0.62643  0.50530  1.0000
  H   H702      1.0  0.32138  0.88275  0.56702  1.0000
  S   S167      1.0  0.34788  0.89804  0.50161  1.0000
  H   H703      1.0  0.32022  0.86166  0.59645  1.0000
  H   H704      1.0  0.00426  0.56128  0.50193  1.0000
  C   C600      1.0  0.47071  0.78064  0.66388  1.0000
  N   N39       1.0  0.16619  0.57762  0.72274  1.0000
  H   H705      1.0  0.43715  0.83117  0.73496  1.0000
  H   H706      1.0  0.17654  0.54259  0.71404  1.0000
  N   N40       1.0  0.41303  0.70812  0.67526  1.0000
  C   C601      1.0  0.39872  0.68760  0.67905  1.0000
  C   C602      1.0  0.40449  0.72644  0.68814  1.0000
  C   C603      1.0  0.40855  0.71701  0.65640  1.0000
  H   H707      1.0  0.40100  0.68019  0.69316  1.0000
  H   H708      1.0  0.37956  0.69256  0.67780  1.0000
  H   H709      1.0  0.40307  0.67360  0.66915  1.0000
  H   H710      1.0  0.38505  0.72969  0.68815  1.0000
  H   H711      1.0  0.41467  0.70374  0.64629  1.0000
  H   H712      1.0  0.38945  0.72146  0.65446  1.0000
  H   H713      1.0  0.41772  0.73317  0.65275  1.0000
  H   H714      1.0  0.45675  0.85977  0.52363  1.0000
  H   H715      1.0  0.15687  0.54394  0.73384  1.0000
  H   H716      1.0  0.36901  0.88263  0.73332  1.0000
  H   H717      1.0  0.34756  0.94217  0.59321  1.0000
  H   H718      1.0  0.14997  0.71819  0.52513  1.0000
  H   H719      1.0  0.99408  0.53737  0.51613  1.0000
  C   C604      1.0  0.33318  0.88949  0.61105  1.0000
  H   H720      1.0  0.42499  0.88169  0.55404  1.0000
  H   H721      1.0  0.02740  0.63110  0.51242  1.0000
  C   C605      1.0  0.34239  0.95176  0.55940  1.0000
  C   C606      1.0  0.47847  0.71642  0.67673  1.0000
  H   H722      1.0  0.16675  0.50786  0.67405  1.0000
  H   H723      1.0  0.14976  0.68843  0.53331  1.0000
  C   C607      1.0  0.44753  0.84476  0.56833  1.0000
  H   H724      1.0  0.19314  0.57988  0.70141  1.0000
  H   H725      1.0  0.44849  0.89436  0.54136  1.0000
  C   C608      1.0  0.37620  0.87289  0.74494  1.0000
  H   H726      1.0  0.15360  0.57005  0.69640  1.0000
  C   C609      1.0  0.31279  0.86227  0.73948  1.0000
  C   C610      1.0  0.45428  0.72093  0.67509  1.0000
  C   C611      1.0  0.18410  0.49700  0.62170  1.0000
  C   C612      1.0  0.13733  0.60327  0.74199  1.0000
  C   C613      1.0  0.43859  0.70271  0.67711  1.0000
  N   N41       1.0  0.20839  0.70755  0.70341  1.0000
  C   C614      1.0  0.19176  0.70098  0.68977  1.0000
  C   C615      1.0  0.22178  0.72685  0.69506  1.0000
  C   C616      1.0  0.22492  0.68682  0.70695  1.0000
  C   C617      1.0  0.19670  0.71505  0.72079  1.0000
  H   H727      1.0  0.18364  0.60726  0.71160  1.0000
  C   C618      1.0  0.12788  0.53860  0.58149  1.0000
  C   C619      1.0  0.12107  0.51770  0.58990  1.0000
  H   H728      1.0  0.17922  0.71596  0.68591  1.0000
  H   H729      1.0  0.47471  0.93623  0.50956  1.0000
  H   H730      1.0  0.17730  0.70039  0.52812  1.0000
  H   H731      1.0  0.34558  0.81034  0.73997  1.0000
  C   C620      1.0  0.21030  0.72122  0.73540  1.0000
  H   H732      1.0  0.40935  0.72131  0.70233  1.0000
  H   H733      1.0  0.29833  0.93594  0.55887  1.0000
  H   H734      1.0  0.23009  0.72203  0.68160  1.0000
  H   H735      1.0  0.23321  0.67998  0.69408  1.0000
  H   H736      1.0  0.33354  0.87940  0.62390  1.0000
  H   H737      1.0  0.21569  0.67231  0.71401  1.0000
  H   H738      1.0  0.41171  0.74367  0.68466  1.0000
  N   N42       1.0  0.45720  0.85958  0.55310  1.0000
  H   H739      1.0  0.40163  0.80967  0.73227  1.0000
  C   C621      1.0  0.14784  0.57960  0.70888  1.0000
  C   C622      1.0  0.37233  0.98273  0.50952  1.0000
  H   H740      1.0  0.16191  0.65680  0.51456  1.0000
  H   H741      1.0  0.11968  0.51605  0.60465  1.0000
  H   H742      1.0  0.44468  0.90909  0.50207  1.0000
  H   H743      1.0  0.43660  0.86212  0.72910  1.0000
  H   H744      1.0  0.22922  0.72086  0.73402  1.0000
  H   H745      1.0  0.48521  0.88397  0.52887  1.0000
  C   C623      1.0  0.48274  0.86233  0.55398  1.0000
  H   H746      1.0  0.18580  0.49693  0.63631  1.0000
  N   N43       1.0  0.15832  0.69282  0.50448  1.0000
  C   C624      1.0  0.13328  0.69209  0.50003  1.0000
  H   H747      1.0  0.49007  0.73072  0.67524  1.0000
  C   C625      1.0  0.16969  0.66871  0.50391  1.0000
  H   H748      1.0  0.48928  0.84186  0.57953  1.0000
  H   H749      1.0  0.17578  0.49411  0.56982  1.0000
  H   H750      1.0  0.14268  0.72314  0.74289  1.0000
  C   C626      1.0  0.11749  0.50067  0.56004  1.0000
  H   H751      1.0  0.07730  0.49706  0.54316  1.0000
  H   H752      1.0  0.18742  0.54899  0.73540  1.0000
  C   C627      1.0  0.11596  0.49892  0.57942  1.0000
  S   S168      1.0  0.14344  0.54596  0.50093  1.0000
  H   H753      1.0  0.12436  0.71002  0.49931  1.0000
  H   H754      1.0  0.35351  0.96080  0.87465  1.0000
  S   S169      1.0  0.37177  0.96026  0.97087  1.0000
  H   H755      1.0  0.27069  0.83908  0.77683  1.0000
  C   C628      1.0  0.25858  0.82062  0.80908  1.0000
  Fe  Fe85      1.0  0.36113  0.87548  0.97800  1.0000
  S   S170      1.0  0.35044  0.85337  0.95491  1.0000
  S   S171      1.0  0.39333  0.89604  0.97479  1.0000
  Fe  Fe86      1.0  0.29442  0.88876  0.85538  1.0000
  S   S172      1.0  0.25572  0.89805  0.85530  1.0000
  S   S173      1.0  0.31023  0.90101  0.88120  1.0000
  Fe  Fe87      1.0  0.29434  0.87433  0.81488  1.0000
  S   S174      1.0  0.25550  0.88414  0.81279  1.0000
  S   S175      1.0  0.31689  0.85144  0.79489  1.0000
  Fe  Fe88      1.0  0.26302  0.91649  0.82825  1.0000
  S   S176      1.0  0.24536  0.95396  0.82769  1.0000
  Fe  Fe89      1.0  0.25192  0.86519  0.84022  1.0000
  S   S177      1.0  0.22924  0.83573  0.85140  1.0000
  S   S178      1.0  0.30204  0.90780  0.82847  1.0000
  S   S179      1.0  0.29046  0.85471  0.84206  1.0000
  N   N44       1.0  0.31880  0.97140  0.86536  1.0000
  C   C629      1.0  0.04654  0.68084  0.89513  1.0000
  C   C630      1.0  0.43096  0.94257  0.99115  1.0000
  H   H756      1.0  0.14617  0.73254  0.97451  1.0000
  C   C631      1.0  0.48990  0.86786  0.98185  1.0000
  C   C632      1.0  0.03512  0.70059  0.90368  1.0000
  Fe  Fe90      1.0  0.09742  0.64767  0.97920  1.0000
  S   S180      1.0  0.10198  0.67678  0.95723  1.0000
  S   S181      1.0  0.07118  0.62039  0.97930  1.0000
  Fe  Fe91      1.0  0.12797  0.69858  0.80500  1.0000
  S   S182      1.0  0.10877  0.73434  0.80211  1.0000
  S   S183      1.0  0.15090  0.67820  0.78357  1.0000
  Fe  Fe92      1.0  0.12189  0.69846  0.84722  1.0000
  S   S184      1.0  0.10367  0.73463  0.84667  1.0000
  S   S185      1.0  0.12671  0.67232  0.87159  1.0000
  Fe  Fe93      1.0  0.08293  0.72158  0.82399  1.0000
  S   S186      1.0  0.04326  0.73091  0.82937  1.0000
  Fe  Fe94      1.0  0.13084  0.74450  0.82502  1.0000
  S   S187      1.0  0.14749  0.77976  0.81929  1.0000
  S   S188      1.0  0.10063  0.68502  0.82520  1.0000
  S   S189      1.0  0.15071  0.70921  0.82725  1.0000
  C   C633      1.0  0.21772  0.76048  0.80718  1.0000
  C   C634      1.0  0.01540  0.72111  0.82401  1.0000
  C   C635      1.0  0.01301  0.70354  0.81165  1.0000
  C   C636      1.0  0.09184  0.51312  0.98637  1.0000
  H   H757      1.0  0.02850  0.69540  0.80492  1.0000
  C   C637      1.0  0.25716  0.98212  0.82582  1.0000
  C   C638      1.0  0.15025  0.67132  0.76015  1.0000
  H   H758      1.0  0.18652  0.65806  0.75927  1.0000
  C   C639      1.0  0.10851  0.67502  0.93340  1.0000
  C   C640      1.0  0.10744  0.69580  0.92239  1.0000
  C   C641      1.0  0.11277  0.69536  0.90347  1.0000
  C   C642      1.0  0.11934  0.67408  0.89532  1.0000
  C   C643      1.0  0.12032  0.65330  0.90634  1.0000
  C   C644      1.0  0.11487  0.65371  0.92524  1.0000
  H   H759      1.0  0.10251  0.71238  0.92853  1.0000
  H   H760      1.0  0.11215  0.71153  0.89526  1.0000
  H   H761      1.0  0.12550  0.63675  0.90021  1.0000
  H   H762      1.0  0.11585  0.63758  0.93350  1.0000
  H   H763      1.0  0.16730  0.73233  0.76801  1.0000
  H   H764      1.0  0.06738  0.70000  0.85366  1.0000
  C   C645      1.0  0.28727  0.98691  0.93015  1.0000
  H   H765      1.0  0.18440  0.75328  0.79687  1.0000
  C   C646      1.0  0.12997  0.67498  0.75007  1.0000
  Fe  Fe95      1.0  0.36948  0.92530  0.98567  1.0000
  C   C647      1.0  0.39071  0.84801  0.77649  1.0000
  C   C648      1.0  0.20709  0.81999  0.84177  1.0000
  C   C649      1.0  0.19536  0.82828  0.82619  1.0000
  C   C650      1.0  0.17729  0.81567  0.81957  1.0000
  C   C651      1.0  0.17075  0.79455  0.82828  1.0000
  C   C652      1.0  0.18274  0.78607  0.84370  1.0000
  C   C653      1.0  0.20068  0.79879  0.85043  1.0000
  H   H766      1.0  0.19973  0.84468  0.81948  1.0000
  H   H767      1.0  0.16812  0.82243  0.80766  1.0000
  H   H768      1.0  0.17795  0.76989  0.85057  1.0000
  H   H769      1.0  0.20952  0.79219  0.86252  1.0000
  C   C654      1.0  0.31932  0.84834  0.77079  1.0000
  C   C655      1.0  0.33582  0.95394  0.87402  1.0000
  H   H770      1.0  0.14259  0.62332  0.78450  1.0000
  H   H771      1.0  0.29910  0.88026  0.76346  1.0000
  C   C656      1.0  0.15490  0.67648  0.99097  1.0000
  C   C657      1.0  0.40049  0.84167  0.75949  1.0000
  H   H772      1.0  0.28680  0.97189  0.80826  1.0000
  H   H773      1.0  0.06337  0.65923  0.85302  1.0000
  C   C658      1.0  0.34017  0.86679  0.93417  1.0000
  C   C659      1.0  0.33494  0.89103  0.93233  1.0000
  C   C660      1.0  0.32575  0.90105  0.91605  1.0000
  C   C661      1.0  0.32173  0.88704  0.90136  1.0000
  C   C662      1.0  0.32722  0.86281  0.90307  1.0000
  C   C663      1.0  0.33630  0.85277  0.91943  1.0000
  H   H774      1.0  0.33783  0.90204  0.94353  1.0000
  H   H775      1.0  0.32168  0.91978  0.91492  1.0000
  H   H776      1.0  0.32484  0.85184  0.89177  1.0000
  H   H777      1.0  0.34041  0.83402  0.92068  1.0000
  H   H778      1.0  0.02829  0.71566  0.89567  1.0000
  C   C664      1.0  0.19962  0.78212  0.78203  1.0000
  S   S190      1.0  0.09802  0.56026  0.98306  1.0000
  C   C665      1.0  0.99493  0.73146  0.83258  1.0000
  S   S191      1.0  0.12487  0.62359  0.99291  1.0000
  N   N45       1.0  0.25345  0.84860  0.90399  1.0000
  C   C666      1.0  0.27210  0.84439  0.88967  1.0000
  C   C667      1.0  0.23962  0.82753  0.90618  1.0000
  C   C668      1.0  0.23732  0.86837  0.89736  1.0000
  C   C669      1.0  0.26446  0.85313  0.92130  1.0000
  C   C670      1.0  0.27874  0.83518  0.93021  1.0000
  C   C671      1.0  0.26234  0.87544  0.92936  1.0000
  C   C672      1.0  0.28996  0.83923  0.94623  1.0000
  C   C673      1.0  0.27371  0.87928  0.94537  1.0000
  C   C674      1.0  0.28746  0.86122  0.95378  1.0000
  H   H779      1.0  0.28483  0.82956  0.89341  1.0000
  H   H780      1.0  0.26464  0.84013  0.87657  1.0000
  H   H781      1.0  0.28223  0.86019  0.88705  1.0000
  H   H782      1.0  0.25081  0.81115  0.90872  1.0000
  H   H783      1.0  0.23004  0.82462  0.89360  1.0000
  H   H784      1.0  0.22637  0.82934  0.91765  1.0000
  H   H785      1.0  0.24683  0.88444  0.89405  1.0000
  H   H786      1.0  0.22898  0.86421  0.88451  1.0000
  H   H787      1.0  0.22283  0.87253  0.90754  1.0000
  H   H788      1.0  0.28204  0.81809  0.92454  1.0000
  H   H789      1.0  0.25244  0.89037  0.92339  1.0000
  H   H790      1.0  0.30160  0.82562  0.95243  1.0000
  H   H791      1.0  0.27243  0.89652  0.95107  1.0000
  H   H792      1.0  0.29700  0.86448  0.96579  1.0000
  H   H793      1.0  0.02347  0.61508  0.98341  1.0000
  H   H794      1.0  0.43410  0.94804  0.97659  1.0000
  C   C675      1.0  0.21831  0.79676  0.78050  1.0000
  H   H795      1.0  0.08071  0.51630  0.97484  1.0000
  H   H796      1.0  0.01443  0.67021  0.87168  1.0000
  H   H797      1.0  0.99373  0.59332  0.96890  1.0000
  H   H798      1.0  0.25008  0.77175  0.81558  1.0000
  H   H799      1.0  0.16794  0.70978  0.96712  1.0000
  H   H800      1.0  0.31500  0.98719  0.83824  1.0000
  C   C676      1.0  0.10232  0.53198  0.99372  1.0000
  H   H801      1.0  0.11225  0.70090  0.99116  1.0000
  H   H802      1.0  0.99648  0.74513  0.84212  1.0000
  C   C677      1.0  0.14689  0.61350  0.77234  1.0000
  S   S192      1.0  0.33698  0.90561  0.98722  1.0000
  H   H803      1.0  0.02495  0.71722  0.92889  1.0000
  C   C678      1.0  0.00630  0.61401  0.98986  1.0000
  H   H804      1.0  0.02796  0.68303  0.85142  1.0000
  H   H805      1.0  0.14324  0.66934  0.98107  1.0000
  C   C679      1.0  0.17547  0.72815  0.75484  1.0000
  H   H806      1.0  0.26104  0.80801  0.82087  1.0000
  H   H807      1.0  0.11403  0.68274  0.75644  1.0000
  C   C680      1.0  0.29595  0.96061  0.86500  1.0000
  H   H808      1.0  0.19126  0.57899  0.75378  1.0000
  H   H809      1.0  0.32963  0.94836  0.88800  1.0000
  C   C681      1.0  0.06150  0.65873  0.86819  1.0000
  N   N46       1.0  0.04945  0.68072  0.87502  1.0000
  H   H810      1.0  0.33064  0.95926  0.83886  1.0000
  H   H811      1.0  0.23950  0.83975  0.77903  1.0000
  H   H812      1.0  0.28250  0.97194  0.85770  1.0000
  C   C682      1.0  0.30668  0.97970  0.94034  1.0000
  H   H813      1.0  0.39579  0.83804  0.78874  1.0000
  H   H814      1.0  0.25557  0.82039  0.76319  1.0000
  C   C683      1.0  0.02621  0.68392  0.86656  1.0000
  C   C684      1.0  0.03312  0.70167  0.92267  1.0000
  H   H815      1.0  0.24222  0.83171  0.81207  1.0000
  C   C685      1.0  0.16827  0.60038  0.77059  1.0000
  C   C686      1.0  0.32759  0.97584  0.84633  1.0000
  C   C687      1.0  0.33244  0.82865  0.76389  1.0000
  H   H816      1.0  0.18333  0.73580  0.98572  1.0000
  C   C688      1.0  0.05346  0.66342  0.92576  1.0000
  C   C689      1.0  0.05565  0.66218  0.90679  1.0000
  C   C690      1.0  0.27962  0.79470  0.78812  1.0000
  H   H817      1.0  0.33821  0.93753  0.86627  1.0000
  H   H818      1.0  0.45216  0.86587  0.98212  1.0000
  H   H819      1.0  0.28349  0.78161  0.79938  1.0000
  C   C691      1.0  0.03719  0.56014  0.99628  1.0000
  H   H820      1.0  0.27962  0.97458  0.92171  1.0000
  H   H821      1.0  0.08084  0.69934  0.87520  1.0000
  C   C692      1.0  0.19979  0.72748  0.75220  1.0000
  C   C693      1.0  0.37404  0.98253  0.98606  1.0000
  C   C694      1.0  0.15053  0.71329  0.97420  1.0000
  N   N47       1.0  0.14982  0.70209  0.99283  1.0000
  Fe  Fe96      1.0  0.09742  0.59669  0.99475  1.0000
  C   C695      1.0  0.17078  0.66109  0.75158  1.0000
  H   H822      1.0  0.27916  0.78510  0.77528  1.0000
  H   H823      1.0  0.07974  0.65602  0.87309  1.0000
  C   C696      1.0  0.19934  0.76404  0.79531  1.0000
  C   C697      1.0  0.36669  0.87917  0.76203  1.0000
  C   C698      1.0  0.48085  0.93708  0.98642  1.0000
  H   H824      1.0  0.05166  0.64314  0.87234  1.0000
  C   C699      1.0  0.17428  0.58856  0.75460  1.0000
  H   H825      1.0  0.05051  0.54885  0.98865  1.0000
  H   H826      1.0  0.05471  0.71787  0.87107  1.0000
  C   C700      1.0  0.04242  0.68317  0.93368  1.0000
  H   H827      1.0  0.31417  0.96172  0.93988  1.0000
  H   H828      1.0  0.41299  0.82661  0.75918  1.0000
  H   H829      1.0  0.06137  0.64943  0.93442  1.0000
  C   C701      1.0  0.37391  0.86677  0.77775  1.0000
  H   H830      1.0  0.34440  0.98465  0.84598  1.0000
  H   H831      1.0  0.13747  0.70626  0.96537  1.0000
  H   H832      1.0  0.04170  0.68433  0.94839  1.0000
  C   C702      1.0  0.30921  0.86500  0.75845  1.0000
  H   H833      1.0  0.21698  0.74684  0.81786  1.0000
  H   H834      1.0  0.29492  0.80585  0.78683  1.0000
  H   H835      1.0  0.01719  0.70143  0.86903  1.0000
  N   N48       1.0  0.25730  0.80898  0.79154  1.0000
  C   C703      1.0  0.23735  0.79366  0.79247  1.0000
  H   H836      1.0  0.06532  0.64678  0.90165  1.0000
  H   H837      1.0  0.34038  0.81564  0.77327  1.0000
  H   H838      1.0  0.20837  0.98037  0.80203  1.0000
  C   C704      1.0  0.23649  0.77499  0.80581  1.0000
  H   H839      1.0  0.18041  0.59982  0.78158  1.0000
  H   H840      1.0  0.29764  0.94367  0.85796  1.0000
  H   H841      1.0  0.27352  0.83211  0.80889  1.0000
  C   C705      1.0  0.25554  0.82778  0.77696  1.0000
  C   C706      1.0  0.46687  0.87119  0.98940  1.0000
  H   H842      1.0  0.18482  0.78520  0.77325  1.0000
  H   H843      1.0  0.21052  0.73147  0.76333  1.0000
  H   H844      1.0  0.17337  0.67237  0.98610  1.0000
  H   H845      1.0  0.28878  0.95679  0.87904  1.0000
  C   C707      1.0  0.27733  0.98628  0.81508  1.0000
  C   C708      1.0  0.06365  0.70033  0.86857  1.0000
  H   H846      1.0  0.36582  0.87122  0.79088  1.0000
  H   H847      1.0  0.21716  0.81060  0.77008  1.0000
  H   H848      1.0  0.35293  0.89318  0.76305  1.0000
  H   H849      1.0  0.02237  0.56420  0.98711  1.0000
  H   H850      1.0  0.41177  0.94572  0.99406  1.0000
  H   H851      1.0  0.47061  0.92599  0.97880  1.0000
  H   H852      1.0  0.11517  0.62574  0.75935  1.0000
  H   H853      1.0  0.33826  0.98442  0.89794  1.0000
  C   C709      1.0  0.13144  0.61484  0.75812  1.0000
  H   H854      1.0  0.43483  0.92326  0.99285  1.0000
  H   H855      1.0  0.33183  0.98910  0.95870  1.0000
  H   H856      1.0  0.44020  0.98802  0.98749  1.0000
  H   H857      1.0  0.49272  0.86003  0.96872  1.0000
  Fe  Fe97      1.0  0.62034  0.12765  0.01900  1.0000
  S   S193      1.0  0.64000  0.14521  0.04081  1.0000
  S   S194      1.0  0.60274  0.09419  0.02438  1.0000
  Fe  Fe98      1.0  0.67748  0.14035  0.18880  1.0000
  S   S195      1.0  0.71137  0.11977  0.19446  1.0000
  S   S196      1.0  0.66153  0.16752  0.20882  1.0000
  Fe  Fe99      1.0  0.67888  0.12380  0.14896  1.0000
  S   S197      1.0  0.71374  0.10312  0.15237  1.0000
  S   S198      1.0  0.65562  0.11740  0.12507  1.0000
  Fe  Fe100     1.0  0.69787  0.09026  0.17910  1.0000
  S   S199      1.0  0.70231  0.05211  0.19059  1.0000
  Fe  Fe101     1.0  0.72456  0.13441  0.16732  1.0000
  S   S200      1.0  0.76237  0.14573  0.16891  1.0000
  S   S201      1.0  0.66275  0.10994  0.17558  1.0000
  S   S202      1.0  0.69090  0.15605  0.16187  1.0000
  Fe  Fe102     1.0  0.85829  0.37611  0.02329  1.0000
  S   S203      1.0  0.89253  0.39298  0.02264  1.0000
  S   S204      1.0  0.83725  0.37019  0.05010  1.0000
  H   H858      1.0  0.80507  0.30334  0.04395  1.0000
  Fe  Fe103     1.0  0.84124  0.26372  0.16383  1.0000
  S   S205      1.0  0.83031  0.30200  0.16785  1.0000
  S   S206      1.0  0.81110  0.24312  0.15383  1.0000
  Fe  Fe104     1.0  0.89368  0.27198  0.17182  1.0000
  S   S207      1.0  0.88471  0.30987  0.17723  1.0000
  S   S208      1.0  0.93202  0.25731  0.16736  1.0000
  Fe  Fe105     1.0  0.85229  0.29800  0.19284  1.0000
  S   S209      1.0  0.83961  0.30364  0.22267  1.0000
  Fe  Fe106     1.0  0.86363  0.31028  0.15174  1.0000
  S   S210      1.0  0.87584  0.33439  0.12779  1.0000
  S   S211      1.0  0.86267  0.25944  0.18892  1.0000
  S   S212      1.0  0.87303  0.27248  0.14628  1.0000
  C   C710      1.0  0.95886  0.26798  0.17421  1.0000
  C   C711      1.0  0.95983  0.28216  0.18919  1.0000
  C   C712      1.0  0.97997  0.26160  0.16446  1.0000
  H   H859      1.0  0.94385  0.28710  0.19694  1.0000
  C   C713      1.0  0.95554  0.39132  0.99964  1.0000
  N   N49       1.0  0.51481  0.16893  0.03646  1.0000
  C   C714      1.0  0.82655  0.32562  0.23735  1.0000
  H   H860      1.0  0.68099  0.07702  0.10600  1.0000
  H   H861      1.0  0.82460  0.35392  0.21714  1.0000
  C   C715      1.0  0.50322  0.14709  0.04175  1.0000
  C   C716      1.0  0.84840  0.35967  0.07143  1.0000
  C   C717      1.0  0.87251  0.35676  0.07436  1.0000
  C   C718      1.0  0.88053  0.34870  0.09158  1.0000
  C   C719      1.0  0.86464  0.34323  0.10607  1.0000
  C   C720      1.0  0.84056  0.34632  0.10315  1.0000
  C   C721      1.0  0.83252  0.35446  0.08595  1.0000
  H   H862      1.0  0.88495  0.36068  0.06334  1.0000
  H   H863      1.0  0.89919  0.34662  0.09365  1.0000
  H   H864      1.0  0.82811  0.34316  0.11431  1.0000
  H   H865      1.0  0.81384  0.35685  0.08391  1.0000
  C   C722      1.0  0.77533  0.17317  0.16485  1.0000
  C   C723      1.0  0.79750  0.17612  0.17187  1.0000
  C   C724      1.0  0.80854  0.19745  0.16900  1.0000
  C   C725      1.0  0.79775  0.21605  0.15873  1.0000
  C   C726      1.0  0.77563  0.21305  0.15165  1.0000
  C   C727      1.0  0.76440  0.19189  0.15480  1.0000
  H   H866      1.0  0.80621  0.16182  0.17965  1.0000
  H   H867      1.0  0.82554  0.19936  0.17452  1.0000
  H   H868      1.0  0.76703  0.22725  0.14370  1.0000
  H   H869      1.0  0.74744  0.18997  0.14921  1.0000
  C   C728      1.0  0.65265  0.16534  0.23235  1.0000
  C   C729      1.0  0.76189  0.22145  0.20277  1.0000
  C   C730      1.0  0.83713  0.48577  0.06354  1.0000
  S   S213      1.0  0.93953  0.34731  0.00247  1.0000
  C   C731      1.0  0.58029  0.17041  0.06368  1.0000
  H   H870      1.0  0.93742  0.39783  0.00138  1.0000
  C   C732      1.0  0.69950  0.02385  0.16067  1.0000
  C   C733      1.0  0.70089  0.02497  0.17958  1.0000
  C   C734      1.0  0.58625  0.01185  0.00899  1.0000
  H   H871      1.0  0.71267  0.01419  0.08300  1.0000
  H   H872      1.0  0.87507  0.30854  0.06114  1.0000
  H   H873      1.0  0.69840  0.03990  0.15232  1.0000
  H   H874      1.0  0.95860  0.38631  0.09705  1.0000
  C   C735      1.0  0.64351  0.13779  0.06441  1.0000
  C   C736      1.0  0.66079  0.14835  0.07376  1.0000
  C   C737      1.0  0.66472  0.14254  0.09232  1.0000
  C   C738      1.0  0.65116  0.12627  0.10186  1.0000
  C   C739      1.0  0.63367  0.11596  0.09258  1.0000
  C   C740      1.0  0.62991  0.12156  0.07399  1.0000
  H   H875      1.0  0.67135  0.16102  0.06656  1.0000
  H   H876      1.0  0.67820  0.15068  0.09925  1.0000
  H   H877      1.0  0.62306  0.10335  0.09981  1.0000
  H   H878      1.0  0.61655  0.11319  0.06714  1.0000
  N   N50       1.0  0.94977  0.32440  0.13496  1.0000
  S   S214      1.0  0.53835  0.09954  0.01383  1.0000
  C   C741      1.0  0.94071  0.30226  0.12920  1.0000
  H   H879      1.0  0.79619  0.10257  0.17306  1.0000
  H   H880      1.0  0.86163  0.07370  0.15138  1.0000
  C   C742      1.0  0.87079  0.42930  0.06221  1.0000
  H   H881      1.0  0.64879  0.20291  0.23465  1.0000
  H   H882      1.0  0.81248  0.44486  0.06398  1.0000
  H   H883      1.0  0.69900  0.00126  0.13785  1.0000
  Fe  Fe107     1.0  0.57558  0.10822  0.00447  1.0000
  H   H884      1.0  0.94265  0.31522  0.16332  1.0000
  H   H885      1.0  0.84525  0.31578  0.03786  1.0000
  H   H886      1.0  0.92253  0.34665  0.12229  1.0000
  C   C743      1.0  0.54110  0.18769  0.05819  1.0000
  C   C744      1.0  0.69738  0.04455  0.09639  1.0000
  C   C745      1.0  0.94749  0.38279  0.06980  1.0000
  H   H887      1.0  0.52825  0.20193  0.06103  1.0000
  C   C746      1.0  0.85107  0.48337  0.00244  1.0000
  H   H888      1.0  0.59036  0.13879  0.04979  1.0000
  H   H889      1.0  0.83219  0.44208  0.08282  1.0000
  H   H890      1.0  0.94912  0.36053  0.12565  1.0000
  H   H891      1.0  0.56759  0.01604  0.01117  1.0000
  N   N51       1.0  0.73045  0.19542  0.21459  1.0000
  S   S215      1.0  0.59164  0.14320  0.00080  1.0000
  H   H892      1.0  0.98207  0.30001  0.20634  1.0000
  C   C747      1.0  0.71239  0.19258  0.22952  1.0000
  C   C748      1.0  0.74383  0.21656  0.21594  1.0000
  H   H893      1.0  0.75943  0.07012  0.14913  1.0000
  S   S216      1.0  0.64466  0.04721  0.00067  1.0000
  H   H894      1.0  0.76592  0.21017  0.19152  1.0000
  H   H895      1.0  0.52724  0.15002  0.22910  1.0000
  C   C749      1.0  0.81207  0.04564  0.16251  1.0000
  C   C750      1.0  0.93858  0.32965  0.15307  1.0000
  C   C751      1.0  0.71826  0.19657  0.19710  1.0000
  C   C752      1.0  0.94203  0.34376  0.12204  1.0000
  C   C753      1.0  0.56427  0.15272  0.23150  1.0000
  H   H896      1.0  0.56914  0.14194  0.21996  1.0000
  C   C754      1.0  0.68656  0.06701  0.09414  1.0000
  S   S217      1.0  0.87082  0.34779  0.00410  1.0000
  H   H897      1.0  0.59453  0.04802  0.00730  1.0000
  H   H898      1.0  0.94172  0.37841  0.04139  1.0000
  H   H899      1.0  0.80673  0.38332  0.23857  1.0000
  H   H900      1.0  0.94761  0.34016  0.10772  1.0000
  C   C755      1.0  0.63447  0.00131  0.00345  1.0000
  H   H901      1.0  0.94400  0.34641  0.15820  1.0000
  C   C756      1.0  0.65033  0.14378  0.24174  1.0000
  N   N52       1.0  0.68380  0.07444  0.04253  1.0000
  C   C757      1.0  0.69383  0.06019  0.02726  1.0000
  C   C758      1.0  0.65800  0.07671  0.04086  1.0000
  C   C759      1.0  0.69288  0.09815  0.04002  1.0000
  C   C760      1.0  0.68928  0.06410  0.06081  1.0000
  C   C761      1.0  0.68257  0.07665  0.07666  1.0000
  C   C762      1.0  0.70028  0.04118  0.06356  1.0000
  H   H902      1.0  0.80596  0.02825  0.16177  1.0000
  S   S218      1.0  0.84341  0.39996  0.00052  1.0000
  C   C763      1.0  0.62562  0.02470  0.00404  1.0000
  H   H903      1.0  0.68609  0.04284  0.02721  1.0000
  H   H904      1.0  0.68971  0.06879  0.01375  1.0000
  H   H905      1.0  0.71328  0.05756  0.02774  1.0000
  H   H906      1.0  0.65027  0.05936  0.04257  1.0000
  H   H907      1.0  0.65315  0.08431  0.02728  1.0000
  H   H908      1.0  0.64917  0.08843  0.05107  1.0000
  H   H909      1.0  0.71203  0.09758  0.04234  1.0000
  H   H910      1.0  0.68981  0.10590  0.02607  1.0000
  H   H911      1.0  0.68393  0.11106  0.04932  1.0000
  H   H912      1.0  0.67386  0.09399  0.07570  1.0000
  H   H913      1.0  0.70584  0.03020  0.05238  1.0000
  H   H914      1.0  0.60880  0.99226  0.06670  1.0000
  H   H915      1.0  0.59706  0.17078  0.07006  1.0000
  H   H916      1.0  0.77069  0.08658  0.19616  1.0000
  C   C764      1.0  0.97833  0.37305  0.04728  1.0000
  H   H917      1.0  0.56561  0.20201  0.07564  1.0000
  H   H918      1.0  0.86781  0.41021  0.06357  1.0000
  H   H919      1.0  0.75788  0.09640  0.17483  1.0000
  C   C765      1.0  0.64716  0.18612  0.24176  1.0000
  C   C766      1.0  0.77522  0.24092  0.20387  1.0000
  C   C767      1.0  0.85335  0.46875  0.05555  1.0000
  N   N53       1.0  0.84945  0.44337  0.05617  1.0000
  C   C768      1.0  0.82961  0.43685  0.06866  1.0000
  C   C769      1.0  0.84421  0.43654  0.03765  1.0000
  H   H920      1.0  0.85914  0.43913  0.02773  1.0000
  H   H921      1.0  0.88560  0.46567  0.03842  1.0000
  C   C770      1.0  0.82100  0.34880  0.23125  1.0000
  H   H922      1.0  0.78901  0.24419  0.19364  1.0000
  C   C771      1.0  0.75900  0.05553  0.15965  1.0000
  H   H923      1.0  0.94546  0.29853  0.11478  1.0000
  C   C772      1.0  0.95460  0.37811  0.05190  1.0000
  H   H924      1.0  0.92905  0.38685  0.07324  1.0000
  H   H925      1.0  0.82780  0.41749  0.06929  1.0000
  H   H926      1.0  0.65439  0.12763  0.23473  1.0000
  H   H927      1.0  0.82866  0.44713  0.03237  1.0000
  H   H928      1.0  0.84039  0.41774  0.03750  1.0000
  H   H929      1.0  0.74291  0.07731  0.19019  1.0000
  H   H930      1.0  0.49859  0.14615  0.05660  1.0000
  C   C773      1.0  0.56257  0.18798  0.06672  1.0000
  H   H931      1.0  0.76581  0.03913  0.15309  1.0000
  H   H932      1.0  0.98248  0.36981  0.03314  1.0000
  C   C774      1.0  0.70428  0.03168  0.08114  1.0000
  C   C775      1.0  0.98875  0.32559  0.15054  1.0000
  C   C776      1.0  0.52035  0.16937  0.01655  1.0000
  H   H933      1.0  0.73728  0.15778  0.21461  1.0000
  N   N54       1.0  0.77266  0.06057  0.17557  1.0000
  C   C777      1.0  0.69978  0.00187  0.15250  1.0000
  H   H934      1.0  0.78342  0.04272  0.20055  1.0000
  C   C778      1.0  0.79711  0.06445  0.16930  1.0000
  H   H935      1.0  0.75699  0.17296  0.22776  1.0000
  H   H936      1.0  0.94769  0.28702  0.13774  1.0000
  H   H937      1.0  0.88595  0.43067  0.05235  1.0000
  H   H938      1.0  0.91906  0.33158  0.15252  1.0000
  C   C779      1.0  0.57652  0.15232  0.05229  1.0000
  H   H939      1.0  0.77766  0.02333  0.18278  1.0000
  H   H940      1.0  0.92116  0.30264  0.13059  1.0000
  C   C780      1.0  0.58166  0.16183  0.24127  1.0000
  C   C781      1.0  0.80640  0.08697  0.16880  1.0000
  H   H941      1.0  0.70359  0.00441  0.20477  1.0000
  H   H942      1.0  0.75963  0.17363  0.20333  1.0000
  N   N55       1.0  0.82312  0.27281  0.10259  1.0000
  C   C782      1.0  0.82395  0.29028  0.11684  1.0000
  C   C783      1.0  0.79942  0.26350  0.10390  1.0000
  C   C784      1.0  0.84046  0.25284  0.10657  1.0000
  C   C785      1.0  0.82890  0.28410  0.08460  1.0000
  C   C786      1.0  0.85174  0.29179  0.08064  1.0000
  C   C787      1.0  0.81215  0.28851  0.07085  1.0000
  C   C788      1.0  0.85762  0.30256  0.06381  1.0000
  C   C789      1.0  0.81815  0.29970  0.05417  1.0000
  C   C790      1.0  0.84082  0.30665  0.05065  1.0000
  H   H943      1.0  0.81123  0.30558  0.11428  1.0000
  H   H944      1.0  0.81949  0.28266  0.13063  1.0000
  H   H945      1.0  0.84164  0.29711  0.11753  1.0000
  H   H946      1.0  0.79750  0.25043  0.09335  1.0000
  H   H947      1.0  0.78524  0.27778  0.10268  1.0000
  H   H948      1.0  0.79601  0.25441  0.11739  1.0000
  H   H949      1.0  0.85837  0.25855  0.10841  1.0000
  H   H950      1.0  0.83577  0.24308  0.11950  1.0000
  H   H951      1.0  0.84155  0.24013  0.09546  1.0000
  H   H952      1.0  0.86508  0.29009  0.09071  1.0000
  H   H953      1.0  0.79422  0.28380  0.07269  1.0000
  C   C791      1.0  0.97578  0.32214  0.13487  1.0000
  C   C792      1.0  0.96413  0.38230  0.08319  1.0000
  H   H954      1.0  0.70297  0.17633  0.22822  1.0000
  H   H955      1.0  0.97950  0.25068  0.15283  1.0000
  H   H956      1.0  0.87617  0.43496  0.07563  1.0000
  C   C793      1.0  0.77205  0.04033  0.18892  1.0000
  H   H957      1.0  0.52994  0.18505  0.01212  1.0000
  H   H958      1.0  0.73066  0.19646  0.18506  1.0000
  H   H959      1.0  0.74023  0.05333  0.16362  1.0000
  C   C794      1.0  0.81084  0.36547  0.24348  1.0000
  H   H960      1.0  0.51458  0.13105  0.03877  1.0000
  C   C795      1.0  0.76066  0.08114  0.18457  1.0000
  H   H961      1.0  0.75387  0.03811  0.19463  1.0000
  C   C796      1.0  0.54071  0.15733  0.23667  1.0000
  C   C797      1.0  0.70223  0.00381  0.19016  1.0000
  C   C798      1.0  0.82943  0.09010  0.16247  1.0000
  C   C799      1.0  0.51004  0.10833  0.00567  1.0000
  H   H962      1.0  0.72030  0.19106  0.24314  1.0000
  C   C800      1.0  0.98790  0.37684  0.07875  1.0000
  H   H963      1.0  0.55328  0.13729  0.03508  1.0000
  H   H964      1.0  0.83608  0.10745  0.16224  1.0000
  C   C801      1.0  0.98898  0.31681  0.11857  1.0000
  C   C802      1.0  0.84380  0.07114  0.15630  1.0000
  C   C803      1.0  0.75315  0.25209  0.23117  1.0000
  H   H965      1.0  0.70620  0.21267  0.19588  1.0000
  H   H966      1.0  0.70749  0.18124  0.19588  1.0000
  H   H967      1.0  0.84624  0.03430  0.15121  1.0000
  H   H968      1.0  0.96859  0.42577  0.99930  1.0000
  C   C804      1.0  0.55517  0.15173  0.04382  1.0000
  H   H969      1.0  0.78146  0.27117  0.21898  1.0000
  H   H970      1.0  0.53156  0.15369  0.01236  1.0000
  C   C805      1.0  0.83511  0.04897  0.15625  1.0000
  C   C806      1.0  0.53685  0.16953  0.04631  1.0000
  C   C807      1.0  0.98159  0.28943  0.19451  1.0000
  C   C808      1.0  0.73968  0.23264  0.23018  1.0000
  C   C809      1.0  0.77094  0.25616  0.21810  1.0000
  H   H971      1.0  0.70028  0.03711  0.11000  1.0000
  C   C810      1.0  0.60152  0.02997  0.00686  1.0000
  H   H972      1.0  0.69859  0.20734  0.22931  1.0000
  C   C811      1.0  0.74681  0.17408  0.21513  1.0000
  H   H973      1.0  0.98032  0.31371  0.10619  1.0000
  H   H974      1.0  0.82142  0.48108  0.07107  1.0000
  H   H975      1.0  0.84062  0.46831  0.00340  1.0000
  C   C812      1.0  0.87308  0.47732  0.04566  1.0000
  H   H976      1.0  0.50418  0.16958  0.00854  1.0000
  H   H977      1.0  0.98041  0.32899  0.16372  1.0000
  H   H978      1.0  0.60003  0.15806  0.23735  1.0000
  Fe  Fe108     1.0  0.62349  0.08178  0.99974  1.0000
  H   H979      1.0  0.65314  0.99723  0.00128  1.0000
  H   H980      1.0  0.72619  0.23061  0.24074  1.0000
  Fe  Fe109     1.0  0.90405  0.36664  0.00181  1.0000
  H   H981      1.0  0.74985  0.26411  0.24217  1.0000
  H   H982      1.0  0.50474  0.20603  0.03580  1.0000
  C   C813      1.0  0.49752  0.18898  0.04011  1.0000
  C   C814      1.0  0.96140  0.36720  0.99900  1.0000
  C   C815      1.0  0.87531  0.48033  0.99874  1.0000
  C   C816      1.0  0.97322  0.40715  0.99842  1.0000
  Fe  Fe110     1.0  0.87883  0.41499  0.99878  1.0000
  Fe  Fe111     1.0  0.61440  0.19835  0.35481  1.0000
  S   S219      1.0  0.60223  0.23657  0.35029  1.0000
  S   S220      1.0  0.62536  0.18414  0.38322  1.0000
  Fe  Fe112     1.0  0.61664  0.19005  0.31342  1.0000
  S   S221      1.0  0.60429  0.22734  0.30667  1.0000
  S   S222      1.0  0.62415  0.16186  0.29222  1.0000
  Fe  Fe113     1.0  0.62968  0.23746  0.32733  1.0000
  S   S223      1.0  0.65442  0.26582  0.31700  1.0000
  Fe  Fe114     1.0  0.57784  0.22340  0.33005  1.0000
  S   S224      1.0  0.54094  0.24134  0.32626  1.0000
  S   S225      1.0  0.64333  0.20005  0.33286  1.0000
  S   S226      1.0  0.58858  0.18521  0.33579  1.0000
  Fe  Fe115     1.0  0.58375  0.12098  0.48012  1.0000
  Fe  Fe116     1.0  0.89115  0.39259  0.48868  1.0000
  S   S227      1.0  0.57268  0.13582  0.45211  1.0000
  H   H983      1.0  0.54756  0.07305  0.44136  1.0000
  H   H984      1.0  0.78691  0.28763  0.30369  1.0000
  H   H985      1.0  0.57650  0.28349  0.31723  1.0000
  C   C817      1.0  0.78948  0.43540  0.38064  1.0000
  C   C818      1.0  0.65059  0.05540  0.44365  1.0000
  H   H986      1.0  0.65031  0.36682  0.33732  1.0000
  Fe  Fe117     1.0  0.76051  0.42038  0.33355  1.0000
  S   S228      1.0  0.79728  0.40712  0.32569  1.0000
  S   S229      1.0  0.75270  0.45807  0.34342  1.0000
  Fe  Fe118     1.0  0.74356  0.36904  0.33564  1.0000
  S   S230      1.0  0.77988  0.35344  0.32818  1.0000
  S   S231      1.0  0.71358  0.34675  0.34685  1.0000
  Fe  Fe119     1.0  0.79275  0.37893  0.34763  1.0000
  S   S232      1.0  0.82187  0.37133  0.36800  1.0000
  Fe  Fe120     1.0  0.78091  0.38296  0.30690  1.0000
  S   S233      1.0  0.79329  0.38141  0.27670  1.0000
  S   S234      1.0  0.75675  0.39282  0.35622  1.0000
  S   S235      1.0  0.74378  0.39794  0.31363  1.0000
  Fe  Fe121     1.0  0.84220  0.38205  0.47592  1.0000
  S   S236      1.0  0.86487  0.41224  0.47051  1.0000
  S   S237      1.0  0.81721  0.36951  0.45525  1.0000
  H   H987      1.0  0.74890  0.33025  0.37141  1.0000
  C   C819      1.0  0.64397  0.35504  0.32772  1.0000
  H   H988      1.0  0.51653  0.21342  0.29209  1.0000
  S   S238      1.0  0.92946  0.38943  0.47818  1.0000
  C   C820      1.0  0.81447  0.45360  0.40113  1.0000
  H   H989      1.0  0.65777  0.33452  0.28577  1.0000
  C   C821      1.0  0.82147  0.43828  0.43237  1.0000
  C   C822      1.0  0.75969  0.48613  0.33393  1.0000
  N   N56       1.0  0.58411  0.20009  0.47662  1.0000
  C   C823      1.0  0.57556  0.17567  0.25619  1.0000
  C   C824      1.0  0.60593  0.03698  0.45162  1.0000
  C   C825      1.0  0.80600  0.35933  0.26197  1.0000
  C   C826      1.0  0.64204  0.14307  0.26013  1.0000
  H   H990      1.0  0.58464  0.09080  0.43510  1.0000
  H   H991      1.0  0.65144  0.04915  0.45822  1.0000
  H   H992      1.0  0.57486  0.18097  0.29317  1.0000
  H   H993      1.0  0.60275  0.02826  0.49516  1.0000
  H   H994      1.0  0.76472  0.47572  0.30618  1.0000
  H   H995      1.0  0.82293  0.29350  0.31992  1.0000
  C   C827      1.0  0.82007  0.37158  0.39225  1.0000
  C   C828      1.0  0.84092  0.37140  0.40184  1.0000
  C   C829      1.0  0.84036  0.37155  0.42107  1.0000
  C   C830      1.0  0.81893  0.37121  0.43099  1.0000
  C   C831      1.0  0.79810  0.37123  0.42137  1.0000
  C   C832      1.0  0.79861  0.37180  0.40214  1.0000
  H   H996      1.0  0.85765  0.37123  0.39437  1.0000
  H   H997      1.0  0.85655  0.37138  0.42824  1.0000
  H   H998      1.0  0.78142  0.37105  0.42890  1.0000
  H   H999      1.0  0.78239  0.37243  0.39502  1.0000
  H   H1000     1.0  0.74818  0.29061  0.32012  1.0000
  H   H1001     1.0  0.81683  0.41674  0.41019  1.0000
  C   C833      1.0  0.55664  0.21891  0.27439  1.0000
  C   C834      1.0  0.58788  0.22084  0.48732  1.0000
  C   C835      1.0  0.62921  0.32331  0.30339  1.0000
  H   H1002     1.0  0.49834  0.09724  0.46714  1.0000
  C   C836      1.0  0.67218  0.28676  0.32616  1.0000
  C   C837      1.0  0.66969  0.29346  0.34428  1.0000
  C   C838      1.0  0.68270  0.31160  0.35035  1.0000
  C   C839      1.0  0.69866  0.32310  0.33854  1.0000
  C   C840      1.0  0.70174  0.31588  0.32059  1.0000
  C   C841      1.0  0.68850  0.29794  0.31446  1.0000
  H   H1003     1.0  0.65750  0.28496  0.35357  1.0000
  H   H1004     1.0  0.68021  0.31693  0.36428  1.0000
  H   H1005     1.0  0.71386  0.32451  0.31130  1.0000
  H   H1006     1.0  0.69064  0.29297  0.30041  1.0000
  C   C842      1.0  0.58819  0.14788  0.43276  1.0000
  C   C843      1.0  0.61188  0.15260  0.43308  1.0000
  C   C844      1.0  0.62300  0.16322  0.41765  1.0000
  C   C845      1.0  0.61070  0.16922  0.40170  1.0000
  C   C846      1.0  0.58718  0.16397  0.40124  1.0000
  C   C847      1.0  0.57603  0.15339  0.41669  1.0000
  H   H1007     1.0  0.62157  0.14853  0.44525  1.0000
  H   H1008     1.0  0.64119  0.16722  0.41815  1.0000
  H   H1009     1.0  0.57746  0.16843  0.38911  1.0000
  H   H1010     1.0  0.55772  0.14980  0.41624  1.0000
  H   H1011     1.0  0.58689  0.28687  0.34775  1.0000
  C   C848      1.0  0.51246  0.22992  0.32693  1.0000
  C   C849      1.0  0.87807  0.47632  0.49106  1.0000
  H   H1012     1.0  0.62846  0.06676  0.41166  1.0000
  N   N57       1.0  0.62945  0.07153  0.44051  1.0000
  H   H1013     1.0  0.50003  0.01103  0.47785  1.0000
  C   C850      1.0  0.63639  0.16384  0.26951  1.0000
  C   C851      1.0  0.97758  0.38827  0.47881  1.0000
  H   H1014     1.0  0.62123  0.21723  0.45641  1.0000
  H   H1015     1.0  0.63498  0.20154  0.26720  1.0000
  N   N58       1.0  0.81051  0.44903  0.38183  1.0000
  S   S239      1.0  0.58113  0.08249  0.48721  1.0000
  H   H1016     1.0  0.62070  0.18736  0.47783  1.0000
  C   C852      1.0  0.82282  0.46094  0.43829  1.0000
  Fe  Fe122     1.0  0.84873  0.42578  0.49661  1.0000
  C   C853      1.0  0.95640  0.39122  0.48918  1.0000
  H   H1017     1.0  0.62951  0.08504  0.46727  1.0000
  H   H1018     1.0  0.77353  0.44494  0.38663  1.0000
  C   C854      1.0  0.83116  0.43517  0.37402  1.0000
  H   H1019     1.0  0.60203  0.17560  0.49540  1.0000
  H   H1020     1.0  0.79106  0.48171  0.37502  1.0000
  H   H1021     1.0  0.98586  0.33659  0.48930  1.0000
  H   H1022     1.0  0.82606  0.46367  0.45249  1.0000
  C   C855      1.0  0.56388  0.06283  0.44404  1.0000
  C   C856      1.0  0.82007  0.48003  0.42594  1.0000
  H   H1023     1.0  0.63978  0.12629  0.26711  1.0000
  H   H1024     1.0  0.51191  0.20997  0.26862  1.0000
  H   H1025     1.0  0.57462  0.23551  0.48419  1.0000
  C   C857      1.0  0.59138  0.29416  0.31246  1.0000
  C   C858      1.0  0.61692  0.32536  0.32055  1.0000
  C   C859      1.0  0.62476  0.34186  0.33249  1.0000
  H   H1026     1.0  0.97707  0.38621  0.46427  1.0000
  C   C860      1.0  0.81145  0.33611  0.26806  1.0000
  H   H1027     1.0  0.60669  0.28142  0.30987  1.0000
  H   H1028     1.0  0.58634  0.30300  0.29930  1.0000
  H   H1029     1.0  0.61780  0.28608  0.34181  1.0000
  H   H1030     1.0  0.61639  0.34441  0.34576  1.0000
  H   H1031     1.0  0.57614  0.21692  0.27363  1.0000
  C   C861      1.0  0.60276  0.18150  0.48074  1.0000
  H   H1032     1.0  0.82884  0.43131  0.35948  1.0000
  H   H1033     1.0  0.60411  0.30934  0.35487  1.0000
  H   H1034     1.0  0.82360  0.42338  0.44199  1.0000
  H   H1035     1.0  0.84746  0.44460  0.37480  1.0000
  H   H1036     1.0  0.55148  0.19511  0.30627  1.0000
  H   H1037     1.0  0.54993  0.19718  0.45011  1.0000
  H   H1038     1.0  0.51117  0.18509  0.28480  1.0000
  H   H1039     1.0  0.94389  0.33909  0.49649  1.0000
  C   C862      1.0  0.82165  0.31945  0.25584  1.0000
  C   C863      1.0  0.63930  0.18541  0.26024  1.0000
  S   S240      1.0  0.86945  0.36102  0.49240  1.0000
  C   C864      1.0  0.58530  0.07285  0.44043  1.0000
  C   C865      1.0  0.55544  0.18427  0.29415  1.0000
  H   H1040     1.0  0.79152  0.41785  0.38762  1.0000
  C   C866      1.0  0.64817  0.33687  0.29867  1.0000
  C   C867      1.0  0.58439  0.02707  0.45507  1.0000
  H   H1041     1.0  0.64680  0.10055  0.45046  1.0000
  C   C868      1.0  0.50923  0.20590  0.32937  1.0000
  H   H1042     1.0  0.80792  0.33104  0.28219  1.0000
  H   H1043     1.0  0.57717  0.33936  0.34018  1.0000
  H   H1044     1.0  0.80319  0.46653  0.35580  1.0000
  C   C869      1.0  0.58519  0.20660  0.45687  1.0000
  C   C870      1.0  0.60593  0.21531  0.44859  1.0000
  H   H1045     1.0  0.61773  0.09552  0.41852  1.0000
  C   C871      1.0  0.60757  0.22116  0.42994  1.0000
  C   C872      1.0  0.56793  0.21051  0.42671  1.0000
  C   C873      1.0  0.58860  0.21880  0.41903  1.0000
  H   H1046     1.0  0.55963  0.31731  0.33250  1.0000
  C   C874      1.0  0.52026  0.20124  0.28076  1.0000
  C   C875      1.0  0.63034  0.09134  0.45276  1.0000
  H   H1047     1.0  0.62507  0.31083  0.29359  1.0000
  C   C876      1.0  0.57539  0.32729  0.32893  1.0000
  H   H1048     1.0  0.82107  0.30234  0.35190  1.0000
  C   C877      1.0  0.60703  0.06024  0.44407  1.0000
  H   H1049     1.0  0.55350  0.20798  0.41801  1.0000
  H   H1050     1.0  0.55188  0.23090  0.28576  1.0000
  C   C878      1.0  0.53441  0.17124  0.25157  1.0000
  H   H1051     1.0  0.57165  0.33828  0.31637  1.0000
  H   H1052     1.0  0.62384  0.22694  0.42372  1.0000
  C   C879      1.0  0.65561  0.35258  0.31084  1.0000
  H   H1053     1.0  0.59024  0.22257  0.40445  1.0000
  H   H1054     1.0  0.74927  0.28872  0.38166  1.0000
  H   H1055     1.0  0.76692  0.29247  0.40057  1.0000
  H   H1056     1.0  0.54676  0.03230  0.45410  1.0000
  H   H1057     1.0  0.49472  0.26400  0.32196  1.0000
  H   H1058     1.0  0.74498  0.29990  0.35216  1.0000
  H   H1059     1.0  0.76447  0.33543  0.39123  1.0000
  N   N59       1.0  0.59673  0.31135  0.32608  1.0000
  C   C880      1.0  0.60157  0.29792  0.34338  1.0000
  H   H1060     1.0  0.77662  0.27147  0.38377  1.0000
  N   N60       1.0  0.78040  0.30744  0.37510  1.0000
  C   C881      1.0  0.80329  0.30934  0.38366  1.0000
  C   C882      1.0  0.76679  0.33033  0.37679  1.0000
  C   C883      1.0  0.76777  0.28922  0.38571  1.0000
  C   C884      1.0  0.78270  0.30144  0.35565  1.0000
  C   C885      1.0  0.80470  0.29945  0.34580  1.0000
  C   C886      1.0  0.76240  0.29796  0.34581  1.0000
  C   C887      1.0  0.80607  0.29436  0.32730  1.0000
  C   C888      1.0  0.76400  0.29277  0.32737  1.0000
  C   C889      1.0  0.78578  0.29106  0.31811  1.0000
  H   H1061     1.0  0.81327  0.32356  0.37690  1.0000
  H   H1062     1.0  0.80098  0.31400  0.39824  1.0000
  H   H1063     1.0  0.81438  0.29257  0.38319  1.0000
  H   H1064     1.0  0.77585  0.34449  0.36910  1.0000
  H   H1065     1.0  0.52410  0.19369  0.33208  1.0000
  C   C890      1.0  0.81592  0.47656  0.40761  1.0000
  N   N61       1.0  0.54592  0.19607  0.27742  1.0000
  H   H1066     1.0  0.64836  0.08792  0.41784  1.0000
  H   H1067     1.0  0.65098  0.03990  0.43494  1.0000
  C   C891      1.0  0.56616  0.20433  0.44531  1.0000
  C   C892      1.0  0.76430  0.49019  0.31526  1.0000
  H   H1068     1.0  0.78588  0.43206  0.36624  1.0000
  H   H1069     1.0  0.62142  0.02608  0.45517  1.0000
  H   H1070     1.0  0.54646  0.20434  0.48093  1.0000
  H   H1071     1.0  0.67091  0.36236  0.30742  1.0000
  S   S241      1.0  0.61774  0.12331  0.49405  1.0000
  C   C893      1.0  0.85404  0.48304  0.49160  1.0000
  H   H1072     1.0  0.66714  0.06423  0.44052  1.0000
  C   C894      1.0  0.63103  0.08076  0.42133  1.0000
  H   H1073     1.0  0.54794  0.16697  0.29700  1.0000
  H   H1074     1.0  0.61546  0.10468  0.45084  1.0000
  S   S242      1.0  0.83338  0.46282  0.49804  1.0000
  C   C895      1.0  0.81746  0.43463  0.41410  1.0000
  H   H1075     1.0  0.83425  0.41783  0.38125  1.0000
  H   H1076     1.0  0.53102  0.09055  0.48807  1.0000
  H   H1077     1.0  0.91302  0.48826  0.48835  1.0000
  C   C896      1.0  0.80668  0.47068  0.37011  1.0000
  H   H1078     1.0  0.82588  0.30163  0.26076  1.0000
  C   C897      1.0  0.98903  0.45729  0.49373  1.0000
  H   H1079     1.0  0.58972  0.18196  0.26352  1.0000
  C   C898      1.0  0.51343  0.08723  0.49291  1.0000
  C   C899      1.0  0.96837  0.47142  0.49168  1.0000
  C   C900      1.0  0.55177  0.18107  0.26169  1.0000
  H   H1080     1.0  0.60555  0.22746  0.48449  1.0000
  C   C901      1.0  0.66093  0.01221  0.49709  1.0000
  H   H1081     1.0  0.98845  0.43836  0.49505  1.0000
  C   C902      1.0  0.56134  0.19103  0.48310  1.0000
  H   H1082     1.0  0.55784  0.17480  0.47605  1.0000
  H   H1083     1.0  0.60090  0.16594  0.47246  1.0000
  H   H1084     1.0  0.55076  0.22793  0.26149  1.0000
  H   H1085     1.0  0.82231  0.48130  0.36938  1.0000
  C   C903      1.0  0.56342  0.03997  0.45131  1.0000
  C   C904      1.0  0.61872  0.01697  0.49538  1.0000
  H   H1086     1.0  0.95178  0.46330  0.49140  1.0000
  H   H1087     1.0  0.58405  0.00929  0.46081  1.0000
  C   C905      1.0  0.64034  0.02692  0.49704  1.0000
  H   H1088     1.0  0.88401  0.45810  0.49345  1.0000
  H   H1089     1.0  0.51586  0.17394  0.25491  1.0000
  C   C906      1.0  0.49491  0.09109  0.48107  1.0000
  C   C907      1.0  0.61792  0.99230  0.49420  1.0000
  H   H1090     1.0  0.56117  0.18621  0.49797  1.0000
  H   H1091     1.0  0.67771  0.01962  0.49824  1.0000
  Fe  Fe123     1.0  0.59562  0.13181  0.51955  1.0000
  S   S243      1.0  0.59519  0.09407  0.52933  1.0000
  S   S244      1.0  0.59826  0.16412  0.53652  1.0000
  Fe  Fe124     1.0  0.60805  0.19041  0.64434  1.0000
  S   S245      1.0  0.60040  0.22919  0.64020  1.0000
  S   S246      1.0  0.60533  0.16209  0.62345  1.0000
  Fe  Fe125     1.0  0.61546  0.19498  0.68606  1.0000
  S   S247      1.0  0.60661  0.23414  0.68439  1.0000
  S   S248      1.0  0.63456  0.17249  0.70831  1.0000
  Fe  Fe126     1.0  0.57744  0.22557  0.66590  1.0000
  S   S249      1.0  0.54009  0.24249  0.66235  1.0000
  Fe  Fe127     1.0  0.63010  0.23431  0.65892  1.0000
  S   S250      1.0  0.66437  0.25315  0.65360  1.0000
  S   S251      1.0  0.58471  0.18657  0.66961  1.0000
  S   S252      1.0  0.63928  0.19538  0.66096  1.0000
  Fe  Fe128     1.0  0.85325  0.37893  0.51731  1.0000
  S   S253      1.0  0.87676  0.40910  0.51444  1.0000
  S   S254      1.0  0.84914  0.35812  0.54458  1.0000
  Fe  Fe129     1.0  0.78356  0.38344  0.64525  1.0000
  S   S255      1.0  0.74737  0.39813  0.65368  1.0000
  S   S256      1.0  0.78897  0.39369  0.61489  1.0000
  Fe  Fe130     1.0  0.79331  0.36881  0.68541  1.0000
  S   S257      1.0  0.75760  0.38281  0.69555  1.0000
  S   S258      1.0  0.82204  0.35336  0.70432  1.0000
  Fe  Fe131     1.0  0.74415  0.36536  0.67133  1.0000
  S   S259      1.0  0.70826  0.34929  0.67241  1.0000
  Fe  Fe132     1.0  0.76409  0.41417  0.67675  1.0000
  S   S260      1.0  0.75183  0.45201  0.68322  1.0000
  S   S261      1.0  0.77962  0.34960  0.66191  1.0000
  S   S262      1.0  0.80043  0.40123  0.66769  1.0000
  C   C908      1.0  0.52970  0.14751  0.54564  1.0000
  C   C909      1.0  0.50911  0.14081  0.53826  1.0000
  H   H1092     1.0  0.80144  0.46316  0.68046  1.0000
  C   C910      1.0  0.50562  0.18273  0.62198  1.0000
  C   C911      1.0  0.82213  0.34632  0.72828  1.0000
  H   H1093     1.0  0.49712  0.25408  0.70663  1.0000
  C   C912      1.0  0.67755  0.21555  0.74075  1.0000
  H   H1094     1.0  0.92164  0.33867  0.55901  1.0000
  H   H1095     1.0  0.85754  0.33057  0.72684  1.0000
  C   C913      1.0  0.79055  0.47939  0.68101  1.0000
  C   C914      1.0  0.83254  0.36831  0.56412  1.0000
  C   C915      1.0  0.81848  0.38935  0.56357  1.0000
  C   C916      1.0  0.80537  0.39672  0.57925  1.0000
  C   C917      1.0  0.80628  0.38334  0.59576  1.0000
  C   C918      1.0  0.82034  0.36229  0.59637  1.0000
  C   C919      1.0  0.83331  0.35481  0.58060  1.0000
  H   H1096     1.0  0.81758  0.39987  0.55099  1.0000
  H   H1097     1.0  0.79445  0.41293  0.57851  1.0000
  H   H1098     1.0  0.82126  0.35177  0.60892  1.0000
  H   H1099     1.0  0.84408  0.33848  0.58120  1.0000
  C   C920      1.0  0.71471  0.20046  0.72731  1.0000
  H   H1100     1.0  0.53220  0.18256  0.65338  1.0000
  C   C921      1.0  0.78733  0.45392  0.63326  1.0000
  C   C922      1.0  0.67636  0.27951  0.66005  1.0000
  C   C923      1.0  0.66259  0.29798  0.66781  1.0000
  C   C924      1.0  0.67275  0.31899  0.67165  1.0000
  C   C925      1.0  0.69686  0.32179  0.66809  1.0000
  C   C926      1.0  0.71078  0.30305  0.66081  1.0000
  C   C927      1.0  0.70054  0.28216  0.65671  1.0000
  H   H1101     1.0  0.64399  0.29633  0.67043  1.0000
  H   H1102     1.0  0.66178  0.33332  0.67730  1.0000
  H   H1103     1.0  0.72931  0.30477  0.65804  1.0000
  H   H1104     1.0  0.71140  0.26807  0.65063  1.0000
  C   C928      1.0  0.63860  0.17137  0.73229  1.0000
  C   C929      1.0  0.53093  0.17018  0.55155  1.0000
  C   C930      1.0  0.58896  0.02665  0.53642  1.0000
  H   H1105     1.0  0.78702  0.36053  0.73464  1.0000
  H   H1106     1.0  0.67036  0.14886  0.72978  1.0000
  H   H1107     1.0  0.74914  0.47840  0.64631  1.0000
  C   C931      1.0  0.51198  0.23093  0.66622  1.0000
  C   C932      1.0  0.50796  0.21331  0.67954  1.0000
  C   C933      1.0  0.81999  0.44942  0.72466  1.0000
  H   H1108     1.0  0.52246  0.20547  0.68721  1.0000
  S   S263      1.0  0.82425  0.39704  0.50124  1.0000
  C   C934      1.0  0.59994  0.16338  0.56073  1.0000
  C   C935      1.0  0.60108  0.18451  0.56977  1.0000
  C   C936      1.0  0.60273  0.18456  0.58892  1.0000
  C   C937      1.0  0.60332  0.16341  0.59926  1.0000
  C   C938      1.0  0.60172  0.14237  0.59024  1.0000
  C   C939      1.0  0.60001  0.14232  0.57114  1.0000
  H   H1109     1.0  0.60103  0.20092  0.56190  1.0000
  H   H1110     1.0  0.60390  0.20091  0.59562  1.0000
  H   H1111     1.0  0.60210  0.12590  0.59807  1.0000
  H   H1112     1.0  0.59912  0.12592  0.56446  1.0000
  C   C940      1.0  0.62270  0.18256  0.74464  1.0000
  N   N62       1.0  0.76989  0.46802  0.62222  1.0000
  H   H1113     1.0  0.74013  0.45304  0.63633  1.0000
  H   H1114     1.0  0.56307  0.19527  0.62251  1.0000
  C   C941      1.0  0.80288  0.35204  0.74006  1.0000
  H   H1115     1.0  0.77352  0.45089  0.72084  1.0000
  H   H1116     1.0  0.95868  0.32387  0.55359  1.0000
  C   C942      1.0  0.90807  0.31928  0.51810  1.0000
  C   C943      1.0  0.64690  0.08819  0.74359  1.0000
  H   H1117     1.0  0.92050  0.30843  0.55263  1.0000
  H   H1118     1.0  0.62325  0.11998  0.70783  1.0000
  H   H1119     1.0  0.57796  0.04276  0.53502  1.0000
  H   H1120     1.0  0.52931  0.14317  0.61339  1.0000
  C   C944      1.0  0.81399  0.41685  0.74600  1.0000
  H   H1121     1.0  0.84633  0.40366  0.73181  1.0000
  C   C945      1.0  0.69265  0.21309  0.72495  1.0000
  H   H1122     1.0  0.55574  0.16377  0.64451  1.0000
  H   H1123     1.0  0.85919  0.48496  0.55071  1.0000
  C   C946      1.0  0.78033  0.44128  0.73329  1.0000
  C   C947      1.0  0.61235  0.02849  0.54075  1.0000
  H   H1124     1.0  0.66031  0.22453  0.74037  1.0000
  C   C948      1.0  0.53661  0.16872  0.64333  1.0000
  Fe  Fe133     1.0  0.61360  0.08528  0.50257  1.0000
  H   H1125     1.0  0.88886  0.32045  0.52170  1.0000
  C   C949      1.0  0.51139  0.18615  0.55042  1.0000
  C   C950      1.0  0.97917  0.39222  0.51639  1.0000
  H   H1126     1.0  0.79456  0.42380  0.70274  1.0000
  C   C951      1.0  0.61121  0.12254  0.73580  1.0000
  C   C952      1.0  0.55196  0.01683  0.51049  1.0000
  C   C953      1.0  0.95549  0.33428  0.50750  1.0000
  H   H1127     1.0  0.65472  0.08930  0.71460  1.0000
  S   S264      1.0  0.56184  0.13196  0.50488  1.0000
  H   H1128     1.0  0.89416  0.36193  0.53018  1.0000
  H   H1129     1.0  0.59795  0.13650  0.73271  1.0000
  N   N63       1.0  0.68640  0.22340  0.70680  1.0000
  C   C954      1.0  0.70253  0.24187  0.70128  1.0000
  C   C955      1.0  0.68865  0.20504  0.69300  1.0000
  C   C956      1.0  0.66202  0.23424  0.70633  1.0000
  H   H1130     1.0  0.89502  0.32863  0.55173  1.0000
  C   C957      1.0  0.76610  0.47879  0.68228  1.0000
  H   H1131     1.0  0.94132  0.39749  0.51594  1.0000
  C   C958      1.0  0.62757  0.00846  0.54235  1.0000
  H   H1132     1.0  0.64896  0.22113  0.71021  1.0000
  H   H1133     1.0  0.78094  0.48964  0.58788  1.0000
  H   H1134     1.0  0.72114  0.23485  0.70012  1.0000
  H   H1135     1.0  0.69820  0.25011  0.68771  1.0000
  H   H1136     1.0  0.70139  0.25609  0.71124  1.0000
  H   H1137     1.0  0.70703  0.19796  0.69055  1.0000
  H   H1138     1.0  0.68249  0.21195  0.67947  1.0000
  H   H1139     1.0  0.67800  0.19002  0.69725  1.0000
  C   C959      1.0  0.94670  0.33081  0.52570  1.0000
  H   H1140     1.0  0.50924  0.12312  0.53359  1.0000
  C   C960      1.0  0.84252  0.33511  0.73576  1.0000
  H   H1141     1.0  0.75907  0.43706  0.60988  1.0000
  C   C961      1.0  0.83624  0.40418  0.74457  1.0000
  H   H1142     1.0  0.60767  0.19309  0.73963  1.0000
  H   H1143     1.0  0.79013  0.46192  0.64642  1.0000
  H   H1144     1.0  0.53734  0.21309  0.62941  1.0000
  H   H1145     1.0  0.65773  0.24135  0.69242  1.0000
  N   N64       1.0  0.53105  0.17724  0.62451  1.0000
  C   C962      1.0  0.54012  0.15866  0.61199  1.0000
  C   C963      1.0  0.54388  0.19862  0.62039  1.0000
  C   C964      1.0  0.95736  0.39417  0.50793  1.0000
  H   H1146     1.0  0.82184  0.46106  0.73622  1.0000
  H   H1147     1.0  0.82120  0.40816  0.70921  1.0000
  H   H1148     1.0  0.91616  0.36468  0.51244  1.0000
  H   H1149     1.0  0.54211  0.20525  0.60607  1.0000
  H   H1150     1.0  0.55852  0.15230  0.61484  1.0000
  H   H1151     1.0  0.50930  0.19040  0.59272  1.0000
  H   H1152     1.0  0.79388  0.39895  0.71857  1.0000
  H   H1153     1.0  0.54057  0.16487  0.59747  1.0000
  H   H1154     1.0  0.81298  0.46061  0.71309  1.0000
  H   H1155     1.0  0.83792  0.44249  0.72027  1.0000
  N   N65       1.0  0.73752  0.34105  0.60979  1.0000
  C   C965      1.0  0.75837  0.33135  0.61967  1.0000
  C   C966      1.0  0.74504  0.34736  0.59074  1.0000
  C   C967      1.0  0.72874  0.36309  0.61855  1.0000
  C   C968      1.0  0.71984  0.32324  0.61002  1.0000
  C   C969      1.0  0.72532  0.30139  0.60178  1.0000
  C   C970      1.0  0.69719  0.32659  0.61874  1.0000
  C   C971      1.0  0.70925  0.28396  0.60236  1.0000
  C   C972      1.0  0.68120  0.30911  0.61907  1.0000
  C   C973      1.0  0.68727  0.28779  0.61105  1.0000
  H   H1156     1.0  0.76733  0.31587  0.61306  1.0000
  H   H1157     1.0  0.77179  0.34454  0.62030  1.0000
  H   H1158     1.0  0.75331  0.32577  0.63391  1.0000
  H   H1159     1.0  0.75417  0.33233  0.58365  1.0000
  H   H1160     1.0  0.75774  0.36139  0.59017  1.0000
  H   H1161     1.0  0.72972  0.35382  0.58260  1.0000
  H   H1162     1.0  0.72416  0.35990  0.63331  1.0000
  H   H1163     1.0  0.74223  0.37628  0.61782  1.0000
  H   H1164     1.0  0.71306  0.37145  0.61175  1.0000
  H   H1165     1.0  0.74225  0.29746  0.59509  1.0000
  H   H1166     1.0  0.69155  0.34222  0.62592  1.0000
  H   H1167     1.0  0.71394  0.26723  0.59629  1.0000
  H   H1168     1.0  0.66430  0.31173  0.62625  1.0000
  H   H1169     1.0  0.67507  0.27402  0.61200  1.0000
  H   H1170     1.0  0.75261  0.46384  0.59708  1.0000
  C   C974      1.0  0.91321  0.35869  0.52689  1.0000
  C   C975      1.0  0.64334  0.09612  0.72559  1.0000
  H   H1171     1.0  0.61897  0.04559  0.54230  1.0000
  C   C976      1.0  0.74732  0.47041  0.63297  1.0000
  Fe  Fe134     1.0  0.56287  0.09386  0.51319  1.0000
  S   S265      1.0  0.53187  0.07681  0.52609  1.0000
  H   H1172     1.0  0.52722  0.15283  0.64748  1.0000
  C   C977      1.0  0.72091  0.19030  0.74424  1.0000
  C   C978      1.0  0.50901  0.07965  0.51096  1.0000
  H   H1173     1.0  0.92267  0.37017  0.53551  1.0000
  H   H1174     1.0  0.56393  0.00972  0.49943  1.0000
  H   H1175     1.0  0.58662  0.21661  0.50228  1.0000
  C   C979      1.0  0.76584  0.45447  0.60595  1.0000
  H   H1176     1.0  0.52053  0.01225  0.53866  1.0000
  H   H1177     1.0  0.97969  0.39340  0.53101  1.0000
  C   C980      1.0  0.96358  0.32627  0.53934  1.0000
  H   H1178     1.0  0.54154  0.03213  0.54406  1.0000
  C   C981      1.0  0.80353  0.41470  0.71448  1.0000
  H   H1179     1.0  0.72723  0.19815  0.71600  1.0000
  C   C982      1.0  0.53921  0.01326  0.54217  1.0000
  H   H1180     1.0  0.54496  0.13511  0.54649  1.0000
  C   C983      1.0  0.62554  0.11327  0.72172  1.0000
  H   H1181     1.0  0.55527  0.03564  0.51151  1.0000
  C   C984      1.0  0.91447  0.32696  0.54921  1.0000
  H   H1182     1.0  0.80465  0.45176  0.62578  1.0000
  C   C985      1.0  0.58014  0.00456  0.53339  1.0000
  H   H1183     1.0  0.65928  0.24934  0.71542  1.0000
  H   H1184     1.0  0.51589  0.28221  0.68533  1.0000
  H   H1185     1.0  0.78156  0.43602  0.63674  1.0000
  C   C986      1.0  0.65789  0.15758  0.73917  1.0000
  H   H1186     1.0  0.77978  0.45442  0.74407  1.0000
  H   H1187     1.0  0.54718  0.17537  0.55684  1.0000
  H   H1188     1.0  0.51244  0.20382  0.55499  1.0000
  N   N66       1.0  0.80445  0.43036  0.72999  1.0000
  N   N67       1.0  0.55561  0.00321  0.52791  1.0000
  N   N68       1.0  0.92113  0.33371  0.53004  1.0000
  C   C987      1.0  0.98769  0.32544  0.53489  1.0000
  H   H1189     1.0  0.78245  0.45057  0.59783  1.0000
  H   H1190     1.0  0.73387  0.48155  0.62545  1.0000
  H   H1191     1.0  0.90950  0.32516  0.50351  1.0000
  H   H1192     1.0  0.64590  0.01004  0.54505  1.0000
  H   H1193     1.0  0.54185  0.00385  0.55557  1.0000
  H   H1194     1.0  0.76766  0.42777  0.73709  1.0000
  C   C988      1.0  0.49728  0.18904  0.60438  1.0000
  H   H1195     1.0  0.53358  0.01648  0.50607  1.0000
  H   H1196     1.0  0.73756  0.18018  0.74562  1.0000
  H   H1197     1.0  0.91459  0.30049  0.51917  1.0000
  C   C989      1.0  0.77847  0.49155  0.61773  1.0000
  H   H1198     1.0  0.49555  0.25482  0.64633  1.0000
  C   C990      1.0  0.49688  0.28280  0.68691  1.0000
  S   S266      1.0  0.64326  0.05743  0.49893  1.0000
  C   C991      1.0  0.97959  0.33310  0.50321  1.0000
  H   H1199     1.0  0.66124  0.07521  0.74595  1.0000
  H   H1200     1.0  0.49311  0.17806  0.65055  1.0000
  H   H1201     1.0  0.82155  0.16509  0.85498  1.0000
  H   H1202     1.0  0.80876  0.25611  0.78244  1.0000
  H   H1203     1.0  0.77810  0.23872  0.77326  1.0000
  H   H1204     1.0  0.79467  0.13523  0.84726  1.0000
  H   H1205     1.0  0.86244  0.38132  0.75795  1.0000
  H   H1206     1.0  0.72017  0.23270  0.82497  1.0000
  Fe  Fe135     1.0  0.61295  0.12649  0.97732  1.0000
  S   S267      1.0  0.61712  0.14540  0.94939  1.0000
  S   S268      1.0  0.59520  0.09247  0.98020  1.0000
  Fe  Fe136     1.0  0.67556  0.14136  0.81183  1.0000
  S   S269      1.0  0.70843  0.12439  0.79922  1.0000
  S   S270      1.0  0.64757  0.16175  0.79464  1.0000
  Fe  Fe137     1.0  0.68961  0.12428  0.85081  1.0000
  S   S271      1.0  0.72367  0.10656  0.83982  1.0000
  S   S272      1.0  0.68570  0.11626  0.88164  1.0000
  Fe  Fe138     1.0  0.72685  0.13968  0.82221  1.0000
  S   S273      1.0  0.76097  0.15796  0.81524  1.0000
  Fe  Fe139     1.0  0.70197  0.09293  0.81815  1.0000
  S   S274      1.0  0.69926  0.05647  0.80619  1.0000
  S   S275      1.0  0.69410  0.15810  0.83417  1.0000
  S   S276      1.0  0.66790  0.10946  0.82978  1.0000
  Fe  Fe140     1.0  0.85922  0.37280  0.98112  1.0000
  S   S277      1.0  0.89344  0.38976  0.97774  1.0000
  S   S278      1.0  0.83850  0.36072  0.95752  1.0000
  H   H1207     1.0  0.72132  0.18159  0.87236  1.0000
  H   H1208     1.0  0.80142  0.43233  0.95494  1.0000
  H   H1209     1.0  0.80228  0.44851  0.92335  1.0000
  H   H1210     1.0  0.81064  0.19201  0.87980  1.0000
  H   H1211     1.0  0.78488  0.42496  0.76577  1.0000
  Fe  Fe141     1.0  0.89128  0.28116  0.82742  1.0000
  S   S279      1.0  0.88128  0.31996  0.82602  1.0000
  S   S280      1.0  0.92921  0.26443  0.82690  1.0000
  Fe  Fe142     1.0  0.84010  0.26900  0.83819  1.0000
  S   S281      1.0  0.82841  0.30750  0.83863  1.0000
  S   S282      1.0  0.80999  0.24518  0.84649  1.0000
  Fe  Fe143     1.0  0.84888  0.31071  0.81178  1.0000
  S   S283      1.0  0.82549  0.33106  0.79068  1.0000
  Fe  Fe144     1.0  0.86158  0.31322  0.85288  1.0000
  S   S284      1.0  0.87210  0.33650  0.87570  1.0000
  S   S285      1.0  0.86020  0.27202  0.81125  1.0000
  S   S286      1.0  0.87198  0.27460  0.85440  1.0000
  C   C992      1.0  0.82466  0.33585  0.76649  1.0000
  C   C993      1.0  0.80423  0.34699  0.75901  1.0000
  H   H1212     1.0  0.78940  0.35201  0.76796  1.0000
  C   C994      1.0  0.95764  0.27522  0.82246  1.0000
  C   C995      1.0  0.97763  0.26137  0.82812  1.0000
  C   C996      1.0  0.96090  0.29703  0.81368  1.0000
  H   H1213     1.0  0.97542  0.24439  0.83480  1.0000
  H   H1214     1.0  0.94581  0.30787  0.80913  1.0000
  C   C997      1.0  0.84918  0.35162  0.93555  1.0000
  C   C998      1.0  0.83422  0.34048  0.92439  1.0000
  C   C999      1.0  0.84119  0.33487  0.90631  1.0000
  C   C1000     1.0  0.86301  0.34101  0.89893  1.0000
  C   C1001     1.0  0.87793  0.35221  0.91010  1.0000
  C   C1002     1.0  0.87133  0.35700  0.92837  1.0000
  H   H1215     1.0  0.81701  0.33629  0.92973  1.0000
  H   H1216     1.0  0.82941  0.32642  0.89793  1.0000
  H   H1217     1.0  0.89464  0.35750  0.90453  1.0000
  H   H1218     1.0  0.88304  0.36566  0.93667  1.0000
  H   H1219     1.0  0.64138  0.07038  0.91815  1.0000
  H   H1220     1.0  0.95891  0.32489  0.90588  1.0000
  C   C1003     1.0  0.63637  0.06316  0.77917  1.0000
  C   C1004     1.0  0.50662  0.12522  0.99152  1.0000
  C   C1005     1.0  0.77702  0.29138  0.81165  1.0000
  C   C1006     1.0  0.85223  0.41528  0.93218  1.0000
  C   C1007     1.0  0.83353  0.39108  0.77626  1.0000
  C   C1008     1.0  0.77389  0.18271  0.82386  1.0000
  C   C1009     1.0  0.79533  0.18966  0.81593  1.0000
  C   C1010     1.0  0.80648  0.20882  0.82244  1.0000
  C   C1011     1.0  0.79636  0.22137  0.83707  1.0000
  C   C1012     1.0  0.77483  0.21453  0.84492  1.0000
  C   C1013     1.0  0.76364  0.19541  0.83837  1.0000
  H   H1221     1.0  0.80351  0.17997  0.80475  1.0000
  H   H1222     1.0  0.82314  0.21355  0.81635  1.0000
  H   H1223     1.0  0.76683  0.22398  0.85627  1.0000
  H   H1224     1.0  0.74720  0.19038  0.84461  1.0000
  C   C1014     1.0  0.97077  0.32204  0.89423  1.0000
  C   C1015     1.0  0.71995  0.02001  0.82821  1.0000
  C   C1016     1.0  0.70503  0.02656  0.81394  1.0000
  C   C1017     1.0  0.69509  0.00870  0.80478  1.0000
  H   H1225     1.0  0.66238  0.11445  0.78097  1.0000
  H   H1226     1.0  0.86198  0.40850  0.94435  1.0000
  H   H1227     1.0  0.72791  0.03342  0.83533  1.0000
  H   H1228     1.0  0.68366  0.01342  0.79366  1.0000
  C   C1018     1.0  0.64493  0.16539  0.77050  1.0000
  C   C1019     1.0  0.62577  0.17941  0.76360  1.0000
  H   H1229     1.0  0.67649  0.14461  0.76296  1.0000
  H   H1230     1.0  0.61310  0.18781  0.77302  1.0000
  C   C1020     1.0  0.63579  0.13648  0.93052  1.0000
  C   C1021     1.0  0.63322  0.14839  0.91347  1.0000
  C   C1022     1.0  0.64796  0.14223  0.89825  1.0000
  C   C1023     1.0  0.66570  0.12422  0.89997  1.0000
  C   C1024     1.0  0.66837  0.11240  0.91704  1.0000
  C   C1025     1.0  0.65343  0.11834  0.93219  1.0000
  H   H1231     1.0  0.61967  0.16247  0.91203  1.0000
  H   H1232     1.0  0.64568  0.15155  0.88526  1.0000
  H   H1233     1.0  0.68206  0.09849  0.91857  1.0000
  H   H1234     1.0  0.65574  0.10910  0.94520  1.0000
  H   H1235     1.0  0.78459  0.30540  0.77769  1.0000
  H   H1236     1.0  0.77382  0.18950  0.89712  1.0000
  H   H1237     1.0  0.84571  0.39957  0.92610  1.0000
  H   H1238     1.0  0.73416  0.19313  0.90246  1.0000
  C   C1026     1.0  0.63266  0.09730  0.75831  1.0000
  N   N69       1.0  0.63726  0.08905  0.77727  1.0000
  N   N70       1.0  0.77949  0.27558  0.79602  1.0000
  C   C1027     1.0  0.77380  0.28987  0.77928  1.0000
  H   H1239     1.0  0.70193  0.16337  0.88564  1.0000
  H   H1240     1.0  0.72468  0.20206  0.80217  1.0000
  C   C1028     1.0  0.76417  0.25568  0.79791  1.0000
  H   H1241     1.0  0.67518  0.08688  0.77306  1.0000
  C   C1029     1.0  0.73628  0.13400  0.89981  1.0000
  C   C1030     1.0  0.73269  0.23447  0.81359  1.0000
  H   H1242     1.0  0.84072  0.38069  0.78768  1.0000
  H   H1243     1.0  0.62675  0.02540  0.96436  1.0000
  C   C1031     1.0  0.61470  0.11488  0.75387  1.0000
  H   H1244     1.0  0.62127  0.11899  0.79125  1.0000
  H   H1245     1.0  0.80208  0.40245  0.79120  1.0000
  H   H1246     1.0  0.52164  0.13212  0.98423  1.0000
  C   C1032     1.0  0.66121  0.15481  0.75808  1.0000
  C   C1033     1.0  0.71979  0.16387  0.87897  1.0000
  H   H1247     1.0  0.87814  0.44376  0.94598  1.0000
  H   H1248     1.0  0.82708  0.41678  0.96387  1.0000
  H   H1249     1.0  0.74774  0.17106  0.91789  1.0000
  H   H1250     1.0  0.74475  0.26560  0.82320  1.0000
  H   H1251     1.0  0.71683  0.17230  0.91443  1.0000
  C   C1034     1.0  0.86439  0.45754  0.94764  1.0000
  H   H1252     1.0  0.60199  0.09556  0.78848  1.0000
  H   H1253     1.0  0.78137  0.28165  0.82470  1.0000
  N   N71       1.0  0.94048  0.30225  0.87664  1.0000
  C   C1035     1.0  0.92909  0.31406  0.86062  1.0000
  C   C1036     1.0  0.94271  0.27659  0.87401  1.0000
  C   C1037     1.0  0.92439  0.30638  0.89276  1.0000
  C   C1038     1.0  0.96407  0.31101  0.87843  1.0000
  C   C1039     1.0  0.66097  0.09520  0.78190  1.0000
  H   H1254     1.0  0.67207  0.20719  0.76945  1.0000
  C   C1040     1.0  0.62755  0.01328  0.91913  1.0000
  H   H1255     1.0  0.63603  0.03837  0.89746  1.0000
  H   H1256     1.0  0.88949  0.48055  0.95676  1.0000
  H   H1257     1.0  0.93892  0.31039  0.84761  1.0000
  H   H1258     1.0  0.91123  0.30800  0.85900  1.0000
  H   H1259     1.0  0.92710  0.33343  0.86196  1.0000
  H   H1260     1.0  0.95315  0.27201  0.86144  1.0000
  H   H1261     1.0  0.92527  0.26942  0.87249  1.0000
  H   H1262     1.0  0.95138  0.26700  0.88566  1.0000
  H   H1263     1.0  0.92117  0.32544  0.89512  1.0000
  H   H1264     1.0  0.90675  0.29981  0.89083  1.0000
  H   H1265     1.0  0.93126  0.29727  0.90531  1.0000
  C   C1041     1.0  0.63684  0.05332  0.92370  1.0000
  C   C1042     1.0  0.80193  0.41607  0.76333  1.0000
  C   C1043     1.0  0.62427  0.00885  0.93823  1.0000
  H   H1266     1.0  0.81632  0.28148  0.79326  1.0000
  H   H1267     1.0  0.65058  0.05374  0.77099  1.0000
  N   N72       1.0  0.83260  0.43255  0.93715  1.0000
  C   C1044     1.0  0.81740  0.42110  0.95120  1.0000
  H   H1268     1.0  0.80539  0.47218  0.94654  1.0000
  H   H1269     1.0  0.77732  0.27977  0.76675  1.0000
  H   H1270     1.0  0.71936  0.13237  0.90774  1.0000
  C   C1045     1.0  0.63369  0.03525  0.91207  1.0000
  H   H1271     1.0  0.75730  0.13190  0.86395  1.0000
  C   C1046     1.0  0.84576  0.39148  0.75949  1.0000
  C   C1047     1.0  0.80451  0.26676  0.79455  1.0000
  C   C1048     1.0  0.82395  0.47351  0.94814  1.0000
  H   H1272     1.0  0.62420  0.09282  0.80512  1.0000
  H   H1273     1.0  0.75380  0.20522  0.77657  1.0000
  C   C1049     1.0  0.98128  0.30852  0.86401  1.0000
  N   N73       1.0  0.73853  0.15823  0.89214  1.0000
  C   C1050     1.0  0.75158  0.21902  0.78630  1.0000
  C   C1051     1.0  0.73428  0.17444  0.90740  1.0000
  H   H1274     1.0  0.63898  0.05662  0.79351  1.0000
  C   C1052     1.0  0.76175  0.15991  0.88261  1.0000
  C   C1053     1.0  0.77765  0.17688  0.88671  1.0000
  C   C1054     1.0  0.76871  0.14475  0.86825  1.0000
  C   C1055     1.0  0.79909  0.17843  0.87694  1.0000
  C   C1056     1.0  0.79020  0.14641  0.85865  1.0000
  C   C1057     1.0  0.80532  0.16326  0.86294  1.0000
  H   H1275     1.0  0.85963  0.32128  0.76014  1.0000
  H   H1276     1.0  0.81391  0.42160  0.91432  1.0000
  H   H1277     1.0  0.75499  0.29644  0.77959  1.0000
  H   H1278     1.0  0.72044  0.15104  0.86799  1.0000
  C   C1058     1.0  0.62031  0.09957  0.79103  1.0000
  C   C1059     1.0  0.98380  0.30459  0.81035  1.0000
  H   H1279     1.0  0.86475  0.42285  0.92193  1.0000
  C   C1060     1.0  0.87124  0.47874  0.95384  1.0000
  H   H1280     1.0  0.82942  0.44774  0.91002  1.0000
  H   H1281     1.0  0.97743  0.30045  0.85158  1.0000
  C   C1061     1.0  0.73509  0.21723  0.80068  1.0000
  H   H1282     1.0  0.66494  0.08928  0.79604  1.0000
  C   C1062     1.0  0.76570  0.23808  0.78474  1.0000
  S   S287      1.0  0.64276  0.11436  0.99513  1.0000
  C   C1063     1.0  0.84049  0.45447  0.94420  1.0000
  C   C1064     1.0  0.63422  0.04942  0.94247  1.0000
  H   H1283     1.0  0.81143  0.40426  0.94652  1.0000
  H   H1284     1.0  0.73620  0.12088  0.88905  1.0000
  C   C1065     1.0  0.74706  0.25336  0.81239  1.0000
  H   H1285     1.0  0.78922  0.30577  0.81005  1.0000
  S   S288      1.0  0.89022  0.45236  0.99609  1.0000
  H   H1286     1.0  0.80950  0.25579  0.80683  1.0000
  H   H1287     1.0  0.63681  0.06348  0.95153  1.0000
  C   C1066     1.0  0.81896  0.43791  0.92052  1.0000
  H   H1288     1.0  0.75088  0.12847  0.90893  1.0000
  H   H1289     1.0  0.61923  0.05755  0.77489  1.0000
  C   C1067     1.0  0.68412  0.20565  0.75767  1.0000
  C   C1068     1.0  0.62823  0.02751  0.94968  1.0000
  C   C1069     1.0  0.81166  0.40329  0.77817  1.0000
  H   H1290     1.0  0.60353  0.12352  0.76411  1.0000
  H   H1291     1.0  0.75905  0.30008  0.81299  1.0000
  H   H1292     1.0  0.59928  0.00039  0.97019  1.0000
  C   C1070     1.0  0.84375  0.32975  0.75468  1.0000
  C   C1071     1.0  0.72528  0.99599  0.83285  1.0000
  H   H1293     1.0  0.62549  0.00009  0.90933  1.0000
  H   H1294     1.0  0.71011  0.18441  0.77239  1.0000
  C   C1072     1.0  0.70557  0.19279  0.75937  1.0000
  H   H1295     1.0  0.98604  0.32123  0.80317  1.0000
  H   H1296     1.0  0.58136  0.99854  0.95099  1.0000
  H   H1297     1.0  0.98949  0.34035  0.99584  1.0000
  C   C1073     1.0  0.98495  0.35899  0.99650  1.0000
  C   C1074     1.0  0.59344  0.82576  0.08845  1.0000
  Fe  Fe145     1.0  0.61503  0.88560  0.01019  1.0000
  S   S289      1.0  0.63936  0.86804  0.03126  1.0000
  S   S290      1.0  0.57782  0.89942  0.01586  1.0000
  Fe  Fe146     1.0  0.66530  0.88172  0.13849  1.0000
  S   S291      1.0  0.70358  0.88895  0.13637  1.0000
  S   S292      1.0  0.63709  0.88188  0.11712  1.0000
  Fe  Fe147     1.0  0.66481  0.88059  0.18092  1.0000
  S   S293      1.0  0.70282  0.88868  0.18167  1.0000
  S   S294      1.0  0.63720  0.87290  0.20335  1.0000
  Fe  Fe148     1.0  0.69456  0.91516  0.15846  1.0000
  S   S295      1.0  0.70281  0.95352  0.15172  1.0000
  Fe  Fe149     1.0  0.70903  0.86200  0.15970  1.0000
  S   S296      1.0  0.73159  0.82723  0.16351  1.0000
  S   S297      1.0  0.65625  0.90872  0.15947  1.0000
  S   S298      1.0  0.67108  0.85317  0.16010  1.0000
  C   C1075     1.0  0.84938  0.68404  0.01463  1.0000
  H   H1298     1.0  0.67196  0.93865  0.19019  1.0000
  C   C1076     1.0  0.97640  0.71050  0.21976  1.0000
  Fe  Fe150     1.0  0.88403  0.62496  0.02143  1.0000
  S   S299      1.0  0.89458  0.64649  0.04507  1.0000
  S   S300      1.0  0.89498  0.58667  0.01783  1.0000
  Fe  Fe151     1.0  0.85391  0.74875  0.16349  1.0000
  S   S301      1.0  0.83101  0.71880  0.16217  1.0000
  S   S302      1.0  0.83939  0.78712  0.15956  1.0000
  Fe  Fe152     1.0  0.89843  0.71542  0.16736  1.0000
  S   S303      1.0  0.87733  0.68328  0.16634  1.0000
  S   S304      1.0  0.93811  0.70627  0.17102  1.0000
  Fe  Fe153     1.0  0.85893  0.70255  0.14311  1.0000
  S   S305      1.0  0.84453  0.68688  0.11785  1.0000
  Fe  Fe154     1.0  0.85112  0.70192  0.18555  1.0000
  S   S306      1.0  0.82695  0.68333  0.20656  1.0000
  S   S307      1.0  0.88105  0.73363  0.14301  1.0000
  S   S308      1.0  0.87300  0.73299  0.18801  1.0000
  C   C1077     1.0  0.96592  0.71866  0.16742  1.0000
  C   C1078     1.0  0.96826  0.74164  0.16056  1.0000
  S   S309      1.0  0.84968  0.62344  0.00761  1.0000
  H   H1299     1.0  0.95274  0.75256  0.15705  1.0000
  H   H1300     1.0  0.53124  0.84125  0.04145  1.0000
  N   N74       1.0  0.56636  0.82639  0.03434  1.0000
  C   C1079     1.0  0.82608  0.67822  0.23073  1.0000
  C   C1080     1.0  0.54698  0.84501  0.03275  1.0000
  C   C1081     1.0  0.63596  0.95407  0.07450  1.0000
  C   C1082     1.0  0.69020  0.79569  0.20000  1.0000
  C   C1083     1.0  0.87958  0.73649  0.03044  1.0000
  C   C1084     1.0  0.57602  0.82585  0.05278  1.0000
  C   C1085     1.0  0.88060  0.65610  0.06583  1.0000
  C   C1086     1.0  0.85693  0.65299  0.07025  1.0000
  C   C1087     1.0  0.84636  0.66212  0.08640  1.0000
  C   C1088     1.0  0.85935  0.67411  0.09849  1.0000
  C   C1089     1.0  0.88310  0.67692  0.09419  1.0000
  C   C1090     1.0  0.89358  0.66809  0.07791  1.0000
  H   H1301     1.0  0.84671  0.64378  0.06115  1.0000
  H   H1302     1.0  0.82797  0.65986  0.08957  1.0000
  H   H1303     1.0  0.89329  0.68625  0.10324  1.0000
  H   H1304     1.0  0.91187  0.67068  0.07460  1.0000
  H   H1305     1.0  0.60699  0.91838  0.22332  1.0000
  C   C1091     1.0  0.62672  0.94166  0.19749  1.0000
  C   C1092     1.0  0.59535  0.94712  0.06622  1.0000
  N   N75       1.0  0.86420  0.70441  0.01277  1.0000
  H   H1306     1.0  0.70399  0.96581  0.19029  1.0000
  H   H1307     1.0  0.61389  0.94324  0.03355  1.0000
  C   C1093     1.0  0.85361  0.52597  0.00293  1.0000
  C   C1094     1.0  0.76183  0.81691  0.16259  1.0000
  C   C1095     1.0  0.77988  0.83121  0.15693  1.0000
  C   C1096     1.0  0.80347  0.82186  0.15622  1.0000
  C   C1097     1.0  0.80937  0.79814  0.16110  1.0000
  C   C1098     1.0  0.79129  0.78386  0.16674  1.0000
  C   C1099     1.0  0.76775  0.79323  0.16754  1.0000
  H   H1308     1.0  0.77570  0.84945  0.15310  1.0000
  H   H1309     1.0  0.81728  0.83311  0.15187  1.0000
  H   H1310     1.0  0.79546  0.76561  0.17060  1.0000
  H   H1311     1.0  0.75403  0.78199  0.17205  1.0000
  H   H1312     1.0  0.61578  0.93463  0.09559  1.0000
  H   H1313     1.0  0.84827  0.67538  0.00140  1.0000
  H   H1314     1.0  0.66563  0.91371  0.20491  1.0000
  C   C1100     1.0  0.63851  0.86536  0.22700  1.0000
  C   C1101     1.0  0.61911  0.85535  0.23589  1.0000
  C   C1102     1.0  0.66708  0.93305  0.20448  1.0000
  H   H1315     1.0  0.60416  0.85181  0.22812  1.0000
  C   C1103     1.0  0.63899  0.87398  0.05483  1.0000
  C   C1104     1.0  0.65958  0.86920  0.06459  1.0000
  C   C1105     1.0  0.65958  0.87220  0.08356  1.0000
  C   C1106     1.0  0.63880  0.87946  0.09305  1.0000
  C   C1107     1.0  0.61821  0.88421  0.08327  1.0000
  C   C1108     1.0  0.61834  0.88180  0.06425  1.0000
  H   H1316     1.0  0.67561  0.86296  0.05746  1.0000
  H   H1317     1.0  0.67552  0.86835  0.09090  1.0000
  H   H1318     1.0  0.60196  0.88943  0.09055  1.0000
  H   H1319     1.0  0.60226  0.88501  0.05701  1.0000
  C   C1109     1.0  0.84465  0.68286  0.24159  1.0000
  C   C1110     1.0  0.96614  0.67656  0.10479  1.0000
  H   H1320     1.0  0.79187  0.66451  0.23093  1.0000
  C   C1111     1.0  0.63858  0.93602  0.22959  1.0000
  C   C1112     1.0  0.65830  0.96319  0.07114  1.0000
  C   C1113     1.0  0.67067  0.95039  0.10130  1.0000
  H   H1321     1.0  0.94858  0.67096  0.10328  1.0000
  H   H1322     1.0  0.59815  0.81670  0.01856  1.0000
  C   C1114     1.0  0.88229  0.74782  0.04666  1.0000
  H   H1323     1.0  0.58742  0.95639  0.07824  1.0000
  S   S310      1.0  0.57543  0.96622  0.01040  1.0000
  H   H1324     1.0  0.94392  0.72607  0.20951  1.0000
  C   C1115     1.0  0.87158  0.73976  0.06288  1.0000
  H   H1325     1.0  0.57092  0.78892  0.03243  1.0000
  H   H1326     1.0  0.59872  0.98405  0.04523  1.0000
  N   N76       1.0  0.64473  0.94521  0.21097  1.0000
  C   C1116     1.0  0.69811  0.83246  0.21252  1.0000
  H   H1327     1.0  0.69845  0.80064  0.18649  1.0000
  H   H1328     1.0  0.62481  0.92266  0.19556  1.0000
  H   H1329     1.0  0.73494  0.80654  0.20024  1.0000
  H   H1330     1.0  0.69167  0.77620  0.20163  1.0000
  N   N77       1.0  0.79437  0.75418  0.11581  1.0000
  C   C1117     1.0  0.78687  0.77946  0.11303  1.0000
  C   C1118     1.0  0.81864  0.75277  0.12240  1.0000
  C   C1119     1.0  0.79475  0.74310  0.09791  1.0000
  C   C1120     1.0  0.77893  0.74153  0.12898  1.0000
  C   C1121     1.0  0.78439  0.71751  0.13374  1.0000
  C   C1122     1.0  0.75834  0.75239  0.13744  1.0000
  C   C1123     1.0  0.77068  0.70535  0.14662  1.0000
  C   C1124     1.0  0.74461  0.73999  0.15021  1.0000
  C   C1125     1.0  0.75087  0.71658  0.15489  1.0000
  H   H1331     1.0  0.78679  0.78882  0.12606  1.0000
  H   H1332     1.0  0.79904  0.78861  0.10337  1.0000
  H   H1333     1.0  0.76910  0.78199  0.10731  1.0000
  H   H1334     1.0  0.81868  0.75867  0.13659  1.0000
  H   H1335     1.0  0.83045  0.76393  0.11398  1.0000
  H   H1336     1.0  0.82708  0.73467  0.12238  1.0000
  H   H1337     1.0  0.77669  0.74292  0.09280  1.0000
  H   H1338     1.0  0.80570  0.75252  0.08751  1.0000
  H   H1339     1.0  0.80231  0.72458  0.09868  1.0000
  H   H1340     1.0  0.79968  0.70802  0.12785  1.0000
  H   H1341     1.0  0.75267  0.77059  0.13479  1.0000
  H   H1342     1.0  0.77577  0.68721  0.15041  1.0000
  H   H1343     1.0  0.72924  0.74875  0.15672  1.0000
  H   H1344     1.0  0.74047  0.70715  0.16504  1.0000
  H   H1345     1.0  0.64567  0.93207  0.11802  1.0000
  H   H1346     1.0  0.57607  0.83287  0.00584  1.0000
  C   C1126     1.0  0.88791  0.69556  0.00612  1.0000
  H   H1347     1.0  0.84651  0.63230  0.20451  1.0000
  C   C1127     1.0  0.85515  0.70902  0.04678  1.0000
  H   H1348     1.0  0.73665  0.80805  0.22433  1.0000
  H   H1349     1.0  0.87135  0.63697  0.23054  1.0000
  H   H1350     1.0  0.54980  0.80311  0.01731  1.0000
  C   C1128     1.0  0.99073  0.75064  0.15849  1.0000
  H   H1351     1.0  0.86234  0.53617  0.04978  1.0000
  Fe  Fe155     1.0  0.58857  0.93134  0.99980  1.0000
  H   H1352     1.0  0.65544  0.81502  0.22706  1.0000
  H   H1353     1.0  0.70438  0.84141  0.22439  1.0000
  H   H1354     1.0  0.98024  0.66031  0.08050  1.0000
  H   H1355     1.0  0.64302  0.95078  0.03746  1.0000
  C   C1129     1.0  0.96145  0.61150  0.00623  1.0000
  H   H1356     1.0  0.89140  0.50746  0.03607  1.0000
  H   H1357     1.0  0.65128  0.97838  0.19708  1.0000
  H   H1358     1.0  0.96075  0.76321  0.19940  1.0000
  H   H1359     1.0  0.87411  0.74821  0.07552  1.0000
  C   C1130     1.0  0.85791  0.72054  0.06290  1.0000
  H   H1360     1.0  0.73093  0.78075  0.21410  1.0000
  C   C1131     1.0  0.86011  0.51753  0.05176  1.0000
  H   H1361     1.0  0.94422  0.61040  0.01275  1.0000
  N   N78       1.0  0.61824  0.95634  0.06024  1.0000
  H   H1362     1.0  0.89986  0.70983  0.00309  1.0000
  H   H1363     1.0  0.83104  0.68936  0.01918  1.0000
  H   H1364     1.0  0.85995  0.69055  0.23538  1.0000
  Fe  Fe156     1.0  0.86217  0.58572  0.00205  1.0000
  H   H1365     1.0  0.52008  0.88948  0.01558  1.0000
  C   C1132     1.0  0.60887  0.82641  0.07332  1.0000
  C   C1133     1.0  0.86608  0.71658  0.03002  1.0000
  H   H1366     1.0  0.85679  0.67032  0.02441  1.0000
  H   H1367     1.0  0.70780  0.83894  0.20004  1.0000
  H   H1368     1.0  0.58235  0.94942  0.05524  1.0000
  H   H1369     1.0  0.80251  0.58888  0.23747  1.0000
  H   H1370     1.0  0.89640  0.68324  0.01644  1.0000
  H   H1371     1.0  0.66279  0.97161  0.05815  1.0000
  H   H1372     1.0  0.63241  0.92458  0.04800  1.0000
  H   H1373     1.0  0.67122  0.80138  0.19926  1.0000
  C   C1134     1.0  0.67533  0.96138  0.08439  1.0000
  H   H1374     1.0  0.68204  0.93650  0.21294  1.0000
  C   C1135     1.0  0.84282  0.62310  0.21741  1.0000
  C   C1136     1.0  0.72708  0.80011  0.21350  1.0000
  H   H1375     1.0  0.60931  0.95011  0.20168  1.0000
  H   H1376     1.0  0.59245  0.84777  0.02150  1.0000
  N   N79       1.0  0.70142  0.80657  0.21509  1.0000
  C   C1137     1.0  0.97833  0.62373  0.01445  1.0000
  H   H1377     1.0  0.63155  0.94927  0.18374  1.0000
  H   H1378     1.0  0.54063  0.84703  0.01860  1.0000
  H   H1379     1.0  0.67251  0.87807  0.23070  1.0000
  C   C1138     1.0  0.60044  0.82642  0.05572  1.0000
  C   C1139     1.0  0.56950  0.82445  0.08609  1.0000
  H   H1380     1.0  0.82775  0.52256  0.06736  1.0000
  C   C1140     1.0  0.56087  0.82428  0.06854  1.0000
  H   H1381     1.0  0.72126  0.77979  0.24461  1.0000
  C   C1141     1.0  0.84031  0.50612  0.00463  1.0000
  H   H1382     1.0  0.66290  0.97500  0.21909  1.0000
  C   C1142     1.0  0.80635  0.66816  0.23916  1.0000
  C   C1143     1.0  0.64777  0.97081  0.21108  1.0000
  H   H1383     1.0  0.69232  0.96832  0.08152  1.0000
  C   C1144     1.0  0.66616  0.80479  0.23670  1.0000
  H   H1384     1.0  0.59724  0.92799  0.06965  1.0000
  C   C1145     1.0  0.85686  0.62567  0.23213  1.0000
  H   H1385     1.0  0.67943  0.83859  0.21073  1.0000
  C   C1146     1.0  0.50540  0.88425  0.00826  1.0000
  H   H1386     1.0  0.97400  0.63210  0.02721  1.0000
  H   H1387     1.0  0.84991  0.71408  0.07561  1.0000
  H   H1388     1.0  0.54244  0.79940  0.04110  1.0000
  H   H1389     1.0  0.84484  0.69387  0.04796  1.0000
  C   C1147     1.0  0.61354  0.98146  0.05466  1.0000
  C   C1148     1.0  0.63189  0.94273  0.09183  1.0000
  H   H1390     1.0  0.96892  0.69405  0.22376  1.0000
  C   C1149     1.0  0.61912  0.98320  0.00516  1.0000
  C   C1150     1.0  0.70106  0.98069  0.16306  1.0000
  C   C1151     1.0  0.55697  0.80345  0.03118  1.0000
  H   H1391     1.0  0.55278  0.86229  0.03649  1.0000
  C   C1152     1.0  0.82342  0.60967  0.21954  1.0000
  H   H1392     1.0  0.60011  0.82639  0.10202  1.0000
  H   H1393     1.0  0.61347  0.82735  0.04468  1.0000
  H   H1394     1.0  0.95700  0.69420  0.12967  1.0000
  H   H1395     1.0  0.81220  0.60831  0.20815  1.0000
  C   C1153     1.0  0.81806  0.59863  0.23640  1.0000
  C   C1154     1.0  0.58406  0.83111  0.01948  1.0000
  C   C1155     1.0  0.98642  0.70483  0.17191  1.0000
  H   H1396     1.0  0.88849  0.74318  0.01827  1.0000
  C   C1156     1.0  0.98402  0.67058  0.09199  1.0000
  H   H1397     1.0  0.55757  0.82371  0.09793  1.0000
  C   C1157     1.0  0.84055  0.50978  0.06156  1.0000
  H   H1398     1.0  0.54220  0.82303  0.06743  1.0000
  H   H1399     1.0  0.89305  0.76271  0.04672  1.0000
  H   H1400     1.0  0.63177  0.98044  0.21691  1.0000
  C   C1158     1.0  0.61874  0.92271  0.23362  1.0000
  C   C1159     1.0  0.64904  0.94106  0.10496  1.0000
  H   H1401     1.0  0.62750  0.82761  0.07521  1.0000
  C   C1160     1.0  0.65764  0.87002  0.23724  1.0000
  C   C1161     1.0  0.96221  0.72858  0.21181  1.0000
  C   C1162     1.0  0.69035  0.79892  0.23275  1.0000
  C   C1163     1.0  0.62729  0.94323  0.04414  1.0000
  H   H1402     1.0  0.52203  0.97308  0.01324  1.0000
  C   C1164     1.0  0.97088  0.68968  0.11959  1.0000
  H   H1403     1.0  0.82160  0.50840  0.00759  1.0000
  C   C1165     1.0  0.70222  0.98183  0.18200  1.0000
  H   H1404     1.0  0.68388  0.94884  0.11158  1.0000
  H   H1405     1.0  0.62605  0.96527  0.00444  1.0000
  C   C1166     1.0  0.87647  0.50131  0.04402  1.0000
  C   C1167     1.0  0.97177  0.74952  0.20611  1.0000
  S   S311      1.0  0.83976  0.55436  0.00586  1.0000
  H   H1406     1.0  0.83631  0.72859  0.00342  1.0000
  H   H1407     1.0  0.62880  0.98899  0.04727  1.0000
  H   H1408     1.0  0.66908  0.94867  0.24214  1.0000
  C   C1168     1.0  0.65335  0.93930  0.24423  1.0000
  C   C1169     1.0  0.51039  0.96313  0.00575  1.0000
  C   C1170     1.0  0.59498  0.98846  0.00790  1.0000
  H   H1409     1.0  0.98489  0.68703  0.17721  1.0000
  C   C1171     1.0  0.70287  0.78530  0.24633  1.0000
  C   C1172     1.0  0.85383  0.72091  0.99868  1.0000
  C   C1173     1.0  0.87774  0.52288  0.99892  1.0000
  H   H1410     1.0  0.99220  0.76850  0.15330  1.0000
  Fe  Fe157     1.0  0.61675  0.82720  0.30863  1.0000
  S   S312      1.0  0.59928  0.79428  0.30310  1.0000
  S   S313      1.0  0.63659  0.85218  0.28932  1.0000
  Fe  Fe158     1.0  0.61388  0.81682  0.35082  1.0000
  S   S314      1.0  0.59712  0.78269  0.34786  1.0000
  S   S315      1.0  0.62717  0.83327  0.37611  1.0000
  Fe  Fe159     1.0  0.62329  0.77631  0.32412  1.0000
  S   S316      1.0  0.64958  0.74639  0.31471  1.0000
  Fe  Fe160     1.0  0.57442  0.80322  0.32713  1.0000
  S   S317      1.0  0.53405  0.80925  0.33053  1.0000
  S   S318      1.0  0.64119  0.80907  0.32859  1.0000
  S   S319      1.0  0.59071  0.83756  0.33123  1.0000
  H   H1411     1.0  0.69544  0.61697  0.35216  1.0000
  C   C1174     1.0  0.69804  0.56165  0.33455  1.0000
  H   H1412     1.0  0.86093  0.58452  0.27920  1.0000
  H   H1413     1.0  0.97054  0.56503  0.48414  1.0000
  H   H1414     1.0  0.71186  0.59509  0.30788  1.0000
  C   C1175     1.0  0.73528  0.72264  0.36132  1.0000
  Fe  Fe161     1.0  0.59202  0.87894  0.47898  1.0000
  S   S320      1.0  0.58778  0.85135  0.45763  1.0000
  S   S321      1.0  0.58404  0.91811  0.47632  1.0000
  Fe  Fe162     1.0  0.75305  0.64341  0.33668  1.0000
  S   S322      1.0  0.78866  0.65699  0.34086  1.0000
  S   S323      1.0  0.71784  0.66161  0.34649  1.0000
  Fe  Fe163     1.0  0.77463  0.59593  0.32322  1.0000
  S   S324      1.0  0.81119  0.60686  0.32614  1.0000
  S   S325      1.0  0.76921  0.56122  0.30973  1.0000
  Fe  Fe164     1.0  0.79851  0.62099  0.35326  1.0000
  S   S326      1.0  0.82105  0.60713  0.37710  1.0000
  Fe  Fe165     1.0  0.79871  0.64176  0.31336  1.0000
  S   S327      1.0  0.82428  0.65904  0.29273  1.0000
  S   S328      1.0  0.76240  0.60820  0.35086  1.0000
  S   S329      1.0  0.76263  0.63016  0.30865  1.0000
  Fe  Fe166     1.0  0.86612  0.62030  0.47818  1.0000
  S   S330      1.0  0.90373  0.60552  0.47571  1.0000
  S   S331      1.0  0.84670  0.64115  0.45537  1.0000
  N   N80       1.0  0.99215  0.53259  0.48736  1.0000
  H   H1415     1.0  0.71401  0.61724  0.32386  1.0000
  H   H1416     1.0  0.65953  0.77928  0.27915  1.0000
  S   S332      1.0  0.85297  0.58808  0.49253  1.0000
  H   H1417     1.0  0.81957  0.55466  0.28086  1.0000
  H   H1418     1.0  0.70175  0.51233  0.36307  1.0000
  H   H1419     1.0  0.83834  0.58213  0.29664  1.0000
  H   H1420     1.0  0.55362  0.81203  0.39015  1.0000
  C   C1176     1.0  0.50567  0.77750  0.31530  1.0000
  N   N81       1.0  0.69519  0.58764  0.33443  1.0000
  H   H1421     1.0  0.95954  0.54069  0.47368  1.0000
  H   H1422     1.0  0.59420  0.80870  0.40066  1.0000
  H   H1423     1.0  0.56713  0.81367  0.47778  1.0000
  C   C1177     1.0  0.82399  0.66682  0.26889  1.0000
  S   S333      1.0  0.90723  0.53862  0.48558  1.0000
  H   H1424     1.0  0.78971  0.65532  0.26426  1.0000
  C   C1178     1.0  0.82660  0.61683  0.39916  1.0000
  C   C1179     1.0  0.83811  0.60096  0.41157  1.0000
  C   C1180     1.0  0.84368  0.60786  0.42901  1.0000
  C   C1181     1.0  0.83822  0.63094  0.43416  1.0000
  C   C1182     1.0  0.82669  0.64684  0.42177  1.0000
  C   C1183     1.0  0.82078  0.63983  0.40442  1.0000
  H   H1425     1.0  0.84268  0.58312  0.40768  1.0000
  H   H1426     1.0  0.85243  0.59536  0.43836  1.0000
  H   H1427     1.0  0.82234  0.66473  0.42560  1.0000
  H   H1428     1.0  0.81201  0.65227  0.39504  1.0000
  C   C1184     1.0  0.67205  0.59565  0.32717  1.0000
  C   C1185     1.0  0.76748  0.51318  0.30818  1.0000
  C   C1186     1.0  0.76654  0.53239  0.31965  1.0000
  C   C1187     1.0  0.76259  0.52825  0.33839  1.0000
  H   H1429     1.0  0.91665  0.66755  0.48082  1.0000
  H   H1430     1.0  0.77045  0.51609  0.29366  1.0000
  H   H1431     1.0  0.76164  0.54279  0.34741  1.0000
  C   C1188     1.0  0.50685  0.79782  0.32514  1.0000
  H   H1432     1.0  0.68178  0.59225  0.36212  1.0000
  C   C1189     1.0  0.72481  0.73512  0.34679  1.0000
  H   H1433     1.0  0.70498  0.80607  0.36378  1.0000
  H   H1434     1.0  0.73142  0.58983  0.32614  1.0000
  H   H1435     1.0  0.63684  0.80263  0.25607  1.0000
  C   C1190     1.0  0.66857  0.72315  0.32409  1.0000
  C   C1191     1.0  0.68686  0.71302  0.31290  1.0000
  C   C1192     1.0  0.70225  0.69442  0.31952  1.0000
  C   C1193     1.0  0.69940  0.68548  0.33743  1.0000
  C   C1194     1.0  0.68098  0.69547  0.34858  1.0000
  C   C1195     1.0  0.66575  0.71422  0.34201  1.0000
  H   H1436     1.0  0.68916  0.71960  0.29897  1.0000
  H   H1437     1.0  0.71619  0.68693  0.31071  1.0000
  H   H1438     1.0  0.67850  0.68866  0.36242  1.0000
  H   H1439     1.0  0.65153  0.72138  0.35069  1.0000
  C   C1196     1.0  0.63751  0.85539  0.26516  1.0000
  H   H1440     1.0  0.71350  0.59167  0.35908  1.0000
  C   C1197     1.0  0.84312  0.59172  0.28366  1.0000
  H   H1441     1.0  0.67160  0.86946  0.26415  1.0000
  C   C1198     1.0  0.53157  0.85931  0.36535  1.0000
  H   H1442     1.0  0.59925  0.90278  0.25391  1.0000
  H   H1443     1.0  0.67422  0.81509  0.36286  1.0000
  C   C1199     1.0  0.91248  0.65842  0.45299  1.0000
  N   N82       1.0  0.68193  0.77862  0.37094  1.0000
  H   H1444     1.0  0.52172  0.76816  0.31052  1.0000
  C   C1200     1.0  0.61524  0.83850  0.39850  1.0000
  C   C1201     1.0  0.62287  0.85731  0.40797  1.0000
  C   C1202     1.0  0.61467  0.86162  0.42600  1.0000
  C   C1203     1.0  0.59890  0.84692  0.43491  1.0000
  C   C1204     1.0  0.59145  0.82795  0.42551  1.0000
  C   C1205     1.0  0.59959  0.82372  0.40746  1.0000
  H   H1445     1.0  0.63523  0.86870  0.40130  1.0000
  H   H1446     1.0  0.62064  0.87624  0.43301  1.0000
  H   H1447     1.0  0.57930  0.81643  0.43226  1.0000
  C   C1206     1.0  0.82351  0.56381  0.26747  1.0000
  C   C1207     1.0  0.55242  0.82494  0.37842  1.0000
  C   C1208     1.0  0.80518  0.66270  0.25809  1.0000
  H   H1448     1.0  0.51148  0.81837  0.36507  1.0000
  H   H1449     1.0  0.85825  0.68047  0.26867  1.0000
  H   H1450     1.0  0.95967  0.66854  0.47753  1.0000
  H   H1451     1.0  0.74799  0.70802  0.35874  1.0000
  C   C1209     1.0  0.89447  0.49338  0.48813  1.0000
  C   C1210     1.0  0.70321  0.52529  0.31766  1.0000
  N   N83       1.0  0.53114  0.84123  0.38042  1.0000
  C   C1211     1.0  0.80282  0.59996  0.27634  1.0000
  C   C1212     1.0  0.64852  0.92993  0.26177  1.0000
  H   H1452     1.0  0.64471  0.78420  0.36708  1.0000
  C   C1213     1.0  0.72892  0.72854  0.37912  1.0000
  C   C1214     1.0  0.63875  0.97766  0.49478  1.0000
  C   C1215     1.0  0.70758  0.75321  0.34998  1.0000
  H   H1453     1.0  0.52674  0.82988  0.47699  1.0000
  C   C1216     1.0  0.94971  0.66463  0.46590  1.0000
  H   H1454     1.0  0.75513  0.50255  0.35985  1.0000
  C   C1217     1.0  0.59659  0.77979  0.49512  1.0000
  C   C1218     1.0  0.50995  0.89571  0.48699  1.0000
  H   H1455     1.0  0.91178  0.63955  0.39192  1.0000
  H   H1456     1.0  0.66028  0.76706  0.35007  1.0000
  C   C1219     1.0  0.70100  0.52291  0.35048  1.0000
  H   H1457     1.0  0.52797  0.89219  0.48233  1.0000
  H   H1458     1.0  0.62561  0.90907  0.27870  1.0000
  H   H1459     1.0  0.70018  0.55932  0.30492  1.0000
  C   C1220     1.0  0.69653  0.59738  0.35278  1.0000
  H   H1460     1.0  0.68791  0.79802  0.34534  1.0000
  H   H1461     1.0  0.66452  0.79974  0.39189  1.0000
  H   H1462     1.0  0.66925  0.61517  0.32694  1.0000
  H   H1463     1.0  0.70775  0.75036  0.39662  1.0000
  C   C1221     1.0  0.55015  0.86551  0.40271  1.0000
  H   H1464     1.0  0.60135  0.98454  0.49307  1.0000
  H   H1465     1.0  0.67032  0.59014  0.31298  1.0000
  N   N84       1.0  0.90954  0.64594  0.42074  1.0000
  C   C1222     1.0  0.92312  0.64393  0.40313  1.0000
  C   C1223     1.0  0.90060  0.62270  0.42564  1.0000
  H   H1466     1.0  0.95231  0.50568  0.48812  1.0000
  C   C1224     1.0  0.92355  0.65312  0.43585  1.0000
  C   C1225     1.0  0.94844  0.65369  0.43447  1.0000
  C   C1226     1.0  0.53187  0.87458  0.43212  1.0000
  C   C1227     1.0  0.88925  0.66317  0.41763  1.0000
  H   H1467     1.0  0.89377  0.65747  0.45541  1.0000
  H   H1468     1.0  0.53250  0.88257  0.44521  1.0000
  H   H1469     1.0  0.93731  0.62958  0.40379  1.0000
  H   H1470     1.0  0.56565  0.88547  0.42281  1.0000
  H   H1471     1.0  0.93095  0.66072  0.39896  1.0000
  H   H1472     1.0  0.85681  0.54162  0.48295  1.0000
  H   H1473     1.0  0.88986  0.61647  0.41472  1.0000
  H   H1474     1.0  0.88916  0.62319  0.43822  1.0000
  C   C1228     1.0  0.96122  0.65937  0.44935  1.0000
  H   H1475     1.0  0.91521  0.60922  0.42826  1.0000
  C   C1229     1.0  0.51187  0.85183  0.41124  1.0000
  H   H1476     1.0  0.95854  0.64952  0.42217  1.0000
  H   H1477     1.0  0.60530  0.82466  0.48739  1.0000
  H   H1478     1.0  0.87875  0.65846  0.40602  1.0000
  C   C1230     1.0  0.55053  0.87623  0.41945  1.0000
  H   H1479     1.0  0.80887  0.56024  0.25873  1.0000
  H   H1480     1.0  0.50913  0.81333  0.38911  1.0000
  H   H1481     1.0  0.56891  0.83425  0.37738  1.0000
  C   C1231     1.0  0.55746  0.81553  0.49064  1.0000
  H   H1482     1.0  0.54776  0.86909  0.36505  1.0000
  H   H1483     1.0  0.82120  0.49764  0.43065  1.0000
  H   H1484     1.0  0.86258  0.61859  0.26007  1.0000
  C   C1232     1.0  0.68758  0.80030  0.36028  1.0000
  C   C1233     1.0  0.84364  0.67705  0.26049  1.0000
  C   C1234     1.0  0.92542  0.66413  0.46771  1.0000
  H   H1485     1.0  0.59528  0.78570  0.48057  1.0000
  H   H1486     1.0  0.84408  0.61042  0.28720  1.0000
  C   C1235     1.0  0.66805  0.78460  0.26629  1.0000
  C   C1236     1.0  0.51041  0.82739  0.37825  1.0000
  H   H1487     1.0  0.56526  0.86708  0.39348  1.0000
  C   C1237     1.0  0.65705  0.86516  0.25623  1.0000
  H   H1488     1.0  0.69675  0.55473  0.36424  1.0000
  H   H1489     1.0  0.51622  0.87232  0.36658  1.0000
  H   H1490     1.0  0.95772  0.60993  0.47991  1.0000
  C   C1238     1.0  0.75901  0.50532  0.34543  1.0000
  C   C1239     1.0  0.69175  0.77833  0.26282  1.0000
  H   H1491     1.0  0.60339  0.84301  0.26154  1.0000
  C   C1240     1.0  0.70071  0.75981  0.36795  1.0000
  H   H1492     1.0  0.80379  0.61903  0.27829  1.0000
  C   C1241     1.0  0.67826  0.78500  0.39030  1.0000
  C   C1242     1.0  0.65948  0.77072  0.36483  1.0000
  H   H1493     1.0  0.69462  0.79090  0.39583  1.0000
  H   H1494     1.0  0.72950  0.73016  0.33296  1.0000
  C   C1243     1.0  0.70355  0.51190  0.33391  1.0000
  C   C1244     1.0  0.65528  0.79773  0.25324  1.0000
  C   C1245     1.0  0.70027  0.54977  0.31791  1.0000
  H   H1495     1.0  0.79743  0.59185  0.28971  1.0000
  N   N85       1.0  0.82570  0.58931  0.26949  1.0000
  H   H1496     1.0  0.65482  0.75425  0.37230  1.0000
  C   C1246     1.0  0.71195  0.74689  0.38250  1.0000
  H   H1497     1.0  0.73701  0.71856  0.39036  1.0000
  C   C1247     1.0  0.53092  0.85273  0.39815  1.0000
  C   C1248     1.0  0.69827  0.54741  0.35092  1.0000
  H   H1498     1.0  0.69914  0.76146  0.33822  1.0000
  H   H1499     1.0  0.65750  0.58828  0.33564  1.0000
  C   C1249     1.0  0.61403  0.91353  0.25123  1.0000
  H   H1500     1.0  0.67201  0.77013  0.39901  1.0000
  C   C1250     1.0  0.53428  0.82504  0.49003  1.0000
  C   C1251     1.0  0.71385  0.59787  0.32257  1.0000
  C   C1252     1.0  0.84643  0.50654  0.48831  1.0000
  C   C1253     1.0  0.86282  0.52353  0.48534  1.0000
  H   H1501     1.0  0.82783  0.51170  0.48845  1.0000
  H   H1502     1.0  0.53114  0.85132  0.35179  1.0000
  C   C1254     1.0  0.61864  0.85025  0.25484  1.0000
  Fe  Fe167     1.0  0.89089  0.57455  0.49190  1.0000
  H   H1503     1.0  0.70579  0.51663  0.30482  1.0000
  H   H1504     1.0  0.49786  0.86159  0.43782  1.0000
  H   H1505     1.0  0.87653  0.66404  0.42944  1.0000
  H   H1506     1.0  0.66026  0.93221  0.27268  1.0000
  H   H1507     1.0  0.89514  0.68115  0.41481  1.0000
  H   H1508     1.0  0.49824  0.86469  0.47557  1.0000
  C   C1255     1.0  0.97281  0.61430  0.48716  1.0000
  C   C1256     1.0  0.62891  0.91703  0.26525  1.0000
  H   H1509     1.0  0.55239  0.81488  0.36577  1.0000
  C   C1257     1.0  0.51249  0.86258  0.42797  1.0000
  H   H1510     1.0  0.70153  0.76801  0.27305  1.0000
  C   C1258     1.0  0.88682  0.51710  0.48580  1.0000
  H   H1511     1.0  0.61445  0.77081  0.49616  1.0000
  C   C1259     1.0  0.96900  0.49586  0.48978  1.0000
  H   H1512     1.0  0.49628  0.84290  0.40895  1.0000
  H   H1513     1.0  0.98022  0.65932  0.44821  1.0000
  H   H1514     1.0  0.78841  0.59789  0.26698  1.0000
  C   C1260     1.0  0.99062  0.50686  0.48985  1.0000
  Fe  Fe168     1.0  0.61169  0.92049  0.49697  1.0000
  H   H1515     1.0  0.84000  0.55528  0.26148  1.0000
  C   C1261     1.0  0.96890  0.54578  0.48576  1.0000
  H   H1516     1.0  0.70644  0.49293  0.33368  1.0000
  C   C1262     1.0  0.50348  0.91559  0.49694  1.0000
  C   C1263     1.0  0.83207  0.60076  0.25169  1.0000
  S   S334      1.0  0.63987  0.94660  0.49399  1.0000
  H   H1517     1.0  0.95735  0.54301  0.49814  1.0000
  C   C1264     1.0  0.66014  0.98790  0.49598  1.0000
  H   H1518     1.0  0.67632  0.97687  0.49626  1.0000
  H   H1519     1.0  0.49685  0.96794  0.47839  1.0000
  C   C1265     1.0  0.85156  0.61491  0.24910  1.0000
  S   S335      1.0  0.62179  0.88132  0.49793  1.0000
  H   H1520     1.0  0.81398  0.49213  0.39883  1.0000
  H   H1521     1.0  0.49376  0.83874  0.37823  1.0000
  C   C1266     1.0  0.49310  0.88025  0.48301  1.0000
  H   H1522     1.0  0.58348  0.76649  0.49815  1.0000
  Fe  Fe169     1.0  0.59528  0.87962  0.52156  1.0000
  S   S336      1.0  0.59603  0.85171  0.54499  1.0000
  S   S337      1.0  0.58752  0.91873  0.52187  1.0000
  Fe  Fe170     1.0  0.61204  0.81712  0.64991  1.0000
  S   S338      1.0  0.60392  0.78133  0.64193  1.0000
  S   S339      1.0  0.61608  0.84905  0.63033  1.0000
  Fe  Fe171     1.0  0.61663  0.80119  0.69066  1.0000
  S   S340      1.0  0.60753  0.76430  0.68495  1.0000
  S   S341      1.0  0.63123  0.80584  0.71902  1.0000
  Fe  Fe172     1.0  0.63249  0.76679  0.66048  1.0000
  S   S342      1.0  0.66650  0.74515  0.65228  1.0000
  Fe  Fe173     1.0  0.57933  0.78187  0.66702  1.0000
  S   S343      1.0  0.54241  0.77060  0.66115  1.0000
  S   S344      1.0  0.64222  0.80290  0.66677  1.0000
  S   S345      1.0  0.58676  0.81849  0.67444  1.0000
  Fe  Fe174     1.0  0.86063  0.60451  0.51889  1.0000
  S   S346      1.0  0.89758  0.58808  0.51923  1.0000
  S   S347      1.0  0.83324  0.59838  0.54209  1.0000
  Fe  Fe175     1.0  0.78909  0.58827  0.67592  1.0000
  S   S348      1.0  0.81956  0.61157  0.67218  1.0000
  S   S349      1.0  0.80145  0.54929  0.67998  1.0000
  Fe  Fe176     1.0  0.75352  0.63017  0.66901  1.0000
  S   S350      1.0  0.78158  0.65530  0.66434  1.0000
  S   S351      1.0  0.71453  0.64220  0.66804  1.0000
  Fe  Fe177     1.0  0.80081  0.62715  0.64781  1.0000
  S   S352      1.0  0.82168  0.63847  0.62213  1.0000
  Fe  Fe178     1.0  0.79811  0.63773  0.68919  1.0000
  S   S353      1.0  0.81270  0.66461  0.70752  1.0000
  S   S354      1.0  0.77141  0.60294  0.65060  1.0000
  S   S355      1.0  0.76883  0.61357  0.69479  1.0000
  C   C1267     1.0  0.81891  0.66541  0.73105  1.0000
  H   H1523     1.0  0.84845  0.49353  0.52898  1.0000
  C   C1268     1.0  0.78324  0.49999  0.59955  1.0000
  C   C1269     1.0  0.60004  0.79045  0.52601  1.0000
  C   C1270     1.0  0.72245  0.71469  0.70691  1.0000
  H   H1524     1.0  0.79449  0.52871  0.58199  1.0000
  C   C1271     1.0  0.76271  0.52189  0.68194  1.0000
  C   C1272     1.0  0.78717  0.52251  0.68086  1.0000
  H   H1525     1.0  0.61825  0.78212  0.52567  1.0000
  C   C1273     1.0  0.63793  0.86826  0.74352  1.0000
  H   H1526     1.0  0.75183  0.53815  0.68232  1.0000
  C   C1274     1.0  0.60859  0.81809  0.50156  1.0000
  C   C1275     1.0  0.83086  0.60923  0.56447  1.0000
  C   C1276     1.0  0.84485  0.62657  0.56993  1.0000
  C   C1277     1.0  0.84192  0.63507  0.58768  1.0000
  C   C1278     1.0  0.82524  0.62616  0.60028  1.0000
  C   C1279     1.0  0.81145  0.60854  0.59493  1.0000
  C   C1280     1.0  0.81419  0.60023  0.57709  1.0000
  H   H1527     1.0  0.85772  0.63368  0.56040  1.0000
  H   H1528     1.0  0.85266  0.64873  0.59165  1.0000
  H   H1529     1.0  0.79853  0.60154  0.60443  1.0000
  H   H1530     1.0  0.80331  0.58678  0.57299  1.0000
  H   H1531     1.0  0.84660  0.51533  0.60811  1.0000
  H   H1532     1.0  0.67874  0.92827  0.71335  1.0000
  C   C1281     1.0  0.88668  0.65457  0.72023  1.0000
  C   C1282     1.0  0.55438  0.81414  0.52360  1.0000
  C   C1283     1.0  0.51836  0.87943  0.54098  1.0000
  C   C1284     1.0  0.67950  0.71681  0.65833  1.0000
  C   C1285     1.0  0.70397  0.71253  0.65569  1.0000
  C   C1286     1.0  0.71497  0.68996  0.65897  1.0000
  C   C1287     1.0  0.70161  0.67126  0.66472  1.0000
  C   C1288     1.0  0.67718  0.67553  0.66751  1.0000
  C   C1289     1.0  0.66617  0.69818  0.66442  1.0000
  H   H1533     1.0  0.71438  0.72671  0.65071  1.0000
  H   H1534     1.0  0.73365  0.68686  0.65647  1.0000
  H   H1535     1.0  0.66663  0.66118  0.67190  1.0000
  H   H1536     1.0  0.64732  0.70111  0.66630  1.0000
  C   C1290     1.0  0.63869  0.82785  0.73395  1.0000
  C   C1291     1.0  0.82996  0.68476  0.73717  1.0000
  C   C1292     1.0  0.81299  0.64767  0.74374  1.0000
  H   H1537     1.0  0.77930  0.50164  0.64598  1.0000
  H   H1538     1.0  0.62041  0.85710  0.72012  1.0000
  C   C1293     1.0  0.86527  0.56251  0.58362  1.0000
  C   C1294     1.0  0.51308  0.77827  0.66940  1.0000
  H   H1539     1.0  0.60590  0.83349  0.51034  1.0000
  H   H1540     1.0  0.52172  0.78340  0.69707  1.0000
  C   C1295     1.0  0.75650  0.70439  0.72499  1.0000
  C   C1296     1.0  0.60126  0.85188  0.56875  1.0000
  C   C1297     1.0  0.60803  0.87170  0.57720  1.0000
  C   C1298     1.0  0.61239  0.87060  0.59604  1.0000
  C   C1299     1.0  0.60995  0.84975  0.60667  1.0000
  C   C1300     1.0  0.60294  0.83004  0.59822  1.0000
  C   C1301     1.0  0.59867  0.83111  0.57941  1.0000
  H   H1541     1.0  0.61015  0.88780  0.56922  1.0000
  H   H1542     1.0  0.61779  0.88597  0.60238  1.0000
  H   H1543     1.0  0.60094  0.81388  0.60615  1.0000
  H   H1544     1.0  0.59342  0.81566  0.57309  1.0000
  H   H1545     1.0  0.85415  0.55560  0.52929  1.0000
  H   H1546     1.0  0.76586  0.72696  0.69340  1.0000
  H   H1547     1.0  0.80440  0.63273  0.73932  1.0000
  C   C1302     1.0  0.87194  0.63638  0.72370  1.0000
  N   N86       1.0  0.65245  0.87411  0.67356  1.0000
  C   C1303     1.0  0.66807  0.85812  0.66230  1.0000
  C   C1304     1.0  0.63136  0.86189  0.67983  1.0000
  C   C1305     1.0  0.64448  0.89436  0.66147  1.0000
  C   C1306     1.0  0.66490  0.88078  0.68965  1.0000
  C   C1307     1.0  0.67460  0.86318  0.70191  1.0000
  C   C1308     1.0  0.66693  0.90453  0.69410  1.0000
  C   C1309     1.0  0.68554  0.86896  0.71762  1.0000
  C   C1310     1.0  0.67775  0.91009  0.70996  1.0000
  C   C1311     1.0  0.68690  0.89235  0.72175  1.0000
  H   H1548     1.0  0.67322  0.84134  0.66968  1.0000
  H   H1549     1.0  0.65933  0.85316  0.64985  1.0000
  H   H1550     1.0  0.68446  0.86647  0.65778  1.0000
  H   H1551     1.0  0.63583  0.84560  0.68813  1.0000
  H   H1552     1.0  0.62132  0.85667  0.66815  1.0000
  H   H1553     1.0  0.61922  0.87333  0.68837  1.0000
  H   H1554     1.0  0.65950  0.90437  0.65615  1.0000
  H   H1555     1.0  0.63564  0.88848  0.64933  1.0000
  H   H1556     1.0  0.63131  0.90641  0.66856  1.0000
  H   H1557     1.0  0.67297  0.84474  0.69985  1.0000
  H   H1558     1.0  0.66001  0.91913  0.68571  1.0000
  H   H1559     1.0  0.69204  0.85521  0.72711  1.0000
  H   H1560     1.0  0.89151  0.53704  0.53572  1.0000
  Fe  Fe179     1.0  0.90819  0.62014  0.50310  1.0000
  C   C1312     1.0  0.86575  0.55368  0.56615  1.0000
  S   S356      1.0  0.87151  0.63792  0.50459  1.0000
  H   H1561     1.0  0.50663  0.69026  0.68147  1.0000
  C   C1313     1.0  0.98939  0.63346  0.51183  1.0000
  H   H1562     1.0  0.87130  0.56510  0.55492  1.0000
  H   H1563     1.0  0.80074  0.55440  0.60732  1.0000
  H   H1564     1.0  0.77801  0.69761  0.69164  1.0000
  C   C1314     1.0  0.85871  0.53088  0.56315  1.0000
  S   S357      1.0  0.94103  0.63696  0.51117  1.0000
  H   H1565     1.0  0.69957  0.68561  0.70445  1.0000
  H   H1566     1.0  0.54993  0.87231  0.55581  1.0000
  H   H1567     1.0  0.66316  0.70985  0.70325  1.0000
  N   N87       1.0  0.74533  0.70080  0.70755  1.0000
  C   C1315     1.0  0.79461  0.53702  0.61018  1.0000
  H   H1568     1.0  0.58815  0.77715  0.53173  1.0000
  H   H1569     1.0  0.60025  0.80478  0.53578  1.0000
  H   H1570     1.0  0.91018  0.67722  0.73094  1.0000
  C   C1316     1.0  0.53138  0.86950  0.55530  1.0000
  C   C1317     1.0  0.79038  0.52917  0.62812  1.0000
  H   H1571     1.0  0.53085  0.84827  0.58005  1.0000
  C   C1318     1.0  0.63132  0.85158  0.73137  1.0000
  H   H1572     1.0  0.63231  0.88658  0.74124  1.0000
  C   C1319     1.0  0.74343  0.67515  0.70615  1.0000
  C   C1320     1.0  0.49439  0.77721  0.65757  1.0000
  N   N88       1.0  0.75284  0.67075  0.60833  1.0000
  C   C1321     1.0  0.76964  0.68478  0.61733  1.0000
  C   C1322     1.0  0.75336  0.64727  0.61781  1.0000
  C   C1323     1.0  0.76126  0.66735  0.58919  1.0000
  C   C1324     1.0  0.72924  0.68330  0.60873  1.0000
  C   C1325     1.0  0.72608  0.70651  0.60112  1.0000
  C   C1326     1.0  0.70901  0.67337  0.61693  1.0000
  C   C1327     1.0  0.70434  0.71933  0.60240  1.0000
  C   C1328     1.0  0.68731  0.68629  0.61796  1.0000
  C   C1329     1.0  0.68505  0.70931  0.61096  1.0000
  H   H1573     1.0  0.77245  0.70173  0.60992  1.0000
  H   H1574     1.0  0.76343  0.68865  0.63149  1.0000
  H   H1575     1.0  0.78735  0.67539  0.61808  1.0000
  H   H1576     1.0  0.74203  0.63527  0.61124  1.0000
  H   H1577     1.0  0.74760  0.64857  0.63243  1.0000
  H   H1578     1.0  0.77139  0.63846  0.61753  1.0000
  H   H1579     1.0  0.76326  0.68425  0.58145  1.0000
  H   H1580     1.0  0.77883  0.65746  0.58847  1.0000
  H   H1581     1.0  0.74887  0.65729  0.58181  1.0000
  H   H1582     1.0  0.74053  0.71511  0.59444  1.0000
  H   H1583     1.0  0.70953  0.65595  0.62327  1.0000
  H   H1584     1.0  0.70246  0.73731  0.59707  1.0000
  H   H1585     1.0  0.67233  0.67874  0.62493  1.0000
  H   H1586     1.0  0.66843  0.71957  0.61255  1.0000
  N   N89       1.0  0.85879  0.52230  0.54440  1.0000
  H   H1587     1.0  0.52098  0.82690  0.53532  1.0000
  H   H1588     1.0  0.69457  0.89670  0.73434  1.0000
  H   H1589     1.0  0.56021  0.97046  0.51406  1.0000
  H   H1590     1.0  0.86175  0.63040  0.71286  1.0000
  H   H1591     1.0  0.85776  0.61262  0.74394  1.0000
  H   H1592     1.0  0.49828  0.77342  0.64342  1.0000
  C   C1330     1.0  0.80099  0.50110  0.68047  1.0000
  H   H1593     1.0  0.56132  0.81128  0.53702  1.0000
  H   H1594     1.0  0.73599  0.67100  0.69301  1.0000
  C   C1331     1.0  0.49655  0.85236  0.56841  1.0000
  C   C1332     1.0  0.85187  0.52602  0.59631  1.0000
  C   C1333     1.0  0.78242  0.50683  0.63186  1.0000
  C   C1334     1.0  0.67949  0.71806  0.70477  1.0000
  H   H1595     1.0  0.83460  0.69860  0.72748  1.0000
  C   C1335     1.0  0.79109  0.52246  0.59593  1.0000
  H   H1596     1.0  0.66274  0.75299  0.70429  1.0000
  C   C1336     1.0  0.59602  0.98442  0.53557  1.0000
  N   N90       1.0  0.59286  0.79955  0.50768  1.0000
  H   H1597     1.0  0.73236  0.66779  0.71751  1.0000
  H   H1598     1.0  0.59115  0.96691  0.53343  1.0000
  H   H1599     1.0  0.87009  0.58029  0.58542  1.0000
  C   C1337     1.0  0.84866  0.49916  0.54332  1.0000
  C   C1338     1.0  0.86972  0.62639  0.74124  1.0000
  C   C1339     1.0  0.96954  0.62725  0.50290  1.0000
  H   H1600     1.0  0.79320  0.54047  0.63926  1.0000
  C   C1340     1.0  0.67921  0.74239  0.70530  1.0000
  C   C1341     1.0  0.85203  0.51709  0.57884  1.0000
  C   C1342     1.0  0.52107  0.82890  0.50609  1.0000
  H   H1601     1.0  0.81993  0.50138  0.67960  1.0000
  H   H1602     1.0  0.88420  0.51292  0.52302  1.0000
  H   H1603     1.0  0.53063  0.97847  0.52106  1.0000
  H   H1604     1.0  0.52682  0.89004  0.53038  1.0000
  S   S358      1.0  0.56620  0.87477  0.50272  1.0000
  C   C1343     1.0  0.72146  0.73955  0.70768  1.0000
  C   C1344     1.0  0.61939  0.98648  0.53989  1.0000
  H   H1605     1.0  0.74491  0.69920  0.73681  1.0000
  C   C1345     1.0  0.76111  0.70859  0.69226  1.0000
  C   C1346     1.0  0.88331  0.51992  0.53693  1.0000
  H   H1606     1.0  0.88801  0.66252  0.70660  1.0000
  H   H1607     1.0  0.85776  0.55580  0.61217  1.0000
  C   C1347     1.0  0.70071  0.70429  0.70548  1.0000
  C   C1348     1.0  0.50766  0.78291  0.68770  1.0000
  C   C1349     1.0  0.84495  0.53939  0.53261  1.0000
  C   C1350     1.0  0.89925  0.66285  0.73428  1.0000
  H   H1608     1.0  0.77353  0.69368  0.72606  1.0000
  H   H1609     1.0  0.75272  0.70748  0.67897  1.0000
  H   H1610     1.0  0.50317  0.83654  0.50554  1.0000
  C   C1351     1.0  0.70014  0.75311  0.70683  1.0000
  H   H1611     1.0  0.69973  0.77209  0.70713  1.0000
  H   H1612     1.0  0.76091  0.66524  0.70671  1.0000
  H   H1613     1.0  0.63146  0.97097  0.54064  1.0000
  H   H1614     1.0  0.62745  0.81183  0.50198  1.0000
  H   H1615     1.0  0.83012  0.49977  0.54864  1.0000
  C   C1352     1.0  0.85824  0.54876  0.59867  1.0000
  C   C1353     1.0  0.52053  0.85593  0.56894  1.0000
  Fe  Fe180     1.0  0.56058  0.91384  0.50125  1.0000
  C   C1354     1.0  0.53111  0.82345  0.52283  1.0000
  C   C1355     1.0  0.56817  0.80942  0.50743  1.0000
  H   H1616     1.0  0.73721  0.74872  0.70872  1.0000
  H   H1617     1.0  0.73335  0.49995  0.68388  1.0000
  C   C1356     1.0  0.54917  0.97890  0.52514  1.0000
  H   H1618     1.0  0.55082  0.96762  0.53780  1.0000
  H   H1619     1.0  0.84153  0.53224  0.51924  1.0000
  H   H1620     1.0  0.82763  0.54482  0.53921  1.0000
  H   H1621     1.0  0.76048  0.72293  0.72646  1.0000
  H   H1622     1.0  0.84680  0.49940  0.57798  1.0000
  S   S359      1.0  0.52505  0.93323  0.50395  1.0000
  C   C1357     1.0  0.75230  0.50016  0.68283  1.0000
  H   H1623     1.0  0.89452  0.50781  0.54568  1.0000
  H   H1624     1.0  0.98704  0.64367  0.52391  1.0000
  C   C1358     1.0  0.49448  0.87585  0.54025  1.0000
  H   H1625     1.0  0.75757  0.85913  0.88113  1.0000
  H   H1626     1.0  0.74741  0.70332  0.85343  1.0000
  C   C1359     1.0  0.77079  0.88712  0.83433  1.0000
  H   H1627     1.0  0.57818  0.81393  0.82060  1.0000
  H   H1628     1.0  0.60997  0.86264  0.78137  1.0000
  Fe  Fe181     1.0  0.61538  0.90384  0.96974  1.0000
  S   S360      1.0  0.63962  0.91213  0.94505  1.0000
  S   S361      1.0  0.57832  0.91959  0.97271  1.0000
  Fe  Fe182     1.0  0.67017  0.88262  0.84152  1.0000
  S   S362      1.0  0.70778  0.88694  0.84687  1.0000
  S   S363      1.0  0.64084  0.87747  0.86319  1.0000
  Fe  Fe183     1.0  0.67989  0.88271  0.79979  1.0000
  S   S364      1.0  0.71864  0.88762  0.80250  1.0000
  S   S365      1.0  0.66039  0.88361  0.77288  1.0000
  Fe  Fe184     1.0  0.71713  0.86022  0.82557  1.0000
  S   S366      1.0  0.74000  0.82652  0.83272  1.0000
  Fe  Fe185     1.0  0.70652  0.91420  0.82361  1.0000
  S   S367      1.0  0.72408  0.94805  0.82926  1.0000
  S   S368      1.0  0.67915  0.85406  0.82161  1.0000
  S   S369      1.0  0.66813  0.91111  0.81944  1.0000
  C   C1360     1.0  0.69999  0.98471  0.80969  1.0000
  H   H1629     1.0  0.78478  0.77382  0.79698  1.0000
  H   H1630     1.0  0.90465  0.69887  0.75691  1.0000
  Fe  Fe186     1.0  0.86940  0.63256  0.98119  1.0000
  S   S370      1.0  0.86082  0.66496  0.96268  1.0000
  S   S371      1.0  0.87868  0.59491  0.97453  1.0000
  Fe  Fe187     1.0  0.85844  0.73899  0.82807  1.0000
  S   S372      1.0  0.83690  0.70799  0.83489  1.0000
  S   S373      1.0  0.84390  0.77724  0.82348  1.0000
  Fe  Fe188     1.0  0.90417  0.70794  0.82084  1.0000
  S   S374      1.0  0.88480  0.67549  0.82693  1.0000
  S   S375      1.0  0.94192  0.69899  0.80972  1.0000
  Fe  Fe189     1.0  0.85559  0.69199  0.81028  1.0000
  S   S376      1.0  0.83682  0.66852  0.79170  1.0000
  Fe  Fe190     1.0  0.86791  0.69371  0.85113  1.0000
  S   S377      1.0  0.86631  0.66728  0.87545  1.0000
  S   S378      1.0  0.87564  0.72350  0.80263  1.0000
  S   S379      1.0  0.88874  0.72575  0.84591  1.0000
  C   C1361     1.0  0.96995  0.70751  0.81599  1.0000
  C   C1362     1.0  0.83552  0.68616  0.75563  1.0000
  H   H1631     1.0  0.56254  0.79430  0.79528  1.0000
  H   H1632     1.0  0.95688  0.73312  0.83518  1.0000
  C   C1363     1.0  0.75205  0.87755  0.87990  1.0000
  C   C1364     1.0  0.83003  0.66815  0.76825  1.0000
  C   C1365     1.0  0.88200  0.63468  0.75546  1.0000
  H   H1633     1.0  0.57391  0.87179  0.82621  1.0000
  H   H1634     1.0  0.91346  0.68431  0.88919  1.0000
  H   H1635     1.0  0.63429  0.86745  0.80429  1.0000
  C   C1366     1.0  0.86187  0.66544  0.93841  1.0000
  C   C1367     1.0  0.86191  0.68711  0.92856  1.0000
  C   C1368     1.0  0.86309  0.68815  0.90930  1.0000
  C   C1369     1.0  0.86401  0.66747  0.89967  1.0000
  C   C1370     1.0  0.86381  0.64583  0.90955  1.0000
  C   C1371     1.0  0.86285  0.64478  0.92877  1.0000
  H   H1636     1.0  0.86112  0.70321  0.93585  1.0000
  H   H1637     1.0  0.86325  0.70491  0.90192  1.0000
  H   H1638     1.0  0.86447  0.62973  0.90225  1.0000
  H   H1639     1.0  0.86263  0.62799  0.93612  1.0000
  H   H1640     1.0  0.79561  0.69342  0.80809  1.0000
  H   H1641     1.0  0.60603  0.95236  0.93902  1.0000
  C   C1372     1.0  0.94592  0.65765  0.92363  1.0000
  H   H1642     1.0  0.62629  0.88029  0.82551  1.0000
  H   H1643     1.0  0.60768  0.88621  0.80669  1.0000
  C   C1373     1.0  0.78407  0.72232  0.77570  1.0000
  C   C1374     1.0  0.76883  0.81295  0.82925  1.0000
  C   C1375     1.0  0.77430  0.79084  0.83778  1.0000
  C   C1376     1.0  0.79694  0.77940  0.83583  1.0000
  C   C1377     1.0  0.81466  0.79023  0.82564  1.0000
  C   C1378     1.0  0.80922  0.81238  0.81710  1.0000
  C   C1379     1.0  0.78641  0.82357  0.81871  1.0000
  H   H1644     1.0  0.76094  0.78253  0.84612  1.0000
  H   H1645     1.0  0.80080  0.76247  0.84259  1.0000
  H   H1646     1.0  0.82279  0.82092  0.80916  1.0000
  H   H1647     1.0  0.78251  0.84045  0.81194  1.0000
  C   C1380     1.0  0.76182  0.89296  0.86636  1.0000
  H   H1648     1.0  0.91310  0.63143  0.78442  1.0000
  H   H1649     1.0  0.51275  0.92238  0.97336  1.0000
  H   H1650     1.0  0.57069  0.80805  0.76340  1.0000
  C   C1381     1.0  0.65201  0.86154  0.75842  1.0000
  H   H1651     1.0  0.61341  0.81874  0.83449  1.0000
  H   H1652     1.0  0.88826  0.65165  0.79009  1.0000
  C   C1382     1.0  0.63965  0.90192  0.92247  1.0000
  C   C1383     1.0  0.62268  0.88757  0.91683  1.0000
  C   C1384     1.0  0.62332  0.88023  0.89868  1.0000
  C   C1385     1.0  0.64100  0.88697  0.88599  1.0000
  C   C1386     1.0  0.65797  0.90132  0.89165  1.0000
  C   C1387     1.0  0.65720  0.90882  0.90974  1.0000
  H   H1653     1.0  0.60904  0.88214  0.92641  1.0000
  H   H1654     1.0  0.61007  0.86917  0.89448  1.0000
  H   H1655     1.0  0.67156  0.90680  0.88203  1.0000
  H   H1656     1.0  0.67027  0.92007  0.91392  1.0000
  H   H1657     1.0  0.63136  0.84165  0.83952  1.0000
  C   C1388     1.0  0.62235  0.83392  0.82827  1.0000
  C   C1389     1.0  0.80052  0.90012  0.85321  1.0000
  C   C1390     1.0  0.59055  0.83642  0.77099  1.0000
  H   H1658     1.0  0.90781  0.64573  0.94602  1.0000
  H   H1659     1.0  0.75342  0.75937  0.81391  1.0000
  H   H1660     1.0  0.98523  0.69253  0.90102  1.0000
  N   N91       1.0  0.91014  0.66289  0.76713  1.0000
  C   C1391     1.0  0.50519  0.93477  0.98315  1.0000
  C   C1392     1.0  0.58173  0.82085  0.80694  1.0000
  C   C1393     1.0  0.78958  0.86037  0.85606  1.0000
  C   C1394     1.0  0.50929  0.87423  0.99126  1.0000
  C   C1395     1.0  0.73404  0.88554  0.89207  1.0000
  H   H1661     1.0  0.97009  0.65486  0.95572  1.0000
  H   H1662     1.0  0.84414  0.70107  0.76002  1.0000
  H   H1663     1.0  0.92078  0.61818  0.95414  1.0000
  C   C1396     1.0  0.96708  0.60037  0.98990  1.0000
  C   C1397     1.0  0.77661  0.72797  0.80798  1.0000
  C   C1398     1.0  0.75241  0.91663  0.86586  1.0000
  H   H1664     1.0  0.88253  0.68914  0.77300  1.0000
  H   H1665     1.0  0.76489  0.72208  0.77370  1.0000
  C   C1399     1.0  0.77204  0.69613  0.83111  1.0000
  H   H1666     1.0  0.53868  0.94591  0.99025  1.0000
  C   C1400     1.0  0.92850  0.67996  0.89761  1.0000
  H   H1667     1.0  0.87871  0.62668  0.76880  1.0000
  C   C1401     1.0  0.81432  0.73597  0.79369  1.0000
  C   C1402     1.0  0.92658  0.66399  0.91245  1.0000
  C   C1403     1.0  0.65895  0.83775  0.76123  1.0000
  H   H1668     1.0  0.91717  0.65785  0.79577  1.0000
  H   H1669     1.0  0.81814  0.50883  0.95758  1.0000
  H   H1670     1.0  0.97991  0.62430  0.93414  1.0000
  H   H1671     1.0  0.64167  0.98616  0.96803  1.0000
  Fe  Fe191     1.0  0.57043  0.88629  0.98845  1.0000
  S   S380      1.0  0.60713  0.86940  0.98374  1.0000
  C   C1404     1.0  0.90168  0.68772  0.76941  1.0000
  H   H1672     1.0  0.98888  0.68362  0.79777  1.0000
  H   H1673     1.0  0.81405  0.63511  0.77185  1.0000
  C   C1405     1.0  0.75911  0.74158  0.81800  1.0000
  C   C1406     1.0  0.61190  0.96903  0.93247  1.0000
  C   C1407     1.0  0.73434  0.92437  0.87801  1.0000
  C   C1408     1.0  0.51987  0.94781  0.99274  1.0000
  H   H1674     1.0  0.95091  0.70252  0.88192  1.0000
  H   H1675     1.0  0.72693  0.94236  0.87682  1.0000
  H   H1676     1.0  0.77561  0.84792  0.85487  1.0000
  C   C1409     1.0  0.78108  0.76177  0.78605  1.0000
  H   H1677     1.0  0.59420  0.84221  0.75698  1.0000
  H   H1678     1.0  0.80365  0.85501  0.84581  1.0000
  C   C1410     1.0  0.58719  0.85927  0.83268  1.0000
  H   H1679     1.0  0.66961  0.83221  0.77266  1.0000
  H   H1680     1.0  0.79065  0.76818  0.77352  1.0000
  C   C1411     1.0  0.57728  0.81713  0.77459  1.0000
  C   C1412     1.0  0.71541  0.97813  0.82363  1.0000
  H   H1681     1.0  0.79269  0.72876  0.76276  1.0000
  H   H1682     1.0  0.71095  0.91484  0.90034  1.0000
  N   N92       1.0  0.78865  0.73704  0.79115  1.0000
  H   H1683     1.0  0.72645  0.87344  0.90205  1.0000
  H   H1684     1.0  0.85143  0.71191  0.98575  1.0000
  H   H1685     1.0  0.96025  0.60552  0.94587  1.0000
  Fe  Fe192     1.0  0.91058  0.59797  0.99073  1.0000
  C   C1413     1.0  0.59550  0.84048  0.80375  1.0000
  C   C1414     1.0  0.89730  0.65318  0.75237  1.0000
  H   H1686     1.0  0.82210  0.71768  0.79511  1.0000
  H   H1687     1.0  0.77732  0.67859  0.83633  1.0000
  H   H1688     1.0  0.94022  0.66682  0.95885  1.0000
  H   H1689     1.0  0.94922  0.63824  0.96809  1.0000
  H   H1690     1.0  0.91090  0.69567  0.78044  1.0000
  C   C1415     1.0  0.90697  0.65029  0.78507  1.0000
  H   H1691     1.0  0.95736  0.61190  0.92196  1.0000
  C   C1416     1.0  0.93572  0.66186  0.76246  1.0000
  H   H1692     1.0  0.94259  0.64357  0.75982  1.0000
  S   S381      1.0  0.53807  0.86773  0.98192  1.0000
  C   C1417     1.0  0.81851  0.64908  0.76221  1.0000
  C   C1418     1.0  0.72521  0.90887  0.89113  1.0000
  C   C1419     1.0  0.75525  0.71003  0.84075  1.0000
  H   H1693     1.0  0.79105  0.70378  0.77793  1.0000
  H   H1694     1.0  0.76201  0.76387  0.78333  1.0000
  C   C1420     1.0  0.96718  0.66841  0.91905  1.0000
  S   S382      1.0  0.94602  0.58539  0.97947  1.0000
  C   C1421     1.0  0.99045  0.69691  0.80762  1.0000
  C   C1422     1.0  0.94959  0.69019  0.89350  1.0000
  H   H1695     1.0  0.90721  0.49805  0.99390  1.0000
  H   H1696     1.0  0.86003  0.51346  0.96228  1.0000
  H   H1697     1.0  0.69237  0.97129  0.80235  1.0000
  C   C1423     1.0  0.96888  0.68449  0.90424  1.0000
  C   C1424     1.0  0.97238  0.72468  0.82867  1.0000
  H   H1698     1.0  0.79587  0.91852  0.84844  1.0000
  H   H1699     1.0  0.81546  0.89368  0.84412  1.0000
  H   H1700     1.0  0.75630  0.87529  0.83327  1.0000
  H   H1701     1.0  0.75830  0.92924  0.85560  1.0000
  C   C1425     1.0  0.78249  0.70485  0.81492  1.0000
  C   C1426     1.0  0.59956  0.84803  0.78526  1.0000
  H   H1702     1.0  0.80702  0.90058  0.86726  1.0000
  H   H1703     1.0  0.73577  0.74353  0.84178  1.0000
  H   H1704     1.0  0.94583  0.66829  0.77373  1.0000
  H   H1705     1.0  0.91510  0.62217  0.93057  1.0000
  H   H1706     1.0  0.76355  0.90525  0.83071  1.0000
  C   C1427     1.0  0.61903  0.87222  0.81360  1.0000
  H   H1707     1.0  0.79717  0.85760  0.86974  1.0000
  H   H1708     1.0  0.98775  0.54185  0.99736  1.0000
  H   H1709     1.0  0.82403  0.74441  0.78203  1.0000
  H   H1710     1.0  0.57789  0.84447  0.83914  1.0000
  H   H1711     1.0  0.59461  0.86831  0.84411  1.0000
  H   H1712     1.0  0.98268  0.66431  0.92684  1.0000
  N   N93       1.0  0.78037  0.88511  0.85283  1.0000
  N   N94       1.0  0.60585  0.85143  0.81919  1.0000
  H   H1713     1.0  0.90973  0.65681  0.91478  1.0000
  H   H1714     1.0  0.63619  0.82696  0.81841  1.0000
  H   H1715     1.0  0.78440  0.88220  0.82364  1.0000
  C   C1428     1.0  0.74872  0.73265  0.83417  1.0000
  C   C1429     1.0  0.57277  0.80942  0.79254  1.0000
  H   H1716     1.0  0.81830  0.74507  0.80616  1.0000
  N   N95       1.0  0.94476  0.64010  0.93901  1.0000
  C   C1430     1.0  0.95142  0.65053  0.95607  1.0000
  C   C1431     1.0  0.92106  0.63126  0.94248  1.0000
  C   C1432     1.0  0.96133  0.61965  0.93504  1.0000
  H   H1717     1.0  0.94007  0.67307  0.75026  1.0000
  S   S383      1.0  0.62620  0.91858  0.99589  1.0000
  H   H1718     1.0  0.73730  0.99123  0.84358  1.0000
  H   H1719     1.0  0.62762  0.96371  0.92374  1.0000
  H   H1720     1.0  0.59752  0.97628  0.92368  1.0000
  S   S384      1.0  0.90285  0.63603  0.99533  1.0000
  C   C1433     1.0  0.65229  0.82107  0.74910  1.0000
  H   H1721     1.0  0.63233  0.95780  0.96352  1.0000
  H   H1722     1.0  0.88709  0.68600  0.99328  1.0000
  H   H1723     1.0  0.65788  0.80275  0.75140  1.0000
  H   H1724     1.0  0.59030  0.97266  0.96449  1.0000
  H   H1725     1.0  0.88816  0.53799  0.99748  1.0000
  H   H1726     1.0  0.65300  0.97135  0.94819  1.0000
  H   H1727     1.0  0.86509  0.73558  0.99501  1.0000
  C   C1434     1.0  0.98944  0.60174  0.98163  1.0000
  H   H1728     1.0  0.97206  0.50514  0.98972  1.0000
  C   C1435     1.0  0.63692  0.97492  0.95700  1.0000
  C   C1436     1.0  0.59622  0.98956  0.95846  1.0000
  C   C1437     1.0  0.83102  0.49456  0.95445  1.0000
  C   C1438     1.0  0.85464  0.49725  0.95710  1.0000
  N   N96       1.0  0.61743  0.98596  0.94624  1.0000
  C   C1439     1.0  0.98891  0.50477  0.99606  1.0000
  C   C1440     1.0  0.88850  0.50020  0.99689  1.0000
