data_image0
_chemical_formula_structural       HC2FeS2FeS2FeS2FeSFeS3FeS2FeS2FeSFeSFeS3FeSFeS2FeSFeS3C4H4C6H4C4HCH2C7H4C6H4C6H6C4H2C3NC5H10NC4H3SHCHCH6C3H2C2H2NC4H10NC4HSCH7CH2NH2CHC2HC3HC2H2CH3CH3NHCHC2H3CH2CHC2H3C3FeH11CH2CH3C5H3C2HCSHNCSCH5CH4CH3C2HC2HCNCH2FeS2FeS2FeS2FeSFeS3FeS2NFeS2FeS2Fe2S3FeS2FeSFeSFeS3C6H4C2H5C3H3C2HC2HCH2NCHCHFeC6H4C6H4NC7H6SCH2CH5SCHC2HCH2C2HC2H3CHCFeHCH5NCH2CH5CH2CH4C3H2CH3CH3SCSHCH2CH2CHCH4C3FeHCHCNHC2H2CH2NCH2C4HSCH9NH2C2H2C5HSCHC3H5C3H2CHCHC2HCH2CH6CSHCH2CHS3FeS2FeS2CFeSHFeS2FeSFeS3FeS2FeS2FeSFeS3CH2C7H4C6H2CHFe2H3C6H4C6H4C2FeC3HNCHC6H4C2HC4H3CH3CH2CNHCH3SC2H2CHCHCHC3H4C6H5C5NC9H14CHCH3C2HCHC2NC9H14C2H3CHC2H4NHCSH4CHNHC2HSHCH2CH6C4H4FeHSHC3HFeS2CHCHSCHSC2HC6H5CH2C2SH2C5HNH4CFeCNC2H6C2H2CHC3H3CHCHC3H11C2H3CH4CFeS2C2SFeS2H3C7H5C3H2CH3C2H3CH2C2HFeH2C2H4CHNHNCHCHSH2CHCHFeCH3CHCH5C2FeCHSHS2HCH2FeS2FeS2CFeS2FeS2FeSFeS3CFeS2FeS2FeSFeS3C4HC3H2C8H4C6H4CHC4H3CHCHSH4C2HC5HC2HC6H4C5H2CHNHC2NH3SCHCH3C2HC2H2C2HC2H3NHC2HNH2C2SC2H3CH3CH4CH5C4HCHCH2SHC3H3C2HFeC2H3CHCHCNC9H16CHCHFeHNCHC3H3C2HC3H2C2H2C2H6C2H2NC2H4C3H3SH3FeS2FeS2FeS2FeSFeS3CHCFeS2FeS2FeSFeSFeCS2FeS2FeSFeSFeS3HCHC9HCH2CHC3SH2CHC6H4C6H4C6H4CHCHC2H2CFeCH8CNCNC9H15CHC3S2CHCHCHSCHNH5C2H2CNC9H12CHNC9H15C3H3NH2NC2H2CH7CSCHC2H2C3HC2H3CHNHC3H2SH2CH3C4H3FeS2H2SFeS2FeS2FeSFeS3FeS2HSCH3FeS2FeSFeSFeS3FeS2FeS2FeSFeS2C6H4C4FeH3C3HCNH3C2HCHNHNC6H4C6H5CHC6H4C6H7CHCH3CH3SHCH2NHCHC8H8C3H3CSCH2CH4CHCH3CNC6H9NC9H15C3H3S2HC2H3CH4CH2C2HCH4C4H4CHCHCHNHCFeH4SC2H2CH2NH2
_chemical_formula_sum              "H864 C720 Fe96 S192 N48"
_cell_length_a       57.8167
_cell_length_b       57.5116
_cell_length_c       42.8504
_cell_angle_alpha    90.4679
_cell_angle_beta     89.9855
_cell_angle_gamma    119.841

_space_group_name_H-M_alt    "P 1"
_space_group_IT_number       1

loop_
  _space_group_symop_operation_xyz
  'x, y, z'

loop_
  _atom_site_type_symbol
  _atom_site_label
  _atom_site_symmetry_multiplicity
  _atom_site_fract_x
  _atom_site_fract_y
  _atom_site_fract_z
  _atom_site_occupancy
  H   H1        1.0  0.20218  0.16307  0.39612  1.0000
  C   C1        1.0  0.38095  0.46032  0.05201  1.0000
  C   C2        1.0  0.04807  0.17656  0.37966  1.0000
  Fe  Fe1       1.0  0.20831  0.02160  0.32411  1.0000
  S   S1        1.0  0.22549  0.06708  0.32117  1.0000
  S   S2        1.0  0.23237  0.00753  0.35187  1.0000
  Fe  Fe2       1.0  0.16917  0.22538  0.33232  1.0000
  S   S3        1.0  0.21236  0.25776  0.33430  1.0000
  S   S4        1.0  0.14046  0.24120  0.33822  1.0000
  Fe  Fe3       1.0  0.18322  0.18057  0.32407  1.0000
  S   S5        1.0  0.22698  0.20998  0.32464  1.0000
  S   S6        1.0  0.16540  0.13513  0.31989  1.0000
  Fe  Fe4       1.0  0.21727  0.22890  0.36521  1.0000
  S   S7        1.0  0.24103  0.23638  0.41000  1.0000
  Fe  Fe5       1.0  0.21775  0.23601  0.29354  1.0000
  S   S8        1.0  0.23661  0.25150  0.24542  1.0000
  S   S9        1.0  0.17386  0.19822  0.36604  1.0000
  S   S10       1.0  0.17409  0.20491  0.29020  1.0000
  Fe  Fe6       1.0  0.99392  0.20049  0.30560  1.0000
  S   S11       1.0  0.02141  0.18593  0.28763  1.0000
  S   S12       1.0  0.00944  0.23714  0.33573  1.0000
  Fe  Fe7       1.0  0.04306  0.38102  0.12807  1.0000
  S   S13       1.0  0.06432  0.37979  0.08424  1.0000
  S   S14       1.0  0.01782  0.34109  0.15394  1.0000
  Fe  Fe8       1.0  0.05821  0.44024  0.11749  1.0000
  S   S15       1.0  0.08054  0.44252  0.07381  1.0000
  Fe  Fe9       1.0  0.04580  0.40182  0.06115  1.0000
  S   S16       1.0  0.03291  0.39579  0.00954  1.0000
  Fe  Fe10      1.0  0.09754  0.42024  0.09985  1.0000
  S   S17       1.0  0.14264  0.43669  0.09316  1.0000
  S   S18       1.0  0.02245  0.40053  0.10361  1.0000
  S   S19       1.0  0.07735  0.42052  0.14497  1.0000
  Fe  Fe11      1.0  0.33221  0.44822  0.11604  1.0000
  S   S20       1.0  0.30425  0.43356  0.07450  1.0000
  Fe  Fe12      1.0  0.30568  0.39070  0.14318  1.0000
  S   S21       1.0  0.27775  0.37290  0.10220  1.0000
  S   S22       1.0  0.30375  0.37035  0.18994  1.0000
  Fe  Fe13      1.0  0.31332  0.39961  0.07232  1.0000
  S   S23       1.0  0.32260  0.39344  0.02168  1.0000
  Fe  Fe14      1.0  0.27067  0.40805  0.10738  1.0000
  S   S24       1.0  0.22557  0.39386  0.11051  1.0000
  S   S25       1.0  0.34223  0.41510  0.11304  1.0000
  S   S26       1.0  0.29780  0.42514  0.14914  1.0000
  C   C3        1.0  0.34170  0.35733  0.01963  1.0000
  C   C4        1.0  0.19258  0.31894  0.27695  1.0000
  C   C5        1.0  0.35199  0.34287  0.00366  1.0000
  C   C6        1.0  0.19195  0.15022  0.41581  1.0000
  H   H2        1.0  0.33643  0.35349  0.04402  1.0000
  H   H3        1.0  0.06851  0.28224  0.29138  1.0000
  H   H4        1.0  0.18639  0.32192  0.29983  1.0000
  H   H5        1.0  0.04984  0.15911  0.38748  1.0000
  C   C7        1.0  0.20315  0.40670  0.10673  1.0000
  C   C8        1.0  0.17574  0.38939  0.11217  1.0000
  C   C9        1.0  0.15698  0.39818  0.10855  1.0000
  C   C10       1.0  0.16537  0.42452  0.09940  1.0000
  C   C11       1.0  0.19281  0.44187  0.09425  1.0000
  C   C12       1.0  0.21157  0.43309  0.09788  1.0000
  H   H6        1.0  0.16888  0.36890  0.11885  1.0000
  H   H7        1.0  0.13601  0.38452  0.11247  1.0000
  H   H8        1.0  0.19961  0.46229  0.08723  1.0000
  H   H9        1.0  0.23250  0.44671  0.09362  1.0000
  C   C13       1.0  0.00503  0.30327  0.25215  1.0000
  C   C14       1.0  0.02285  0.33088  0.24812  1.0000
  C   C15       1.0  0.02749  0.34276  0.21830  1.0000
  C   C16       1.0  0.01406  0.32722  0.19205  1.0000
  H   H10       1.0  0.35800  0.02762  0.01331  1.0000
  C   C17       1.0  0.17209  0.38519  0.03283  1.0000
  H   H11       1.0  0.04131  0.36395  0.21569  1.0000
  H   H12       1.0  0.23602  0.00360  0.44203  1.0000
  C   C18       1.0  0.97804  0.42588  0.12473  1.0000
  C   C19       1.0  0.10812  0.22592  0.32202  1.0000
  C   C20       1.0  0.09327  0.23898  0.32557  1.0000
  C   C21       1.0  0.06678  0.22690  0.31503  1.0000
  C   C22       1.0  0.05485  0.20163  0.30074  1.0000
  C   C23       1.0  0.06990  0.18877  0.29647  1.0000
  C   C24       1.0  0.09648  0.20084  0.30719  1.0000
  H   H13       1.0  0.10227  0.25849  0.33679  1.0000
  H   H14       1.0  0.05577  0.23733  0.31777  1.0000
  H   H15       1.0  0.06088  0.16929  0.28518  1.0000
  H   H16       1.0  0.10779  0.19060  0.30436  1.0000
  C   C25       1.0  0.28408  0.33711  0.20466  1.0000
  C   C26       1.0  0.27190  0.31448  0.18511  1.0000
  C   C27       1.0  0.25741  0.28856  0.19800  1.0000
  C   C28       1.0  0.25434  0.28484  0.23053  1.0000
  C   C29       1.0  0.26589  0.30750  0.25003  1.0000
  C   C30       1.0  0.28090  0.33337  0.23717  1.0000
  H   H17       1.0  0.27424  0.31691  0.16010  1.0000
  H   H18       1.0  0.24866  0.27125  0.18262  1.0000
  H   H19       1.0  0.26384  0.30508  0.27507  1.0000
  H   H20       1.0  0.29027  0.35063  0.25261  1.0000
  C   C31       1.0  0.20823  0.08550  0.32200  1.0000
  C   C32       1.0  0.22303  0.11367  0.32422  1.0000
  C   C33       1.0  0.21025  0.12914  0.32434  1.0000
  C   C34       1.0  0.18248  0.11661  0.32172  1.0000
  C   C35       1.0  0.16766  0.08844  0.32005  1.0000
  C   C36       1.0  0.18041  0.07294  0.32036  1.0000
  H   H21       1.0  0.24456  0.12361  0.32551  1.0000
  H   H22       1.0  0.22191  0.15075  0.32595  1.0000
  H   H23       1.0  0.14616  0.07851  0.31808  1.0000
  H   H24       1.0  0.16873  0.05131  0.31857  1.0000
  H   H25       1.0  0.05168  0.29850  0.27519  1.0000
  H   H26       1.0  0.36555  0.43869  0.05172  1.0000
  C   C37       1.0  0.12301  0.25523  0.23116  1.0000
  C   C38       1.0  0.24183  0.23972  0.47396  1.0000
  C   C39       1.0  0.22928  0.24093  0.44642  1.0000
  C   C40       1.0  0.20760  0.24531  0.44856  1.0000
  H   H27       1.0  0.25881  0.23664  0.47247  1.0000
  H   H28       1.0  0.19795  0.24653  0.42750  1.0000
  C   C41       1.0  0.02007  0.17401  0.42213  1.0000
  C   C42       1.0  0.20464  0.12293  0.24486  1.0000
  C   C43       1.0  0.19878  0.24871  0.47802  1.0000
  N   N1        1.0  0.22484  0.35956  0.20383  1.0000
  C   C44       1.0  0.20641  0.36993  0.19728  1.0000
  C   C45       1.0  0.24956  0.38134  0.21826  1.0000
  C   C46       1.0  0.23213  0.35267  0.17326  1.0000
  C   C47       1.0  0.21230  0.33666  0.22560  1.0000
  C   C48       1.0  0.20350  0.33990  0.25545  1.0000
  H   H29       1.0  0.20192  0.37826  0.21838  1.0000
  H   H30       1.0  0.21505  0.38652  0.17995  1.0000
  H   H31       1.0  0.18724  0.35391  0.18727  1.0000
  H   H32       1.0  0.26343  0.37398  0.22482  1.0000
  H   H33       1.0  0.24562  0.38973  0.23971  1.0000
  H   H34       1.0  0.26054  0.39838  0.20202  1.0000
  H   H35       1.0  0.24159  0.37033  0.15760  1.0000
  H   H36       1.0  0.24707  0.34608  0.17589  1.0000
  H   H37       1.0  0.21440  0.33687  0.16059  1.0000
  H   H38       1.0  0.20560  0.35891  0.26266  1.0000
  N   N2        1.0  0.06126  0.27615  0.24195  1.0000
  C   C49       1.0  0.06732  0.29301  0.27051  1.0000
  C   C50       1.0  0.06082  0.29169  0.21469  1.0000
  C   C51       1.0  0.03397  0.25284  0.24552  1.0000
  C   C52       1.0  0.06710  0.19554  0.46014  1.0000
  H   H39       1.0  0.05626  0.22465  0.23914  1.0000
  H   H40       1.0  0.11506  0.30959  0.23407  1.0000
  H   H41       1.0  0.17311  0.02948  0.40820  1.0000
  S   S27       1.0  0.00010  0.28942  0.29042  1.0000
  H   H42       1.0  0.17352  0.06077  0.40389  1.0000
  C   C53       1.0  0.98674  0.42225  0.15375  1.0000
  H   H43       1.0  0.08640  0.31223  0.26882  1.0000
  C   C54       1.0  0.19425  0.16148  0.44547  1.0000
  H   H44       1.0  0.07973  0.31097  0.21204  1.0000
  H   H45       1.0  0.04482  0.29702  0.21677  1.0000
  H   H46       1.0  0.05718  0.28000  0.19262  1.0000
  H   H47       1.0  0.02751  0.23966  0.22443  1.0000
  H   H48       1.0  0.03262  0.24060  0.26617  1.0000
  H   H49       1.0  0.01890  0.25929  0.24918  1.0000
  C   C55       1.0  0.34886  0.00982  0.99870  1.0000
  C   C56       1.0  0.36020  0.47048  0.00953  1.0000
  C   C57       1.0  0.98197  0.24129  0.45689  1.0000
  H   H50       1.0  0.04251  0.22695  0.41433  1.0000
  H   H51       1.0  0.10598  0.41409  0.04135  1.0000
  C   C58       1.0  0.98516  0.40843  0.22044  1.0000
  C   C59       1.0  0.17606  0.12269  0.41121  1.0000
  H   H52       1.0  0.98708  0.27282  0.48880  1.0000
  H   H53       1.0  0.17382  0.11419  0.38796  1.0000
  N   N3        1.0  0.23196  0.17365  0.23813  1.0000
  C   C60       1.0  0.20706  0.17367  0.24666  1.0000
  C   C61       1.0  0.25311  0.19202  0.26022  1.0000
  C   C62       1.0  0.23940  0.18467  0.20623  1.0000
  C   C63       1.0  0.22930  0.14667  0.23905  1.0000
  H   H54       1.0  0.20054  0.16589  0.27065  1.0000
  H   H55       1.0  0.20978  0.19424  0.24634  1.0000
  H   H56       1.0  0.19052  0.16153  0.23005  1.0000
  H   H57       1.0  0.24934  0.18340  0.28408  1.0000
  H   H58       1.0  0.25425  0.21194  0.26184  1.0000
  H   H59       1.0  0.27331  0.19630  0.25317  1.0000
  H   H60       1.0  0.22416  0.17131  0.18883  1.0000
  H   H61       1.0  0.24122  0.20490  0.20471  1.0000
  H   H62       1.0  0.25890  0.18707  0.19887  1.0000
  H   H63       1.0  0.18634  0.12312  0.24932  1.0000
  N   N4        1.0  0.21070  0.06480  0.41967  1.0000
  C   C64       1.0  0.18567  0.05081  0.40124  1.0000
  C   C65       1.0  0.22697  0.09223  0.40691  1.0000
  C   C66       1.0  0.22597  0.05057  0.41480  1.0000
  C   C67       1.0  0.20417  0.06454  0.45315  1.0000
  H   H64       1.0  0.02282  0.39242  0.17397  1.0000
  S   S28       1.0  0.05245  0.47384  0.13962  1.0000
  C   C68       1.0  0.19094  0.03995  0.46947  1.0000
  H   H65       1.0  0.21590  0.10345  0.40697  1.0000
  H   H66       1.0  0.23256  0.09171  0.38214  1.0000
  H   H67       1.0  0.24603  0.10387  0.42003  1.0000
  H   H68       1.0  0.23341  0.05263  0.39039  1.0000
  H   H69       1.0  0.24349  0.05840  0.43079  1.0000
  H   H70       1.0  0.21365  0.02862  0.41861  1.0000
  H   H71       1.0  0.03046  0.16898  0.36374  1.0000
  C   C69       1.0  0.19012  0.29421  0.26943  1.0000
  H   H72       1.0  0.98419  0.25286  0.43619  1.0000
  H   H73       1.0  0.18984  0.05047  0.37593  1.0000
  N   N5        1.0  0.98967  0.39317  0.19534  1.0000
  H   H74       1.0  0.19933  0.42702  0.02590  1.0000
  H   H75       1.0  0.04804  0.18458  0.47158  1.0000
  C   C70       1.0  0.98361  0.25256  0.48675  1.0000
  H   H76       1.0  0.20672  0.18302  0.44760  1.0000
  C   C71       1.0  0.12595  0.36957  0.01918  1.0000
  C   C72       1.0  0.11811  0.22438  0.43452  1.0000
  H   H77       1.0  0.27120  0.16055  0.22900  1.0000
  C   C73       1.0  0.33750  0.37605  0.00372  1.0000
  C   C74       1.0  0.25190  0.14354  0.23405  1.0000
  C   C75       1.0  0.11029  0.42149  0.01701  1.0000
  H   H78       1.0  0.14984  0.29759  0.22837  1.0000
  C   C76       1.0  0.20936  0.31109  0.21863  1.0000
  C   C77       1.0  0.20307  0.09790  0.24631  1.0000
  H   H79       1.0  0.01589  0.18469  0.44116  1.0000
  H   H80       1.0  0.02795  0.40232  0.21426  1.0000
  C   C78       1.0  0.13231  0.39555  0.00888  1.0000
  H   H81       1.0  0.15051  0.08480  0.43272  1.0000
  H   H82       1.0  0.25745  0.99007  0.23846  1.0000
  H   H83       1.0  0.15142  0.16799  0.49037  1.0000
  C   C79       1.0  0.21035  0.08823  0.47042  1.0000
  H   H84       1.0  0.21604  0.30679  0.19693  1.0000
  H   H85       1.0  0.18424  0.08015  0.25166  1.0000
  H   H86       1.0  0.13793  0.23550  0.42445  1.0000
  N   N6        1.0  0.38534  0.47204  0.02044  1.0000
  H   H87       1.0  0.03318  0.34319  0.26824  1.0000
  C   C80       1.0  0.19844  0.29029  0.24034  1.0000
  H   H88       1.0  0.98532  0.44602  0.11606  1.0000
  C   C81       1.0  0.25014  0.11844  0.23605  1.0000
  C   C82       1.0  0.22580  0.09570  0.24239  1.0000
  H   H89       1.0  0.18722  0.38144  0.04264  1.0000
  H   H90       1.0  0.10585  0.35283  0.01891  1.0000
  H   H91       1.0  0.18203  0.27811  0.28635  1.0000
  C   C83       1.0  0.09565  0.21600  0.41550  1.0000
  H   H92       1.0  0.00300  0.16709  0.40550  1.0000
  H   H93       1.0  0.01941  0.15575  0.43166  1.0000
  C   C84       1.0  0.16500  0.11730  0.46626  1.0000
  H   H94       1.0  0.26778  0.11657  0.23312  1.0000
  C   C85       1.0  0.17891  0.41088  0.02326  1.0000
  C   C86       1.0  0.01875  0.40383  0.19212  1.0000
  H   H95       1.0  0.22460  0.07635  0.24486  1.0000
  H   H96       1.0  0.35460  0.32801  0.01606  1.0000
  H   H97       1.0  0.27855  0.98942  0.18808  1.0000
  C   C87       1.0  0.08202  0.26850  0.23752  1.0000
  C   C88       1.0  0.08975  0.20421  0.47904  1.0000
  C   C89       1.0  0.07625  0.24140  0.23687  1.0000
  Fe  Fe15      1.0  0.98170  0.24589  0.30738  1.0000
  H   H98       1.0  0.37391  0.47031  0.06875  1.0000
  H   H99       1.0  0.35223  0.47940  0.02656  1.0000
  H   H100      1.0  0.02958  0.42528  0.18510  1.0000
  H   H101      1.0  0.06561  0.18901  0.36482  1.0000
  H   H102      1.0  0.09915  0.22148  0.39115  1.0000
  H   H103      1.0  0.34393  0.44931  0.00633  1.0000
  H   H104      1.0  0.02781  0.20930  0.37862  1.0000
  H   H105      1.0  0.99694  0.43046  0.21691  1.0000
  H   H106      1.0  0.97899  0.35679  0.03161  1.0000
  H   H107      1.0  0.40828  0.45315  0.00742  1.0000
  H   H108      1.0  0.15414  0.10341  0.48467  1.0000
  C   C90       1.0  0.99185  0.28769  0.22584  1.0000
  H   H109      1.0  0.97794  0.26650  0.22843  1.0000
  H   H110      1.0  0.13866  0.25011  0.22932  1.0000
  C   C91       1.0  0.12927  0.28195  0.23084  1.0000
  H   H111      1.0  0.19715  0.27121  0.23491  1.0000
  H   H112      1.0  0.09418  0.42557  0.00953  1.0000
  H   H113      1.0  0.18502  0.02109  0.45771  1.0000
  C   C92       1.0  0.04495  0.21538  0.39488  1.0000
  C   C93       1.0  0.23661  0.00596  0.49255  1.0000
  C   C94       1.0  0.06940  0.20086  0.42755  1.0000
  C   C95       1.0  0.15938  0.41611  0.01163  1.0000
  C   C96       1.0  0.16288  0.10623  0.43644  1.0000
  H   H114      1.0  0.06327  0.22930  0.38195  1.0000
  H   H115      1.0  0.21995  0.10783  0.45995  1.0000
  H   H116      1.0  0.09173  0.21422  0.23445  1.0000
  C   C97       1.0  0.09656  0.23503  0.23399  1.0000
  C   C98       1.0  0.18035  0.14547  0.47154  1.0000
  H   H117      1.0  0.16555  0.43657  0.00556  1.0000
  C   C99       1.0  0.10917  0.28858  0.23405  1.0000
  S   S29       1.0  0.16986  0.99460  0.34841  1.0000
  H   H118      1.0  0.12914  0.44107  0.01801  1.0000
  N   N7        1.0  0.04595  0.19175  0.40667  1.0000
  C   C100      1.0  0.99624  0.29963  0.19611  1.0000
  S   S30       1.0  0.20046  0.99242  0.28425  1.0000
  C   C101      1.0  0.11518  0.21838  0.46620  1.0000
  H   H119      1.0  0.18237  0.25262  0.47946  1.0000
  H   H120      1.0  0.00065  0.44011  0.16647  1.0000
  H   H121      1.0  0.25793  0.01934  0.49393  1.0000
  H   H122      1.0  0.98560  0.28738  0.17607  1.0000
  H   H123      1.0  0.98578  0.36315  0.22842  1.0000
  C   C102      1.0  0.14567  0.36462  0.03093  1.0000
  H   H124      1.0  0.13266  0.22473  0.48082  1.0000
  H   H125      1.0  0.14040  0.34483  0.03917  1.0000
  H   H126      1.0  0.99127  0.40484  0.24374  1.0000
  H   H127      1.0  0.39958  0.46205  0.06176  1.0000
  C   C103      1.0  0.22423  0.99712  0.46310  1.0000
  H   H128      1.0  0.07680  0.36928  0.01718  1.0000
  H   H129      1.0  0.18462  0.19393  0.48230  1.0000
  H   H130      1.0  0.98171  0.35254  0.18891  1.0000
  C   C104      1.0  0.97884  0.39628  0.16530  1.0000
  C   C105      1.0  0.97770  0.21521  0.45401  1.0000
  H   H131      1.0  0.28675  0.30680  0.00034  1.0000
  C   C106      1.0  0.97749  0.36487  0.20563  1.0000
  C   C107      1.0  0.97787  0.35976  0.00689  1.0000
  H   H132      1.0  0.37398  0.43416  0.99778  1.0000
  C   C108      1.0  0.39107  0.45504  0.99910  1.0000
  N   N8        1.0  0.11206  0.40167  0.99633  1.0000
  C   C109      1.0  0.29777  0.04602  0.75475  1.0000
  H   H133      1.0  0.02006  0.22951  0.55933  1.0000
  H   H134      1.0  0.35604  0.19235  0.96943  1.0000
  Fe  Fe16      1.0  0.99860  0.20340  0.63691  1.0000
  S   S31       1.0  0.02398  0.18374  0.62758  1.0000
  S   S32       1.0  0.01065  0.24687  0.63178  1.0000
  Fe  Fe17      1.0  0.19907  0.18155  0.61443  1.0000
  S   S33       1.0  0.23437  0.22033  0.59989  1.0000
  S   S34       1.0  0.20298  0.14735  0.59349  1.0000
  Fe  Fe18      1.0  0.17338  0.21060  0.64687  1.0000
  S   S35       1.0  0.20783  0.25125  0.63491  1.0000
  S   S36       1.0  0.13965  0.21069  0.67458  1.0000
  Fe  Fe19      1.0  0.20473  0.23300  0.58719  1.0000
  S   S37       1.0  0.19820  0.24973  0.54207  1.0000
  Fe  Fe20      1.0  0.23440  0.23455  0.64932  1.0000
  S   S38       1.0  0.27594  0.25418  0.67306  1.0000
  S   S39       1.0  0.16923  0.19326  0.59871  1.0000
  S   S40       1.0  0.20013  0.19482  0.66426  1.0000
  Fe  Fe21      1.0  0.18071  0.01124  0.64529  1.0000
  S   S41       1.0  0.22442  0.03190  0.63588  1.0000
  S   S42       1.0  0.15803  0.03312  0.65502  1.0000
  N   N9        1.0  0.29946  0.30505  0.89213  1.0000
  Fe  Fe22      1.0  0.40534  0.10479  0.85500  1.0000
  S   S43       1.0  0.41589  0.08252  0.81876  1.0000
  S   S44       1.0  0.40692  0.14420  0.84039  1.0000
  Fe  Fe23      1.0  0.38261  0.05656  0.89949  1.0000
  S   S45       1.0  0.39050  0.03152  0.86572  1.0000
  S   S46       1.0  0.36757  0.04516  0.94962  1.0000
  Fe  Fe24      1.0  0.43112  0.06816  0.85887  1.0000
  Fe  Fe25      1.0  0.37491  0.04779  0.82838  1.0000
  S   S47       1.0  0.34701  0.02012  0.78979  1.0000
  S   S48       1.0  0.42357  0.09296  0.89432  1.0000
  S   S49       1.0  0.36390  0.07012  0.86295  1.0000
  Fe  Fe26      1.0  0.37075  0.30585  0.83579  1.0000
  S   S50       1.0  0.36402  0.28342  0.88094  1.0000
  S   S51       1.0  0.33046  0.28947  0.80944  1.0000
  Fe  Fe27      1.0  0.42980  0.34581  0.85445  1.0000
  S   S52       1.0  0.42513  0.32503  0.90023  1.0000
  Fe  Fe28      1.0  0.40358  0.28596  0.87332  1.0000
  S   S53       1.0  0.41253  0.25296  0.88945  1.0000
  Fe  Fe29      1.0  0.38572  0.32387  0.90443  1.0000
  S   S54       1.0  0.36997  0.32701  0.95268  1.0000
  S   S55       1.0  0.40972  0.30640  0.82687  1.0000
  S   S56       1.0  0.39116  0.34672  0.85993  1.0000
  C   C110      1.0  0.40850  0.17427  0.85480  1.0000
  C   C111      1.0  0.40135  0.18901  0.83474  1.0000
  C   C112      1.0  0.40225  0.21294  0.84485  1.0000
  C   C113      1.0  0.41060  0.22269  0.87521  1.0000
  C   C114      1.0  0.41814  0.20818  0.89513  1.0000
  C   C115      1.0  0.41705  0.18415  0.88509  1.0000
  H   H135      1.0  0.39491  0.18176  0.81117  1.0000
  H   H136      1.0  0.39650  0.22381  0.82912  1.0000
  H   H137      1.0  0.42482  0.21556  0.91859  1.0000
  H   H138      1.0  0.42317  0.17352  0.90066  1.0000
  C   C116      1.0  0.35532  0.36663  0.95617  1.0000
  C   C117      1.0  0.35868  0.34723  0.97179  1.0000
  H   H139      1.0  0.45803  0.99003  0.98611  1.0000
  H   H140      1.0  0.29548  0.21801  0.68625  1.0000
  H   H141      1.0  0.36074  0.37066  0.93189  1.0000
  H   H142      1.0  0.14367  0.12768  0.51993  1.0000
  H   H143      1.0  0.41786  0.00778  0.90300  1.0000
  C   C118      1.0  0.23470  0.12616  0.68498  1.0000
  C   C119      1.0  0.35050  0.01244  0.96601  1.0000
  C   C120      1.0  0.29273  0.19775  0.69093  1.0000
  H   H144      1.0  0.18802  0.06197  0.54249  1.0000
  H   H145      1.0  0.08007  0.29822  0.56481  1.0000
  H   H146      1.0  0.08764  0.19977  0.50379  1.0000
  C   C121      1.0  0.11869  0.25148  0.59314  1.0000
  C   C122      1.0  0.28241  0.02620  0.73234  1.0000
  H   H147      1.0  0.01665  0.39496  0.94592  1.0000
  C   C123      1.0  0.31717  0.04422  0.77298  1.0000
  C   C124      1.0  0.32162  0.02259  0.76888  1.0000
  H   H148      1.0  0.31391  0.08627  0.93256  1.0000
  C   C125      1.0  0.28649  0.00431  0.72863  1.0000
  H   H149      1.0  0.32898  0.05977  0.78983  1.0000
  H   H150      1.0  0.33974  0.01570  0.65408  1.0000
  N   N10       1.0  0.31005  0.03776  0.63279  1.0000
  C   C126      1.0  0.35060  0.16792  0.89595  1.0000
  H   H151      1.0  0.32056  0.28707  0.91357  1.0000
  C   C127      1.0  0.35228  0.18506  0.92005  1.0000
  H   H152      1.0  0.24224  0.24120  0.52448  1.0000
  Fe  Fe30      1.0  0.22677  0.00557  0.67286  1.0000
  C   C128      1.0  0.17080  0.06503  0.63819  1.0000
  C   C129      1.0  0.18986  0.07339  0.61455  1.0000
  C   C130      1.0  0.19962  0.09879  0.60121  1.0000
  C   C131      1.0  0.19069  0.11611  0.61172  1.0000
  C   C132      1.0  0.17191  0.10798  0.63569  1.0000
  C   C133      1.0  0.16185  0.08237  0.64874  1.0000
  H   H153      1.0  0.19690  0.06020  0.60631  1.0000
  H   H154      1.0  0.21427  0.10507  0.58280  1.0000
  H   H155      1.0  0.16487  0.12121  0.64383  1.0000
  H   H156      1.0  0.14716  0.07602  0.66712  1.0000
  C   C134      1.0  0.29048  0.26360  0.71136  1.0000
  C   C135      1.0  0.31826  0.27445  0.71481  1.0000
  C   C136      1.0  0.33082  0.28220  0.74444  1.0000
  C   C137      1.0  0.31580  0.27933  0.77125  1.0000
  C   C138      1.0  0.28798  0.26822  0.76783  1.0000
  C   C139      1.0  0.27540  0.26033  0.73822  1.0000
  H   H157      1.0  0.33025  0.27718  0.69431  1.0000
  H   H158      1.0  0.35219  0.29073  0.74643  1.0000
  H   H159      1.0  0.27602  0.26581  0.78824  1.0000
  H   H160      1.0  0.25407  0.25207  0.73616  1.0000
  N   N11       1.0  0.26459  0.17631  0.68604  1.0000
  C   C140      1.0  0.19217  0.06271  0.51771  1.0000
  C   C141      1.0  0.05712  0.19368  0.63952  1.0000
  C   C142      1.0  0.07148  0.18387  0.62277  1.0000
  C   C143      1.0  0.09717  0.18975  0.63248  1.0000
  C   C144      1.0  0.10855  0.20500  0.65956  1.0000
  C   C145      1.0  0.09429  0.21506  0.67609  1.0000
  C   C146      1.0  0.06888  0.20976  0.66593  1.0000
  H   H161      1.0  0.06257  0.17136  0.60236  1.0000
  H   H162      1.0  0.10781  0.18179  0.61961  1.0000
  H   H163      1.0  0.10288  0.22682  0.69711  1.0000
  H   H164      1.0  0.05806  0.21732  0.67920  1.0000
  H   H165      1.0  0.46178  0.03231  0.92170  1.0000
  H   H166      1.0  0.27477  0.98876  0.71177  1.0000
  S   S57       1.0  0.46400  0.05627  0.86343  1.0000
  C   C147      1.0  0.98266  0.37238  0.68948  1.0000
  H   H167      1.0  0.11399  0.00280  0.69997  1.0000
  H   H168      1.0  0.15474  0.25610  0.57281  1.0000
  C   C148      1.0  0.42572  0.03168  0.96046  1.0000
  H   H169      1.0  0.07254  0.27957  0.51101  1.0000
  H   H170      1.0  0.13872  0.43276  0.96482  1.0000
  H   H171      1.0  0.47672  0.33584  0.86967  1.0000
  H   H172      1.0  0.27730  0.00691  0.65817  1.0000
  H   H173      1.0  0.36312  0.48087  0.98688  1.0000
  S   S58       1.0  0.18311  0.98678  0.68438  1.0000
  C   C149      1.0  0.35156  0.14464  0.90242  1.0000
  H   H174      1.0  0.45480  0.26444  0.84208  1.0000
  C   C150      1.0  0.09480  0.25147  0.58799  1.0000
  C   C151      1.0  0.34955  0.07535  0.70591  1.0000
  H   H175      1.0  0.28288  0.04661  0.60768  1.0000
  C   C152      1.0  0.35364  0.13746  0.93351  1.0000
  H   H176      1.0  0.12375  0.24798  0.61638  1.0000
  H   H177      1.0  0.04430  0.27945  0.56871  1.0000
  C   C153      1.0  0.35494  0.15521  0.95766  1.0000
  C   C154      1.0  0.27711  0.33275  0.97470  1.0000
  H   H178      1.0  0.16623  0.14932  0.54918  1.0000
  C   C155      1.0  0.30604  0.00261  0.74670  1.0000
  C   C156      1.0  0.25032  0.09578  0.69987  1.0000
  H   H179      1.0  0.45937  0.00150  0.93339  1.0000
  H   H180      1.0  0.47157  0.42167  0.87729  1.0000
  H   H181      1.0  0.29113  0.11403  0.71459  1.0000
  C   C157      1.0  0.29665  0.05384  0.62824  1.0000
  H   H182      1.0  0.30862  0.27502  0.87525  1.0000
  C   C158      1.0  0.13618  0.25605  0.56862  1.0000
  Fe  Fe31      1.0  0.21437  0.99811  0.60203  1.0000
  H   H183      1.0  0.03767  0.25967  0.51769  1.0000
  C   C159      1.0  0.28048  0.14380  0.70178  1.0000
  H   H184      1.0  0.99237  0.36566  0.67296  1.0000
  H   H185      1.0  0.98340  0.11975  0.67605  1.0000
  H   H186      1.0  0.33379  0.09090  0.89853  1.0000
  H   H187      1.0  0.33955  0.99079  0.92234  1.0000
  H   H188      1.0  0.08200  0.24786  0.60793  1.0000
  N   N12       1.0  0.42827  0.00808  0.95154  1.0000
  C   C160      1.0  0.99899  0.38114  0.95862  1.0000
  H   H189      1.0  0.26169  0.19986  0.64872  1.0000
  H   H190      1.0  0.34119  0.39496  0.95930  1.0000
  C   C161      1.0  0.24786  0.18141  0.70819  1.0000
  H   H191      1.0  0.29931  0.19851  0.71551  1.0000
  H   H192      1.0  0.25264  0.17929  0.73279  1.0000
  H   H193      1.0  0.25097  0.20207  0.70564  1.0000
  H   H194      1.0  0.22620  0.16740  0.70444  1.0000
  H   H195      1.0  0.21816  0.12837  0.67701  1.0000
  C   C162      1.0  0.33350  0.08939  0.92435  1.0000
  H   H196      1.0  0.28315  0.34247  0.89681  1.0000
  H   H197      1.0  0.22340  0.18811  0.49743  1.0000
  C   C163      1.0  0.16510  0.13888  0.52670  1.0000
  H   H198      1.0  0.31130  0.07531  0.62413  1.0000
  H   H199      1.0  0.12250  0.39936  0.94870  1.0000
  H   H200      1.0  0.32352  0.34579  0.87608  1.0000
  H   H201      1.0  0.29678  0.99544  0.63770  1.0000
  C   C164      1.0  0.32492  0.32758  0.88086  1.0000
  C   C165      1.0  0.35435  0.17868  0.95083  1.0000
  C   C166      1.0  0.32817  0.04631  0.66021  1.0000
  H   H202      1.0  0.38259  0.12062  0.90088  1.0000
  H   H203      1.0  0.46125  0.22566  0.84121  1.0000
  C   C167      1.0  0.21095  0.24687  0.50558  1.0000
  H   H204      1.0  0.38409  0.09993  0.93086  1.0000
  H   H205      1.0  0.21730  0.15827  0.51734  1.0000
  H   H206      1.0  0.07034  0.38299  0.98356  1.0000
  C   C168      1.0  0.17236  0.17782  0.49897  1.0000
  H   H207      1.0  0.34975  0.17332  0.87195  1.0000
  H   H208      1.0  0.33376  0.02645  0.60413  1.0000
  H   H209      1.0  0.04018  0.22798  0.58946  1.0000
  S   S59       1.0  0.47251  0.37844  0.83989  1.0000
  C   C169      1.0  0.00097  0.37777  0.99088  1.0000
  S   S60       1.0  0.23785  0.00902  0.55681  1.0000
  H   H210      1.0  0.33431  0.07078  0.92934  1.0000
  C   C170      1.0  0.10603  0.26077  0.53329  1.0000
  H   H211      1.0  0.33144  0.32226  0.85882  1.0000
  H   H212      1.0  0.03928  0.21311  0.55237  1.0000
  C   C171      1.0  0.35549  0.10713  0.97325  1.0000
  H   H213      1.0  0.32218  0.07921  0.67685  1.0000
  H   H214      1.0  0.43182  0.04643  0.94110  1.0000
  C   C172      1.0  0.28329  0.33349  0.91879  1.0000
  H   H215      1.0  0.35192  0.09140  0.72139  1.0000
  C   C173      1.0  0.30355  0.28183  0.89735  1.0000
  H   H216      1.0  0.97870  0.42427  0.78019  1.0000
  H   H217      1.0  0.28412  0.28877  0.84621  1.0000
  H   H218      1.0  0.29932  0.29046  0.95496  1.0000
  H   H219      1.0  0.37493  0.06619  0.73375  1.0000
  C   C174      1.0  0.20967  0.17240  0.51375  1.0000
  C   C175      1.0  0.32524  0.04002  0.60398  1.0000
  C   C176      1.0  0.05700  0.25989  0.52020  1.0000
  Fe  Fe32      1.0  0.97992  0.24004  0.66888  1.0000
  H   H220      1.0  0.35178  0.13291  0.88265  1.0000
  C   C177      1.0  0.11983  0.41322  0.96466  1.0000
  H   H221      1.0  0.35693  0.15173  0.98195  1.0000
  C   C178      1.0  0.35889  0.03985  0.69395  1.0000
  N   N13       1.0  0.35588  0.11333  0.93957  1.0000
  H   H222      1.0  0.06504  0.27629  0.59722  1.0000
  C   C179      1.0  0.25699  0.17896  0.65372  1.0000
  C   C180      1.0  0.29222  0.30434  0.95089  1.0000
  H   H223      1.0  0.26759  0.17333  0.63618  1.0000
  H   H224      1.0  0.17204  0.12444  0.53214  1.0000
  C   C181      1.0  0.22996  0.10007  0.68940  1.0000
  H   H225      1.0  0.35634  0.08833  0.97673  1.0000
  H   H226      1.0  0.27746  0.31433  0.85812  1.0000
  N   N14       1.0  0.18173  0.15816  0.50225  1.0000
  C   C182      1.0  0.47493  0.26802  0.83980  1.0000
  H   H227      1.0  0.30646  0.19521  0.67489  1.0000
  H   H228      1.0  0.45537  0.29750  0.81207  1.0000
  C   C183      1.0  0.28507  0.31364  0.97739  1.0000
  C   C184      1.0  0.03955  0.23063  0.56394  1.0000
  C   C185      1.0  0.27548  0.11758  0.70613  1.0000
  C   C186      1.0  0.34212  0.03257  0.66785  1.0000
  H   H229      1.0  0.21036  0.08300  0.68479  1.0000
  S   S61       1.0  0.98578  0.26493  0.71328  1.0000
  C   C187      1.0  0.29121  0.31378  0.92060  1.0000
  H   H230      1.0  0.28532  0.26440  0.90686  1.0000
  H   H231      1.0  0.29483  0.06304  0.75789  1.0000
  H   H232      1.0  0.25907  0.28162  0.87540  1.0000
  H   H233      1.0  0.34109  0.33314  0.89836  1.0000
  H   H234      1.0  0.24652  0.07549  0.70332  1.0000
  H   H235      1.0  0.23528  0.16619  0.64925  1.0000
  H   H236      1.0  0.30037  0.15971  0.70730  1.0000
  H   H237      1.0  0.40487  0.02610  0.96622  1.0000
  H   H238      1.0  0.27083  0.35816  0.94369  1.0000
  N   N15       1.0  0.06234  0.25629  0.55322  1.0000
  H   H239      1.0  0.28417  0.05234  0.64877  1.0000
  H   H240      1.0  0.10443  0.41713  0.95421  1.0000
  C   C188      1.0  0.06301  0.27852  0.57176  1.0000
  C   C189      1.0  0.08765  0.25605  0.55788  1.0000
  H   H241      1.0  0.17593  0.02012  0.51336  1.0000
  H   H242      1.0  0.36857  0.02849  0.70012  1.0000
  C   C190      1.0  0.38138  0.11748  0.92653  1.0000
  C   C191      1.0  0.20445  0.08717  0.50227  1.0000
  C   C192      1.0  0.22161  0.99748  0.52018  1.0000
  C   C193      1.0  0.36261  0.06120  0.71292  1.0000
  C   C194      1.0  0.33243  0.06804  0.68010  1.0000
  H   H243      1.0  0.34205  0.06086  0.60105  1.0000
  S   S62       1.0  0.25944  0.03068  0.70883  1.0000
  C   C195      1.0  0.27628  0.34271  0.94548  1.0000
  H   H244      1.0  0.08468  0.36199  0.97856  1.0000
  C   C196      1.0  0.27906  0.29713  0.86706  1.0000
  C   C197      1.0  0.28884  0.00944  0.63640  1.0000
  C   C198      1.0  0.23249  0.24229  0.50344  1.0000
  H   H245      1.0  0.39870  0.13542  0.93712  1.0000
  H   H246      1.0  0.21150  0.18268  0.53657  1.0000
  H   H247      1.0  0.17343  0.18814  0.52154  1.0000
  H   H248      1.0  0.37310  0.12317  0.98589  1.0000
  H   H249      1.0  0.45825  0.30028  0.86873  1.0000
  C   C199      1.0  0.26017  0.14888  0.69080  1.0000
  C   C200      1.0  0.34447  0.38065  0.97194  1.0000
  C   C201      1.0  0.18533  0.03915  0.50130  1.0000
  H   H250      1.0  0.33691  0.10410  0.98466  1.0000
  H   H251      1.0  0.35275  0.20371  0.91475  1.0000
  C   C202      1.0  0.08491  0.37783  0.99383  1.0000
  H   H252      1.0  0.27460  0.00250  0.61634  1.0000
  C   C203      1.0  0.41085  0.99478  0.92405  1.0000
  H   H253      1.0  0.47063  0.02950  0.96070  1.0000
  C   C204      1.0  0.33859  0.98917  0.94751  1.0000
  C   C205      1.0  0.45628  0.01816  0.94159  1.0000
  H   H254      1.0  0.31232  0.03460  0.58277  1.0000
  C   C206      1.0  0.47540  0.31575  0.81115  1.0000
  H   H255      1.0  0.20976  0.10544  0.51524  1.0000
  H   H256      1.0  0.43815  0.04215  0.98131  1.0000
  C   C207      1.0  0.12993  0.26077  0.53881  1.0000
  H   H257      1.0  0.47192  0.33314  0.81040  1.0000
  H   H258      1.0  0.38994  0.99008  0.92794  1.0000
  H   H259      1.0  0.98223  0.28321  0.77488  1.0000
  H   H260      1.0  0.10257  0.26470  0.50968  1.0000
  H   H261      1.0  0.14398  0.26473  0.52003  1.0000
  H   H262      1.0  0.05564  0.24348  0.50499  1.0000
  C   C208      1.0  0.42000  0.98912  0.97796  1.0000
  S   S63       1.0  0.98401  0.25320  0.55102  1.0000
  H   H263      1.0  0.39482  0.46289  0.97488  1.0000
  C   C209      1.0  0.98068  0.23780  0.51395  1.0000
  H   H264      1.0  0.97893  0.34426  0.72463  1.0000
  H   H265      1.0  0.98337  0.40207  0.65883  1.0000
  C   C210      1.0  0.97752  0.39285  0.68159  1.0000
  H   H266      1.0  0.27256  0.34060  0.99549  1.0000
  S   S64       1.0  0.99280  0.79362  0.29621  1.0000
  S   S65       1.0  0.17955  0.96876  0.42492  1.0000
  S   S66       1.0  0.24545  0.95682  0.29478  1.0000
  Fe  Fe33      1.0  0.16396  0.96415  0.31157  1.0000
  S   S67       1.0  0.12493  0.93582  0.28758  1.0000
  S   S68       1.0  0.18445  0.94672  0.33885  1.0000
  Fe  Fe34      1.0  0.00782  0.80056  0.34536  1.0000
  S   S69       1.0  0.04291  0.83657  0.36778  1.0000
  S   S70       1.0  0.00737  0.76140  0.34868  1.0000
  C   C211      1.0  0.22402  0.88370  0.18008  1.0000
  Fe  Fe35      1.0  0.30649  0.91739  0.06204  1.0000
  S   S71       1.0  0.33884  0.93890  0.09769  1.0000
  H   H267      1.0  0.27509  0.86703  0.00746  1.0000
  Fe  Fe36      1.0  0.27255  0.86941  0.10678  1.0000
  S   S72       1.0  0.30391  0.88774  0.14488  1.0000
  S   S73       1.0  0.22906  0.83634  0.11646  1.0000
  Fe  Fe37      1.0  0.30543  0.92677  0.13314  1.0000
  S   S74       1.0  0.29841  0.95625  0.16296  1.0000
  Fe  Fe38      1.0  0.33526  0.89847  0.10668  1.0000
  S   S75       1.0  0.37060  0.89085  0.09676  1.0000
  S   S76       1.0  0.27370  0.90818  0.09618  1.0000
  S   S77       1.0  0.30319  0.87717  0.06977  1.0000
  Fe  Fe39      1.0  0.03727  0.65321  0.07415  1.0000
  S   S78       1.0  0.02765  0.62441  0.11383  1.0000
  S   S79       1.0  0.00080  0.64854  0.04711  1.0000
  Fe  Fe40      1.0  0.09731  0.68543  0.09326  1.0000
  S   S80       1.0  0.09062  0.65819  0.13404  1.0000
  S   S81       1.0  0.14009  0.71608  0.07752  1.0000
  Fe  Fe41      1.0  0.06512  0.62349  0.10158  1.0000
  S   S82       1.0  0.07112  0.58748  0.08951  1.0000
  Fe  Fe42      1.0  0.05363  0.66135  0.14298  1.0000
  S   S83       1.0  0.03928  0.66405  0.19223  1.0000
  S   S84       1.0  0.07338  0.65063  0.06010  1.0000
  S   S85       1.0  0.06168  0.69039  0.10400  1.0000
  C   C212      1.0  0.27604  0.97522  0.20602  1.0000
  H   H268      1.0  0.39804  0.85219  0.17359  1.0000
  H   H269      1.0  0.21206  0.86389  0.19142  1.0000
  C   C213      1.0  0.39709  0.51725  0.11981  1.0000
  C   C214      1.0  0.41614  0.50941  0.11429  1.0000
  C   C215      1.0  0.44348  0.52889  0.11144  1.0000
  C   C216      1.0  0.45240  0.55653  0.11448  1.0000
  C   C217      1.0  0.43347  0.56434  0.12090  1.0000
  C   C218      1.0  0.40610  0.54487  0.12338  1.0000
  C   C219      1.0  0.44869  0.55442  0.02802  1.0000
  H   H270      1.0  0.45783  0.52245  0.10680  1.0000
  H   H271      1.0  0.05538  0.86713  0.46321  1.0000
  H   H272      1.0  0.39171  0.55131  0.12783  1.0000
  H   H273      1.0  0.03048  0.74548  0.19600  1.0000
  C   C220      1.0  0.06472  0.55551  0.10375  1.0000
  C   C221      1.0  0.05409  0.54595  0.13335  1.0000
  C   C222      1.0  0.05047  0.52102  0.14379  1.0000
  C   C223      1.0  0.05721  0.50510  0.12486  1.0000
  C   C224      1.0  0.06772  0.51462  0.09522  1.0000
  C   C225      1.0  0.07149  0.53960  0.08486  1.0000
  H   H274      1.0  0.04892  0.55788  0.14835  1.0000
  H   H275      1.0  0.04240  0.51406  0.16679  1.0000
  C   C226      1.0  0.46945  0.84281  0.12138  1.0000
  H   H276      1.0  0.07976  0.54665  0.06196  1.0000
  Fe  Fe43      1.0  0.98973  0.75301  0.29995  1.0000
  Fe  Fe44      1.0  0.22159  0.97629  0.31342  1.0000
  H   H277      1.0  0.00182  0.74574  0.42787  1.0000
  H   H278      1.0  0.36427  0.84039  0.13211  1.0000
  H   H279      1.0  0.39603  0.93873  0.04800  1.0000
  C   C227      1.0  0.20519  0.80240  0.10613  1.0000
  C   C228      1.0  0.17968  0.79045  0.11984  1.0000
  C   C229      1.0  0.15973  0.76402  0.11191  1.0000
  C   C230      1.0  0.16490  0.74908  0.08987  1.0000
  C   C231      1.0  0.19047  0.76097  0.07629  1.0000
  C   C232      1.0  0.21048  0.78737  0.08436  1.0000
  H   H280      1.0  0.17527  0.80172  0.13677  1.0000
  H   H281      1.0  0.14026  0.75531  0.12260  1.0000
  H   H282      1.0  0.19475  0.74979  0.05906  1.0000
  H   H283      1.0  0.22987  0.79613  0.07349  1.0000
  C   C233      1.0  0.45489  0.90495  0.12396  1.0000
  C   C234      1.0  0.44052  0.91222  0.14469  1.0000
  C   C235      1.0  0.41523  0.90883  0.13658  1.0000
  C   C236      1.0  0.40355  0.89773  0.10760  1.0000
  C   C237      1.0  0.41799  0.89059  0.08677  1.0000
  C   C238      1.0  0.44341  0.89425  0.09475  1.0000
  H   H284      1.0  0.44901  0.92052  0.16734  1.0000
  H   H285      1.0  0.40458  0.91439  0.15302  1.0000
  H   H286      1.0  0.40930  0.88190  0.06434  1.0000
  H   H287      1.0  0.99229  0.84836  0.44005  1.0000
  C   C239      1.0  0.03111  0.68740  0.20952  1.0000
  C   C240      1.0  0.03504  0.71042  0.19405  1.0000
  Fe  Fe45      1.0  0.19320  0.97911  0.37436  1.0000
  C   C241      1.0  0.01589  0.72260  0.23824  1.0000
  C   C242      1.0  0.01213  0.69970  0.25381  1.0000
  C   C243      1.0  0.01966  0.68224  0.23950  1.0000
  H   H288      1.0  0.04407  0.71490  0.17118  1.0000
  N   N16       1.0  0.20662  0.89236  0.16465  1.0000
  C   C244      1.0  0.41923  0.83562  0.14911  1.0000
  H   H289      1.0  0.15026  0.86556  0.16718  1.0000
  C   C245      1.0  0.10151  0.90895  0.31031  1.0000
  C   C246      1.0  0.07775  0.88898  0.29654  1.0000
  C   C247      1.0  0.05930  0.86687  0.31405  1.0000
  C   C248      1.0  0.06461  0.86463  0.34539  1.0000
  C   C249      1.0  0.08815  0.88479  0.35924  1.0000
  C   C250      1.0  0.10653  0.90688  0.34179  1.0000
  H   H290      1.0  0.07366  0.89062  0.27227  1.0000
  H   H291      1.0  0.04104  0.85160  0.30329  1.0000
  H   H292      1.0  0.09238  0.88325  0.38348  1.0000
  H   H293      1.0  0.12464  0.92228  0.35272  1.0000
  C   C251      1.0  0.26083  0.95765  0.25827  1.0000
  C   C252      1.0  0.19669  0.97971  0.46109  1.0000
  H   H294      1.0  0.02733  0.80017  0.46135  1.0000
  C   C253      1.0  0.28455  0.95648  0.20026  1.0000
  C   C254      1.0  0.28138  0.93849  0.22391  1.0000
  C   C255      1.0  0.26973  0.93919  0.25270  1.0000
  C   C256      1.0  0.40270  0.95266  0.02863  1.0000
  H   H295      1.0  0.42103  0.56042  0.05552  1.0000
  H   H296      1.0  0.28810  0.92418  0.22014  1.0000
  H   H297      1.0  0.26757  0.92526  0.27083  1.0000
  C   C257      1.0  0.44217  0.79865  0.14234  1.0000
  H   H298      1.0  0.01655  0.66454  0.25177  1.0000
  H   H299      1.0  0.23703  0.89813  0.19823  1.0000
  H   H300      1.0  0.19189  0.83025  0.05187  1.0000
  C   C258      1.0  0.18384  0.91652  0.23497  1.0000
  H   H301      1.0  0.15243  0.78635  0.05194  1.0000
  H   H302      1.0  0.23725  0.91825  0.13235  1.0000
  C   C259      1.0  0.18905  0.81738  0.03204  1.0000
  N   N17       1.0  0.44375  0.81749  0.11791  1.0000
  H   H303      1.0  0.20629  0.87190  0.12204  1.0000
  C   C260      1.0  0.16054  0.87990  0.18567  1.0000
  H   H304      1.0  0.40161  0.80698  0.07630  1.0000
  H   H305      1.0  0.44400  0.80711  0.16623  1.0000
  H   H306      1.0  0.19295  0.93083  0.25408  1.0000
  S   S86       1.0  0.00736  0.74586  0.25499  1.0000
  C   C261      1.0  0.04375  0.86070  0.48441  1.0000
  C   C262      1.0  0.19217  0.87290  0.13901  1.0000
  H   H307      1.0  0.21141  0.92656  0.13900  1.0000
  H   H308      1.0  0.25570  0.83660  0.02905  1.0000
  C   C263      1.0  0.42140  0.82295  0.12156  1.0000
  H   H309      1.0  0.02379  0.75395  0.47989  1.0000
  C   C264      1.0  0.16615  0.79204  0.03248  1.0000
  H   H310      1.0  0.23689  0.93432  0.16746  1.0000
  C   C265      1.0  0.38510  0.95922  0.01438  1.0000
  H   H311      1.0  0.12144  0.88821  0.49340  1.0000
  C   C266      1.0  0.45279  0.53611  0.01087  1.0000
  C   C267      1.0  0.02738  0.72779  0.20828  1.0000
  C   C268      1.0  0.40361  0.51958  0.03919  1.0000
  H   H312      1.0  0.43982  0.58540  0.12348  1.0000
  H   H313      1.0  0.98158  0.64771  0.18363  1.0000
  H   H314      1.0  0.36650  0.81792  0.08391  1.0000
  H   H315      1.0  0.00344  0.69542  0.27688  1.0000
  C   C269      1.0  0.00442  0.83949  0.43153  1.0000
  C   C270      1.0  0.44422  0.51880  0.21984  1.0000
  C   C271      1.0  0.18886  0.89460  0.18798  1.0000
  C   C272      1.0  0.99011  0.74151  0.44891  1.0000
  C   C273      1.0  0.98752  0.63544  0.00926  1.0000
  C   C274      1.0  0.42406  0.54623  0.04182  1.0000
  H   H316      1.0  0.42283  0.77952  0.14101  1.0000
  H   H317      1.0  0.43388  0.84182  0.16761  1.0000
  H   H318      1.0  0.45398  0.88853  0.07839  1.0000
  H   H319      1.0  0.16044  0.95779  0.48739  1.0000
  H   H320      1.0  0.14386  0.90551  0.24830  1.0000
  C   C275      1.0  0.37962  0.83487  0.12956  1.0000
  C   C276      1.0  0.14459  0.88381  0.20734  1.0000
  C   C277      1.0  0.44900  0.53809  0.19749  1.0000
  C   C278      1.0  0.39867  0.84152  0.15291  1.0000
  C   C279      1.0  0.38102  0.82230  0.10230  1.0000
  N   N18       1.0  0.15489  0.64962  0.09974  1.0000
  C   C280      1.0  0.16482  0.67743  0.11141  1.0000
  C   C281      1.0  0.17784  0.64880  0.08535  1.0000
  C   C282      1.0  0.13465  0.64404  0.07523  1.0000
  C   C283      1.0  0.14286  0.62905  0.12437  1.0000
  C   C284      1.0  0.13456  0.60179  0.11750  1.0000
  C   C285      1.0  0.13820  0.63506  0.15523  1.0000
  C   C286      1.0  0.12293  0.58196  0.14020  1.0000
  C   C287      1.0  0.12622  0.61497  0.17765  1.0000
  C   C288      1.0  0.11862  0.58850  0.17015  1.0000
  H   H321      1.0  0.17431  0.69250  0.09256  1.0000
  H   H322      1.0  0.14828  0.68030  0.12020  1.0000
  H   H323      1.0  0.17991  0.68287  0.13028  1.0000
  H   H324      1.0  0.17169  0.62972  0.07253  1.0000
  H   H325      1.0  0.19269  0.65113  0.10343  1.0000
  H   H326      1.0  0.18817  0.66505  0.06795  1.0000
  H   H327      1.0  0.12760  0.62430  0.06349  1.0000
  H   H328      1.0  0.11667  0.64335  0.08545  1.0000
  H   H329      1.0  0.14223  0.65972  0.05689  1.0000
  H   H330      1.0  0.13599  0.59536  0.09419  1.0000
  H   H331      1.0  0.14307  0.65500  0.16251  1.0000
  H   H332      1.0  0.11615  0.56117  0.13416  1.0000
  H   H333      1.0  0.12232  0.61987  0.20084  1.0000
  H   H334      1.0  0.10881  0.57286  0.18733  1.0000
  C   C289      1.0  0.40152  0.81630  0.09820  1.0000
  H   H335      1.0  0.22119  0.92444  0.21692  1.0000
  C   C290      1.0  0.47409  0.56110  0.19550  1.0000
  H   H336      1.0  0.17978  0.85219  0.14804  1.0000
  H   H337      1.0  0.00121  0.69482  0.13660  1.0000
  H   H338      1.0  0.17937  0.87864  0.12551  1.0000
  C   C291      1.0  0.44420  0.80568  0.08707  1.0000
  C   C292      1.0  0.19991  0.91270  0.21356  1.0000
  H   H339      1.0  0.12307  0.87284  0.20501  1.0000
  C   C293      1.0  0.22365  0.91893  0.15022  1.0000
  H   H340      1.0  0.23771  0.88187  0.16314  1.0000
  C   C294      1.0  0.01790  0.83765  0.48453  1.0000
  C   C295      1.0  0.15622  0.90224  0.23176  1.0000
  N   N19       1.0  0.08599  0.80883  0.27672  1.0000
  C   C296      1.0  0.08532  0.78612  0.25913  1.0000
  C   C297      1.0  0.07134  0.79795  0.30636  1.0000
  C   C298      1.0  0.07142  0.81907  0.25801  1.0000
  C   C299      1.0  0.11336  0.83100  0.28335  1.0000
  C   C300      1.0  0.11733  0.85323  0.30189  1.0000
  C   C301      1.0  0.13665  0.83158  0.27144  1.0000
  C   C302      1.0  0.14284  0.87447  0.30855  1.0000
  C   C303      1.0  0.16215  0.85302  0.27825  1.0000
  C   C304      1.0  0.16524  0.87437  0.29687  1.0000
  H   H341      1.0  0.06451  0.76954  0.25526  1.0000
  H   H342      1.0  0.09416  0.79222  0.23550  1.0000
  H   H343      1.0  0.09575  0.77730  0.27210  1.0000
  H   H344      1.0  0.08254  0.79185  0.32228  1.0000
  H   H345      1.0  0.05133  0.78004  0.30209  1.0000
  H   H346      1.0  0.06746  0.81256  0.31920  1.0000
  H   H347      1.0  0.06941  0.83494  0.27063  1.0000
  H   H348      1.0  0.08180  0.82775  0.23567  1.0000
  H   H349      1.0  0.05072  0.80285  0.25235  1.0000
  H   H350      1.0  0.10068  0.85441  0.31140  1.0000
  H   H351      1.0  0.13575  0.81574  0.25693  1.0000
  H   H352      1.0  0.14516  0.89121  0.32273  1.0000
  H   H353      1.0  0.17971  0.85319  0.26905  1.0000
  H   H354      1.0  0.18502  0.89105  0.30200  1.0000
  C   C305      1.0  0.00250  0.74614  0.47843  1.0000
  C   C306      1.0  0.20776  0.82504  0.00724  1.0000
  H   H355      1.0  0.07308  0.50279  0.08028  1.0000
  H   H356      1.0  0.45855  0.79383  0.13990  1.0000
  H   H357      1.0  0.01521  0.79892  0.42237  1.0000
  C   C307      1.0  0.02397  0.81202  0.44339  1.0000
  H   H358      1.0  0.42601  0.78585  0.08323  1.0000
  C   C308      1.0  0.18175  0.97120  0.48874  1.0000
  C   C309      1.0  0.26403  0.97566  0.23463  1.0000
  H   H359      1.0  0.99951  0.67450  0.10378  1.0000
  H   H360      1.0  0.99512  0.82826  0.40956  1.0000
  H   H361      1.0  0.21819  0.87362  0.03299  1.0000
  H   H362      1.0  0.04375  0.82849  0.43587  1.0000
  N   N20       1.0  0.00641  0.82202  0.45541  1.0000
  H   H363      1.0  0.14392  0.75362  0.00983  1.0000
  C   C310      1.0  0.23505  0.86950  0.03259  1.0000
  S   S87       1.0  0.30574  0.92843  0.01084  1.0000
  H   H364      1.0  0.23612  0.86096  0.05542  1.0000
  H   H365      1.0  0.38532  0.51401  0.05165  1.0000
  H   H366      1.0  0.36474  0.95036  0.02274  1.0000
  H   H367      1.0  0.43321  0.53512  0.18144  1.0000
  C   C311      1.0  0.99642  0.67425  0.12942  1.0000
  H   H368      1.0  0.01139  0.67008  0.14036  1.0000
  N   N21       1.0  0.23256  0.85143  0.00626  1.0000
  H   H369      1.0  0.25363  0.88932  0.03088  1.0000
  C   C312      1.0  0.40706  0.50033  0.02199  1.0000
  C   C313      1.0  0.46450  0.52248  0.24035  1.0000
  H   H370      1.0  0.02426  0.85619  0.42447  1.0000
  S   S88       1.0  0.36193  0.49380  0.12163  1.0000
  H   H371      1.0  0.44625  0.81938  0.06769  1.0000
  C   C314      1.0  0.33555  0.98434  0.01278  1.0000
  H   H372      1.0  0.46156  0.80229  0.08499  1.0000
  H   H373      1.0  0.46063  0.50734  0.25769  1.0000
  C   C315      1.0  0.43238  0.50942  0.00781  1.0000
  H   H374      1.0  0.47035  0.85823  0.10514  1.0000
  H   H375      1.0  0.33456  0.98273  0.03795  1.0000
  H   H376      1.0  0.46474  0.57492  0.03108  1.0000
  H   H377      1.0  0.47271  0.85160  0.14526  1.0000
  H   H378      1.0  0.42474  0.50092  0.22115  1.0000
  H   H379      1.0  0.44244  0.95884  0.02934  1.0000
  C   C316      1.0  0.42886  0.96404  0.01801  1.0000
  C   C317      1.0  0.25601  0.84749  0.00750  1.0000
  C   C318      1.0  0.16134  0.77350  0.00874  1.0000
  C   C319      1.0  0.97936  0.79841  0.45948  1.0000
  H   H380      1.0  0.40985  0.48835  0.11217  1.0000
  H   H381      1.0  0.97956  0.78416  0.47676  1.0000
  H   H382      1.0  0.47202  0.54264  0.00016  1.0000
  H   H383      1.0  0.47682  0.57535  0.17755  1.0000
  Fe  Fe46      1.0  0.17564  0.95619  0.64679  1.0000
  H   H384      1.0  0.06884  0.79949  0.51493  1.0000
  S   S89       1.0  0.14888  0.91133  0.65458  1.0000
  H   H385      1.0  0.06168  0.77563  0.54434  1.0000
  C   C320      1.0  0.32328  0.96108  0.99430  1.0000
  C   C321      1.0  0.05930  0.91213  0.69801  1.0000
  C   C322      1.0  0.08569  0.93444  0.69746  1.0000
  H   H386      1.0  0.03586  0.79643  0.57077  1.0000
  Fe  Fe47      1.0  0.99689  0.79864  0.62922  1.0000
  S   S90       1.0  0.00999  0.76793  0.63067  1.0000
  S   S91       1.0  0.02364  0.84424  0.62879  1.0000
  C   C323      1.0  0.10449  0.96500  0.65454  1.0000
  H   H387      1.0  0.05426  0.95067  0.66364  1.0000
  C   C324      1.0  0.06798  0.96413  0.68218  1.0000
  H   H388      1.0  0.21544  0.81000  0.96377  1.0000
  S   S92       1.0  0.16998  0.97934  0.60836  1.0000
  C   C325      1.0  0.07620  0.79668  0.53771  1.0000
  H   H389      1.0  0.41040  0.97570  0.91802  1.0000
  S   S93       1.0  0.21969  0.97291  0.63818  1.0000
  C   C326      1.0  0.20205  0.80574  0.98320  1.0000
  C   C327      1.0  0.32487  0.96369  0.96159  1.0000
  H   H390      1.0  0.07106  0.86375  0.72600  1.0000
  C   C328      1.0  0.11427  0.89263  0.64610  1.0000
  C   C329      1.0  0.09948  0.86588  0.65596  1.0000
  C   C330      1.0  0.07177  0.85067  0.65050  1.0000
  C   C331      1.0  0.05859  0.86215  0.63522  1.0000
  C   C332      1.0  0.07343  0.88883  0.62513  1.0000
  C   C333      1.0  0.10119  0.90386  0.63010  1.0000
  H   H391      1.0  0.10944  0.85703  0.66840  1.0000
  H   H392      1.0  0.06052  0.83029  0.65879  1.0000
  H   H393      1.0  0.06339  0.89794  0.61350  1.0000
  H   H394      1.0  0.11254  0.92412  0.62165  1.0000
  H   H395      1.0  0.23482  0.85479  0.95584  1.0000
  C   C334      1.0  0.04084  0.86892  0.53936  1.0000
  H   H396      1.0  0.11969  0.85471  0.60006  1.0000
  H   H397      1.0  0.04954  0.88071  0.56037  1.0000
  C   C335      1.0  0.09963  0.84364  0.55427  1.0000
  C   C336      1.0  0.10074  0.85448  0.52426  1.0000
  S   S94       1.0  0.00387  0.74624  0.54257  1.0000
  H   H398      1.0  0.03406  0.87009  0.70785  1.0000
  H   H399      1.0  0.06615  0.78541  0.59690  1.0000
  C   C337      1.0  0.01545  0.84648  0.54035  1.0000
  C   C338      1.0  0.05497  0.87604  0.51146  1.0000
  C   C339      1.0  0.10113  0.90467  0.71787  1.0000
  C   C340      1.0  0.11075  0.98277  0.70697  1.0000
  C   C341      1.0  0.23365  0.86550  0.97693  1.0000
  H   H400      1.0  0.08606  0.84301  0.50655  1.0000
  N   N22       1.0  0.09191  0.96107  0.68559  1.0000
  H   H401      1.0  0.10153  0.80701  0.59340  1.0000
  H   H402      1.0  0.31548  0.94589  0.94700  1.0000
  H   H403      1.0  0.04225  0.91326  0.68983  1.0000
  H   H404      1.0  0.37920  0.98166  0.97931  1.0000
  C   C342      1.0  0.19410  0.98002  0.51812  1.0000
  Fe  Fe48      1.0  0.98490  0.75086  0.58705  1.0000
  C   C343      1.0  0.10648  0.92973  0.70711  1.0000
  N   N23       1.0  0.07812  0.81623  0.56194  1.0000
  C   C344      1.0  0.05247  0.81612  0.56316  1.0000
  C   C345      1.0  0.08204  0.80649  0.59242  1.0000
  H   H405      1.0  0.05347  0.83147  0.57995  1.0000
  H   H406      1.0  0.15509  0.91672  0.53286  1.0000
  H   H407      1.0  0.18235  0.97328  0.53916  1.0000
  H   H408      1.0  0.00166  0.61536  0.94020  1.0000
  H   H409      1.0  0.05689  0.96000  0.70457  1.0000
  H   H410      1.0  0.08090  0.81842  0.61224  1.0000
  C   C346      1.0  0.99047  0.61974  0.95716  1.0000
  C   C347      1.0  0.07504  0.88339  0.71866  1.0000
  H   H411      1.0  0.07345  0.98484  0.67505  1.0000
  H   H412      1.0  0.11748  0.90144  0.72427  1.0000
  C   C348      1.0  0.13966  0.89657  0.53878  1.0000
  H   H413      1.0  0.09586  0.79798  0.53397  1.0000
  C   C349      1.0  0.05421  0.88705  0.70851  1.0000
  C   C350      1.0  0.17919  0.78037  0.98406  1.0000
  C   C351      1.0  0.00406  0.83088  0.51348  1.0000
  H   H414      1.0  0.09106  0.94909  0.63780  1.0000
  H   H415      1.0  0.12718  0.94506  0.70543  1.0000
  H   H416      1.0  0.15335  0.89955  0.58608  1.0000
  C   C352      1.0  0.00139  0.62903  0.98723  1.0000
  H   H417      1.0  0.04664  0.82015  0.54003  1.0000
  C   C353      1.0  0.98750  0.74047  0.50598  1.0000
  H   H418      1.0  0.17537  0.76581  0.96568  1.0000
  C   C354      1.0  0.12067  0.88045  0.51662  1.0000
  C   C355      1.0  0.11916  0.86077  0.57642  1.0000
  C   C356      1.0  0.13877  0.88682  0.56866  1.0000
  H   H419      1.0  0.25688  0.83583  0.98720  1.0000
  H   H420      1.0  0.02076  0.63171  0.99315  1.0000
  H   H421      1.0  0.12347  0.96452  0.65573  1.0000
  H   H422      1.0  0.98440  0.81365  0.51612  1.0000
  H   H423      1.0  0.00461  0.84104  0.56225  1.0000
  H   H424      1.0  0.25164  0.88596  0.97627  1.0000
  H   H425      1.0  0.10334  0.97905  0.73141  1.0000
  H   H426      1.0  0.98669  0.54960  0.91640  1.0000
  H   H427      1.0  0.10937  0.98470  0.64441  1.0000
  H   H428      1.0  0.07470  0.89363  0.51078  1.0000
  H   H429      1.0  0.21576  0.86787  0.97446  1.0000
  C   C357      1.0  0.39356  0.97716  0.98949  1.0000
  C   C358      1.0  0.43754  0.98202  0.99305  1.0000
  H   H430      1.0  0.30926  0.98577  0.74336  1.0000
  H   H431      1.0  0.13103  0.98514  0.70683  1.0000
  H   H432      1.0  0.43703  0.49627  0.99453  1.0000
  C   C359      1.0  0.79630  0.09820  0.23105  1.0000
  H   H433      1.0  0.82225  0.05624  0.22473  1.0000
  H   H434      1.0  0.84418  0.27886  0.00522  1.0000
  H   H435      1.0  0.95488  0.40671  0.08356  1.0000
  H   H436      1.0  0.77815  0.09914  0.23294  1.0000
  C   C360      1.0  0.84456  0.12243  0.23232  1.0000
  Fe  Fe49      1.0  0.93570  0.18753  0.31182  1.0000
  S   S95       1.0  0.89046  0.16158  0.30519  1.0000
  S   S96       1.0  0.94804  0.22425  0.34209  1.0000
  C   C361      1.0  0.82060  0.07410  0.22623  1.0000
  C   C362      1.0  0.85915  0.11518  0.40213  1.0000
  S   S97       1.0  0.74549  0.01770  0.42407  1.0000
  Fe  Fe50      1.0  0.77129  0.00911  0.31791  1.0000
  S   S98       1.0  0.81353  0.03451  0.29911  1.0000
  S   S99       1.0  0.74498  0.02513  0.33412  1.0000
  H   H437      1.0  0.75256  0.00507  0.21987  1.0000
  H   H438      1.0  0.88945  0.18259  0.39032  1.0000
  H   H439      1.0  0.77781  0.99726  0.45716  1.0000
  C   C363      1.0  0.74422  0.01671  0.48784  1.0000
  C   C364      1.0  0.86988  0.12607  0.30623  1.0000
  C   C365      1.0  0.84237  0.11497  0.31164  1.0000
  C   C366      1.0  0.82499  0.08698  0.31072  1.0000
  C   C367      1.0  0.83486  0.06974  0.30366  1.0000
  C   C368      1.0  0.86242  0.08082  0.29868  1.0000
  C   C369      1.0  0.87990  0.10879  0.30031  1.0000
  H   H440      1.0  0.83436  0.12812  0.31610  1.0000
  H   H441      1.0  0.80390  0.07885  0.31472  1.0000
  H   H442      1.0  0.87028  0.06770  0.29314  1.0000
  H   H443      1.0  0.90096  0.11699  0.29590  1.0000
  H   H444      1.0  0.90612  0.17145  0.44035  1.0000
  C   C370      1.0  0.84462  0.09840  0.22854  1.0000
  C   C371      1.0  0.79560  0.07328  0.22733  1.0000
  C   C372      1.0  0.88847  0.15090  0.43785  1.0000
  H   H445      1.0  0.93577  0.33101  0.00332  1.0000
  H   H446      1.0  0.97164  0.18033  0.47925  1.0000
  C   C373      1.0  0.82045  0.12235  0.23352  1.0000
  H   H447      1.0  0.76905  0.04491  0.27606  1.0000
  H   H448      1.0  0.79028  0.18581  0.01067  1.0000
  H   H449      1.0  0.73328  0.02931  0.19924  1.0000
  C   C374      1.0  0.87287  0.16139  0.39062  1.0000
  C   C375      1.0  0.75604  0.04443  0.25665  1.0000
  H   H450      1.0  0.92220  0.16918  0.39075  1.0000
  H   H451      1.0  0.79755  0.01330  0.49063  1.0000
  H   H452      1.0  0.86344  0.09852  0.22865  1.0000
  C   C376      1.0  0.83926  0.06904  0.38178  1.0000
  H   H453      1.0  0.58148  0.01380  0.03465  1.0000
  H   H454      1.0  0.96373  0.40266  0.22170  1.0000
  C   C377      1.0  0.86088  0.09516  0.38420  1.0000
  C   C378      1.0  0.95271  0.37799  0.11704  1.0000
  H   H455      1.0  0.83155  0.12147  0.43103  1.0000
  Fe  Fe51      1.0  0.71166  0.98908  0.30918  1.0000
  H   H456      1.0  0.89355  0.13679  0.44957  1.0000
  H   H457      1.0  0.78275  0.02508  0.19867  1.0000
  C   C379      1.0  0.81302  0.08115  0.41466  1.0000
  C   C380      1.0  0.75251  0.04861  0.20114  1.0000
  H   H458      1.0  0.64400  0.02398  0.00160  1.0000
  H   H459      1.0  0.75111  0.06049  0.26144  1.0000
  H   H460      1.0  0.79850  0.04200  0.39430  1.0000
  H   H461      1.0  0.95489  0.35364  0.15226  1.0000
  C   C381      1.0  0.96145  0.37413  0.14600  1.0000
  H   H462      1.0  0.76269  0.05252  0.17815  1.0000
  N   N24       1.0  0.88131  0.14326  0.40459  1.0000
  H   H463      1.0  0.73684  0.02508  0.25769  1.0000
  N   N25       1.0  0.76971  0.04788  0.22640  1.0000
  C   C382      1.0  0.77236  0.02374  0.22101  1.0000
  H   H464      1.0  0.78345  0.02078  0.24044  1.0000
  C   C383      1.0  0.83452  0.10732  0.41733  1.0000
  H   H465      1.0  0.59937  0.05235  0.00080  1.0000
  S   S100      1.0  0.96084  0.17481  0.33822  1.0000
  H   H466      1.0  0.76210  0.03612  0.48638  1.0000
  H   H467      1.0  0.86324  0.14108  0.23531  1.0000
  C   C384      1.0  0.90594  0.14794  0.38833  1.0000
  H   H468      1.0  0.85607  0.16119  0.40343  1.0000
  C   C385      1.0  0.73133  0.00287  0.46032  1.0000
  H   H469      1.0  0.82055  0.14108  0.23715  1.0000
  Fe  Fe52      1.0  0.97472  0.21228  0.36713  1.0000
  C   C386      1.0  0.56983  0.01373  0.01477  1.0000
  H   H470      1.0  0.74693  0.06428  0.20517  1.0000
  H   H471      1.0  0.91382  0.13535  0.39800  1.0000
  H   H472      1.0  0.94000  0.36088  0.10233  1.0000
  C   C387      1.0  0.97498  0.20054  0.48120  1.0000
  H   H473      1.0  0.87846  0.09922  0.37117  1.0000
  C   C388      1.0  0.96105  0.40379  0.10639  1.0000
  H   H474      1.0  0.79421  0.07556  0.42610  1.0000
  H   H475      1.0  0.84074  0.05424  0.36735  1.0000
  H   H476      1.0  0.90251  0.14399  0.36282  1.0000
  H   H477      1.0  0.81144  0.00367  0.45872  1.0000
  H   H478      1.0  0.82657  0.23159  0.00551  1.0000
  C   C389      1.0  0.79314  0.99734  0.47285  1.0000
  C   C390      1.0  0.81537  0.06211  0.39682  1.0000
  Fe  Fe53      1.0  0.73695  0.99842  0.37571  1.0000
  C   C391      1.0  0.54544  0.99094  0.00833  1.0000
  H   H479      1.0  0.95552  0.35553  0.20833  1.0000
  S   S101      1.0  0.96762  0.20998  0.27564  1.0000
  H   H480      1.0  0.86622  0.15547  0.36598  1.0000
  S   S102      1.0  0.97639  0.20007  0.41735  1.0000
  S   S103      1.0  0.67839  0.98940  0.28027  1.0000
  H   H481      1.0  0.87211  0.15106  0.45126  1.0000
  C   C392      1.0  0.56537  0.03586  0.96815  1.0000
  H   H482      1.0  0.76271  0.44501  0.86337  1.0000
  H   H483      1.0  0.73589  0.46043  0.84425  1.0000
  Fe  Fe54      1.0  0.93900  0.18661  0.64081  1.0000
  S   S104      1.0  0.89837  0.15475  0.65751  1.0000
  S   S105      1.0  0.94690  0.22869  0.63422  1.0000
  Fe  Fe55      1.0  0.78729  0.01455  0.61198  1.0000
  S   S106      1.0  0.75149  0.01982  0.61478  1.0000
  S   S107      1.0  0.82592  0.04358  0.58832  1.0000
  C   C393      1.0  0.57986  0.03587  0.99499  1.0000
  Fe  Fe56      1.0  0.90113  0.31877  0.81866  1.0000
  S   S108      1.0  0.88303  0.29202  0.86024  1.0000
  S   S109      1.0  0.91008  0.30607  0.77112  1.0000
  Fe  Fe57      1.0  0.89062  0.36325  0.84570  1.0000
  S   S110      1.0  0.87131  0.33889  0.88864  1.0000
  S   S111      1.0  0.90133  0.40655  0.83243  1.0000
  Fe  Fe58      1.0  0.90522  0.33004  0.88959  1.0000
  S   S112      1.0  0.91995  0.32866  0.93916  1.0000
  Fe  Fe59      1.0  0.85045  0.30241  0.85697  1.0000
  S   S113      1.0  0.80544  0.27329  0.86246  1.0000
  S   S114      1.0  0.92579  0.35610  0.84800  1.0000
  S   S115      1.0  0.86725  0.32748  0.81400  1.0000
  C   C394      1.0  0.53076  0.99024  0.98225  1.0000
  Fe  Fe60      1.0  0.65003  0.05859  0.82099  1.0000
  S   S116      1.0  0.67990  0.07173  0.85984  1.0000
  S   S117      1.0  0.64717  0.02829  0.78348  1.0000
  Fe  Fe61      1.0  0.62275  0.08822  0.85049  1.0000
  S   S118      1.0  0.65241  0.10385  0.89051  1.0000
  S   S119      1.0  0.59066  0.10123  0.85065  1.0000
  Fe  Fe62      1.0  0.68448  0.11289  0.85480  1.0000
  S   S120      1.0  0.72919  0.14531  0.85513  1.0000
  Fe  Fe63      1.0  0.64577  0.06183  0.89233  1.0000
  S   S121      1.0  0.64412  0.04401  0.94053  1.0000
  S   S122      1.0  0.65547  0.09997  0.81417  1.0000
  S   S123      1.0  0.61504  0.04587  0.85392  1.0000
  C   C395      1.0  0.52588  0.27457  0.83407  1.0000
  C   C396      1.0  0.60159  0.08186  0.95573  1.0000
  C   C397      1.0  0.53723  0.46728  0.86137  1.0000
  C   C398      1.0  0.51121  0.45646  0.87356  1.0000
  H   H484      1.0  0.54563  0.27696  0.83183  1.0000
  C   C399      1.0  0.49700  0.41266  0.84925  1.0000
  C   C400      1.0  0.52301  0.42350  0.83703  1.0000
  C   C401      1.0  0.54297  0.45041  0.84320  1.0000
  H   H485      1.0  0.97400  0.20005  0.53163  1.0000
  H   H486      1.0  0.97336  0.36955  0.91775  1.0000
  C   C402      1.0  0.97631  0.21167  0.51099  1.0000
  C   C403      1.0  0.69512  0.02926  0.59962  1.0000
  C   C404      1.0  0.49930  0.06932  0.85933  1.0000
  C   C405      1.0  0.51742  0.09655  0.85468  1.0000
  C   C406      1.0  0.54509  0.10577  0.85211  1.0000
  C   C407      1.0  0.55526  0.08804  0.85385  1.0000
  C   C408      1.0  0.53715  0.06078  0.85851  1.0000
  C   C409      1.0  0.50950  0.05159  0.86145  1.0000
  H   H487      1.0  0.52819  0.34616  0.81402  1.0000
  H   H488      1.0  0.55874  0.12689  0.84848  1.0000
  H   H489      1.0  0.54436  0.04670  0.85935  1.0000
  H   H490      1.0  0.49580  0.03045  0.86474  1.0000
  C   C410      1.0  0.78463  0.23775  0.85798  1.0000
  C   C411      1.0  0.79503  0.22045  0.85500  1.0000
  C   C412      1.0  0.77774  0.19236  0.85392  1.0000
  C   C413      1.0  0.74982  0.18105  0.85565  1.0000
  C   C414      1.0  0.73945  0.19837  0.85850  1.0000
  C   C415      1.0  0.75674  0.22645  0.85980  1.0000
  H   H491      1.0  0.81639  0.22865  0.85393  1.0000
  H   H492      1.0  0.78608  0.17924  0.85189  1.0000
  H   H493      1.0  0.71810  0.19014  0.85994  1.0000
  H   H494      1.0  0.74838  0.23952  0.86237  1.0000
  C   C416      1.0  0.87176  0.46748  0.85062  1.0000
  H   H495      1.0  0.91814  0.35814  0.77530  1.0000
  C   C417      1.0  0.90253  0.45512  0.82654  1.0000
  C   C418      1.0  0.88909  0.42933  0.83980  1.0000
  C   C419      1.0  0.86690  0.42282  0.85861  1.0000
  C   C420      1.0  0.85828  0.44168  0.86381  1.0000
  H   H496      1.0  0.95055  0.11937  0.61924  1.0000
  H   H497      1.0  0.91969  0.46054  0.81191  1.0000
  H   H498      1.0  0.85627  0.40319  0.86905  1.0000
  C   C421      1.0  0.89434  0.08094  0.68444  1.0000
  H   H499      1.0  0.64548  0.99003  0.73853  1.0000
  C   C422      1.0  0.95138  0.34845  0.95842  1.0000
  H   H500      1.0  0.79578  0.45729  0.87755  1.0000
  S   S124      1.0  0.78236  0.99839  0.66038  1.0000
  H   H501      1.0  0.61779  0.07672  0.95713  1.0000
  H   H502      1.0  0.74023  0.05993  0.75023  1.0000
  H   H503      1.0  0.85664  0.25360  0.93048  1.0000
  H   H504      1.0  0.67668  0.01894  0.91516  1.0000
  C   C423      1.0  0.67300  0.02677  0.76224  1.0000
  C   C424      1.0  0.66619  0.00528  0.74128  1.0000
  H   H505      1.0  0.93525  0.13604  0.63844  1.0000
  C   C425      1.0  0.71272  0.02332  0.72627  1.0000
  C   C426      1.0  0.71956  0.04451  0.74770  1.0000
  C   C427      1.0  0.69990  0.04628  0.76553  1.0000
  C   C428      1.0  0.81193  0.24000  0.96211  1.0000
  C   C429      1.0  0.93889  0.46204  0.89826  1.0000
  H   H506      1.0  0.70554  0.06291  0.78156  1.0000
  C   C430      1.0  0.65630  0.05083  0.69381  1.0000
  C   C431      1.0  0.62121  0.01334  0.95882  1.0000
  H   H507      1.0  0.68964  0.04334  0.58867  1.0000
  C   C432      1.0  0.87807  0.12459  0.63691  1.0000
  C   C433      1.0  0.85366  0.10575  0.65002  1.0000
  C   C434      1.0  0.83729  0.08107  0.63496  1.0000
  C   C435      1.0  0.84537  0.07500  0.60678  1.0000
  C   C436      1.0  0.86965  0.09395  0.59344  1.0000
  C   C437      1.0  0.88591  0.11878  0.60835  1.0000
  H   H508      1.0  0.84742  0.11013  0.67203  1.0000
  H   H509      1.0  0.81861  0.06659  0.64540  1.0000
  H   H510      1.0  0.87589  0.08937  0.57156  1.0000
  H   H511      1.0  0.90442  0.13335  0.59774  1.0000
  C   C438      1.0  0.95334  0.34513  0.99071  1.0000
  C   C439      1.0  0.94576  0.27856  0.71066  1.0000
  C   C440      1.0  0.92962  0.28804  0.72396  1.0000
  C   C441      1.0  0.93189  0.29530  0.75576  1.0000
  C   C442      1.0  0.95099  0.29349  0.77401  1.0000
  H   H512      1.0  0.75109  0.06925  0.87086  1.0000
  H   H513      1.0  0.73411  0.04360  0.82149  1.0000
  C   C443      1.0  0.62635  0.00884  0.98964  1.0000
  H   H514      1.0  0.93706  0.45064  0.87720  1.0000
  N   N26       1.0  0.83417  0.26758  0.95686  1.0000
  H   H515      1.0  0.80794  0.99038  0.52865  1.0000
  C   C444      1.0  0.95849  0.40699  0.78472  1.0000
  C   C445      1.0  0.88576  0.04753  0.63288  1.0000
  N   N27       1.0  0.57585  0.05835  0.94583  1.0000
  H   H516      1.0  0.52868  0.01058  0.94206  1.0000
  H   H517      1.0  0.53751  0.05238  0.93035  1.0000
  H   H518      1.0  0.90459  0.36439  0.74098  1.0000
  S   S125      1.0  0.97102  0.19769  0.67681  1.0000
  C   C446      1.0  0.77760  0.45923  0.88042  1.0000
  H   H519      1.0  0.50638  0.23146  0.83607  1.0000
  C   C447      1.0  0.54045  0.01234  0.96244  1.0000
  H   H520      1.0  0.76964  0.45229  0.90427  1.0000
  H   H521      1.0  0.92715  0.42439  0.76250  1.0000
  H   H522      1.0  0.95801  0.08804  0.69119  1.0000
  C   C448      1.0  0.71491  0.04461  0.89609  1.0000
  C   C449      1.0  0.68892  0.02285  0.89462  1.0000
  H   H523      1.0  0.95673  0.35858  0.76206  1.0000
  C   C450      1.0  0.72163  0.03747  0.84212  1.0000
  C   C451      1.0  0.79045  0.19766  0.99103  1.0000
  H   H524      1.0  0.95311  0.29908  0.79845  1.0000
  H   H525      1.0  0.75413  0.16563  0.97118  1.0000
  C   C452      1.0  0.91604  0.08740  0.66390  1.0000
  C   C453      1.0  0.82372  0.28627  0.95227  1.0000
  H   H526      1.0  0.77866  0.48139  0.82550  1.0000
  C   C454      1.0  0.67857  0.00746  0.86680  1.0000
  C   C455      1.0  0.47841  0.24566  0.83930  1.0000
  H   H527      1.0  0.94866  0.41350  0.80239  1.0000
  H   H528      1.0  0.63617  0.00986  0.84637  1.0000
  H   H529      1.0  0.59456  0.04139  0.91790  1.0000
  N   N28       1.0  0.94289  0.11108  0.66863  1.0000
  H   H530      1.0  0.95677  0.43775  0.73954  1.0000
  C   C456      1.0  0.68776  0.04335  0.66438  1.0000
  C   C457      1.0  0.86506  0.04162  0.65361  1.0000
  H   H531      1.0  0.69823  0.07033  0.70377  1.0000
  N   N29       1.0  0.94259  0.39738  0.75550  1.0000
  H   H532      1.0  0.86593  0.28793  0.92396  1.0000
  H   H533      1.0  0.90400  0.37930  0.77780  1.0000
  C   C458      1.0  0.84871  0.26763  0.92840  1.0000
  C   C459      1.0  0.68226  0.99265  0.63537  1.0000
  S   S126      1.0  0.96540  0.18856  0.60127  1.0000
  C   C460      1.0  0.94992  0.12909  0.64146  1.0000
  C   C461      1.0  0.51738  0.34409  0.83622  1.0000
  H   H534      1.0  0.88198  0.03491  0.61242  1.0000
  H   H535      1.0  0.74481  0.01629  0.53824  1.0000
  H   H536      1.0  0.89593  0.09330  0.70430  1.0000
  C   C462      1.0  0.96746  0.28443  0.76056  1.0000
  H   H537      1.0  0.56269  0.45823  0.83343  1.0000
  H   H538      1.0  0.48470  0.31513  0.78865  1.0000
  H   H539      1.0  0.56436  0.08539  0.92541  1.0000
  C   C463      1.0  0.95666  0.38941  0.73263  1.0000
  H   H540      1.0  0.52776  0.41106  0.82243  1.0000
  H   H541      1.0  0.58868  0.06544  0.89801  1.0000
  H   H542      1.0  0.92487  0.41273  0.72327  1.0000
  H   H543      1.0  0.85285  0.05393  0.69480  1.0000
  C   C464      1.0  0.93955  0.45156  0.92718  1.0000
  H   H544      1.0  0.78998  0.23844  0.92006  1.0000
  H   H545      1.0  0.71419  0.04146  0.61242  1.0000
  H   H546      1.0  0.75446  0.19227  0.92601  1.0000
  H   H547      1.0  0.53085  0.34731  0.85635  1.0000
  H   H548      1.0  0.68941  0.00590  0.81786  1.0000
  C   C465      1.0  0.93776  0.41904  0.74449  1.0000
  C   C466      1.0  0.89404  0.47406  0.83194  1.0000
  C   C467      1.0  0.96478  0.27662  0.72891  1.0000
  C   C468      1.0  0.79068  0.22773  0.94024  1.0000
  H   H549      1.0  0.54052  0.31637  0.83266  1.0000
  C   C469      1.0  0.49137  0.42941  0.86781  1.0000
  H   H550      1.0  0.70811  0.04745  0.66236  1.0000
  C   C470      1.0  0.68586  0.00351  0.72346  1.0000
  H   H551      1.0  0.59386  0.99664  0.92012  1.0000
  H   H552      1.0  0.94055  0.11505  0.71851  1.0000
  S   S127      1.0  0.73854  0.02310  0.70345  1.0000
  H   H553      1.0  0.94269  0.45795  0.97677  1.0000
  C   C471      1.0  0.64092  0.01940  0.65032  1.0000
  C   C472      1.0  0.63260  0.99652  0.86662  1.0000
  C   C473      1.0  0.97515  0.36039  0.71860  1.0000
  H   H554      1.0  0.65208  0.06031  0.71329  1.0000
  H   H555      1.0  0.81082  0.28528  0.97207  1.0000
  H   H556      1.0  0.84540  0.02457  0.64916  1.0000
  C   C474      1.0  0.77003  0.18623  0.96888  1.0000
  C   C475      1.0  0.47879  0.31766  0.86738  1.0000
  H   H557      1.0  0.69967  0.01884  0.58052  1.0000
  Fe  Fe64      1.0  0.74428  0.00049  0.66217  1.0000
  C   C476      1.0  0.63568  0.03243  0.67474  1.0000
  C   C477      1.0  0.86934  0.05826  0.67931  1.0000
  H   H558      1.0  0.61544  0.02798  0.67931  1.0000
  H   H559      1.0  0.94369  0.27302  0.68620  1.0000
  H   H560      1.0  0.84099  0.43618  0.87822  1.0000
  C   C478      1.0  0.94499  0.12714  0.69692  1.0000
  H   H561      1.0  0.51014  0.11056  0.85301  1.0000
  C   C479      1.0  0.66725  0.02444  0.64447  1.0000
  H   H562      1.0  0.63579  0.00876  0.88807  1.0000
  C   C480      1.0  0.69570  0.01561  0.84040  1.0000
  N   N30       1.0  0.88137  0.20003  0.73355  1.0000
  C   C481      1.0  0.90631  0.21431  0.75224  1.0000
  C   C482      1.0  0.87532  0.17185  0.72960  1.0000
  C   C483      1.0  0.88629  0.21210  0.70208  1.0000
  C   C484      1.0  0.85976  0.20259  0.74897  1.0000
  C   C485      1.0  0.83482  0.18008  0.75716  1.0000
  C   C486      1.0  0.86321  0.22833  0.75594  1.0000
  C   C487      1.0  0.81499  0.18338  0.77190  1.0000
  C   C488      1.0  0.84333  0.23138  0.77075  1.0000
  C   C489      1.0  0.81925  0.20895  0.77870  1.0000
  H   H563      1.0  0.91347  0.23606  0.75466  1.0000
  H   H564      1.0  0.90341  0.20610  0.77624  1.0000
  H   H565      1.0  0.92307  0.21291  0.74123  1.0000
  H   H566      1.0  0.89238  0.17082  0.71896  1.0000
  H   H567      1.0  0.85808  0.16030  0.71354  1.0000
  H   H568      1.0  0.87123  0.16141  0.75238  1.0000
  H   H569      1.0  0.89271  0.23378  0.70306  1.0000
  H   H570      1.0  0.90227  0.21031  0.68957  1.0000
  H   H571      1.0  0.86798  0.20204  0.68733  1.0000
  H   H572      1.0  0.83006  0.15971  0.75238  1.0000
  H   H573      1.0  0.88133  0.24643  0.74997  1.0000
  H   H574      1.0  0.79610  0.16601  0.77809  1.0000
  H   H575      1.0  0.84667  0.25134  0.77604  1.0000
  H   H576      1.0  0.80379  0.21140  0.79003  1.0000
  H   H577      1.0  0.84014  0.30742  0.95008  1.0000
  H   H578      1.0  0.91512  0.28961  0.70950  1.0000
  C   C490      1.0  0.55642  0.06782  0.94137  1.0000
  H   H579      1.0  0.50625  0.46914  0.88740  1.0000
  C   C491      1.0  0.71352  0.47637  0.86563  1.0000
  H   H580      1.0  0.83584  0.26163  0.90720  1.0000
  Fe  Fe65      1.0  0.97645  0.23168  0.59756  1.0000
  H   H581      1.0  0.60861  0.09856  0.93867  1.0000
  N   N31       1.0  0.49246  0.31772  0.83804  1.0000
  C   C492      1.0  0.58032  0.04898  0.91537  1.0000
  H   H582      1.0  0.81183  0.28200  0.93042  1.0000
  C   C493      1.0  0.73122  0.05193  0.86988  1.0000
  C   C494      1.0  0.73631  0.47399  0.86212  1.0000
  C   C495      1.0  0.91626  0.37385  0.76264  1.0000
  H   H583      1.0  0.86426  0.26675  0.98599  1.0000
  H   H584      1.0  0.96118  0.41714  0.69503  1.0000
  H   H585      1.0  0.51311  0.36102  0.83687  1.0000
  C   C496      1.0  0.49689  0.29447  0.83752  1.0000
  C   C497      1.0  0.68231  0.05647  0.68841  1.0000
  H   H586      1.0  0.96114  0.39117  0.79608  1.0000
  C   C498      1.0  0.91092  0.06998  0.63792  1.0000
  C   C499      1.0  0.73440  0.00554  0.51729  1.0000
  C   C500      1.0  0.65039  0.99246  0.59959  1.0000
  H   H587      1.0  0.86996  0.29940  0.97831  1.0000
  H   H588      1.0  0.96464  0.09244  0.65006  1.0000
  C   C501      1.0  0.81122  0.22413  0.98779  1.0000
  C   C502      1.0  0.77017  0.20125  0.94352  1.0000
  H   H589      1.0  0.72207  0.05643  0.91739  1.0000
  H   H590      1.0  0.59979  0.08996  0.97870  1.0000
  C   C503      1.0  0.94193  0.46611  0.95432  1.0000
  C   C504      1.0  0.50383  0.24891  0.83644  1.0000
  H   H591      1.0  0.93826  0.43211  0.92851  1.0000
  H   H592      1.0  0.92623  0.07380  0.62100  1.0000
  H   H593      1.0  0.93124  0.13548  0.69542  1.0000
  H   H594      1.0  0.56169  0.03257  0.90496  1.0000
  H   H595      1.0  0.69632  0.46503  0.85062  1.0000
  H   H596      1.0  0.55152  0.07394  0.96401  1.0000
  C   C505      1.0  0.96242  0.36876  0.73991  1.0000
  C   C506      1.0  0.52261  0.29713  0.83458  1.0000
  H   H597      1.0  0.62396  0.00520  0.63673  1.0000
  H   H598      1.0  0.96993  0.14721  0.64435  1.0000
  N   N32       1.0  0.67342  0.00993  0.62010  1.0000
  C   C507      1.0  0.97440  0.36675  0.94253  1.0000
  C   C508      1.0  0.85381  0.27844  0.98292  1.0000
  H   H599      1.0  0.70054  0.00443  0.64976  1.0000
  H   H600      1.0  0.96545  0.14467  0.69987  1.0000
  H   H601      1.0  0.64256  0.00420  0.58750  1.0000
  H   H602      1.0  0.48989  0.31695  0.88822  1.0000
  C   C509      1.0  0.96303  0.10238  0.67163  1.0000
  C   C510      1.0  0.96470  0.40135  0.70274  1.0000
  C   C511      1.0  0.59830  0.99354  0.94370  1.0000
  H   H603      1.0  0.68023  0.98687  0.70754  1.0000
  H   H604      1.0  0.53866  0.63293  0.21584  1.0000
  H   H605      1.0  0.69791  0.96711  0.44148  1.0000
  S   S128      1.0  0.94576  0.72264  0.41017  1.0000
  H   H606      1.0  0.92593  0.71493  0.47275  1.0000
  H   H607      1.0  0.94745  0.63940  0.18173  1.0000
  H   H608      1.0  0.57296  0.78394  0.13801  1.0000
  Fe  Fe66      1.0  0.95148  0.77441  0.31669  1.0000
  S   S129      1.0  0.92067  0.78414  0.29696  1.0000
  S   S130      1.0  0.94711  0.73336  0.31741  1.0000
  Fe  Fe67      1.0  0.72740  0.75539  0.37523  1.0000
  S   S131      1.0  0.77076  0.78634  0.37749  1.0000
  S   S132      1.0  0.70326  0.74276  0.41996  1.0000
  Fe  Fe68      1.0  0.72710  0.74995  0.30348  1.0000
  S   S133      1.0  0.77115  0.78036  0.30183  1.0000
  S   S134      1.0  0.71033  0.73628  0.25380  1.0000
  Fe  Fe69      1.0  0.77623  0.75964  0.34331  1.0000
  S   S135      1.0  0.80554  0.74507  0.35469  1.0000
  Fe  Fe70      1.0  0.76167  0.80414  0.33613  1.0000
  S   S136      1.0  0.78070  0.84898  0.32918  1.0000
  S   S137      1.0  0.73291  0.72742  0.34282  1.0000
  S   S138      1.0  0.71765  0.77513  0.33594  1.0000
  C   C512      1.0  0.49527  0.56552  0.21592  1.0000
  H   H609      1.0  0.53298  0.57195  0.17602  1.0000
  C   C513      1.0  0.51438  0.53380  0.03127  1.0000
  Fe  Fe71      1.0  0.72946  0.95143  0.33461  1.0000
  S   S139      1.0  0.71132  0.90633  0.33678  1.0000
  S   S140      1.0  0.70102  0.96427  0.35286  1.0000
  Fe  Fe72      1.0  0.57942  0.91709  0.12504  1.0000
  S   S141      1.0  0.57926  0.89718  0.07894  1.0000
  S   S142      1.0  0.61887  0.93129  0.15227  1.0000
  Fe  Fe73      1.0  0.52115  0.90491  0.11456  1.0000
  S   S143      1.0  0.51834  0.88427  0.06894  1.0000
  Fe  Fe74      1.0  0.53861  0.86420  0.09290  1.0000
  S   S144      1.0  0.52047  0.81869  0.08358  1.0000
  Fe  Fe75      1.0  0.55933  0.91896  0.05879  1.0000
  C   C514      1.0  0.56095  0.71412  0.02870  1.0000
  S   S145      1.0  0.53926  0.88294  0.13959  1.0000
  S   S146      1.0  0.56164  0.94077  0.10372  1.0000
  Fe  Fe76      1.0  0.57529  0.66019  0.14596  1.0000
  S   S147      1.0  0.58971  0.69153  0.10872  1.0000
  S   S148      1.0  0.59394  0.66166  0.19404  1.0000
  Fe  Fe77      1.0  0.52094  0.62466  0.11180  1.0000
  S   S149      1.0  0.53185  0.65506  0.07337  1.0000
  Fe  Fe78      1.0  0.57200  0.65743  0.07366  1.0000
  S   S150      1.0  0.58902  0.65957  0.02472  1.0000
  Fe  Fe79      1.0  0.54888  0.68752  0.11080  1.0000
  S   S151      1.0  0.55314  0.72956  0.11676  1.0000
  S   S152      1.0  0.56081  0.62623  0.11066  1.0000
  S   S153      1.0  0.53479  0.65682  0.14943  1.0000
  H   H610      1.0  0.62496  0.75870  0.04778  1.0000
  C   C515      1.0  0.96777  0.65384  0.17322  1.0000
  H   H611      1.0  0.60432  0.62211  0.05155  1.0000
  C   C516      1.0  0.75619  0.92659  0.41508  1.0000
  C   C517      1.0  0.86540  0.73803  0.44770  1.0000
  C   C518      1.0  0.94740  0.72425  0.47426  1.0000
  C   C519      1.0  0.53005  0.79433  0.09327  1.0000
  C   C520      1.0  0.55054  0.79960  0.11454  1.0000
  C   C521      1.0  0.55713  0.77954  0.12150  1.0000
  C   C522      1.0  0.54354  0.75394  0.10726  1.0000
  C   C523      1.0  0.52312  0.74872  0.08593  1.0000
  C   C524      1.0  0.51637  0.76868  0.07918  1.0000
  H   H612      1.0  0.60829  0.72286  0.04761  1.0000
  C   C525      1.0  0.60768  0.62308  0.02665  1.0000
  H   H613      1.0  0.51241  0.72925  0.07473  1.0000
  H   H614      1.0  0.80655  0.68680  0.44613  1.0000
  C   C526      1.0  0.76117  0.94574  0.43833  1.0000
  H   H615      1.0  0.59602  0.81908  0.06949  1.0000
  C   C527      1.0  0.66086  0.95228  0.19418  1.0000
  C   C528      1.0  0.63534  0.94855  0.18745  1.0000
  C   C529      1.0  0.62371  0.95796  0.20912  1.0000
  S   S154      1.0  0.73858  0.97482  0.29010  1.0000
  H   H616      1.0  0.54640  0.71070  0.00987  1.0000
  H   H617      1.0  0.67010  0.94514  0.17762  1.0000
  C   C530      1.0  0.89575  0.74421  0.48999  1.0000
  H   H618      1.0  0.56144  0.61047  0.23275  1.0000
  C   C531      1.0  0.76157  0.86501  0.33274  1.0000
  C   C532      1.0  0.73487  0.85091  0.34189  1.0000
  C   C533      1.0  0.71972  0.86387  0.34308  1.0000
  C   C534      1.0  0.73129  0.89113  0.33572  1.0000
  C   C535      1.0  0.75815  0.90545  0.32727  1.0000
  C   C536      1.0  0.77320  0.89235  0.32564  1.0000
  H   H619      1.0  0.72589  0.83002  0.34810  1.0000
  H   H620      1.0  0.69901  0.85277  0.34997  1.0000
  H   H621      1.0  0.76727  0.92649  0.32163  1.0000
  H   H622      1.0  0.79391  0.90341  0.31869  1.0000
  C   C537      1.0  0.67744  0.71635  0.23807  1.0000
  C   C538      1.0  0.67364  0.71626  0.20555  1.0000
  C   C539      1.0  0.64821  0.70033  0.19176  1.0000
  C   C540      1.0  0.62620  0.68376  0.21026  1.0000
  C   C541      1.0  0.62998  0.68394  0.24280  1.0000
  C   C542      1.0  0.65532  0.70027  0.25666  1.0000
  H   H623      1.0  0.69054  0.72845  0.19083  1.0000
  H   H624      1.0  0.64578  0.70034  0.16673  1.0000
  H   H625      1.0  0.61321  0.67125  0.25743  1.0000
  H   H626      1.0  0.65780  0.70003  0.28165  1.0000
  C   C543      1.0  0.88965  0.77480  0.31498  1.0000
  C   C544      1.0  0.87994  0.75644  0.33944  1.0000
  C   C545      1.0  0.85424  0.74777  0.35140  1.0000
  C   C546      1.0  0.83822  0.75777  0.33963  1.0000
  C   C547      1.0  0.84823  0.77672  0.31580  1.0000
  C   C548      1.0  0.87372  0.78496  0.30334  1.0000
  H   H627      1.0  0.89190  0.74829  0.34839  1.0000
  H   H628      1.0  0.84655  0.73278  0.36935  1.0000
  H   H629      1.0  0.83631  0.78484  0.30669  1.0000
  H   H630      1.0  0.88112  0.79921  0.28447  1.0000
  C   C549      1.0  0.80730  0.70466  0.43518  1.0000
  H   H631      1.0  0.72908  0.86977  0.47641  1.0000
  C   C550      1.0  0.70812  0.97787  0.46251  1.0000
  H   H632      1.0  0.54669  0.59966  0.01234  1.0000
  C   C551      1.0  0.72005  0.74453  0.45522  1.0000
  C   C552      1.0  0.74719  0.75268  0.45527  1.0000
  H   H633      1.0  0.52035  0.59294  0.16276  1.0000
  H   H634      1.0  0.75810  0.75781  0.43366  1.0000
  C   C553      1.0  0.59300  0.78292  0.05007  1.0000
  Fe  Fe80      1.0  0.96536  0.74546  0.36587  1.0000
  C   C554      1.0  0.96242  0.73025  0.44671  1.0000
  H   H635      1.0  0.97152  0.78673  0.43732  1.0000
  H   H636      1.0  0.90118  0.67952  0.08160  1.0000
  H   H637      1.0  0.58238  0.81423  0.24729  1.0000
  H   H638      1.0  0.97409  0.67412  0.18314  1.0000
  H   H639      1.0  0.55309  0.60784  0.17864  1.0000
  H   H640      1.0  0.94252  0.61170  0.13223  1.0000
  H   H641      1.0  0.83418  0.75667  0.41994  1.0000
  H   H642      1.0  0.51333  0.50197  0.00501  1.0000
  C   C555      1.0  0.79822  0.72098  0.48248  1.0000
  N   N33       1.0  0.52173  0.58997  0.21292  1.0000
  C   C556      1.0  0.60502  0.74039  0.04954  1.0000
  N   N34       1.0  0.78182  0.70810  0.26480  1.0000
  C   C557      1.0  0.77027  0.69516  0.23428  1.0000
  C   C558      1.0  0.76251  0.69197  0.28947  1.0000
  C   C559      1.0  0.78428  0.73502  0.26552  1.0000
  C   C560      1.0  0.80848  0.71069  0.26875  1.0000
  C   C561      1.0  0.82946  0.72658  0.24783  1.0000
  C   C562      1.0  0.81450  0.69775  0.29300  1.0000
  C   C563      1.0  0.85493  0.72977  0.25137  1.0000
  C   C564      1.0  0.83995  0.70075  0.29599  1.0000
  C   C565      1.0  0.86015  0.71686  0.27537  1.0000
  H   H643      1.0  0.76872  0.67511  0.23248  1.0000
  H   H644      1.0  0.74991  0.69237  0.23082  1.0000
  H   H645      1.0  0.78250  0.70729  0.21434  1.0000
  H   H646      1.0  0.75852  0.67095  0.28946  1.0000
  H   H647      1.0  0.74287  0.69092  0.28619  1.0000
  H   H648      1.0  0.76982  0.70103  0.31305  1.0000
  H   H649      1.0  0.76443  0.73376  0.26374  1.0000
  H   H650      1.0  0.79390  0.74571  0.28767  1.0000
  H   H651      1.0  0.79640  0.74795  0.24605  1.0000
  H   H652      1.0  0.82652  0.73713  0.22889  1.0000
  H   H653      1.0  0.80014  0.68574  0.31047  1.0000
  H   H654      1.0  0.87102  0.74294  0.23604  1.0000
  H   H655      1.0  0.84441  0.69137  0.31513  1.0000
  H   H656      1.0  0.88018  0.72014  0.27863  1.0000
  H   H657      1.0  0.92827  0.66546  0.05043  1.0000
  C   C566      1.0  0.93437  0.66927  0.14075  1.0000
  H   H658      1.0  0.82935  0.76945  0.45626  1.0000
  C   C567      1.0  0.94994  0.66076  0.12355  1.0000
  C   C568      1.0  0.79188  0.93458  0.46348  1.0000
  C   C569      1.0  0.54186  0.59173  0.23582  1.0000
  S   S155      1.0  0.48725  0.58016  0.10985  1.0000
  S   S156      1.0  0.96707  0.78517  0.36555  1.0000
  C   C570      1.0  0.58755  0.80404  0.05109  1.0000
  H   H659      1.0  0.50051  0.76426  0.06271  1.0000
  C   C571      1.0  0.63735  0.97073  0.23704  1.0000
  H   H660      1.0  0.86242  0.73773  0.42279  1.0000
  C   C572      1.0  0.48971  0.54546  0.23857  1.0000
  H   H661      1.0  0.60418  0.95538  0.20438  1.0000
  S   S157      1.0  0.56290  0.93461  0.00871  1.0000
  C   C573      1.0  0.84474  0.73358  0.46896  1.0000
  H   H662      1.0  0.53554  0.59218  0.26025  1.0000
  N   N35       1.0  0.96896  0.65411  0.13855  1.0000
  H   H663      1.0  0.74239  0.92349  0.39621  1.0000
  H   H664      1.0  0.56535  0.82120  0.03121  1.0000
  H   H665      1.0  0.69396  0.96750  0.22685  1.0000
  H   H666      1.0  0.62354  0.59607  0.02735  1.0000
  H   H667      1.0  0.50224  0.52065  0.04981  1.0000
  C   C574      1.0  0.91461  0.67431  0.09322  1.0000
  C   C575      1.0  0.58144  0.76248  0.02676  1.0000
  H   H668      1.0  0.51863  0.56928  0.05407  1.0000
  H   H669      1.0  0.93546  0.67126  0.16587  1.0000
  C   C576      1.0  0.67444  0.96492  0.22217  1.0000
  N   N36       1.0  0.64007  0.89804  0.29389  1.0000
  C   C577      1.0  0.63154  0.91726  0.30455  1.0000
  C   C578      1.0  0.64108  0.88341  0.32182  1.0000
  C   C579      1.0  0.66750  0.91330  0.28137  1.0000
  C   C580      1.0  0.62195  0.88035  0.26896  1.0000
  C   C581      1.0  0.61766  0.89158  0.24170  1.0000
  C   C582      1.0  0.60879  0.85187  0.27032  1.0000
  C   C583      1.0  0.60121  0.87550  0.21743  1.0000
  C   C584      1.0  0.59228  0.83591  0.24588  1.0000
  C   C585      1.0  0.58851  0.84770  0.21950  1.0000
  H   H670      1.0  0.61045  0.90660  0.31249  1.0000
  H   H671      1.0  0.64418  0.93025  0.32411  1.0000
  H   H672      1.0  0.63322  0.93139  0.28600  1.0000
  H   H673      1.0  0.62104  0.87141  0.33252  1.0000
  H   H674      1.0  0.65454  0.89745  0.34024  1.0000
  H   H675      1.0  0.64940  0.87009  0.31615  1.0000
  H   H676      1.0  0.66883  0.92610  0.26150  1.0000
  H   H677      1.0  0.68181  0.92687  0.29933  1.0000
  H   H678      1.0  0.67476  0.89964  0.27321  1.0000
  H   H679      1.0  0.62718  0.91300  0.23879  1.0000
  H   H680      1.0  0.61096  0.84145  0.28993  1.0000
  H   H681      1.0  0.59842  0.88474  0.19680  1.0000
  C   C586      1.0  0.70618  0.73778  0.48371  1.0000
  H   H682      1.0  0.81921  0.70913  0.41349  1.0000
  N   N37       1.0  0.71765  0.81571  0.24511  1.0000
  C   C587      1.0  0.73739  0.81355  0.26509  1.0000
  C   C588      1.0  0.72413  0.81306  0.21218  1.0000
  C   C589      1.0  0.72105  0.84289  0.24932  1.0000
  C   C590      1.0  0.69034  0.79511  0.25431  1.0000
  C   C591      1.0  0.67237  0.77448  0.23366  1.0000
  C   C592      1.0  0.68110  0.79507  0.28503  1.0000
  C   C593      1.0  0.64695  0.75506  0.24345  1.0000
  C   C594      1.0  0.65576  0.77538  0.29466  1.0000
  C   C595      1.0  0.63875  0.75537  0.27391  1.0000
  H   H683      1.0  0.73498  0.79315  0.26336  1.0000
  H   H684      1.0  0.75832  0.82832  0.25872  1.0000
  H   H685      1.0  0.73537  0.81745  0.29001  1.0000
  H   H686      1.0  0.72314  0.79340  0.20800  1.0000
  H   H687      1.0  0.74476  0.82881  0.20603  1.0000
  H   H688      1.0  0.71038  0.81504  0.19564  1.0000
  H   H689      1.0  0.71938  0.84757  0.27418  1.0000
  H   H690      1.0  0.74114  0.85883  0.24171  1.0000
  H   H691      1.0  0.70578  0.84501  0.23579  1.0000
  H   H692      1.0  0.67759  0.77237  0.21005  1.0000
  H   H693      1.0  0.69368  0.80994  0.30210  1.0000
  H   H694      1.0  0.63381  0.73915  0.22751  1.0000
  H   H695      1.0  0.64949  0.77537  0.31852  1.0000
  H   H696      1.0  0.61929  0.73982  0.28152  1.0000
  H   H697      1.0  0.57579  0.83531  0.20055  1.0000
  C   C596      1.0  0.51901  0.61411  0.21741  1.0000
  C   C597      1.0  0.53932  0.57828  0.01019  1.0000
  C   C598      1.0  0.94728  0.65977  0.09055  1.0000
  H   H698      1.0  0.56127  0.81911  0.12567  1.0000
  H   H699      1.0  0.78676  0.69897  0.42729  1.0000
  H   H700      1.0  0.96467  0.80445  0.46698  1.0000
  N   N38       1.0  0.78418  0.97090  0.48752  1.0000
  H   H701      1.0  0.90562  0.74553  0.44140  1.0000
  H   H702      1.0  0.80134  0.74802  0.43164  1.0000
  N   N39       1.0  0.81822  0.72776  0.45729  1.0000
  C   C599      1.0  0.66265  0.97403  0.24399  1.0000
  C   C600      1.0  0.53246  0.59066  0.18129  1.0000
  H   H703      1.0  0.54582  0.57477  0.23289  1.0000
  H   H704      1.0  0.50602  0.61565  0.19942  1.0000
  C   C601      1.0  0.76030  0.75394  0.48329  1.0000
  H   H705      1.0  0.59693  0.73962  0.07337  1.0000
  H   H706      1.0  0.60574  0.78273  0.06835  1.0000
  H   H707      1.0  0.95142  0.63683  0.01762  1.0000
  H   H708      1.0  0.55129  0.71391  0.05130  1.0000
  H   H709      1.0  0.51032  0.61397  0.24062  1.0000
  H   H710      1.0  0.95901  0.65424  0.07586  1.0000
  H   H711      1.0  0.90530  0.68234  0.13918  1.0000
  C   C602      1.0  0.57024  0.80529  0.02948  1.0000
  S   S158      1.0  0.48643  0.90884  0.13633  1.0000
  C   C603      1.0  0.52097  0.52334  0.00528  1.0000
  H   H712      1.0  0.56410  0.69650  0.02817  1.0000
  C   C604      1.0  0.78675  0.91548  0.44002  1.0000
  C   C605      1.0  0.92981  0.66635  0.07571  1.0000
  H   H713      1.0  0.50449  0.54695  0.25509  1.0000
  H   H714      1.0  0.48676  0.83989  0.11645  1.0000
  C   C606      1.0  0.91693  0.67583  0.12565  1.0000
  C   C607      1.0  0.61860  0.60829  0.01282  1.0000
  C   C608      1.0  0.60180  0.63954  0.00836  1.0000
  H   H715      1.0  0.79672  0.90373  0.44037  1.0000
  C   C609      1.0  0.52359  0.56121  0.03376  1.0000
  C   C610      1.0  0.96365  0.62719  0.12807  1.0000
  H   H716      1.0  0.78143  0.76096  0.48300  1.0000
  H   H717      1.0  0.53834  0.97347  0.02314  1.0000
  H   H718      1.0  0.76526  0.89690  0.39755  1.0000
  C   C611      1.0  0.69788  0.96695  0.49209  1.0000
  H   H719      1.0  0.67986  0.94768  0.49366  1.0000
  N   N40       1.0  0.58644  0.73959  0.02506  1.0000
  H   H720      1.0  0.68514  0.73142  0.48388  1.0000
  C   C612      1.0  0.76902  0.91156  0.41584  1.0000
  C   C613      1.0  0.89039  0.74293  0.45813  1.0000
  C   C614      1.0  0.96237  0.63191  0.00090  1.0000
  H   H721      1.0  0.80582  0.93655  0.48148  1.0000
  H   H722      1.0  0.62805  0.97787  0.25352  1.0000
  S   S159      1.0  0.76472  0.98382  0.36046  1.0000
  H   H723      1.0  0.61305  0.98183  0.02902  1.0000
  H   H724      1.0  0.75060  0.95683  0.43663  1.0000
  C   C615      1.0  0.82092  0.75150  0.44065  1.0000
  H   H725      1.0  0.96787  0.62656  0.10284  1.0000
  H   H726      1.0  0.74281  0.96058  0.48883  1.0000
  H   H727      1.0  0.77828  0.71595  0.47305  1.0000
  C   C616      1.0  0.77935  0.95051  0.46317  1.0000
  C   C617      1.0  0.55860  0.78563  0.00636  1.0000
  C   C618      1.0  0.56415  0.76459  0.00484  1.0000
  C   C619      1.0  0.60884  0.98493  0.00529  1.0000
  H   H728      1.0  0.74470  0.83825  0.48513  1.0000
  H   H729      1.0  0.97660  0.62097  0.14050  1.0000
  H   H730      1.0  0.79530  0.70326  0.49598  1.0000
  Fe  Fe81      1.0  0.93884  0.75558  0.61447  1.0000
  S   S160      1.0  0.94820  0.72198  0.61374  1.0000
  S   S161      1.0  0.89722  0.74540  0.60013  1.0000
  H   H731      1.0  0.80060  0.49969  0.92182  1.0000
  H   H732      1.0  0.79658  0.85616  0.55449  1.0000
  S   S162      1.0  0.96061  0.77429  0.65911  1.0000
  Fe  Fe82      1.0  0.78312  0.76380  0.65732  1.0000
  S   S163      1.0  0.76244  0.72439  0.63205  1.0000
  S   S164      1.0  0.82396  0.77790  0.67807  1.0000
  Fe  Fe83      1.0  0.73726  0.77487  0.64604  1.0000
  S   S165      1.0  0.71356  0.73581  0.61971  1.0000
  S   S166      1.0  0.71572  0.79898  0.64880  1.0000
  Fe  Fe84      1.0  0.72594  0.71761  0.65836  1.0000
  S   S167      1.0  0.69801  0.67572  0.67779  1.0000
  Fe  Fe85      1.0  0.75228  0.74641  0.59629  1.0000
  S   S168      1.0  0.76416  0.74722  0.54551  1.0000
  S   S169      1.0  0.74728  0.75596  0.68608  1.0000
  S   S170      1.0  0.77521  0.78643  0.62036  1.0000
  Fe  Fe86      1.0  0.75773  0.95741  0.63815  1.0000
  S   S171      1.0  0.71911  0.95810  0.64350  1.0000
  S   S172      1.0  0.77139  0.92683  0.64655  1.0000
  H   H733      1.0  0.92076  0.51989  0.87792  1.0000
  S   S173      1.0  0.69900  0.96578  0.55640  1.0000
  C   C620      1.0  0.92075  0.52582  0.90265  1.0000
  H   H734      1.0  0.60190  0.65301  0.96150  1.0000
  H   H735      1.0  0.61123  0.98063  0.86605  1.0000
  H   H736      1.0  0.54485  0.78655  0.98988  1.0000
  Fe  Fe87      1.0  0.89453  0.58898  0.81482  1.0000
  S   S174      1.0  0.89575  0.61209  0.85810  1.0000
  S   S175      1.0  0.90186  0.60506  0.76448  1.0000
  Fe  Fe88      1.0  0.87496  0.53565  0.85161  1.0000
  S   S176      1.0  0.87445  0.55608  0.89657  1.0000
  Fe  Fe89      1.0  0.85555  0.57585  0.86903  1.0000
  S   S177      1.0  0.82048  0.57943  0.88994  1.0000
  Fe  Fe90      1.0  0.91420  0.59014  0.88205  1.0000
  S   S178      1.0  0.95299  0.60473  0.91021  1.0000
  S   S179      1.0  0.85367  0.55350  0.82504  1.0000
  S   S180      1.0  0.91537  0.56902  0.83776  1.0000
  Fe  Fe91      1.0  0.64067  0.57975  0.91350  1.0000
  S   S181      1.0  0.61159  0.57676  0.87708  1.0000
  S   S182      1.0  0.63799  0.59082  0.96453  1.0000
  Fe  Fe92      1.0  0.66757  0.55805  0.86782  1.0000
  S   S183      1.0  0.63839  0.55274  0.82909  1.0000
  S   S184      1.0  0.70021  0.54794  0.85308  1.0000
  Fe  Fe93      1.0  0.64644  0.59389  0.84373  1.0000
  S   S185      1.0  0.65898  0.63248  0.81605  1.0000
  Fe  Fe94      1.0  0.60583  0.53556  0.86594  1.0000
  S   S186      1.0  0.67611  0.59946  0.88129  1.0000
  S   S187      1.0  0.63449  0.53833  0.90346  1.0000
  C   C621      1.0  0.78781  0.57218  0.87783  1.0000
  C   C622      1.0  0.77327  0.58029  0.89714  1.0000
  C   C623      1.0  0.74685  0.57381  0.88961  1.0000
  C   C624      1.0  0.73427  0.55859  0.86285  1.0000
  C   C625      1.0  0.74891  0.55079  0.84331  1.0000
  C   C626      1.0  0.77551  0.55774  0.85051  1.0000
  H   H737      1.0  0.78244  0.59147  0.91833  1.0000
  H   H738      1.0  0.73602  0.57997  0.90502  1.0000
  H   H739      1.0  0.73951  0.53897  0.82257  1.0000
  H   H740      1.0  0.78630  0.55150  0.83520  1.0000
  C   C627      1.0  0.73562  0.62588  0.83187  1.0000
  C   C628      1.0  0.62344  0.60938  0.98050  1.0000
  C   C629      1.0  0.61688  0.62528  0.96206  1.0000
  C   C630      1.0  0.60634  0.64040  0.97596  1.0000
  Fe  Fe95      1.0  0.97184  0.74180  0.65742  1.0000
  H   H741      1.0  0.62054  0.62645  0.93721  1.0000
  H   H742      1.0  0.63398  0.97595  0.61289  1.0000
  H   H743      1.0  0.96907  0.54057  0.87975  1.0000
  C   C631      1.0  0.96543  0.61643  0.94872  1.0000
  C   C632      1.0  0.73320  0.86619  0.50005  1.0000
  C   C633      1.0  0.78099  0.83660  0.56387  1.0000
  H   H744      1.0  0.92596  0.52805  0.96503  1.0000
  C   C634      1.0  0.64472  0.96706  0.89249  1.0000
  N   N41       1.0  0.54461  0.53003  0.95300  1.0000
  H   H745      1.0  0.97104  0.56771  0.90215  1.0000
  H   H746      1.0  0.80402  0.73803  0.49908  1.0000
  H   H747      1.0  0.79018  0.82371  0.56689  1.0000
  C   C635      1.0  0.59810  0.73916  0.99435  1.0000
  C   C636      1.0  0.53333  0.53538  0.92466  1.0000
  H   H748      1.0  0.53811  0.52752  0.90320  1.0000
  C   C637      1.0  0.89891  0.70623  0.67319  1.0000
  H   H749      1.0  0.92060  0.54509  0.90174  1.0000
  N   N42       1.0  0.88393  0.70219  0.70269  1.0000
  H   H750      1.0  0.70836  0.73292  0.53357  1.0000
  N   N43       1.0  0.75728  0.82386  0.54294  1.0000
  C   C638      1.0  0.73146  0.83453  0.64775  1.0000
  C   C639      1.0  0.75917  0.85074  0.64970  1.0000
  C   C640      1.0  0.77092  0.87888  0.64910  1.0000
  C   C641      1.0  0.75522  0.89121  0.64636  1.0000
  C   C642      1.0  0.72751  0.87498  0.64392  1.0000
  C   C643      1.0  0.71573  0.84680  0.64472  1.0000
  H   H751      1.0  0.77154  0.84164  0.65226  1.0000
  H   H752      1.0  0.79235  0.89124  0.65117  1.0000
  H   H753      1.0  0.71517  0.88415  0.64192  1.0000
  H   H754      1.0  0.69427  0.83445  0.64317  1.0000
  C   C644      1.0  0.68944  0.66419  0.71693  1.0000
  C   C645      1.0  0.67502  0.63640  0.72239  1.0000
  C   C646      1.0  0.66657  0.62626  0.75273  1.0000
  C   C647      1.0  0.67211  0.64386  0.77800  1.0000
  C   C648      1.0  0.68688  0.67164  0.77259  1.0000
  C   C649      1.0  0.69571  0.68177  0.74237  1.0000
  H   H755      1.0  0.66999  0.62259  0.70293  1.0000
  H   H756      1.0  0.65488  0.60487  0.75632  1.0000
  H   H757      1.0  0.69123  0.68545  0.79191  1.0000
  H   H758      1.0  0.70707  0.70315  0.73883  1.0000
  H   H759      1.0  0.82389  0.50240  0.89273  1.0000
  C   C650      1.0  0.94037  0.48701  0.89633  1.0000
  H   H760      1.0  0.94807  0.72501  0.52480  1.0000
  C   C651      1.0  0.87799  0.75581  0.62187  1.0000
  C   C652      1.0  0.88668  0.76923  0.65057  1.0000
  C   C653      1.0  0.87027  0.77652  0.66740  1.0000
  C   C654      1.0  0.84516  0.77043  0.65564  1.0000
  C   C655      1.0  0.83685  0.75753  0.62665  1.0000
  C   C656      1.0  0.85311  0.75011  0.60997  1.0000
  H   H761      1.0  0.90590  0.77388  0.65985  1.0000
  H   H762      1.0  0.87687  0.78659  0.68976  1.0000
  H   H763      1.0  0.81788  0.75323  0.61700  1.0000
  H   H764      1.0  0.84633  0.73988  0.58773  1.0000
  C   C657      1.0  0.95053  0.68965  0.72085  1.0000
  C   C658      1.0  0.95039  0.68637  0.75343  1.0000
  C   C659      1.0  0.93560  0.66082  0.76719  1.0000
  C   C660      1.0  0.92078  0.63800  0.74854  1.0000
  C   C661      1.0  0.92084  0.64129  0.71593  1.0000
  C   C662      1.0  0.93555  0.66687  0.70215  1.0000
  H   H765      1.0  0.93590  0.65876  0.79224  1.0000
  H   H766      1.0  0.71743  0.79007  0.54402  1.0000
  H   H767      1.0  0.77491  0.52009  0.91799  1.0000
  H   H768      1.0  0.75692  0.63965  0.83796  1.0000
  H   H769      1.0  0.72899  0.60757  0.84626  1.0000
  H   H770      1.0  0.51279  0.48877  0.95412  1.0000
  H   H771      1.0  0.89358  0.67324  0.72113  1.0000
  C   C663      1.0  0.71122  0.98057  0.51958  1.0000
  H   H772      1.0  0.77372  0.80153  0.52054  1.0000
  C   C664      1.0  0.75814  0.50689  0.90339  1.0000
  H   H773      1.0  0.73033  0.88454  0.57489  1.0000
  H   H774      1.0  0.64533  0.98031  0.81536  1.0000
  H   H775      1.0  0.88053  0.74168  0.53629  1.0000
  C   C665      1.0  0.74776  0.84294  0.53623  1.0000
  H   H776      1.0  0.74341  0.65928  0.70026  1.0000
  H   H777      1.0  0.60287  0.72260  0.99284  1.0000
  H   H778      1.0  0.90323  0.72535  0.66193  1.0000
  S   S188      1.0  0.76521  0.97386  0.58964  1.0000
  H   H779      1.0  0.88809  0.68989  0.65584  1.0000
  C   C666      1.0  0.87593  0.67519  0.71490  1.0000
  H   H780      1.0  0.73021  0.80526  0.58149  1.0000
  H   H781      1.0  0.90155  0.51051  0.91306  1.0000
  N   N44       1.0  0.94395  0.52864  0.92069  1.0000
  H   H782      1.0  0.86371  0.67096  0.73639  1.0000
  C   C667      1.0  0.96875  0.54735  0.90403  1.0000
  H   H783      1.0  0.77604  0.84018  0.58788  1.0000
  C   C668      1.0  0.87619  0.74058  0.51148  1.0000
  C   C669      1.0  0.90264  0.72235  0.72559  1.0000
  C   C670      1.0  0.85970  0.70417  0.69688  1.0000
  C   C671      1.0  0.85315  0.72095  0.71493  1.0000
  C   C672      1.0  0.84143  0.68848  0.67296  1.0000
  C   C673      1.0  0.83017  0.72241  0.70861  1.0000
  C   C674      1.0  0.81871  0.69039  0.66660  1.0000
  C   C675      1.0  0.81319  0.70744  0.68428  1.0000
  H   H784      1.0  0.92112  0.72100  0.72852  1.0000
  H   H785      1.0  0.90921  0.74315  0.71777  1.0000
  H   H786      1.0  0.86574  0.73368  0.73356  1.0000
  H   H787      1.0  0.84479  0.67493  0.65862  1.0000
  H   H788      1.0  0.82610  0.73621  0.72170  1.0000
  H   H789      1.0  0.80561  0.67904  0.64741  1.0000
  H   H790      1.0  0.79613  0.70966  0.67862  1.0000
  H   H791      1.0  0.73024  0.62063  0.73385  1.0000
  C   C676      1.0  0.73829  0.64011  0.74485  1.0000
  C   C677      1.0  0.71296  0.49383  0.88793  1.0000
  C   C678      1.0  0.95990  0.72984  0.50378  1.0000
  H   H792      1.0  0.62356  0.95129  0.83674  1.0000
  H   H793      1.0  0.78042  0.83148  0.50086  1.0000
  H   H794      1.0  0.96195  0.70374  0.76820  1.0000
  C   C679      1.0  0.73512  0.50885  0.90692  1.0000
  S   S189      1.0  0.56134  0.50192  0.86930  1.0000
  C   C680      1.0  0.58087  0.96957  0.95930  1.0000
  H   H795      1.0  0.90453  0.49361  0.82127  1.0000
  H   H796      1.0  0.90959  0.62383  0.70118  1.0000
  C   C681      1.0  0.74234  0.84813  0.50543  1.0000
  H   H797      1.0  0.73485  0.52297  0.92364  1.0000
  H   H798      1.0  0.91826  0.70691  0.67721  1.0000
  H   H799      1.0  0.79855  0.95598  0.52456  1.0000
  H   H800      1.0  0.74755  0.80179  0.49919  1.0000
  C   C682      1.0  0.58594  0.96512  0.99022  1.0000
  H   H801      1.0  0.81273  0.52624  0.89334  1.0000
  C   C683      1.0  0.74601  0.66213  0.72535  1.0000
  H   H802      1.0  0.74569  0.85291  0.58504  1.0000
  H   H803      1.0  0.54153  0.55718  0.92081  1.0000
  H   H804      1.0  0.94440  0.56046  0.94833  1.0000
  C   C684      1.0  0.80609  0.50466  0.89691  1.0000
  N   N45       1.0  0.73202  0.61937  0.79795  1.0000
  C   C685      1.0  0.70337  0.59987  0.79268  1.0000
  C   C686      1.0  0.74778  0.60618  0.79015  1.0000
  C   C687      1.0  0.74035  0.64308  0.77786  1.0000
  C   C688      1.0  0.75065  0.66952  0.79005  1.0000
  C   C689      1.0  0.75841  0.69143  0.77028  1.0000
  C   C690      1.0  0.75608  0.68774  0.73804  1.0000
  H   H805      1.0  0.69875  0.59290  0.76807  1.0000
  H   H806      1.0  0.69657  0.58160  0.80708  1.0000
  H   H807      1.0  0.69080  0.60879  0.79907  1.0000
  H   H808      1.0  0.74249  0.58871  0.80553  1.0000
  H   H809      1.0  0.76954  0.62035  0.79303  1.0000
  H   H810      1.0  0.74423  0.59824  0.76586  1.0000
  H   H811      1.0  0.75259  0.67383  0.81477  1.0000
  H   H812      1.0  0.76581  0.71136  0.78004  1.0000
  H   H813      1.0  0.76141  0.70465  0.72285  1.0000
  N   N46       1.0  0.65107  0.71358  0.69298  1.0000
  C   C691      1.0  0.67974  0.73182  0.69957  1.0000
  C   C692      1.0  0.64879  0.70335  0.66050  1.0000
  C   C693      1.0  0.63709  0.72933  0.69412  1.0000
  C   C694      1.0  0.63994  0.69215  0.71669  1.0000
  C   C695      1.0  0.63967  0.69868  0.74870  1.0000
  C   C696      1.0  0.62997  0.66462  0.70919  1.0000
  C   C697      1.0  0.62991  0.67891  0.77164  1.0000
  C   C698      1.0  0.62009  0.64503  0.73233  1.0000
  C   C699      1.0  0.62010  0.65215  0.76345  1.0000
  H   H814      1.0  0.69075  0.72055  0.69921  1.0000
  H   H815      1.0  0.68905  0.74807  0.68198  1.0000
  H   H816      1.0  0.68333  0.74187  0.72273  1.0000
  H   H817      1.0  0.62766  0.68937  0.65391  1.0000
  H   H818      1.0  0.66047  0.69285  0.65732  1.0000
  H   H819      1.0  0.65689  0.71992  0.64323  1.0000
  H   H820      1.0  0.64022  0.74021  0.71665  1.0000
  H   H821      1.0  0.64452  0.74505  0.67576  1.0000
  H   H822      1.0  0.61523  0.71611  0.69064  1.0000
  H   H823      1.0  0.64764  0.71921  0.75634  1.0000
  H   H824      1.0  0.63037  0.65772  0.68579  1.0000
  H   H825      1.0  0.63063  0.68436  0.79605  1.0000
  H   H826      1.0  0.61335  0.62427  0.72628  1.0000
  H   H827      1.0  0.61342  0.63699  0.78143  1.0000
  H   H828      1.0  0.96225  0.54600  0.96526  1.0000
  C   C700      1.0  0.74639  0.74645  0.51159  1.0000
  C   C701      1.0  0.54612  0.56809  0.98419  1.0000
  C   C702      1.0  0.73381  0.87448  0.55539  1.0000
  H   H829      1.0  0.58373  0.54258  0.97183  1.0000
  H   H830      1.0  0.58046  0.53526  0.93067  1.0000
  H   H831      1.0  0.61687  0.75837  0.99024  1.0000
  S   S190      1.0  0.97360  0.78264  0.58466  1.0000
  S   S191      1.0  0.96959  0.72261  0.70508  1.0000
  H   H832      1.0  0.79695  0.51566  0.83834  1.0000
  C   C703      1.0  0.94238  0.50222  0.92348  1.0000
  C   C704      1.0  0.79318  0.49507  0.84319  1.0000
  H   H833      1.0  0.93206  0.61989  0.96488  1.0000
  H   H834      1.0  0.72348  0.63500  0.83964  1.0000
  H   H835      1.0  0.65609  0.98250  0.58105  1.0000
  C   C705      1.0  0.53493  0.50077  0.95382  1.0000
  H   H836      1.0  0.93553  0.66888  0.67708  1.0000
  H   H837      1.0  0.56314  0.95443  0.94748  1.0000
  H   H838      1.0  0.58429  0.73589  0.97466  1.0000
  H   H839      1.0  0.65966  0.96030  0.89439  1.0000
  C   C706      1.0  0.72892  0.87931  0.52498  1.0000
  H   H840      1.0  0.72140  0.89292  0.52080  1.0000
  H   H841      1.0  0.65807  0.96053  0.83344  1.0000
  C   C707      1.0  0.76504  0.81442  0.51452  1.0000
  C   C708      1.0  0.85105  0.73535  0.50134  1.0000
  H   H842      1.0  0.58278  0.56547  0.94444  1.0000
  C   C709      1.0  0.57404  0.54389  0.94995  1.0000
  H   H843      1.0  0.83698  0.73276  0.51945  1.0000
  H   H844      1.0  0.66663  0.97801  0.65121  1.0000
  H   H845      1.0  0.68681  0.98106  0.61791  1.0000
  H   H846      1.0  0.89372  0.71928  0.74924  1.0000
  C   C710      1.0  0.64426  0.96862  0.83651  1.0000
  C   C711      1.0  0.73579  0.80003  0.55870  1.0000
  C   C712      1.0  0.74285  0.85643  0.56100  1.0000
  C   C713      1.0  0.94414  0.54112  0.95127  1.0000
  H   H847      1.0  0.86412  0.65906  0.69759  1.0000
  H   H848      1.0  0.54324  0.49550  0.97426  1.0000
  H   H849      1.0  0.81212  0.49489  0.83885  1.0000
  H   H850      1.0  0.55874  0.58227  0.96680  1.0000
  C   C714      1.0  0.95129  0.62229  0.97095  1.0000
  H   H851      1.0  0.74188  0.78481  0.56352  1.0000
  C   C715      1.0  0.71930  0.73870  0.51188  1.0000
  H   H852      1.0  0.51126  0.52578  0.92611  1.0000
  C   C716      1.0  0.53723  0.54029  0.98092  1.0000
  H   H853      1.0  0.55443  0.74970  0.98666  1.0000
  N   N47       1.0  0.78370  0.48724  0.87562  1.0000
  H   H854      1.0  0.62458  0.94893  0.89063  1.0000
  C   C717      1.0  0.75904  0.96281  0.50454  1.0000
  Fe  Fe96      1.0  0.72894  0.97777  0.59604  1.0000
  H   H855      1.0  0.94535  0.50132  0.97460  1.0000
  H   H856      1.0  0.51210  0.97216  0.97702  1.0000
  H   H857      1.0  0.75186  0.94337  0.51660  1.0000
  H   H858      1.0  0.93988  0.49431  0.87333  1.0000
  S   S192      1.0  0.85947  0.49024  0.85782  1.0000
  C   C718      1.0  0.94340  0.49112  0.95267  1.0000
  C   C719      1.0  0.80468  0.97459  0.51102  1.0000
  H   H859      1.0  0.54132  0.49394  0.93273  1.0000
  H   H860      1.0  0.69561  0.49634  0.88994  1.0000
  C   C720      1.0  0.75945  0.48935  0.88073  1.0000
  H   H861      1.0  0.76163  0.97795  0.52256  1.0000
  H   H862      1.0  0.82433  0.98102  0.49991  1.0000
  N   N48       1.0  0.65061  0.98518  0.86544  1.0000
  H   H863      1.0  0.64456  0.97673  0.91503  1.0000
  H   H864      1.0  0.91506  0.74796  0.49816  1.0000
