data_image0
_chemical_formula_structural       FeCSH2FeS2FeS2FeSFeS3FeS2FeS2FeSFeS3HCHFeS2FeS2CFeSHFeS2H2C2HCHCHC3H4C7H4C2HC6H4C6H8C6H4C6H7NC9H16CH3CHNCHC4HFeH4C2HCNHSH3CH2C2HC2H2CSH3FeHSCH2NHCHCSC5HC2HNHCHCH2NC2HCHNHC3SHSHCHSCHCHSCH5CH2C2NH3CH3CH2C2HC2H2FeSHC2NC5HCH2CH2C2H4C2H2SHSH5CH3CHCH2C2FeH7NH2SCHCH2CH3C2HC4HFeC2H3C3NSH3SFeS2FeS2FeSFeS3FeS2FeS2FeSFeS3FeHSC2FeS2FeH2FeS2FeCSCHC5H4C3HC7H4C6H5CH5C6HCH2C6H4NC2H3C6H5NC6HCH6CH5CSH2C2H5CH2CNCH2CH2C2HSHCH2CH5CHNHC2H2CHCFeC2H3CHC2H2CH3C2H3CNC2H2C2SHCH3CHC2H4NCH3CHCH3CHCH5NCSHC7HC2HC4HCH2CH3NH3CH6CH3C2FeNC4HSH2CHC2HCH2CH5FeHFeCHCHSHC2HSH2CH2CFeCHS2HFeS2CSFeSFeCSHFeS2C2FeH2FeS2FeS2FeSFeCS2C3H3CH2CSHCHC7H5CH3C6H5CH6NCH3C5H3NC9H14CHCH3CFeCH2CH3CSH2CHCH2C3SNCHCNCSHC3HC2H3SC3HCHCH3FeH6C5SHCH4CHC4S2C2H6CHFeS2FeS2HFeS3FeSCFeSH2CHSHFeS2FeCSFeSFeCS2FeCS2HCH5CHCH2CSC7H3FeCH2C2H2C2SHCHC5H4C6H4C3H4CHC3HCHC2H2CH4CHSH4CHC2H2C2H5NCH2C2H4C4H2NC2NHCHC2HCSCHCH4SC3SHCH5CH2C2HC2HCHSHCNHC4SHSCHFeHSH3FeH2C6H7C3H2CHC2FeHCHC2HCHCH3C4HCHNHC4H4CHC3H2N2CHC2SHC2SHFeS2H2FeSH9C6H5C2H4CH2C7HNHCHC2S2HCSHFeHCH2C2H3CHC2HSCH2SC5HCSH5C8H8FeH2C2NSCHFeHC2HCH5CSCHSNHCH5CHSCH2CH3C2H2CSCHFeS2CHSHNC2FeH2SH2NC6H5CHSC2HC2HC2H2FeH2CHCH3SC2H2C2H4CH3SCFeSFeSH2FeS2CSFeSFeS3HC2FeCHFeS2FeS2FeSFeS3FeHSC6H4SC2H2CHCH2C2HCHCHCNHC7H9C3H2CH2C5H6NH6CH2SH2CHCNHCH6CHCH3CHC2HCH4CHCNH2FeC3HC4HC2FeHC2H2C4NC9HNHCHC3H2C2HCHFeH2C2HC3HSCH2C2H4NCHC8H3C2HSH2NHCHC2H5CH3SHCHCSHCH4CH2CHCH3CHCH2CHCHFeCSFeS2FeSCS2NSHCSCSFeHSFeS2H2FeCS2FeSC2Fe2H2SCH3C6HCH2C2SCHNCHC2HCHC2H2C3SHC3HC4H2C6H4C3NH4C3FeCNC9H13CH3CHC2FeH4FeH5CHCH3SCHCHSHC4HSHCH4CHCFeCH3NC2HC2HFeH2CHCH2CH2SC2HCH4CHS2FeS2FeS2FeSFeS3FeS2FeS2FeSFeS3HFeSHFeS2FeS2Fe2CSHCH2NHCHCH2CSH2C6H4CH3C6H4C6H4C6H4C6H5NC6SCH8SH5CNC7H13C2HNC9H15NCHCH4CFeH3CH4C9HC2H3SH4CH3C2HCNCH2C2HCHCNCH2CHCH5CH3CS2C2HCSHSHCHCHC3NHCFeHC3H5C2H6SC2SHC4H2CHSCH4C2HSHCSCH3FeHSCHFeS2FeS2FeSFeS3FeS2FeS2FeSFeS4HFeHS2HFeS2HFeCSH3C2H4FeH4C5HC8H4C2H2SC6H4C6H5CHC2HC6H5CHC6H4NC9H9NC9H18C2H2CHCH2CSH2CH2CH4NHSH2SHCHC2HCH3CHCH2C2H3C3NC5HCHCH12CSH2NCHNC4H3C2H3SH4C3H4SNH3FeCHC2FeHFeCHCSC2HC2HC2H3CH3
_chemical_formula_sum              "Fe128 C960 S256 H1152 N64"
_cell_length_a       62.119
_cell_length_b       62.1976
_cell_length_c       40.3252
_cell_angle_alpha    89.2624
_cell_angle_beta     88.978
_cell_angle_gamma    89.9886

_space_group_name_H-M_alt    "P 1"
_space_group_IT_number       1

loop_
  _space_group_symop_operation_xyz
  'x, y, z'

loop_
  _atom_site_type_symbol
  _atom_site_label
  _atom_site_symmetry_multiplicity
  _atom_site_fract_x
  _atom_site_fract_y
  _atom_site_fract_z
  _atom_site_occupancy
  Fe  Fe1       1.0  0.37676  0.28336  0.38557  1.0000
  C   C1        1.0  0.12207  0.12057  0.14507  1.0000
  S   S1        1.0  0.38351  0.25016  0.40599  1.0000
  H   H1        1.0  0.10560  0.08876  0.42456  1.0000
  H   H2        1.0  0.14343  0.17876  0.49354  1.0000
  Fe  Fe2       1.0  0.30729  0.12345  0.36610  1.0000
  S   S2        1.0  0.32251  0.09142  0.37650  1.0000
  S   S3        1.0  0.27421  0.13230  0.38570  1.0000
  Fe  Fe3       1.0  0.34861  0.14176  0.33681  1.0000
  S   S4        1.0  0.36720  0.11104  0.34410  1.0000
  S   S5        1.0  0.36235  0.17195  0.31304  1.0000
  Fe  Fe4       1.0  0.33749  0.09478  0.32516  1.0000
  S   S6        1.0  0.33588  0.06495  0.29268  1.0000
  Fe  Fe5       1.0  0.35076  0.11029  0.39443  1.0000
  S   S7        1.0  0.36838  0.10085  0.44140  1.0000
  S   S8        1.0  0.32016  0.12571  0.31379  1.0000
  S   S9        1.0  0.33427  0.14197  0.38813  1.0000
  Fe  Fe6       1.0  0.17141  0.17046  0.30537  1.0000
  S   S10       1.0  0.15156  0.14504  0.33142  1.0000
  S   S11       1.0  0.20436  0.16407  0.28374  1.0000
  Fe  Fe7       1.0  0.13690  0.20440  0.31174  1.0000
  S   S12       1.0  0.11417  0.18178  0.33831  1.0000
  S   S13       1.0  0.12532  0.23815  0.30176  1.0000
  Fe  Fe8       1.0  0.14308  0.17129  0.36745  1.0000
  S   S14       1.0  0.13983  0.17241  0.42392  1.0000
  Fe  Fe9       1.0  0.12445  0.15783  0.29995  1.0000
  S   S15       1.0  0.10135  0.13502  0.27458  1.0000
  S   S16       1.0  0.16504  0.19585  0.34331  1.0000
  S   S17       1.0  0.14516  0.18123  0.27129  1.0000
  H   H3        1.0  0.18009  0.32094  0.41960  1.0000
  C   C2        1.0  0.04805  0.28752  0.09431  1.0000
  H   H4        1.0  0.29477  0.01892  0.15465  1.0000
  Fe  Fe10      1.0  0.36273  0.02559  0.10306  1.0000
  S   S18       1.0  0.35050  0.03475  0.05271  1.0000
  S   S19       1.0  0.36556  0.05207  0.14160  1.0000
  Fe  Fe11      1.0  0.37901  0.01710  0.03195  1.0000
  S   S20       1.0  0.19710  0.30937  0.28501  1.0000
  S   S21       1.0  0.39278  0.01077  0.08175  1.0000
  C   C3        1.0  0.03530  0.27689  0.07169  1.0000
  Fe  Fe12      1.0  0.03901  0.12961  0.03654  1.0000
  S   S22       1.0  0.03209  0.11336  0.08537  1.0000
  H   H5        1.0  0.29473  0.14557  0.44790  1.0000
  Fe  Fe13      1.0  0.03058  0.14678  0.10627  1.0000
  S   S23       1.0  0.04711  0.16442  0.14831  1.0000
  S   S24       1.0  0.04019  0.16264  0.05782  1.0000
  H   H6        1.0  0.01571  0.23036  0.17273  1.0000
  H   H7        1.0  0.25607  0.13908  0.45155  1.0000
  C   C4        1.0  0.16307  0.12091  0.47614  1.0000
  C   C5        1.0  0.08241  0.08491  0.03290  1.0000
  H   H8        1.0  0.07407  0.13188  0.11711  1.0000
  C   C6        1.0  0.99808  0.22175  0.01427  1.0000
  H   H9        1.0  0.07233  0.08922  0.05388  1.0000
  C   C7        1.0  0.12689  0.15895  0.17923  1.0000
  H   H10       1.0  0.33710  0.31883  0.29237  1.0000
  C   C8        1.0  0.10476  0.10061  0.44388  1.0000
  C   C9        1.0  0.43318  0.07824  0.03145  1.0000
  C   C10       1.0  0.41905  0.06080  0.02724  1.0000
  H   H11       1.0  0.07733  0.12606  0.07367  1.0000
  H   H12       1.0  0.43222  0.08748  0.05395  1.0000
  H   H13       1.0  0.40719  0.05684  0.04631  1.0000
  H   H14       1.0  0.44892  0.19137  0.49039  1.0000
  C   C11       1.0  0.28541  0.06583  0.21923  1.0000
  C   C12       1.0  0.17719  0.28934  0.28588  1.0000
  C   C13       1.0  0.18314  0.26776  0.29028  1.0000
  C   C14       1.0  0.16730  0.25179  0.29444  1.0000
  C   C15       1.0  0.14550  0.25737  0.29381  1.0000
  C   C16       1.0  0.13959  0.27883  0.28807  1.0000
  C   C17       1.0  0.15540  0.29482  0.28428  1.0000
  H   H15       1.0  0.19999  0.26345  0.29140  1.0000
  H   H16       1.0  0.17195  0.23523  0.29847  1.0000
  H   H17       1.0  0.12273  0.28312  0.28703  1.0000
  H   H18       1.0  0.15075  0.31139  0.28027  1.0000
  C   C18       1.0  0.14984  0.15534  0.45566  1.0000
  C   C19       1.0  0.15718  0.13448  0.44949  1.0000
  H   H19       1.0  0.15773  0.12859  0.42438  1.0000
  C   C20       1.0  0.06247  0.15550  0.18273  1.0000
  C   C21       1.0  0.07261  0.17100  0.20219  1.0000
  C   C22       1.0  0.08470  0.16494  0.23006  1.0000
  C   C23       1.0  0.08670  0.14323  0.23901  1.0000
  C   C24       1.0  0.07659  0.12769  0.21953  1.0000
  C   C25       1.0  0.06463  0.13375  0.19141  1.0000
  H   H20       1.0  0.07108  0.18787  0.19579  1.0000
  H   H21       1.0  0.09233  0.17709  0.24480  1.0000
  H   H22       1.0  0.07801  0.11087  0.22625  1.0000
  H   H23       1.0  0.05683  0.12163  0.17688  1.0000
  C   C26       1.0  0.25470  0.14032  0.35692  1.0000
  C   C27       1.0  0.25955  0.14155  0.32297  1.0000
  C   C28       1.0  0.24397  0.14882  0.30068  1.0000
  C   C29       1.0  0.22335  0.15451  0.31214  1.0000
  C   C30       1.0  0.21834  0.15295  0.34605  1.0000
  C   C31       1.0  0.23405  0.14599  0.36841  1.0000
  H   H24       1.0  0.27523  0.13686  0.31375  1.0000
  H   H25       1.0  0.24785  0.14994  0.27445  1.0000
  H   H26       1.0  0.20243  0.15729  0.35502  1.0000
  H   H27       1.0  0.23014  0.14492  0.39459  1.0000
  H   H28       1.0  0.05531  0.30285  0.08755  1.0000
  H   H29       1.0  0.32001  0.10551  0.19575  1.0000
  H   H30       1.0  0.01459  0.20292  0.15970  1.0000
  H   H31       1.0  0.35338  0.14472  0.45233  1.0000
  C   C32       1.0  0.34375  0.06203  0.25042  1.0000
  C   C33       1.0  0.33862  0.04284  0.23423  1.0000
  C   C34       1.0  0.34502  0.03947  0.20099  1.0000
  C   C35       1.0  0.35676  0.05528  0.18351  1.0000
  C   C36       1.0  0.36184  0.07450  0.19970  1.0000
  C   C37       1.0  0.35536  0.07790  0.23293  1.0000
  H   H32       1.0  0.32968  0.03047  0.24760  1.0000
  H   H33       1.0  0.34087  0.02461  0.18922  1.0000
  H   H34       1.0  0.37091  0.08684  0.18647  1.0000
  H   H35       1.0  0.35949  0.09271  0.24510  1.0000
  C   C38       1.0  0.37594  0.22906  0.38002  1.0000
  C   C39       1.0  0.37595  0.23173  0.34553  1.0000
  C   C40       1.0  0.37149  0.21416  0.32518  1.0000
  C   C41       1.0  0.36678  0.19393  0.33920  1.0000
  C   C42       1.0  0.36617  0.19147  0.37375  1.0000
  C   C43       1.0  0.37083  0.20895  0.39406  1.0000
  H   H36       1.0  0.38016  0.24713  0.33446  1.0000
  H   H37       1.0  0.37208  0.21619  0.29848  1.0000
  H   H38       1.0  0.36325  0.17589  0.38487  1.0000
  H   H39       1.0  0.37083  0.20679  0.42068  1.0000
  H   H40       1.0  0.42631  0.16798  0.03777  1.0000
  H   H41       1.0  0.30505  0.05033  0.07781  1.0000
  H   H42       1.0  0.10541  0.13124  0.35436  1.0000
  N   N1        1.0  0.29593  0.19989  0.35038  1.0000
  C   C44       1.0  0.30664  0.18180  0.33320  1.0000
  C   C45       1.0  0.30975  0.21931  0.34680  1.0000
  C   C46       1.0  0.29458  0.19415  0.38626  1.0000
  C   C47       1.0  0.27471  0.20391  0.33530  1.0000
  C   C48       1.0  0.27344  0.21006  0.30134  1.0000
  C   C49       1.0  0.25488  0.20120  0.35308  1.0000
  C   C50       1.0  0.25360  0.21321  0.28614  1.0000
  C   C51       1.0  0.23514  0.20461  0.33767  1.0000
  C   C52       1.0  0.23449  0.21046  0.30427  1.0000
  H   H43       1.0  0.32230  0.17779  0.34456  1.0000
  H   H44       1.0  0.29648  0.16708  0.33453  1.0000
  H   H45       1.0  0.31026  0.18536  0.30660  1.0000
  H   H46       1.0  0.31402  0.22312  0.32050  1.0000
  H   H47       1.0  0.32543  0.21719  0.35950  1.0000
  H   H48       1.0  0.30167  0.23368  0.35755  1.0000
  H   H49       1.0  0.31084  0.19146  0.39680  1.0000
  H   H50       1.0  0.28681  0.20717  0.40086  1.0000
  H   H51       1.0  0.28553  0.17885  0.39054  1.0000
  H   H52       1.0  0.28781  0.21196  0.28609  1.0000
  H   H53       1.0  0.25408  0.19590  0.37865  1.0000
  H   H54       1.0  0.25294  0.21729  0.25997  1.0000
  H   H55       1.0  0.22015  0.20184  0.35127  1.0000
  H   H56       1.0  0.21909  0.21220  0.29221  1.0000
  H   H57       1.0  0.40625  0.06247  0.24259  1.0000
  H   H58       1.0  0.40644  0.01896  0.15153  1.0000
  C   C53       1.0  0.26392  0.14491  0.47341  1.0000
  H   H59       1.0  0.12204  0.28960  0.35294  1.0000
  H   H60       1.0  0.16908  0.30705  0.34657  1.0000
  H   H61       1.0  0.15817  0.28104  0.35688  1.0000
  C   C54       1.0  0.08565  0.12595  0.09791  1.0000
  H   H62       1.0  0.32062  0.02900  0.14131  1.0000
  N   N2        1.0  0.29436  0.04980  0.12916  1.0000
  C   C55       1.0  0.42785  0.21435  0.44607  1.0000
  H   H63       1.0  0.40299  0.14365  0.34799  1.0000
  C   C56       1.0  0.16249  0.29696  0.36726  1.0000
  C   C57       1.0  0.02899  0.24732  0.11179  1.0000
  C   C58       1.0  0.45867  0.19215  0.05824  1.0000
  C   C59       1.0  0.44385  0.18221  0.46829  1.0000
  H   H64       1.0  0.13379  0.27830  0.40835  1.0000
  Fe  Fe14      1.0  0.37946  0.31842  0.33137  1.0000
  H   H65       1.0  0.13974  0.13948  0.21863  1.0000
  H   H66       1.0  0.09157  0.16013  0.05869  1.0000
  H   H67       1.0  0.13595  0.13942  0.07081  1.0000
  H   H68       1.0  0.11762  0.07821  0.47980  1.0000
  C   C60       1.0  0.09754  0.12188  0.43721  1.0000
  C   C61       1.0  0.99689  0.04982  0.00140  1.0000
  H   H69       1.0  0.17580  0.29380  0.38462  1.0000
  C   C62       1.0  0.30960  0.09162  0.19360  1.0000
  N   N3        1.0  0.09089  0.12821  0.40333  1.0000
  H   H70       1.0  0.02584  0.04060  0.04852  1.0000
  S   S25       1.0  0.30239  0.30950  0.37879  1.0000
  H   H71       1.0  0.26178  0.03802  0.13690  1.0000
  H   H72       1.0  0.27043  0.03925  0.09471  1.0000
  H   H73       1.0  0.30238  0.01810  0.11189  1.0000
  C   C63       1.0  0.40647  0.19015  0.47944  1.0000
  H   H74       1.0  0.11016  0.31234  0.37225  1.0000
  H   H75       1.0  0.37063  0.00696  0.16570  1.0000
  C   C64       1.0  0.09766  0.13648  0.46410  1.0000
  C   C65       1.0  0.41989  0.04903  0.99791  1.0000
  H   H76       1.0  0.03044  0.21132  0.00341  1.0000
  C   C66       1.0  0.27163  0.04766  0.11892  1.0000
  C   C67       1.0  0.30337  0.02801  0.13460  1.0000
  H   H77       1.0  0.48179  0.17603  0.00660  1.0000
  H   H78       1.0  0.22257  0.01773  0.00417  1.0000
  C   C68       1.0  0.02247  0.21876  0.15454  1.0000
  S   S26       1.0  0.34479  0.99431  0.10536  1.0000
  H   H79       1.0  0.39487  0.11545  0.00899  1.0000
  H   H80       1.0  0.45737  0.18250  0.44976  1.0000
  H   H81       1.0  0.23671  0.30797  0.24744  1.0000
  Fe  Fe15      1.0  0.00498  0.16486  0.04766  1.0000
  H   H82       1.0  0.39472  0.28317  0.45786  1.0000
  S   S27       1.0  0.35610  0.30316  0.41948  1.0000
  C   C69       1.0  0.44810  0.08407  0.00632  1.0000
  H   H83       1.0  0.45728  0.25305  0.08262  1.0000
  H   H84       1.0  0.27416  0.04066  0.18896  1.0000
  N   N4        1.0  0.14375  0.30761  0.38335  1.0000
  H   H85       1.0  0.31845  0.08704  0.14339  1.0000
  C   C70       1.0  0.10844  0.06043  0.00730  1.0000
  H   H86       1.0  0.26833  0.29064  0.29459  1.0000
  C   C71       1.0  0.02593  0.25712  0.08024  1.0000
  S   S28       1.0  0.46246  0.32054  0.08786  1.0000
  C   C72       1.0  0.13776  0.29534  0.41386  1.0000
  C   C73       1.0  0.28401  0.05496  0.18920  1.0000
  C   C74       1.0  0.30653  0.05985  0.10093  1.0000
  C   C75       1.0  0.29554  0.06207  0.16034  1.0000
  C   C76       1.0  0.38126  0.01811  0.27406  1.0000
  H   H87       1.0  0.45668  0.20527  0.00780  1.0000
  C   C77       1.0  0.14918  0.16268  0.48850  1.0000
  C   C78       1.0  0.30851  0.08077  0.16349  1.0000
  H   H88       1.0  0.19949  0.15432  0.48256  1.0000
  N   N5        1.0  0.39883  0.99575  0.19033  1.0000
  H   H89       1.0  0.23027  0.11622  0.47252  1.0000
  C   C79       1.0  0.46006  0.19860  0.09188  1.0000
  H   H90       1.0  0.11257  0.17471  0.13857  1.0000
  C   C80       1.0  0.02846  0.20970  0.09768  1.0000
  H   H91       1.0  0.45445  0.24282  0.02395  1.0000
  H   H92       1.0  0.44196  0.14658  0.01987  1.0000
  N   N6        1.0  0.46015  0.16940  0.04804  1.0000
  C   C81       1.0  0.41817  0.17849  0.42456  1.0000
  C   C82       1.0  0.28611  0.14867  0.47101  1.0000
  H   H93       1.0  0.13570  0.10547  0.18843  1.0000
  C   C83       1.0  0.29818  0.08412  0.22142  1.0000
  H   H94       1.0  0.47371  0.15546  0.09240  1.0000
  N   N7        1.0  0.10526  0.13949  0.09642  1.0000
  H   H95       1.0  0.09596  0.05703  0.05730  1.0000
  C   C84       1.0  0.41120  0.15682  0.42845  1.0000
  C   C85       1.0  0.40580  0.14444  0.40112  1.0000
  C   C86       1.0  0.09572  0.06663  0.03474  1.0000
  S   S29       1.0  0.99497  0.14984  0.09712  1.0000
  H   H96       1.0  0.27692  0.05985  0.24121  1.0000
  S   S30       1.0  0.00432  0.13265  0.02183  1.0000
  H   H97       1.0  0.12839  0.17373  0.19300  1.0000
  C   C87       1.0  0.48074  0.16613  0.02973  1.0000
  H   H98       1.0  0.39063  0.19440  0.46870  1.0000
  S   S31       1.0  0.40073  0.30980  0.37453  1.0000
  C   C88       1.0  0.25360  0.31371  0.24370  1.0000
  H   H99       1.0  0.26390  0.06372  0.11616  1.0000
  C   C89       1.0  0.40755  0.15309  0.36916  1.0000
  H   H100      1.0  0.04574  0.25228  0.15868  1.0000
  S   S32       1.0  0.38617  0.32675  0.27637  1.0000
  C   C90       1.0  0.36220  0.13946  0.47375  1.0000
  H   H101      1.0  0.44448  0.15574  0.09160  1.0000
  H   H102      1.0  0.08635  0.16849  0.10026  1.0000
  H   H103      1.0  0.29973  0.09213  0.24502  1.0000
  H   H104      1.0  0.26555  0.31146  0.32529  1.0000
  H   H105      1.0  0.04485  0.06096  0.03610  1.0000
  C   C91       1.0  0.45670  0.20877  0.03401  1.0000
  H   H106      1.0  0.09631  0.16240  0.40659  1.0000
  H   H107      1.0  0.11381  0.13015  0.04643  1.0000
  C   C92       1.0  0.27491  0.00199  0.01756  1.0000
  C   C93       1.0  0.38463  0.00409  0.24762  1.0000
  N   N8        1.0  0.42396  0.19124  0.45389  1.0000
  H   H108      1.0  0.40501  0.17395  0.49102  1.0000
  H   H109      1.0  0.30052  0.30721  0.30460  1.0000
  H   H110      1.0  0.06736  0.11901  0.36739  1.0000
  C   C94       1.0  0.12061  0.13017  0.07188  1.0000
  H   H111      1.0  0.12464  0.11314  0.07769  1.0000
  H   H112      1.0  0.45976  0.13684  0.06766  1.0000
  H   H113      1.0  0.37240  0.25663  0.48870  1.0000
  C   C95       1.0  0.05153  0.27835  0.12550  1.0000
  H   H114      1.0  0.26339  0.29990  0.23473  1.0000
  H   H115      1.0  0.26030  0.31920  0.40251  1.0000
  C   C96       1.0  0.45944  0.15382  0.07633  1.0000
  C   C97       1.0  0.25536  0.01342  0.02091  1.0000
  H   H116      1.0  0.32410  0.06068  0.10596  1.0000
  C   C98       1.0  0.41998  0.18673  0.39153  1.0000
  C   C99       1.0  0.45939  0.22034  0.10043  1.0000
  H   H117      1.0  0.29799  0.08861  0.46639  1.0000
  H   H118      1.0  0.41239  0.03890  0.19610  1.0000
  Fe  Fe16      1.0  0.33329  0.00276  0.05353  1.0000
  S   S33       1.0  0.35714  0.29015  0.34067  1.0000
  H   H119      1.0  0.43111  0.22379  0.46871  1.0000
  C   C100      1.0  0.41320  0.00418  0.16331  1.0000
  C   C101      1.0  0.08330  0.15082  0.40064  1.0000
  N   N9        1.0  0.01908  0.22617  0.11982  1.0000
  C   C102      1.0  0.13093  0.12048  0.17673  1.0000
  C   C103      1.0  0.12534  0.30646  0.36045  1.0000
  C   C104      1.0  0.30266  0.31962  0.28584  1.0000
  C   C105      1.0  0.04223  0.25851  0.13426  1.0000
  C   C106      1.0  0.10941  0.12579  0.38000  1.0000
  H   H120      1.0  0.25402  0.02594  0.03917  1.0000
  C   C107      1.0  0.39630  0.01061  0.21857  1.0000
  H   H121      1.0  0.12345  0.30264  0.42643  1.0000
  H   H122      1.0  0.37173  0.01308  0.29559  1.0000
  C   C108      1.0  0.11778  0.15923  0.14774  1.0000
  H   H123      1.0  0.15089  0.29532  0.43220  1.0000
  H   H124      1.0  0.41550  0.18089  0.33945  1.0000
  C   C109      1.0  0.21724  0.15692  0.48089  1.0000
  C   C110      1.0  0.40414  0.03211  0.21756  1.0000
  H   H125      1.0  0.46085  0.22502  0.12611  1.0000
  H   H126      1.0  0.02576  0.21343  0.07107  1.0000
  H   H127      1.0  0.30052  0.07630  0.09525  1.0000
  H   H128      1.0  0.11287  0.17207  0.08130  1.0000
  C   C111      1.0  0.09881  0.16105  0.08376  1.0000
  C   C112      1.0  0.11512  0.13995  0.12961  1.0000
  H   H129      1.0  0.05917  0.11488  0.41013  1.0000
  H   H130      1.0  0.08920  0.10887  0.10401  1.0000
  S   S34       1.0  0.29682  0.00832  0.04442  1.0000
  H   H131      1.0  0.44323  0.17257  0.00162  1.0000
  S   S35       1.0  0.46464  0.10689  0.01146  1.0000
  H   H132      1.0  0.41353  0.22179  0.43430  1.0000
  H   H133      1.0  0.22206  0.15320  0.45492  1.0000
  H   H134      1.0  0.48282  0.14906  0.02238  1.0000
  H   H135      1.0  0.04614  0.20814  0.10108  1.0000
  H   H136      1.0  0.06921  0.15381  0.41737  1.0000
  C   C113      1.0  0.13333  0.13963  0.19376  1.0000
  H   H137      1.0  0.42479  0.20307  0.38588  1.0000
  H   H138      1.0  0.07826  0.15500  0.37496  1.0000
  H   H139      1.0  0.44205  0.21672  0.42922  1.0000
  C   C114      1.0  0.44210  0.16400  0.02594  1.0000
  H   H140      1.0  0.11495  0.10887  0.37796  1.0000
  C   C115      1.0  0.40073  0.04595  0.24423  1.0000
  H   H141      1.0  0.03985  0.21607  0.15957  1.0000
  H   H142      1.0  0.01636  0.24948  0.06171  1.0000
  C   C116      1.0  0.41477  0.17410  0.36438  1.0000
  C   C117      1.0  0.39160  0.28517  0.48421  1.0000
  Fe  Fe17      1.0  0.33835  0.31219  0.37366  1.0000
  H   H143      1.0  0.01832  0.06851  0.04865  1.0000
  H   H144      1.0  0.12337  0.13542  0.38832  1.0000
  H   H145      1.0  0.12040  0.10527  0.13300  1.0000
  H   H146      1.0  0.46197  0.18722  0.11203  1.0000
  H   H147      1.0  0.44282  0.00503  0.01818  1.0000
  H   H148      1.0  0.16813  0.10459  0.47127  1.0000
  H   H149      1.0  0.07809  0.09707  0.39043  1.0000
  N   N10       1.0  0.26243  0.32247  0.27468  1.0000
  H   H150      1.0  0.33542  0.07915  0.47988  1.0000
  H   H151      1.0  0.44162  0.16519  0.47657  1.0000
  S   S36       1.0  0.12402  0.03677  0.00998  1.0000
  C   C118      1.0  0.02770  0.05614  0.03478  1.0000
  H   H152      1.0  0.09332  0.15320  0.46129  1.0000
  C   C119      1.0  0.37096  0.11876  0.47484  1.0000
  H   H153      1.0  0.06158  0.28665  0.14294  1.0000
  H   H154      1.0  0.24244  0.30131  0.30506  1.0000
  C   C120      1.0  0.07311  0.11417  0.39245  1.0000
  H   H155      1.0  0.40008  0.12807  0.40478  1.0000
  H   H156      1.0  0.02111  0.19365  0.10271  1.0000
  H   H157      1.0  0.40977  0.14921  0.45265  1.0000
  C   C121      1.0  0.38932  0.03897  0.27239  1.0000
  C   C122      1.0  0.45723  0.23619  0.07601  1.0000
  H   H158      1.0  0.03271  0.28392  0.04725  1.0000
  C   C123      1.0  0.45565  0.23039  0.04293  1.0000
  C   C124      1.0  0.99548  0.22707  0.11456  1.0000
  C   C125      1.0  0.11164  0.09436  0.47542  1.0000
  C   C126      1.0  0.25970  0.30572  0.30104  1.0000
  H   H159      1.0  0.38596  0.05002  0.29244  1.0000
  Fe  Fe18      1.0  0.99694  0.11738  0.07190  1.0000
  C   C127      1.0  0.08193  0.09726  0.00368  1.0000
  C   C128      1.0  0.30398  0.09171  0.49100  1.0000
  H   H160      1.0  0.12850  0.31584  0.33726  1.0000
  H   H161      1.0  0.42954  0.00783  0.17256  1.0000
  H   H162      1.0  0.22025  0.17433  0.48485  1.0000
  C   C129      1.0  0.23740  0.00880  0.00099  1.0000
  C   C130      1.0  0.01923  0.22460  0.00236  1.0000
  C   C131      1.0  0.32387  0.32621  0.27927  1.0000
  N   N11       1.0  0.02040  0.05430  0.00011  1.0000
  S   S37       1.0  0.06508  0.11998  0.99969  1.0000
  H   H163      1.0  0.25311  0.32594  0.22340  1.0000
  H   H164      1.0  0.40914  0.31484  0.48637  1.0000
  H   H165      1.0  0.43245  0.32669  0.29163  1.0000
  S   S38       1.0  0.31543  0.29169  0.66801  1.0000
  Fe  Fe19      1.0  0.38502  0.19094  0.67317  1.0000
  S   S39       1.0  0.41229  0.17652  0.64408  1.0000
  S   S40       1.0  0.39021  0.22467  0.69130  1.0000
  Fe  Fe20      1.0  0.35934  0.14926  0.67315  1.0000
  S   S41       1.0  0.38509  0.13154  0.64460  1.0000
  S   S42       1.0  0.32934  0.13096  0.68908  1.0000
  Fe  Fe21      1.0  0.40810  0.14815  0.67887  1.0000
  S   S43       1.0  0.43800  0.13386  0.70265  1.0000
  Fe  Fe22      1.0  0.38676  0.16152  0.61283  1.0000
  S   S44       1.0  0.38420  0.16690  0.55710  1.0000
  S   S45       1.0  0.38215  0.16350  0.70963  1.0000
  S   S46       1.0  0.35977  0.17828  0.63965  1.0000
  Fe  Fe23      1.0  0.21015  0.14020  0.63532  1.0000
  S   S47       1.0  0.20205  0.10629  0.62195  1.0000
  S   S48       1.0  0.24148  0.15677  0.62216  1.0000
  Fe  Fe24      1.0  0.16399  0.15092  0.65319  1.0000
  S   S49       1.0  0.15215  0.11809  0.63977  1.0000
  S   S50       1.0  0.14069  0.17554  0.67326  1.0000
  Fe  Fe25      1.0  0.18081  0.10621  0.66829  1.0000
  S   S51       1.0  0.17473  0.07654  0.70175  1.0000
  Fe  Fe26      1.0  0.17418  0.12116  0.59501  1.0000
  S   S52       1.0  0.16854  0.11027  0.54197  1.0000
  S   S53       1.0  0.19157  0.13914  0.68378  1.0000
  S   S54       1.0  0.18333  0.15498  0.60623  1.0000
  Fe  Fe27      1.0  0.15578  0.29900  0.67501  1.0000
  H   H166      1.0  0.39854  0.20192  0.75252  1.0000
  S   S55       1.0  0.17589  0.27077  0.65801  1.0000
  C   C132      1.0  0.20567  0.28843  0.73577  1.0000
  C   C133      1.0  0.44574  0.20080  0.79439  1.0000
  Fe  Fe28      1.0  0.47981  0.13379  0.89425  1.0000
  S   S56       1.0  0.46899  0.14886  0.94203  1.0000
  S   S57       1.0  0.45150  0.13590  0.85905  1.0000
  Fe  Fe29      1.0  0.48361  0.12038  0.96726  1.0000
  H   H167      1.0  0.12819  0.10687  0.70279  1.0000
  H   H168      1.0  0.34969  0.08625  0.53403  1.0000
  Fe  Fe30      1.0  0.16050  0.03098  0.89401  1.0000
  S   S58       1.0  0.17461  0.03423  0.94504  1.0000
  S   S59       1.0  0.16973  0.05904  0.85885  1.0000
  Fe  Fe31      1.0  0.14202  0.02405  0.96473  1.0000
  C   C134      1.0  0.24092  0.03355  0.83826  1.0000
  S   S60       1.0  0.12731  0.02373  0.91453  1.0000
  C   C135      1.0  0.45458  0.20576  0.85304  1.0000
  H   H169      1.0  0.14385  0.29858  0.57349  1.0000
  C   C136      1.0  0.37902  0.27022  0.50173  1.0000
  C   C137      1.0  0.12045  0.07779  0.82235  1.0000
  C   C138      1.0  0.26404  0.15591  0.53079  1.0000
  C   C139      1.0  0.36545  0.15365  0.50004  1.0000
  C   C140      1.0  0.38811  0.08982  0.97552  1.0000
  H   H170      1.0  0.10504  0.14153  0.51549  1.0000
  H   H171      1.0  0.20754  0.03339  0.82206  1.0000
  H   H172      1.0  0.43638  0.04492  0.95112  1.0000
  H   H173      1.0  0.46108  0.07595  0.95837  1.0000
  C   C141      1.0  0.01173  0.26240  0.98711  1.0000
  C   C142      1.0  0.10800  0.07283  0.97817  1.0000
  C   C143      1.0  0.19723  0.31036  0.58054  1.0000
  H   H174      1.0  0.10126  0.11571  0.71416  1.0000
  C   C144      1.0  0.29725  0.15603  0.49830  1.0000
  C   C145      1.0  0.17369  0.07201  0.74558  1.0000
  C   C146      1.0  0.18080  0.08725  0.76817  1.0000
  C   C147      1.0  0.17946  0.08292  0.80260  1.0000
  C   C148      1.0  0.17132  0.06322  0.81503  1.0000
  C   C149      1.0  0.16468  0.04776  0.79247  1.0000
  C   C150      1.0  0.16583  0.05218  0.75801  1.0000
  H   H175      1.0  0.18765  0.10225  0.75919  1.0000
  H   H176      1.0  0.18486  0.09491  0.81977  1.0000
  H   H177      1.0  0.15843  0.03252  0.80154  1.0000
  H   H178      1.0  0.16049  0.04016  0.74083  1.0000
  C   C151      1.0  0.15048  0.20206  0.66963  1.0000
  C   C152      1.0  0.13750  0.21939  0.67952  1.0000
  C   C153      1.0  0.14512  0.24063  0.67629  1.0000
  C   C154      1.0  0.16573  0.24454  0.66305  1.0000
  C   C155      1.0  0.17872  0.22723  0.65336  1.0000
  C   C156      1.0  0.17119  0.20605  0.65682  1.0000
  H   H179      1.0  0.12148  0.21639  0.68951  1.0000
  H   H180      1.0  0.13501  0.25394  0.68384  1.0000
  H   H181      1.0  0.19467  0.23018  0.64311  1.0000
  H   H182      1.0  0.18142  0.19282  0.64953  1.0000
  H   H183      1.0  0.38949  0.09631  0.50380  1.0000
  C   C157      1.0  0.15539  0.14926  0.51505  1.0000
  H   H184      1.0  0.19934  0.30355  0.74689  1.0000
  H   H185      1.0  0.01918  0.07451  0.95638  1.0000
  H   H186      1.0  0.25056  0.06702  0.75615  1.0000
  H   H187      1.0  0.15442  0.15504  0.54022  1.0000
  H   H188      1.0  0.43795  0.17767  0.73673  1.0000
  C   C158      1.0  0.44164  0.13368  0.74623  1.0000
  C   C159      1.0  0.46209  0.12927  0.75920  1.0000
  C   C160      1.0  0.46555  0.12979  0.79370  1.0000
  C   C161      1.0  0.44853  0.13474  0.81548  1.0000
  C   C162      1.0  0.42808  0.13891  0.80249  1.0000
  C   C163      1.0  0.42464  0.13833  0.76814  1.0000
  H   H189      1.0  0.47534  0.12558  0.74245  1.0000
  C   C164      1.0  0.02405  0.01855  0.96996  1.0000
  H   H190      1.0  0.41481  0.14276  0.81910  1.0000
  H   H191      1.0  0.40878  0.14142  0.75864  1.0000
  C   C165      1.0  0.30451  0.13905  0.67244  1.0000
  C   C166      1.0  0.30321  0.15691  0.65121  1.0000
  C   C167      1.0  0.28373  0.16217  0.63615  1.0000
  C   C168      1.0  0.26525  0.14982  0.64261  1.0000
  C   C169      1.0  0.26630  0.13213  0.66428  1.0000
  C   C170      1.0  0.28594  0.12675  0.67915  1.0000
  H   H192      1.0  0.31719  0.16670  0.64626  1.0000
  H   H193      1.0  0.28294  0.17597  0.61960  1.0000
  H   H194      1.0  0.25205  0.12255  0.66939  1.0000
  H   H195      1.0  0.28680  0.11293  0.69565  1.0000
  N   N12       1.0  0.22661  0.29194  0.71810  1.0000
  C   C171      1.0  0.38564  0.12642  0.52936  1.0000
  C   C172      1.0  0.37735  0.14729  0.52778  1.0000
  H   H196      1.0  0.20753  0.25125  0.70935  1.0000
  H   H197      1.0  0.39530  0.12152  0.55021  1.0000
  H   H198      1.0  0.11776  0.06822  0.95692  1.0000
  C   C173      1.0  0.33610  0.27313  0.67542  1.0000
  C   C174      1.0  0.35456  0.27905  0.69240  1.0000
  C   C175      1.0  0.37097  0.26393  0.69769  1.0000
  C   C176      1.0  0.36905  0.24298  0.68565  1.0000
  C   C177      1.0  0.35063  0.23714  0.66857  1.0000
  C   C178      1.0  0.33418  0.25218  0.66349  1.0000
  H   H199      1.0  0.35606  0.29516  0.70187  1.0000
  H   H200      1.0  0.38520  0.26850  0.71098  1.0000
  H   H201      1.0  0.34901  0.22106  0.65926  1.0000
  H   H202      1.0  0.32004  0.24758  0.65003  1.0000
  H   H203      1.0  0.48967  0.17087  0.81751  1.0000
  N   N13       1.0  0.41294  0.08147  0.88900  1.0000
  C   C179      1.0  0.43663  0.07905  0.88494  1.0000
  C   C180      1.0  0.40323  0.05997  0.88377  1.0000
  C   C181      1.0  0.40510  0.09618  0.86264  1.0000
  C   C182      1.0  0.40753  0.09063  0.92186  1.0000
  C   C183      1.0  0.39273  0.08073  0.94467  1.0000
  C   C184      1.0  0.41682  0.11037  0.93164  1.0000
  H   H204      1.0  0.36475  0.26098  0.54814  1.0000
  C   C185      1.0  0.15868  0.30462  0.58535  1.0000
  H   H205      1.0  0.46768  0.17807  0.76961  1.0000
  H   H206      1.0  0.44531  0.09460  0.88598  1.0000
  H   H207      1.0  0.44330  0.06851  0.90468  1.0000
  H   H208      1.0  0.44119  0.07206  0.86053  1.0000
  H   H209      1.0  0.38533  0.06072  0.88414  1.0000
  H   H210      1.0  0.40842  0.04819  0.90316  1.0000
  C   C186      1.0  0.39796  0.10891  0.98461  1.0000
  H   H211      1.0  0.40903  0.09012  0.83737  1.0000
  H   H212      1.0  0.38736  0.09846  0.86471  1.0000
  H   H213      1.0  0.41254  0.11238  0.86402  1.0000
  H   H214      1.0  0.40655  0.31148  0.60094  1.0000
  H   H215      1.0  0.42794  0.11906  0.91553  1.0000
  C   C187      1.0  0.33310  0.09056  0.53011  1.0000
  S   S61       1.0  0.02148  0.28753  0.97026  1.0000
  H   H216      1.0  0.23362  0.10982  0.51584  1.0000
  H   H217      1.0  0.48135  0.12644  0.80338  1.0000
  C   C188      1.0  0.26173  0.04140  0.82907  1.0000
  C   C189      1.0  0.06847  0.02468  0.96251  1.0000
  H   H218      1.0  0.38383  0.27577  0.63464  1.0000
  H   H219      1.0  0.38505  0.06552  0.93997  1.0000
  H   H220      1.0  0.01342  0.08820  0.99459  1.0000
  H   H221      1.0  0.26331  0.03203  0.89789  1.0000
  H   H222      1.0  0.42796  0.19987  0.71364  1.0000
  C   C190      1.0  0.23307  0.30857  0.60544  1.0000
  H   H223      1.0  0.40930  0.20114  0.50051  1.0000
  H   H224      1.0  0.37655  0.25910  0.60138  1.0000
  C   C191      1.0  0.38871  0.31219  0.60367  1.0000
  N   N14       1.0  0.23663  0.02093  0.86907  1.0000
  C   C192      1.0  0.47645  0.18220  0.81952  1.0000
  H   H225      1.0  0.21267  0.29962  0.67107  1.0000
  H   H226      1.0  0.19295  0.28311  0.71868  1.0000
  C   C193      1.0  0.25219  0.14822  0.50346  1.0000
  H   H227      1.0  0.11984  0.06535  0.84146  1.0000
  H   H228      1.0  0.48182  0.18815  0.87121  1.0000
  C   C194      1.0  0.22299  0.30704  0.69011  1.0000
  C   C195      1.0  0.24129  0.30220  0.74195  1.0000
  H   H229      1.0  0.09685  0.14259  0.76119  1.0000
  S   S62       1.0  0.12320  0.31060  0.65903  1.0000
  H   H230      1.0  0.13142  0.10195  0.85547  1.0000
  C   C196      1.0  0.03326  0.03759  0.98286  1.0000
  H   H231      1.0  0.45110  0.21299  0.87687  1.0000
  H   H232      1.0  0.20713  0.27631  0.75613  1.0000
  C   C197      1.0  0.43867  0.19548  0.73456  1.0000
  H   H233      1.0  0.22620  0.13742  0.55836  1.0000
  H   H234      1.0  0.42244  0.23391  0.73729  1.0000
  H   H235      1.0  0.23834  0.31210  0.67777  1.0000
  H   H236      1.0  0.15875  0.11897  0.73225  1.0000
  H   H237      1.0  0.44850  0.23564  0.75568  1.0000
  C   C198      1.0  0.43180  0.22953  0.75969  1.0000
  H   H238      1.0  0.11749  0.10435  0.52536  1.0000
  N   N15       1.0  0.43178  0.20596  0.76595  1.0000
  H   H239      1.0  0.11152  0.05648  0.78355  1.0000
  C   C199      1.0  0.22732  0.99975  0.86064  1.0000
  C   C200      1.0  0.22432  0.25248  0.70217  1.0000
  H   H240      1.0  0.24639  0.29048  0.76137  1.0000
  H   H241      1.0  0.29741  0.10711  0.61508  1.0000
  C   C201      1.0  0.40944  0.19887  0.77373  1.0000
  H   H242      1.0  0.40889  0.18133  0.77948  1.0000
  C   C202      1.0  0.23622  0.27192  0.70490  1.0000
  Fe  Fe32      1.0  0.18216  0.99901  0.94184  1.0000
  C   C203      1.0  0.43540  0.05430  0.97345  1.0000
  C   C204      1.0  0.11580  0.07284  0.78968  1.0000
  H   H243      1.0  0.42433  0.23861  0.78043  1.0000
  H   H244      1.0  0.26842  0.00751  0.87492  1.0000
  H   H245      1.0  0.25659  0.15905  0.55465  1.0000
  C   C205      1.0  0.11758  0.08856  0.76465  1.0000
  H   H246      1.0  0.11444  0.08336  0.73978  1.0000
  C   C206      1.0  0.12700  0.09848  0.83019  1.0000
  C   C207      1.0  0.23385  0.23389  0.68934  1.0000
  H   H247      1.0  0.25601  0.30902  0.72977  1.0000
  H   H248      1.0  0.22448  0.21922  0.68757  1.0000
  C   C208      1.0  0.21511  0.29833  0.59229  1.0000
  H   H249      1.0  0.15168  0.14647  0.72449  1.0000
  H   H250      1.0  0.08575  0.02702  0.95983  1.0000
  H   H251      1.0  0.31449  0.15870  0.49642  1.0000
  C   C209      1.0  0.12389  0.10997  0.77189  1.0000
  C   C210      1.0  0.12873  0.11437  0.80543  1.0000
  H   H252      1.0  0.40226  0.20737  0.79528  1.0000
  H   H253      1.0  0.42009  0.13393  0.96977  1.0000
  H   H254      1.0  0.34187  0.13534  0.57159  1.0000
  C   C211      1.0  0.25779  0.27175  0.69262  1.0000
  N   N16       1.0  0.12628  0.12699  0.74603  1.0000
  C   C212      1.0  0.11404  0.14652  0.75573  1.0000
  C   C213      1.0  0.11852  0.12045  0.71300  1.0000
  H   H255      1.0  0.12007  0.13380  0.69435  1.0000
  H   H256      1.0  0.07024  0.30005  0.80803  1.0000
  C   C214      1.0  0.41221  0.11922  0.96263  1.0000
  C   C215      1.0  0.25527  0.23412  0.67854  1.0000
  S   S63       1.0  0.15082  0.30764  0.72823  1.0000
  H   H257      1.0  0.26767  0.28607  0.69243  1.0000
  C   C216      1.0  0.14932  0.13274  0.74212  1.0000
  H   H258      1.0  0.12076  0.15439  0.77782  1.0000
  H   H259      1.0  0.11451  0.15906  0.73564  1.0000
  H   H260      1.0  0.13446  0.12998  0.81266  1.0000
  C   C217      1.0  0.44160  0.21022  0.82580  1.0000
  H   H261      1.0  0.28795  0.11385  0.56347  1.0000
  C   C218      1.0  0.44936  0.07185  0.97750  1.0000
  C   C219      1.0  0.26717  0.25305  0.68002  1.0000
  H   H262      1.0  0.21848  0.02457  0.91485  1.0000
  H   H263      1.0  0.26258  0.21962  0.66875  1.0000
  H   H264      1.0  0.06401  0.05402  0.98791  1.0000
  H   H265      1.0  0.15664  0.13749  0.76586  1.0000
  N   N17       1.0  0.32807  0.10529  0.58841  1.0000
  C   C220      1.0  0.22099  0.03269  0.89033  1.0000
  H   H266      1.0  0.48756  0.24653  0.95194  1.0000
  H   H267      1.0  0.40810  0.05323  0.85930  1.0000
  H   H268      1.0  0.34815  0.30892  0.57917  1.0000
  C   C221      1.0  0.47197  0.19179  0.84989  1.0000
  H   H269      1.0  0.21470  0.32190  0.69844  1.0000
  C   C222      1.0  0.09489  0.09124  0.97648  1.0000
  H   H270      1.0  0.34567  0.28064  0.58803  1.0000
  H   H271      1.0  0.16152  0.30199  0.51859  1.0000
  H   H272      1.0  0.28379  0.25334  0.67135  1.0000
  C   C223      1.0  0.29864  0.10576  0.54625  1.0000
  H   H273      1.0  0.18130  0.26843  0.58659  1.0000
  C   C224      1.0  0.32000  0.10025  0.55506  1.0000
  H   H274      1.0  0.19005  0.30732  0.51561  1.0000
  H   H275      1.0  0.21143  0.00125  0.84860  1.0000
  H   H276      1.0  0.15958  0.29683  0.61013  1.0000
  H   H277      1.0  0.40228  0.32014  0.54495  1.0000
  H   H278      1.0  0.23342  0.31599  0.75469  1.0000
  N   N18       1.0  0.22882  0.14349  0.50550  1.0000
  C   C225      1.0  0.03682  0.00327  0.95359  1.0000
  S   S64       1.0  0.16915  0.99595  0.88966  1.0000
  H   H279      1.0  0.31921  0.09921  0.63988  1.0000
  C   C226      1.0  0.33057  0.12888  0.59104  1.0000
  C   C227      1.0  0.38305  0.29072  0.55303  1.0000
  C   C228      1.0  0.25610  0.01680  0.88906  1.0000
  C   C229      1.0  0.02347  0.07539  0.98301  1.0000
  C   C230      1.0  0.46357  0.18651  0.79209  1.0000
  C   C231      1.0  0.05896  0.00639  0.94971  1.0000
  C   C232      1.0  0.38252  0.11225  0.50289  1.0000
  H   H280      1.0  0.42818  0.22100  0.82959  1.0000
  C   C233      1.0  0.16200  0.12817  0.50906  1.0000
  C   C234      1.0  0.17534  0.30947  0.53136  1.0000
  H   H281      1.0  0.36234  0.10205  0.57948  1.0000
  C   C235      1.0  0.11147  0.10903  0.50121  1.0000
  C   C236      1.0  0.39572  0.30575  0.53430  1.0000
  C   C237      1.0  0.32508  0.08638  0.49865  1.0000
  C   C238      1.0  0.28620  0.15979  0.52805  1.0000
  H   H282      1.0  0.09462  0.10072  0.95379  1.0000
  C   C239      1.0  0.37474  0.27290  0.53564  1.0000
  H   H283      1.0  0.29485  0.16566  0.54925  1.0000
  H   H284      1.0  0.35421  0.09821  0.62154  1.0000
  C   C240      1.0  0.31258  0.09764  0.61452  1.0000
  H   H285      1.0  0.25219  0.00706  0.91180  1.0000
  H   H286      1.0  0.34868  0.07750  0.59245  1.0000
  H   H287      1.0  0.27566  0.03864  0.84416  1.0000
  N   N19       1.0  0.37825  0.29315  0.58893  1.0000
  H   H288      1.0  0.16565  0.26957  0.55015  1.0000
  H   H289      1.0  0.22060  0.16485  0.54577  1.0000
  H   H290      1.0  0.30840  0.08043  0.61110  1.0000
  C   C241      1.0  0.39986  0.30291  0.50041  1.0000
  H   H291      1.0  0.21412  0.05374  0.77084  1.0000
  H   H292      1.0  0.38497  0.31346  0.63072  1.0000
  H   H293      1.0  0.45528  0.20029  0.72684  1.0000
  H   H294      1.0  0.24657  0.29910  0.61415  1.0000
  H   H295      1.0  0.35056  0.29887  0.62070  1.0000
  H   H296      1.0  0.33705  0.13342  0.61555  1.0000
  C   C242      1.0  0.34923  0.09524  0.59557  1.0000
  H   H297      1.0  0.31498  0.13744  0.58831  1.0000
  H   H298      1.0  0.19436  0.27201  0.54635  1.0000
  H   H299      1.0  0.20488  0.03385  0.87902  1.0000
  C   C243      1.0  0.22387  0.03847  0.81644  1.0000
  C   C244      1.0  0.35468  0.29544  0.59432  1.0000
  Fe  Fe33      1.0  0.01324  0.32307  0.95772  1.0000
  N   N20       1.0  0.17830  0.30026  0.56512  1.0000
  C   C245      1.0  0.02594  0.24472  0.98892  1.0000
  C   C246      1.0  0.22744  0.05025  0.78711  1.0000
  C   C247      1.0  0.26508  0.05333  0.79973  1.0000
  C   C248      1.0  0.38576  0.27383  0.60738  1.0000
  H   H300      1.0  0.21552  0.28098  0.59191  1.0000
  S   S65       1.0  0.09132  0.31191  0.74671  1.0000
  H   H301      1.0  0.28102  0.05929  0.79319  1.0000
  H   H302      1.0  0.05136  0.32111  0.85169  1.0000
  C   C249      1.0  0.29074  0.10122  0.51485  1.0000
  H   H303      1.0  0.40309  0.27060  0.60206  1.0000
  C   C250      1.0  0.24797  0.05772  0.77880  1.0000
  C   C251      1.0  0.06963  0.31741  0.80596  1.0000
  H   H304      1.0  0.22650  0.04939  0.89498  1.0000
  C   C252      1.0  0.21898  0.14770  0.53865  1.0000
  H   H305      1.0  0.00704  0.01514  0.97200  1.0000
  H   H306      1.0  0.04033  0.08126  0.98399  1.0000
  C   C253      1.0  0.18013  0.27655  0.56187  1.0000
  H   H307      1.0  0.20144  0.14407  0.53926  1.0000
  H   H308      1.0  0.17174  0.32696  0.53185  1.0000
  H   H309      1.0  0.20763  0.11627  0.50019  1.0000
  H   H310      1.0  0.04232  0.24661  0.97980  1.0000
  H   H311      1.0  0.06882  0.99462  0.93678  1.0000
  Fe  Fe34      1.0  0.11927  0.32179  0.71229  1.0000
  H   H312      1.0  0.15628  0.32197  0.58986  1.0000
  Fe  Fe35      1.0  0.32428  0.32661  0.67237  1.0000
  C   C254      1.0  0.05586  0.04006  0.97872  1.0000
  H   H313      1.0  0.35919  0.16986  0.49846  1.0000
  C   C255      1.0  0.22504  0.12050  0.49810  1.0000
  H   H314      1.0  0.27437  0.10538  0.50875  1.0000
  S   S66       1.0  0.40090  0.02869  0.98986  1.0000
  H   H315      1.0  0.11960  0.32438  0.81121  1.0000
  C   C256      1.0  0.49421  0.24281  0.97595  1.0000
  C   C257      1.0  0.00428  0.31996  0.82473  1.0000
  H   H316      1.0  0.47845  0.00476  0.98981  1.0000
  S   S67       1.0  0.49222  0.10377  0.91967  1.0000
  H   H317      1.0  0.01588  0.30986  0.81042  1.0000
  H   H318      1.0  0.11543  0.32578  0.50750  1.0000
  C   C258      1.0  0.10444  0.12999  0.49558  1.0000
  H   H319      1.0  0.48968  0.27520  0.99426  1.0000
  H   H320      1.0  0.37748  0.08147  0.99302  1.0000
  C   C259      1.0  0.34562  0.41027  0.09832  1.0000
  Fe  Fe36      1.0  0.18743  0.34045  0.30942  1.0000
  C   C260      1.0  0.13870  0.35010  0.49338  1.0000
  H   H321      1.0  0.18847  0.35867  0.44075  1.0000
  S   S68       1.0  0.39013  0.35332  0.44415  1.0000
  S   S69       1.0  0.48299  0.36953  0.09926  1.0000
  H   H322      1.0  0.33769  0.40341  0.44784  1.0000
  Fe  Fe37      1.0  0.20919  0.37681  0.34439  1.0000
  S   S70       1.0  0.17781  0.39161  0.35993  1.0000
  S   S71       1.0  0.24226  0.38953  0.35581  1.0000
  C   C261      1.0  0.02920  0.50291  0.99831  1.0000
  S   S72       1.0  0.15450  0.35249  0.32249  1.0000
  Fe  Fe38      1.0  0.16793  0.38487  0.30771  1.0000
  S   S73       1.0  0.14870  0.40961  0.27837  1.0000
  Fe  Fe39      1.0  0.16543  0.35745  0.37756  1.0000
  C   C262      1.0  0.41843  0.42881  0.00219  1.0000
  S   S74       1.0  0.20015  0.37229  0.29140  1.0000
  H   H323      1.0  0.11907  0.34710  0.37367  1.0000
  Fe  Fe40      1.0  0.02420  0.62824  0.07313  1.0000
  S   S75       1.0  0.00913  0.63114  0.02316  1.0000
  S   S76       1.0  0.05986  0.61884  0.06801  1.0000
  C   C263      1.0  0.01974  0.54393  0.02216  1.0000
  C   C264      1.0  0.37727  0.42019  0.06578  1.0000
  Fe  Fe41      1.0  0.46943  0.35051  0.05706  1.0000
  H   H324      1.0  0.30215  0.34450  0.44328  1.0000
  H   H325      1.0  0.31065  0.42212  0.05852  1.0000
  Fe  Fe42      1.0  0.13421  0.50707  0.07609  1.0000
  S   S77       1.0  0.14613  0.50509  0.02315  1.0000
  S   S78       1.0  0.10720  0.52877  0.09716  1.0000
  Fe  Fe43      1.0  0.15932  0.46584  0.09608  1.0000
  S   S79       1.0  0.17174  0.46090  0.04377  1.0000
  S   S80       1.0  0.17432  0.44140  0.13155  1.0000
  Fe  Fe44      1.0  0.17891  0.49618  0.04339  1.0000
  S   S81       1.0  0.21136  0.51074  0.02508  1.0000
  Fe  Fe45      1.0  0.13829  0.46978  0.02808  1.0000
  C   C265      1.0  0.00545  0.53382  0.00123  1.0000
  S   S82       1.0  0.16747  0.50113  0.09640  1.0000
  S   S83       1.0  0.12527  0.47181  0.08010  1.0000
  C   C266      1.0  0.42695  0.33398  0.19612  1.0000
  C   C267      1.0  0.09431  0.42839  0.02766  1.0000
  C   C268      1.0  0.07734  0.41384  0.03390  1.0000
  H   H326      1.0  0.10380  0.43411  0.04796  1.0000
  H   H327      1.0  0.07385  0.40852  0.05908  1.0000
  H   H328      1.0  0.31700  0.44463  0.08499  1.0000
  C   C269      1.0  0.13410  0.34889  0.38635  1.0000
  H   H329      1.0  0.35103  0.38726  0.13789  1.0000
  H   H330      1.0  0.44292  0.43876  0.03597  1.0000
  C   C270      1.0  0.35830  0.39655  0.11770  1.0000
  S   S84       1.0  0.44407  0.36042  0.01979  1.0000
  H   H331      1.0  0.33741  0.41066  0.01514  1.0000
  C   C271      1.0  0.29981  0.38680  0.42995  1.0000
  H   H332      1.0  0.45676  0.40184  0.04635  1.0000
  C   C272      1.0  0.06515  0.40588  0.00777  1.0000
  C   C273      1.0  0.07204  0.59307  0.07455  1.0000
  C   C274      1.0  0.09189  0.58837  0.05873  1.0000
  C   C275      1.0  0.10270  0.56870  0.06470  1.0000
  C   C276      1.0  0.09410  0.55365  0.08741  1.0000
  C   C277      1.0  0.07424  0.55834  0.10317  1.0000
  C   C278      1.0  0.06313  0.57772  0.09646  1.0000
  H   H333      1.0  0.09908  0.60012  0.04191  1.0000
  H   H334      1.0  0.11796  0.56545  0.05242  1.0000
  H   H335      1.0  0.06746  0.54698  0.12100  1.0000
  H   H336      1.0  0.04806  0.58111  0.10919  1.0000
  H   H337      1.0  0.34071  0.46972  0.03337  1.0000
  C   C279      1.0  0.26624  0.33311  0.38875  1.0000
  H   H338      1.0  0.12789  0.38406  0.39590  1.0000
  H   H339      1.0  0.06390  0.51549  0.07921  1.0000
  H   H340      1.0  0.34130  0.38515  0.41408  1.0000
  C   C280      1.0  0.15586  0.41831  0.23745  1.0000
  C   C281      1.0  0.17369  0.40981  0.22048  1.0000
  C   C282      1.0  0.17889  0.41698  0.18804  1.0000
  C   C283      1.0  0.16638  0.43273  0.17208  1.0000
  C   C284      1.0  0.14860  0.44136  0.18904  1.0000
  C   C285      1.0  0.14338  0.43415  0.22156  1.0000
  H   H341      1.0  0.18340  0.39760  0.23227  1.0000
  H   H342      1.0  0.19267  0.41021  0.17517  1.0000
  H   H343      1.0  0.13891  0.45357  0.17715  1.0000
  H   H344      1.0  0.12957  0.44085  0.23447  1.0000
  H   H345      1.0  0.01381  0.42345  0.05013  1.0000
  C   C286      1.0  0.38029  0.39452  0.11098  1.0000
  H   H346      1.0  0.39003  0.38369  0.12577  1.0000
  H   H347      1.0  0.05076  0.48997  0.07551  1.0000
  H   H348      1.0  0.27768  0.35348  0.23131  1.0000
  H   H349      1.0  0.32274  0.35133  0.41363  1.0000
  H   H350      1.0  0.05515  0.46917  0.02331  1.0000
  H   H351      1.0  0.49059  0.37928  0.17324  1.0000
  N   N21       1.0  0.34192  0.43644  0.04942  1.0000
  C   C287      1.0  0.38975  0.40633  0.08505  1.0000
  H   H352      1.0  0.28418  0.37808  0.43053  1.0000
  H   H353      1.0  0.24777  0.35354  0.26453  1.0000
  H   H354      1.0  0.07967  0.49193  0.07498  1.0000
  C   C288      1.0  0.28128  0.36896  0.35292  1.0000
  C   C289      1.0  0.26010  0.36866  0.36561  1.0000
  C   C290      1.0  0.25286  0.35095  0.38427  1.0000
  C   C291      1.0  0.06461  0.49982  0.06636  1.0000
  C   C292      1.0  0.04418  0.51282  0.01960  1.0000
  H   H355      1.0  0.28690  0.38263  0.33832  1.0000
  H   H356      1.0  0.34482  0.34724  0.25111  1.0000
  H   H357      1.0  0.25653  0.34949  0.30616  1.0000
  N   N22       1.0  0.22766  0.48752  0.12846  1.0000
  C   C293      1.0  0.22970  0.50740  0.10775  1.0000
  C   C294      1.0  0.24932  0.48237  0.14121  1.0000
  C   C295      1.0  0.22086  0.46994  0.10643  1.0000
  C   C296      1.0  0.21214  0.48950  0.15662  1.0000
  C   C297      1.0  0.20021  0.50861  0.16294  1.0000
  C   C298      1.0  0.20856  0.47190  0.17884  1.0000
  C   C299      1.0  0.18534  0.50966  0.18936  1.0000
  C   C300      1.0  0.19383  0.47323  0.20536  1.0000
  C   C301      1.0  0.18211  0.49199  0.21044  1.0000
  H   H358      1.0  0.23557  0.52122  0.12228  1.0000
  H   H359      1.0  0.24116  0.50531  0.08644  1.0000
  H   H360      1.0  0.21409  0.51187  0.09641  1.0000
  H   H361      1.0  0.25457  0.49472  0.15912  1.0000
  H   H362      1.0  0.26159  0.48169  0.12076  1.0000
  H   H363      1.0  0.24969  0.46649  0.15417  1.0000
  H   H364      1.0  0.23180  0.46833  0.08446  1.0000
  H   H365      1.0  0.22028  0.45402  0.11922  1.0000
  H   H366      1.0  0.20443  0.47293  0.09693  1.0000
  H   H367      1.0  0.20159  0.52278  0.14733  1.0000
  H   H368      1.0  0.21651  0.45664  0.17522  1.0000
  H   H369      1.0  0.17593  0.52414  0.19314  1.0000
  H   H370      1.0  0.19089  0.45932  0.22137  1.0000
  H   H371      1.0  0.17025  0.49266  0.23045  1.0000
  C   C302      1.0  0.34285  0.42770  0.01539  1.0000
  H   H372      1.0  0.31082  0.35100  0.34668  1.0000
  C   C303      1.0  0.31146  0.35201  0.23889  1.0000
  H   H373      1.0  0.35175  0.46533  0.07387  1.0000
  H   H374      1.0  0.23691  0.35100  0.39527  1.0000
  H   H375      1.0  0.30462  0.38804  0.40327  1.0000
  C   C304      1.0  0.16952  0.33395  0.41270  1.0000
  Fe  Fe46      1.0  0.47811  0.33869  0.12892  1.0000
  C   C305      1.0  0.24938  0.34136  0.28470  1.0000
  H   H376      1.0  0.30976  0.44892  0.04277  1.0000
  H   H377      1.0  0.00106  0.63232  0.24454  1.0000
  C   C306      1.0  0.32827  0.34232  0.25591  1.0000
  H   H378      1.0  0.22966  0.46681  0.02275  1.0000
  H   H379      1.0  0.39268  0.33192  0.20599  1.0000
  H   H380      1.0  0.46468  0.64291  0.03535  1.0000
  C   C307      1.0  0.33751  0.38611  0.44114  1.0000
  S   S85       1.0  0.19917  0.34400  0.36090  1.0000
  H   H381      1.0  0.38531  0.42893  0.04592  1.0000
  H   H382      1.0  0.42922  0.62289  0.02679  1.0000
  C   C308      1.0  0.29479  0.35109  0.35760  1.0000
  H   H383      1.0  0.32869  0.41087  0.10465  1.0000
  C   C309      1.0  0.29018  0.34552  0.24513  1.0000
  H   H384      1.0  0.01608  0.55995  0.03115  1.0000
  H   H385      1.0  0.29678  0.40342  0.43886  1.0000
  C   C310      1.0  0.23706  0.50002  0.01244  1.0000
  C   C311      1.0  0.35482  0.42252  0.07157  1.0000
  C   C312      1.0  0.13908  0.37093  0.39961  1.0000
  S   S86       1.0  0.04383  0.38786  0.01687  1.0000
  N   N23       1.0  0.06450  0.50237  0.02973  1.0000
  C   C313      1.0  0.43410  0.38682  0.01426  1.0000
  H   H386      1.0  0.26618  0.45353  0.00699  1.0000
  C   C314      1.0  0.24195  0.47805  0.01442  1.0000
  N   N24       1.0  0.31653  0.37586  0.44995  1.0000
  C   C315      1.0  0.31781  0.35300  0.44014  1.0000
  S   S87       1.0  0.35873  0.34108  0.36179  1.0000
  H   H387      1.0  0.08278  0.53204  0.03046  1.0000
  C   C316      1.0  0.35081  0.45862  0.04851  1.0000
  C   C317      1.0  0.43558  0.42525  0.02385  1.0000
  C   C318      1.0  0.31886  0.43799  0.05962  1.0000
  H   H388      1.0  0.40684  0.40460  0.07958  1.0000
  C   C319      1.0  0.44340  0.40436  0.02989  1.0000
  C   C320      1.0  0.44750  0.33387  0.20979  1.0000
  H   H389      1.0  0.35109  0.37787  0.45355  1.0000
  H   H390      1.0  0.16197  0.39000  0.43036  1.0000
  H   H391      1.0  0.33237  0.43702  0.99825  1.0000
  S   S88       1.0  0.13679  0.34398  0.45056  1.0000
  C   C321      1.0  0.99837  0.41515  0.05654  1.0000
  C   C322      1.0  0.15898  0.37438  0.41981  1.0000
  C   C323      1.0  0.17445  0.35612  0.42576  1.0000
  H   H392      1.0  0.31497  0.36461  0.22081  1.0000
  C   C324      1.0  0.43078  0.32868  0.26512  1.0000
  H   H393      1.0  0.32985  0.34410  0.45508  1.0000
  C   C325      1.0  0.41021  0.32898  0.25150  1.0000
  H   H394      1.0  0.99921  0.45605  0.05999  1.0000
  H   H395      1.0  0.16185  0.37581  0.48817  1.0000
  H   H396      1.0  0.36723  0.45946  0.03709  1.0000
  Fe  Fe47      1.0  0.37813  0.33012  0.40562  1.0000
  H   H397      1.0  0.00278  0.39779  0.05851  1.0000
  H   H398      1.0  0.08345  0.47361  0.02382  1.0000
  H   H399      1.0  0.40849  0.38083  0.49058  1.0000
  H   H400      1.0  0.04945  0.54229  0.04737  1.0000
  H   H401      1.0  0.35944  0.42828  0.00448  1.0000
  H   H402      1.0  0.40316  0.65060  0.02701  1.0000
  C   C326      1.0  0.08309  0.51591  0.01905  1.0000
  C   C327      1.0  0.38357  0.35704  0.48678  1.0000
  C   C328      1.0  0.28708  0.33301  0.37507  1.0000
  C   C329      1.0  0.28511  0.32911  0.26883  1.0000
  C   C330      1.0  0.03882  0.53366  0.03125  1.0000
  S   S89       1.0  0.47147  0.33769  0.18519  1.0000
  H   H403      1.0  0.35758  0.33415  0.49155  1.0000
  C   C331      1.0  0.31082  0.37706  0.48572  1.0000
  H   H404      1.0  0.27893  0.36280  0.48088  1.0000
  H   H405      1.0  0.42526  0.33601  0.16962  1.0000
  H   H406      1.0  0.23270  0.33672  0.29221  1.0000
  H   H407      1.0  0.09865  0.50853  0.02641  1.0000
  C   C332      1.0  0.26275  0.47055  0.00532  1.0000
  H   H408      1.0  0.05413  0.64860  0.00073  1.0000
  C   C333      1.0  0.46529  0.64375  0.00777  1.0000
  C   C334      1.0  0.06797  0.48072  0.01543  1.0000
  C   C335      1.0  0.40847  0.33166  0.21687  1.0000
  C   C336      1.0  0.25332  0.51422  0.00089  1.0000
  S   S90       1.0  0.40908  0.45543  0.99636  1.0000
  S   S91       1.0  0.99604  0.61060  0.09683  1.0000
  C   C337      1.0  0.14940  0.32986  0.39229  1.0000
  C   C338      1.0  0.44925  0.33124  0.24442  1.0000
  H   H409      1.0  0.99674  0.39551  0.99958  1.0000
  H   H410      1.0  0.08803  0.65825  0.02036  1.0000
  H   H411      1.0  0.46501  0.33111  0.25537  1.0000
  H   H412      1.0  0.47658  0.65691  0.00044  1.0000
  H   H413      1.0  0.47292  0.62864  0.99876  1.0000
  H   H414      1.0  0.24985  0.53125  0.99916  1.0000
  C   C339      1.0  0.43133  0.62653  0.99985  1.0000
  H   H415      1.0  0.00219  0.66026  0.20044  1.0000
  Fe  Fe48      1.0  0.34688  0.36359  0.63728  1.0000
  S   S92       1.0  0.31637  0.34617  0.62718  1.0000
  S   S93       1.0  0.37113  0.37288  0.59685  1.0000
  Fe  Fe49      1.0  0.33754  0.36633  0.71247  1.0000
  S   S94       1.0  0.30653  0.34796  0.70754  1.0000
  S   S95       1.0  0.34384  0.37496  0.76664  1.0000
  H   H416      1.0  0.06027  0.40707  0.95508  1.0000
  Fe  Fe50      1.0  0.30099  0.36890  0.66316  1.0000
  S   S96       1.0  0.26852  0.38299  0.65172  1.0000
  S   S97       1.0  0.35615  0.34255  0.68079  1.0000
  S   S98       1.0  0.33086  0.38867  0.66951  1.0000
  Fe  Fe51      1.0  0.16469  0.33967  0.71401  1.0000
  S   S99       1.0  0.13298  0.35479  0.70180  1.0000
  C   C340      1.0  0.45902  0.41045  0.94449  1.0000
  Fe  Fe52      1.0  0.13949  0.34262  0.64976  1.0000
  S   S100      1.0  0.14058  0.36533  0.60486  1.0000
  H   H417      1.0  0.18507  0.34330  0.57642  1.0000
  H   H418      1.0  0.43993  0.61250  0.98887  1.0000
  C   C341      1.0  0.44515  0.42252  0.92469  1.0000
  H   H419      1.0  0.13284  0.35164  0.92879  1.0000
  S   S101      1.0  0.47901  0.59589  0.94753  1.0000
  H   H420      1.0  0.45396  0.63668  0.94550  1.0000
  Fe  Fe53      1.0  0.36408  0.47405  0.89336  1.0000
  S   S102      1.0  0.35524  0.45472  0.93907  1.0000
  S   S103      1.0  0.36496  0.46330  0.83913  1.0000
  Fe  Fe54      1.0  0.37501  0.51452  0.93350  1.0000
  C   C342      1.0  0.46238  0.38874  0.93831  1.0000
  S   S104      1.0  0.38746  0.54937  0.92683  1.0000
  Fe  Fe55      1.0  0.38423  0.46975  0.96180  1.0000
  S   S105      1.0  0.17217  0.33006  0.66212  1.0000
  Fe  Fe56      1.0  0.33698  0.48425  0.95641  1.0000
  C   C343      1.0  0.01016  0.51337  0.98933  1.0000
  S   S106      1.0  0.39474  0.48689  0.91487  1.0000
  S   S107      1.0  0.34445  0.50287  0.90895  1.0000
  Fe  Fe57      1.0  0.02492  0.35677  0.90369  1.0000
  C   C344      1.0  0.08661  0.42763  0.96912  1.0000
  S   S108      1.0  0.04074  0.36711  0.85458  1.0000
  S   S109      1.0  0.01210  0.38464  0.93332  1.0000
  H   H421      1.0  0.31915  0.48684  0.81654  1.0000
  C   C345      1.0  0.41162  0.41516  0.84758  1.0000
  H   H422      1.0  0.43105  0.45772  0.88931  1.0000
  H   H423      1.0  0.01731  0.33540  0.76540  1.0000
  H   H424      1.0  0.34120  0.39068  0.50346  1.0000
  H   H425      1.0  0.06629  0.37932  0.79758  1.0000
  H   H426      1.0  0.26700  0.36544  0.71886  1.0000
  C   C346      1.0  0.30006  0.43585  0.80970  1.0000
  H   H427      1.0  0.40093  0.42574  0.83260  1.0000
  C   C347      1.0  0.42786  0.44715  0.86797  1.0000
  H   H428      1.0  0.45456  0.36206  0.90763  1.0000
  H   H429      1.0  0.15920  0.38064  0.80893  1.0000
  C   C348      1.0  0.31177  0.47293  0.80539  1.0000
  S   S110      1.0  0.04333  0.34263  0.94605  1.0000
  C   C349      1.0  0.39953  0.42952  0.89962  1.0000
  C   C350      1.0  0.45383  0.58284  0.93963  1.0000
  C   C351      1.0  0.43733  0.59273  0.92173  1.0000
  C   C352      1.0  0.41731  0.58221  0.91798  1.0000
  C   C353      1.0  0.41350  0.56145  0.93134  1.0000
  C   C354      1.0  0.43014  0.55142  0.94874  1.0000
  C   C355      1.0  0.45001  0.56211  0.95306  1.0000
  H   H430      1.0  0.43988  0.60848  0.91077  1.0000
  H   H431      1.0  0.08360  0.51829  0.99164  1.0000
  H   H432      1.0  0.41529  0.62694  0.98796  1.0000
  Fe  Fe58      1.0  0.02821  0.36876  0.97634  1.0000
  C   C356      1.0  0.19828  0.33305  0.58380  1.0000
  H   H433      1.0  0.06914  0.48136  0.98785  1.0000
  H   H434      1.0  0.27743  0.38320  0.76838  1.0000
  C   C357      1.0  0.05717  0.35166  0.82743  1.0000
  C   C358      1.0  0.07880  0.35018  0.77613  1.0000
  H   H435      1.0  0.29415  0.38007  0.58000  1.0000
  H   H436      1.0  0.00532  0.42259  0.99140  1.0000
  C   C359      1.0  0.15247  0.37073  0.53935  1.0000
  C   C360      1.0  0.13987  0.35875  0.56222  1.0000
  S   S111      1.0  0.30512  0.47414  0.98318  1.0000
  H   H437      1.0  0.16250  0.38362  0.54813  1.0000
  C   C361      1.0  0.28453  0.37079  0.53117  1.0000
  H   H438      1.0  0.10775  0.33890  0.91949  1.0000
  C   C362      1.0  0.08786  0.37380  0.89612  1.0000
  C   C363      1.0  0.25084  0.36703  0.71023  1.0000
  C   C364      1.0  0.24707  0.37536  0.67848  1.0000
  C   C365      1.0  0.22584  0.37787  0.66800  1.0000
  C   C366      1.0  0.20854  0.37118  0.68853  1.0000
  H   H439      1.0  0.38702  0.43885  0.88633  1.0000
  H   H440      1.0  0.08998  0.43320  0.94403  1.0000
  H   H441      1.0  0.22273  0.38486  0.64386  1.0000
  H   H442      1.0  0.19220  0.37279  0.67995  1.0000
  C   C367      1.0  0.34927  0.39987  0.78616  1.0000
  C   C368      1.0  0.35443  0.41857  0.76810  1.0000
  C   C369      1.0  0.35903  0.43780  0.78478  1.0000
  C   C370      1.0  0.35836  0.43869  0.81964  1.0000
  C   C371      1.0  0.35296  0.42005  0.83774  1.0000
  C   C372      1.0  0.34857  0.40075  0.82106  1.0000
  H   H443      1.0  0.35520  0.41817  0.74129  1.0000
  H   H444      1.0  0.36316  0.45212  0.77053  1.0000
  H   H445      1.0  0.35222  0.42046  0.86454  1.0000
  H   H446      1.0  0.34458  0.38639  0.83529  1.0000
  C   C373      1.0  0.39133  0.37672  0.53694  1.0000
  C   C374      1.0  0.37470  0.36621  0.55440  1.0000
  C   C375      1.0  0.23361  0.33090  0.60794  1.0000
  H   H447      1.0  0.40103  0.38853  0.54933  1.0000
  H   H448      1.0  0.24741  0.33885  0.61854  1.0000
  H   H449      1.0  0.29874  0.42179  0.82554  1.0000
  H   H450      1.0  0.30054  0.39270  0.78925  1.0000
  C   C376      1.0  0.14694  0.37092  0.82144  1.0000
  H   H451      1.0  0.21647  0.36042  0.59956  1.0000
  C   C377      1.0  0.29880  0.37912  0.55397  1.0000
  C   C378      1.0  0.32512  0.38518  0.50975  1.0000
  C   C379      1.0  0.12154  0.36502  0.86821  1.0000
  H   H452      1.0  0.08633  0.35833  0.75508  1.0000
  C   C380      1.0  0.11971  0.39202  0.91314  1.0000
  H   H453      1.0  0.26881  0.36523  0.53966  1.0000
  C   C381      1.0  0.06745  0.36203  0.80032  1.0000
  C   C382      1.0  0.11529  0.34566  0.85273  1.0000
  H   H454      1.0  0.31367  0.45378  0.84976  1.0000
  H   H455      1.0  0.34922  0.34287  0.55093  1.0000
  C   C383      1.0  0.21620  0.34307  0.59723  1.0000
  H   H456      1.0  0.30833  0.48820  0.75779  1.0000
  H   H457      1.0  0.39215  0.41401  0.90791  1.0000
  H   H458      1.0  0.01907  0.35567  0.79554  1.0000
  H   H459      1.0  0.08413  0.38524  0.87551  1.0000
  C   C384      1.0  0.43849  0.39107  0.89156  1.0000
  H   H460      1.0  0.33037  0.39214  0.56129  1.0000
  S   S112      1.0  0.19118  0.35275  0.74528  1.0000
  H   H461      1.0  0.23660  0.35506  0.75600  1.0000
  H   H462      1.0  0.40944  0.37680  0.98083  1.0000
  H   H463      1.0  0.40352  0.43865  0.92227  1.0000
  H   H464      1.0  0.11654  0.33336  0.56780  1.0000
  C   C385      1.0  0.30582  0.47358  0.77226  1.0000
  H   H465      1.0  0.44204  0.43891  0.93203  1.0000
  C   C386      1.0  0.45220  0.37908  0.91186  1.0000
  C   C387      1.0  0.26218  0.42178  0.74999  1.0000
  H   H466      1.0  0.42557  0.41088  0.83127  1.0000
  H   H467      1.0  0.29238  0.45680  0.73200  1.0000
  C   C388      1.0  0.28403  0.39735  0.78139  1.0000
  C   C389      1.0  0.36229  0.35091  0.53784  1.0000
  H   H468      1.0  0.46644  0.41774  0.96575  1.0000
  H   H469      1.0  0.25217  0.42656  0.77186  1.0000
  H   H470      1.0  0.31450  0.40846  0.73564  1.0000
  H   H471      1.0  0.29115  0.39672  0.71747  1.0000
  H   H472      1.0  0.03192  0.48716  0.98805  1.0000
  N   N25       1.0  0.28458  0.41686  0.75971  1.0000
  C   C390      1.0  0.07953  0.32774  0.77844  1.0000
  H   H473      1.0  0.41647  0.45649  0.85221  1.0000
  H   H474      1.0  0.44318  0.44520  0.85361  1.0000
  C   C391      1.0  0.12604  0.33817  0.51631  1.0000
  C   C392      1.0  0.29399  0.43588  0.77583  1.0000
  H   H475      1.0  0.26145  0.43509  0.73136  1.0000
  H   H476      1.0  0.27361  0.39969  0.80378  1.0000
  H   H477      1.0  0.25429  0.40770  0.73851  1.0000
  H   H478      1.0  0.10835  0.35906  0.95039  1.0000
  C   C393      1.0  0.12668  0.34238  0.55053  1.0000
  C   C394      1.0  0.00735  0.34641  0.78098  1.0000
  C   C395      1.0  0.43457  0.41326  0.89737  1.0000
  C   C396      1.0  0.31910  0.38612  0.54332  1.0000
  H   H479      1.0  0.43078  0.38245  0.87198  1.0000
  H   H480      1.0  0.07990  0.35832  0.89041  1.0000
  N   N26       1.0  0.11141  0.37139  0.90019  1.0000
  C   C397      1.0  0.29734  0.41142  0.72951  1.0000
  C   C398      1.0  0.30865  0.45422  0.82412  1.0000
  N   N27       1.0  0.41875  0.42593  0.87822  1.0000
  H   H481      1.0  0.01368  0.32941  0.84270  1.0000
  C   C399      1.0  0.29689  0.45543  0.75769  1.0000
  H   H482      1.0  0.29693  0.42423  0.71010  1.0000
  C   C400      1.0  0.39561  0.37230  0.50354  1.0000
  C   C401      1.0  0.23355  0.36124  0.73134  1.0000
  H   H483      1.0  0.40194  0.40045  0.85320  1.0000
  C   C402      1.0  0.06981  0.41283  0.97531  1.0000
  S   S113      1.0  0.36589  0.49806  0.98203  1.0000
  C   C403      1.0  0.13770  0.37755  0.85155  1.0000
  H   H484      1.0  0.14343  0.39260  0.86109  1.0000
  C   C404      1.0  0.41673  0.39034  0.99294  1.0000
  H   H485      1.0  0.42756  0.53554  0.95934  1.0000
  H   H486      1.0  0.40466  0.59015  0.90437  1.0000
  H   H487      1.0  0.11633  0.40571  0.89593  1.0000
  H   H488      1.0  0.39529  0.41369  0.97098  1.0000
  S   S114      1.0  0.99536  0.33628  0.91319  1.0000
  C   C405      1.0  0.44550  0.65034  0.95769  1.0000
  C   C406      1.0  0.21239  0.36282  0.72023  1.0000
  C   C407      1.0  0.11528  0.35451  0.92575  1.0000
  S   S115      1.0  0.11975  0.45418  0.98651  1.0000
  H   H489      1.0  0.11200  0.39614  0.93741  1.0000
  C   C408      1.0  0.36683  0.34619  0.50405  1.0000
  H   H490      1.0  0.47236  0.37922  0.95474  1.0000
  H   H491      1.0  0.14759  0.34682  0.78364  1.0000
  H   H492      1.0  0.13732  0.39125  0.91762  1.0000
  H   H493      1.0  0.99897  0.35774  0.76397  1.0000
  H   H494      1.0  0.10286  0.33545  0.86349  1.0000
  C   C409      1.0  0.40881  0.41124  0.98705  1.0000
  H   H495      1.0  0.42942  0.65206  0.94619  1.0000
  H   H496      1.0  0.46252  0.55419  0.96695  1.0000
  C   C410      1.0  0.14046  0.35179  0.80708  1.0000
  C   C411      1.0  0.15210  0.36629  0.50518  1.0000
  H   H497      1.0  0.99902  0.50562  0.97284  1.0000
  C   C412      1.0  0.27401  0.50669  0.99129  1.0000
  C   C413      1.0  0.12473  0.33916  0.82273  1.0000
  H   H498      1.0  0.07972  0.37978  0.91904  1.0000
  C   C414      1.0  0.05886  0.32932  0.83069  1.0000
  H   H499      1.0  0.99484  0.37929  0.81315  1.0000
  S   S116      1.0  0.99960  0.34855  0.99141  1.0000
  H   H500      1.0  0.28617  0.51792  0.98239  1.0000
  C   C415      1.0  0.27896  0.48475  0.99349  1.0000
  N   N28       1.0  0.44347  0.64688  0.99404  1.0000
  H   H501      1.0  0.38291  0.32746  0.59227  1.0000
  C   C416      1.0  0.29044  0.36961  0.49758  1.0000
  C   C417      1.0  0.09902  0.43535  0.99523  1.0000
  C   C418      1.0  0.06303  0.89932  0.00320  1.0000
  C   C419      1.0  0.41419  0.70321  0.03737  1.0000
  S   S117      1.0  0.36160  0.98535  0.02913  1.0000
  H   H502      1.0  0.41522  0.99234  0.14291  1.0000
  S   S118      1.0  0.45450  0.87464  0.05826  1.0000
  C   C420      1.0  0.49378  0.92359  0.04871  1.0000
  H   H503      1.0  0.08237  0.71884  0.02979  1.0000
  Fe  Fe59      1.0  0.37450  0.97963  0.08077  1.0000
  H   H504      1.0  0.37843  0.98011  0.15537  1.0000
  S   S119      1.0  0.39511  0.95355  0.10620  1.0000
  H   H505      1.0  0.39682  0.96588  0.21862  1.0000
  H   H506      1.0  0.38756  0.68273  0.05097  1.0000
  H   H507      1.0  0.09578  0.68528  0.02735  1.0000
  Fe  Fe60      1.0  0.99510  0.66277  0.03960  1.0000
  H   H508      1.0  0.46043  0.91146  0.01196  1.0000
  H   H509      1.0  0.07459  0.89938  0.02396  1.0000
  C   C421      1.0  0.43844  0.89683  0.07207  1.0000
  C   C422      1.0  0.44223  0.90751  0.10177  1.0000
  C   C423      1.0  0.42895  0.92488  0.11156  1.0000
  C   C424      1.0  0.41201  0.93224  0.09153  1.0000
  C   C425      1.0  0.40846  0.92180  0.06155  1.0000
  C   C426      1.0  0.42139  0.90408  0.05217  1.0000
  H   H510      1.0  0.45512  0.90210  0.11753  1.0000
  H   H511      1.0  0.43179  0.93261  0.13494  1.0000
  H   H512      1.0  0.39538  0.92699  0.04600  1.0000
  H   H513      1.0  0.41816  0.89593  0.02924  1.0000
  H   H514      1.0  0.36568  0.98519  0.19446  1.0000
  H   H515      1.0  0.47900  0.92009  0.06364  1.0000
  H   H516      1.0  0.02477  0.89510  0.03155  1.0000
  C   C427      1.0  0.05396  0.68177  0.04202  1.0000
  C   C428      1.0  0.43433  0.70450  0.02175  1.0000
  C   C429      1.0  0.44466  0.97184  0.03359  1.0000
  H   H517      1.0  0.05526  0.88320  0.00290  1.0000
  H   H518      1.0  0.01433  0.72028  0.04863  1.0000
  C   C430      1.0  0.47573  0.91483  0.99822  1.0000
  H   H519      1.0  0.42908  0.97203  0.04627  1.0000
  C   C431      1.0  0.47245  0.99016  0.00175  1.0000
  C   C432      1.0  0.45240  0.99042  0.01787  1.0000
  Fe  Fe61      1.0  0.48759  0.86014  0.07103  1.0000
  H   H520      1.0  0.01870  0.92261  0.03732  1.0000
  C   C433      1.0  0.08650  0.67502  0.01039  1.0000
  H   H521      1.0  0.03686  0.68714  0.04124  1.0000
  C   C434      1.0  0.00974  0.72941  0.02691  1.0000
  C   C435      1.0  0.01464  0.75163  0.02447  1.0000
  H   H522      1.0  0.41105  0.96388  0.18034  1.0000
  C   C436      1.0  0.05815  0.93780  0.01042  1.0000
  H   H523      1.0  0.06081  0.98241  0.05981  1.0000
  C   C437      1.0  0.03241  0.91115  0.03496  1.0000
  H   H524      1.0  0.04125  0.91036  0.05869  1.0000
  H   H525      1.0  0.37745  0.98832  0.24974  1.0000
  H   H526      1.0  0.48871  0.72865  0.04231  1.0000
  C   C438      1.0  0.47705  0.95188  0.01609  1.0000
  C   C439      1.0  0.40329  0.68362  0.03895  1.0000
  C   C440      1.0  0.37745  0.99181  0.17596  1.0000
  C   C441      1.0  0.05336  0.95221  0.03667  1.0000
  H   H527      1.0  0.06250  0.69274  0.05886  1.0000
  C   C442      1.0  0.06448  0.97170  0.03947  1.0000
  H   H528      1.0  0.04119  0.94875  0.05540  1.0000
  N   N29       1.0  0.04698  0.91693  0.00660  1.0000
  H   H529      1.0  0.45011  0.93897  0.04538  1.0000
  C   C443      1.0  0.45680  0.95292  0.03286  1.0000
  C   C444      1.0  0.48470  0.97124  0.00081  1.0000
  C   C445      1.0  0.40792  0.97486  0.20160  1.0000
  C   C446      1.0  0.08051  0.97743  0.01636  1.0000
  H   H530      1.0  0.02307  0.75924  0.04441  1.0000
  H   H531      1.0  0.07821  0.75537  0.00788  1.0000
  H   H532      1.0  0.40700  0.71745  0.04815  1.0000
  H   H533      1.0  0.08924  0.99247  0.01867  1.0000
  C   C447      1.0  0.44366  0.68623  0.00772  1.0000
  H   H534      1.0  0.05437  0.66548  0.05386  1.0000
  C   C448      1.0  0.41252  0.66519  0.02505  1.0000
  C   C449      1.0  0.43315  0.66594  0.00916  1.0000
  C   C450      1.0  0.07270  0.72109  0.00803  1.0000
  H   H535      1.0  0.42341  0.97724  0.21453  1.0000
  H   H536      1.0  0.48419  0.89904  0.99674  1.0000
  N   N30       1.0  0.48902  0.93127  0.01464  1.0000
  N   N31       1.0  0.06361  0.68164  0.00817  1.0000
  C   C451      1.0  0.99926  0.71911  0.00106  1.0000
  H   H537      1.0  0.44285  0.71975  0.02039  1.0000
  C   C452      1.0  0.99463  0.66366  0.22426  1.0000
  C   C453      1.0  0.00890  0.76406  0.99647  1.0000
  S   S120      1.0  0.01184  0.66108  0.08855  1.0000
  H   H538      1.0  0.45923  0.68818  0.99561  1.0000
  C   C454      1.0  0.07047  0.74208  0.99570  1.0000
  C   C455      1.0  0.01122  0.84232  0.77869  1.0000
  S   S121      1.0  0.02178  0.82715  0.90821  1.0000
  H   H539      1.0  0.03651  0.73272  0.93269  1.0000
  Fe  Fe62      1.0  0.03229  0.86035  0.92365  1.0000
  S   S122      1.0  0.06630  0.87375  0.91262  1.0000
  S   S123      1.0  0.02280  0.85318  0.97653  1.0000
  H   H540      1.0  0.06904  0.87155  0.83518  1.0000
  H   H541      1.0  0.02955  0.98893  0.94365  1.0000
  Fe  Fe63      1.0  0.13659  0.98854  0.91401  1.0000
  S   S124      1.0  0.10722  0.96855  0.89788  1.0000
  H   H542      1.0  0.02088  0.93015  0.97841  1.0000
  H   H543      1.0  0.07321  0.86335  0.79319  1.0000
  H   H544      1.0  0.03123  0.87246  0.69932  1.0000
  H   H545      1.0  0.09773  0.96832  0.97200  1.0000
  H   H546      1.0  0.02059  0.88353  0.82691  1.0000
  H   H547      1.0  0.05745  0.82688  0.80806  1.0000
  H   H548      1.0  0.04358  0.92169  0.95385  1.0000
  H   H549      1.0  0.02579  0.90212  0.97179  1.0000
  H   H550      1.0  0.00467  0.83389  0.80023  1.0000
  C   C456      1.0  0.07723  0.90033  0.90890  1.0000
  C   C457      1.0  0.06534  0.91772  0.89660  1.0000
  C   C458      1.0  0.07486  0.93832  0.89330  1.0000
  C   C459      1.0  0.09636  0.94199  0.90241  1.0000
  C   C460      1.0  0.10825  0.92459  0.91472  1.0000
  C   C461      1.0  0.09882  0.90391  0.91756  1.0000
  H   H551      1.0  0.04886  0.91528  0.88927  1.0000
  H   H552      1.0  0.06550  0.95156  0.88355  1.0000
  H   H553      1.0  0.12481  0.92701  0.92169  1.0000
  H   H554      1.0  0.01176  0.85776  0.84227  1.0000
  H   H555      1.0  0.10835  0.89060  0.92670  1.0000
  C   C462      1.0  0.23852  0.99239  0.97756  1.0000
  C   C463      1.0  0.07423  0.94442  0.98703  1.0000
  H   H556      1.0  0.05616  0.83708  0.84969  1.0000
  H   H557      1.0  0.25929  0.96827  0.95617  1.0000
  H   H558      1.0  0.03285  0.82559  0.83211  1.0000
  H   H559      1.0  0.05139  0.87577  0.74998  1.0000
  C   C464      1.0  0.00709  0.85158  0.72072  1.0000
  H   H560      1.0  0.03429  0.87066  0.86063  1.0000
  H   H561      1.0  0.05769  0.88731  0.80276  1.0000
  C   C465      1.0  0.08531  0.96383  0.99012  1.0000
  C   C466      1.0  0.05763  0.74618  0.96839  1.0000
  C   C467      1.0  0.27616  0.98586  0.99366  1.0000
  C   C468      1.0  0.02575  0.86398  0.72158  1.0000
  C   C469      1.0  0.03017  0.85498  0.78062  1.0000
  C   C470      1.0  0.04714  0.83578  0.82610  1.0000
  C   C471      1.0  0.02629  0.86773  0.83663  1.0000
  H   H562      1.0  0.03954  0.69622  0.95343  1.0000
  N   N32       1.0  0.04116  0.85726  0.81269  1.0000
  H   H563      1.0  0.05523  0.76258  0.95970  1.0000
  C   C472      1.0  0.03379  0.91780  0.97635  1.0000
  H   H564      1.0  0.47149  0.92000  0.97266  1.0000
  C   C473      1.0  0.06113  0.87044  0.81058  1.0000
  C   C474      1.0  0.03722  0.86573  0.75101  1.0000
  S   S125      1.0  0.00076  0.87593  0.91079  1.0000
  S   S126      1.0  0.15026  0.98876  0.96540  1.0000
  H   H565      1.0  0.99802  0.85051  0.69805  1.0000
  C   C475      1.0  0.99804  0.75384  0.97091  1.0000
  S   S127      1.0  0.21623  0.98536  0.95192  1.0000
  H   H566      1.0  0.07843  0.93455  0.96611  1.0000
  Fe  Fe64      1.0  0.00947  0.82125  0.96044  1.0000
  H   H567      1.0  0.09461  0.67567  0.98556  1.0000
  C   C476      1.0  0.04708  0.72931  0.95320  1.0000
  H   H568      1.0  0.45483  0.66509  0.95120  1.0000
  H   H569      1.0  0.07248  0.90038  0.97960  1.0000
  C   C477      1.0  0.04903  0.70827  0.96548  1.0000
  C   C478      1.0  0.99992  0.84069  0.74917  1.0000
  H   H570      1.0  0.29091  0.97678  0.99071  1.0000
  H   H571      1.0  0.23822  0.99077  0.84355  1.0000
  H   H572      1.0  0.22450  0.98949  0.88314  1.0000
  C   C479      1.0  0.25810  0.98105  0.97404  1.0000
  H   H573      1.0  0.03463  0.66797  0.98847  1.0000
  C   C480      1.0  0.06198  0.70351  0.99338  1.0000
  C   C481      1.0  0.05229  0.66489  0.98915  1.0000
  H   H574      1.0  0.05868  0.66391  0.96328  1.0000
  S   S128      1.0  0.01680  0.79183  0.99413  1.0000
  C   C482      1.0  0.89285  0.99969  0.17058  1.0000
  H   H575      1.0  0.96745  0.23751  0.02146  1.0000
  H   H576      1.0  0.85830  0.99820  0.21077  1.0000
  S   S129      1.0  0.88673  0.03852  0.06094  1.0000
  C   C483      1.0  0.57188  0.29398  0.01288  1.0000
  C   C484      1.0  0.86345  0.02376  0.15843  1.0000
  C   C485      1.0  0.99059  0.25954  0.99907  1.0000
  C   C486      1.0  0.74011  0.99986  0.01551  1.0000
  C   C487      1.0  0.86951  0.01199  0.21428  1.0000
  H   H577      1.0  0.90334  0.03928  0.13284  1.0000
  C   C488      1.0  0.92007  0.06313  0.15932  1.0000
  S   S130      1.0  0.97875  0.08489  0.07794  1.0000
  H   H578      1.0  0.81545  0.02025  0.02576  1.0000
  H   H579      1.0  0.53911  0.30511  0.05691  1.0000
  H   H580      1.0  0.85965  0.02535  0.22461  1.0000
  H   H581      1.0  0.89261  0.04106  0.23976  1.0000
  H   H582      1.0  0.98779  0.06286  0.01426  1.0000
  C   C489      1.0  0.92419  0.07221  0.18994  1.0000
  C   C490      1.0  0.51130  0.23367  0.03788  1.0000
  C   C491      1.0  0.91273  0.05086  0.06455  1.0000
  C   C492      1.0  0.91471  0.07326  0.05953  1.0000
  C   C493      1.0  0.93468  0.08392  0.06302  1.0000
  C   C494      1.0  0.95309  0.07237  0.07195  1.0000
  C   C495      1.0  0.95112  0.04994  0.07694  1.0000
  C   C496      1.0  0.93119  0.03925  0.07316  1.0000
  H   H583      1.0  0.90064  0.08253  0.05298  1.0000
  H   H584      1.0  0.93576  0.10114  0.05913  1.0000
  H   H585      1.0  0.96514  0.04075  0.08400  1.0000
  H   H586      1.0  0.93009  0.02206  0.07723  1.0000
  H   H587      1.0  0.85483  0.03879  0.16530  1.0000
  H   H588      1.0  0.92798  0.06954  0.13707  1.0000
  H   H589      1.0  0.56341  0.29738  0.07698  1.0000
  H   H590      1.0  0.51801  0.22998  0.06186  1.0000
  Fe  Fe65      1.0  0.49560  0.30995  0.07128  1.0000
  H   H591      1.0  0.55442  0.32488  0.07721  1.0000
  H   H592      1.0  0.88121  0.00646  0.23315  1.0000
  C   C497      1.0  0.50386  0.25470  0.03128  1.0000
  C   C498      1.0  0.90587  0.04581  0.15717  1.0000
  N   N33       1.0  0.88047  0.01849  0.18262  1.0000
  S   S131      1.0  0.50584  0.27461  0.06287  1.0000
  C   C499      1.0  0.89521  0.03705  0.18572  1.0000
  H   H593      1.0  0.99141  0.22970  0.08805  1.0000
  Fe  Fe66      1.0  0.87270  0.00417  0.06411  1.0000
  H   H594      1.0  0.78761  0.06477  0.00705  1.0000
  C   C500      1.0  0.98385  0.23940  0.01241  1.0000
  C   C501      1.0  0.51003  0.21730  0.01391  1.0000
  H   H595      1.0  0.49475  0.17052  0.04509  1.0000
  C   C502      1.0  0.55402  0.28117  0.00394  1.0000
  H   H596      1.0  0.85121  0.01072  0.15715  1.0000
  H   H597      1.0  0.93528  0.08562  0.19144  1.0000
  H   H598      1.0  0.76963  0.00290  0.04306  1.0000
  H   H599      1.0  0.91740  0.07110  0.24232  1.0000
  H   H600      1.0  0.90596  0.99538  0.18792  1.0000
  C   C503      1.0  0.55585  0.31026  0.06170  1.0000
  S   S132      1.0  0.83887  0.00153  0.08568  1.0000
  C   C504      1.0  0.89980  0.04665  0.21665  1.0000
  H   H601      1.0  0.98789  0.24022  0.12911  1.0000
  S   S133      1.0  0.98878  0.19699  0.03299  1.0000
  N   N34       1.0  0.56839  0.31444  0.03061  1.0000
  H   H602      1.0  0.86994  0.02601  0.13273  1.0000
  C   C505      1.0  0.91409  0.06399  0.21852  1.0000
  H   H603      1.0  0.90045  0.00277  0.14581  1.0000
  H   H604      1.0  0.73104  0.01031  0.03181  1.0000
  H   H605      1.0  0.84021  0.03530  0.02690  1.0000
  H   H606      1.0  0.51599  0.20136  0.01950  1.0000
  H   H607      1.0  0.97939  0.27284  0.99796  1.0000
  C   C506      1.0  0.76205  0.99568  0.02199  1.0000
  H   H608      1.0  0.81512  0.04838  0.03454  1.0000
  S   S134      1.0  0.51098  0.32625  0.11457  1.0000
  C   C507      1.0  0.82308  0.03595  0.01908  1.0000
  H   H609      1.0  0.60724  0.29481  0.00947  1.0000
  H   H610      1.0  0.53769  0.28604  0.00982  1.0000
  C   C508      1.0  0.59269  0.28620  0.00390  1.0000
  H   H611      1.0  0.98744  0.21165  0.12176  1.0000
  H   H612      1.0  0.99316  0.03478  0.01562  1.0000
  H   H613      1.0  0.59844  0.31521  0.05659  1.0000
  C   C509      1.0  0.49540  0.25917  0.99996  1.0000
  C   C510      1.0  0.58861  0.32547  0.03984  1.0000
  H   H614      1.0  0.54017  0.32290  0.00263  1.0000
  H   H615      1.0  0.82168  0.07490  0.99035  1.0000
  C   C511      1.0  0.76878  0.02437  0.94145  1.0000
  S   S135      1.0  0.60059  0.01382  0.91053  1.0000
  C   C512      1.0  0.83001  0.06226  0.97574  1.0000
  H   H616      1.0  0.82833  0.06652  0.94900  1.0000
  Fe  Fe67      1.0  0.52368  0.12186  0.92335  1.0000
  S   S136      1.0  0.51558  0.13706  0.97283  1.0000
  S   S137      1.0  0.55784  0.10820  0.91413  1.0000
  C   C513      1.0  0.59527  0.26668  0.98735  1.0000
  H   H617      1.0  0.85232  0.02587  0.97307  1.0000
  S   S138      1.0  0.51163  0.15109  0.89450  1.0000
  H   H618      1.0  0.58712  0.04767  0.80521  1.0000
  N   N35       1.0  0.60787  0.01989  0.80862  1.0000
  C   C514      1.0  0.62071  0.00597  0.78621  1.0000
  C   C515      1.0  0.79835  0.03949  0.97349  1.0000
  Fe  Fe68      1.0  0.63275  0.99525  0.91286  1.0000
  H   H619      1.0  0.61126  0.26094  0.98082  1.0000
  H   H620      1.0  0.99016  0.04871  0.97609  1.0000
  S   S139      1.0  0.66686  0.00229  0.89487  1.0000
  H   H621      1.0  0.58028  0.99851  0.81126  1.0000
  H   H622      1.0  0.63327  0.04207  0.82068  1.0000
  N   N36       1.0  0.82127  0.04047  0.98302  1.0000
  C   C516      1.0  0.58920  0.04026  0.91343  1.0000
  C   C517      1.0  0.56661  0.04253  0.91393  1.0000
  C   C518      1.0  0.55672  0.06304  0.91488  1.0000
  C   C519      1.0  0.56931  0.08173  0.91479  1.0000
  C   C520      1.0  0.59192  0.07945  0.91409  1.0000
  C   C521      1.0  0.60180  0.05893  0.91371  1.0000
  H   H623      1.0  0.55661  0.02830  0.91369  1.0000
  H   H624      1.0  0.53936  0.06440  0.91531  1.0000
  H   H625      1.0  0.60187  0.09372  0.91399  1.0000
  H   H626      1.0  0.61916  0.05761  0.91331  1.0000
  H   H627      1.0  0.58420  0.02916  0.77228  1.0000
  C   C522      1.0  0.59622  0.03636  0.78892  1.0000
  H   H628      1.0  0.61096  0.04198  0.84922  1.0000
  S   S140      1.0  0.49896  0.20168  0.95132  1.0000
  C   C523      1.0  0.78296  0.05338  0.98851  1.0000
  C   C524      1.0  0.79056  0.02488  0.94963  1.0000
  H   H629      1.0  0.54285  0.25207  0.98136  1.0000
  C   C525      1.0  0.61046  0.99417  0.76100  1.0000
  C   C526      1.0  0.83523  0.02479  0.96529  1.0000
  H   H630      1.0  0.57939  0.23926  0.96663  1.0000
  C   C527      1.0  0.76118  0.05256  0.98037  1.0000
  C   C528      1.0  0.62106  0.03147  0.83306  1.0000
  H   H631      1.0  0.83006  0.00793  0.97066  1.0000
  H   H632      1.0  0.60764  0.04606  0.77326  1.0000
  Fe  Fe69      1.0  0.50126  0.16483  0.94403  1.0000
  H   H633      1.0  0.80078  0.01317  0.93763  1.0000
  H   H634      1.0  0.73711  0.03699  0.95128  1.0000
  C   C529      1.0  0.50132  0.22169  0.98275  1.0000
  H   H635      1.0  0.65267  0.01132  0.80746  1.0000
  C   C530      1.0  0.59189  0.00664  0.82751  1.0000
  H   H636      1.0  0.84741  0.06337  0.98188  1.0000
  H   H637      1.0  0.83515  0.02757  0.93798  1.0000
  H   H638      1.0  0.62930  0.02009  0.85020  1.0000
  S   S141      1.0  0.70248  0.99790  0.97996  1.0000
  C   C531      1.0  0.75410  0.03805  0.95691  1.0000
  C   C532      1.0  0.55679  0.26168  0.98753  1.0000
  H   H639      1.0  0.58217  0.01655  0.84511  1.0000
  H   H640      1.0  0.76306  0.01272  0.92386  1.0000
  C   C533      1.0  0.64341  0.00356  0.78863  1.0000
  C   C534      1.0  0.57736  0.25443  0.97927  1.0000
  H   H641      1.0  0.98818  0.31142  0.76372  1.0000
  H   H642      1.0  0.95809  0.32273  0.84442  1.0000
  H   H643      1.0  0.96791  0.30968  0.79522  1.0000
  H   H644      1.0  0.99376  0.30890  0.83963  1.0000
  C   C535      1.0  0.97822  0.32128  0.78106  1.0000
  H   H645      1.0  0.59324  0.99495  0.75790  1.0000
  H   H646      1.0  0.74961  0.06297  0.99263  1.0000
  H   H647      1.0  0.57684  0.42327  0.15230  1.0000
  S   S142      1.0  0.86642  0.62556  0.34272  1.0000
  C   C536      1.0  0.98323  0.65185  0.27928  1.0000
  Fe  Fe70      1.0  0.89712  0.64054  0.32239  1.0000
  S   S143      1.0  0.92058  0.62286  0.28781  1.0000
  Fe  Fe71      1.0  0.87630  0.63759  0.39274  1.0000
  S   S144      1.0  0.86969  0.61601  0.43768  1.0000
  H   H648      1.0  0.94738  0.59940  0.08919  1.0000
  H   H649      1.0  0.78223  0.64063  0.41707  1.0000
  Fe  Fe72      1.0  0.71138  0.61598  0.36192  1.0000
  S   S145      1.0  0.68176  0.59887  0.38182  1.0000
  S   S146      1.0  0.74457  0.60602  0.37750  1.0000
  C   C537      1.0  0.78485  0.49259  0.07885  1.0000
  S   S147      1.0  0.65468  0.63394  0.33893  1.0000
  Fe  Fe73      1.0  0.66893  0.63225  0.38968  1.0000
  S   S148      1.0  0.64909  0.64692  0.43138  1.0000
  Fe  Fe74      1.0  0.67027  0.60201  0.32908  1.0000
  S   S149      1.0  0.64849  0.57900  0.30170  1.0000
  S   S150      1.0  0.69937  0.64904  0.37372  1.0000
  S   S151      1.0  0.70089  0.61668  0.30879  1.0000
  H   H650      1.0  0.56388  0.51718  0.08816  1.0000
  C   C538      1.0  0.94955  0.57509  0.14245  1.0000
  C   C539      1.0  0.66074  0.58244  0.16167  1.0000
  Fe  Fe75      1.0  0.98058  0.61489  0.04710  1.0000
  C   C540      1.0  0.59229  0.57561  0.40304  1.0000
  H   H651      1.0  0.80057  0.59832  0.44229  1.0000
  Fe  Fe76      1.0  0.62824  0.48390  0.08948  1.0000
  S   S152      1.0  0.63496  0.50676  0.04627  1.0000
  S   S153      1.0  0.59737  0.46289  0.08511  1.0000
  Fe  Fe77      1.0  0.65771  0.51111  0.13533  1.0000
  S   S154      1.0  0.66445  0.53531  0.09507  1.0000
  S   S155      1.0  0.67687  0.51828  0.18184  1.0000
  Fe  Fe78      1.0  0.62956  0.53298  0.08315  1.0000
  S   S156      1.0  0.60552  0.56039  0.08239  1.0000
  Fe  Fe79      1.0  0.66993  0.50689  0.06184  1.0000
  S   S157      1.0  0.69945  0.51325  0.02730  1.0000
  S   S158      1.0  0.62230  0.51064  0.12591  1.0000
  S   S159      1.0  0.66395  0.48221  0.10273  1.0000
  Fe  Fe80      1.0  0.51511  0.35602  0.08263  1.0000
  H   H652      1.0  0.67785  0.59120  0.20458  1.0000
  S   S160      1.0  0.54939  0.37074  0.08361  1.0000
  C   C541      1.0  0.58446  0.43703  0.08389  1.0000
  C   C542      1.0  0.56181  0.43597  0.08186  1.0000
  C   C543      1.0  0.55082  0.41601  0.08131  1.0000
  C   C544      1.0  0.56230  0.39664  0.08284  1.0000
  C   C545      1.0  0.58492  0.39768  0.08492  1.0000
  C   C546      1.0  0.59591  0.41764  0.08541  1.0000
  H   H653      1.0  0.55265  0.45073  0.08093  1.0000
  H   H654      1.0  0.53345  0.41566  0.07985  1.0000
  H   H655      1.0  0.59409  0.38292  0.08634  1.0000
  H   H656      1.0  0.61327  0.41801  0.08707  1.0000
  S   S161      1.0  0.96483  0.64643  0.05894  1.0000
  C   C547      1.0  0.59900  0.57530  0.04651  1.0000
  C   C548      1.0  0.94130  0.57751  0.01933  1.0000
  H   H657      1.0  0.63548  0.65265  0.21526  1.0000
  H   H658      1.0  0.94548  0.61667  0.12427  1.0000
  C   C549      1.0  0.72683  0.54018  0.09758  1.0000
  H   H659      1.0  0.51688  0.34830  0.18202  1.0000
  C   C550      1.0  0.68753  0.63634  0.21275  1.0000
  H   H660      1.0  0.77073  0.54996  0.10794  1.0000
  H   H661      1.0  0.70992  0.54334  0.10563  1.0000
  C   C551      1.0  0.81783  0.64983  0.44494  1.0000
  C   C552      1.0  0.71981  0.62623  0.46006  1.0000
  H   H662      1.0  0.63089  0.61376  0.39283  1.0000
  C   C553      1.0  0.66000  0.55732  0.44673  1.0000
  H   H663      1.0  0.69683  0.62139  0.21754  1.0000
  C   C554      1.0  0.54461  0.40603  0.23153  1.0000
  H   H664      1.0  0.50259  0.38971  0.24116  1.0000
  C   C555      1.0  0.90318  0.58447  0.02813  1.0000
  N   N37       1.0  0.98180  0.41900  0.03095  1.0000
  H   H665      1.0  0.66075  0.53926  0.36759  1.0000
  C   C556      1.0  0.76444  0.49643  0.09275  1.0000
  C   C557      1.0  0.66874  0.53613  0.21386  1.0000
  C   C558      1.0  0.68436  0.54438  0.23514  1.0000
  C   C559      1.0  0.67851  0.55808  0.26144  1.0000
  C   C560      1.0  0.65686  0.56327  0.26725  1.0000
  C   C561      1.0  0.64128  0.55522  0.24577  1.0000
  C   C562      1.0  0.64718  0.54193  0.21901  1.0000
  H   H666      1.0  0.70107  0.53996  0.23148  1.0000
  H   H667      1.0  0.69068  0.56403  0.27784  1.0000
  H   H668      1.0  0.62449  0.55915  0.24995  1.0000
  H   H669      1.0  0.63498  0.53576  0.20284  1.0000
  H   H670      1.0  0.78895  0.47674  0.06967  1.0000
  H   H671      1.0  0.70505  0.50819  0.12549  1.0000
  H   H672      1.0  0.71967  0.62321  0.43363  1.0000
  H   H673      1.0  0.56541  0.42791  0.25701  1.0000
  H   H674      1.0  0.59425  0.56837  0.37808  1.0000
  C   C563      1.0  0.93168  0.63233  0.24935  1.0000
  C   C564      1.0  0.94662  0.61941  0.23206  1.0000
  C   C565      1.0  0.95599  0.62644  0.20166  1.0000
  H   H675      1.0  0.75844  0.45912  0.02260  1.0000
  H   H676      1.0  0.60283  0.61641  0.38433  1.0000
  C   C566      1.0  0.87655  0.64583  0.48695  1.0000
  H   H677      1.0  0.95109  0.60395  0.24241  1.0000
  H   H678      1.0  0.96791  0.61669  0.18916  1.0000
  C   C567      1.0  0.79801  0.64850  0.33299  1.0000
  C   C568      1.0  0.80305  0.62953  0.35013  1.0000
  C   C569      1.0  0.78652  0.61605  0.36243  1.0000
  C   C570      1.0  0.76491  0.62177  0.35845  1.0000
  C   C571      1.0  0.75984  0.64055  0.34078  1.0000
  H   H679      1.0  0.66765  0.56643  0.16110  1.0000
  H   H680      1.0  0.81968  0.62514  0.35368  1.0000
  H   H681      1.0  0.79046  0.60126  0.37537  1.0000
  H   H682      1.0  0.74320  0.64494  0.33716  1.0000
  H   H683      1.0  0.88142  0.60832  0.23832  1.0000
  H   H684      1.0  0.58463  0.50956  0.00402  1.0000
  N   N38       1.0  0.80380  0.63177  0.45644  1.0000
  H   H685      1.0  0.60188  0.58809  0.46441  1.0000
  H   H686      1.0  0.89038  0.59515  0.03602  1.0000
  H   H687      1.0  0.59139  0.53040  0.03300  1.0000
  H   H688      1.0  0.83480  0.64728  0.45243  1.0000
  H   H689      1.0  0.72665  0.53642  0.07065  1.0000
  H   H690      1.0  0.72680  0.49006  0.13151  1.0000
  C   C572      1.0  0.72614  0.50353  0.01831  1.0000
  H   H691      1.0  0.95840  0.58527  0.16014  1.0000
  H   H692      1.0  0.81732  0.61405  0.41503  1.0000
  S   S162      1.0  0.90827  0.64964  0.37329  1.0000
  H   H693      1.0  0.51103  0.39289  0.14954  1.0000
  H   H694      1.0  0.66891  0.55582  0.46953  1.0000
  C   C573      1.0  0.98546  0.45878  0.04451  1.0000
  H   H695      1.0  0.54752  0.49314  0.00714  1.0000
  C   C574      1.0  0.76887  0.48957  0.00183  1.0000
  N   N39       1.0  0.55826  0.51999  0.03554  1.0000
  H   H696      1.0  0.62471  0.61312  0.12037  1.0000
  C   C575      1.0  0.89525  0.61906  0.19171  1.0000
  H   H697      1.0  0.57059  0.58896  0.06941  1.0000
  H   H698      1.0  0.64107  0.57709  0.11923  1.0000
  H   H699      1.0  0.91545  0.56051  0.18345  1.0000
  H   H700      1.0  0.64088  0.61857  0.24884  1.0000
  H   H701      1.0  0.72203  0.53208  0.16326  1.0000
  H   H702      1.0  0.89428  0.57100  0.23224  1.0000
  C   C576      1.0  0.57293  0.42719  0.20488  1.0000
  H   H703      1.0  0.69273  0.64804  0.23177  1.0000
  C   C577      1.0  0.65328  0.65407  0.21242  1.0000
  H   H704      1.0  0.98690  0.49292  0.05342  1.0000
  H   H705      1.0  0.54303  0.35421  0.19789  1.0000
  H   H706      1.0  0.52970  0.50009  0.04093  1.0000
  C   C578      1.0  0.60608  0.59949  0.44381  1.0000
  H   H707      1.0  0.58521  0.34069  0.05339  1.0000
  C   C579      1.0  0.89813  0.56381  0.01702  1.0000
  C   C580      1.0  0.78187  0.63600  0.44381  1.0000
  H   H708      1.0  0.62945  0.56254  0.36422  1.0000
  C   C581      1.0  0.65756  0.61782  0.18784  1.0000
  H   H709      1.0  0.74800  0.54355  0.15465  1.0000
  H   H710      1.0  0.75361  0.48286  0.09397  1.0000
  H   H711      1.0  0.72132  0.47134  0.03710  1.0000
  H   H712      1.0  0.92692  0.56572  0.08851  1.0000
  C   C582      1.0  0.75375  0.47552  0.01714  1.0000
  H   H713      1.0  0.73558  0.55558  0.10022  1.0000
  C   C583      1.0  0.95041  0.46881  0.00462  1.0000
  N   N40       1.0  0.66391  0.63268  0.21438  1.0000
  H   H714      1.0  0.74575  0.51581  0.16710  1.0000
  H   H715      1.0  0.63799  0.57945  0.46767  1.0000
  Fe  Fe81      1.0  0.98214  0.64346  0.10756  1.0000
  C   C584      1.0  0.92604  0.65229  0.23568  1.0000
  C   C585      1.0  0.64574  0.58839  0.13804  1.0000
  C   C586      1.0  0.75827  0.51733  0.10321  1.0000
  H   H716      1.0  0.54781  0.39707  0.14819  1.0000
  C   C587      1.0  0.66059  0.62113  0.48463  1.0000
  C   C588      1.0  0.64232  0.62341  0.16321  1.0000
  C   C589      1.0  0.50470  0.39022  0.17524  1.0000
  C   C590      1.0  0.65159  0.64056  0.47391  1.0000
  H   H717      1.0  0.62604  0.56456  0.01701  1.0000
  C   C591      1.0  0.81238  0.61173  0.44149  1.0000
  C   C592      1.0  0.54688  0.49909  0.03307  1.0000
  Fe  Fe82      1.0  0.85183  0.65832  0.33615  1.0000
  H   H718      1.0  0.82697  0.60605  0.45461  1.0000
  C   C593      1.0  0.73820  0.52876  0.15195  1.0000
  C   C594      1.0  0.58057  0.58837  0.04718  1.0000
  H   H719      1.0  0.94892  0.54633  0.99950  1.0000
  H   H720      1.0  0.71913  0.49822  0.09003  1.0000
  C   C595      1.0  0.89795  0.58279  0.21291  1.0000
  C   C596      1.0  0.93553  0.65937  0.20549  1.0000
  C   C597      1.0  0.72136  0.50380  0.11585  1.0000
  C   C598      1.0  0.65537  0.54786  0.38950  1.0000
  N   N41       1.0  0.52121  0.38111  0.19754  1.0000
  C   C599      1.0  0.95053  0.64653  0.18828  1.0000
  C   C600      1.0  0.63654  0.60879  0.13880  1.0000
  C   C601      1.0  0.97472  0.44171  0.02843  1.0000
  C   C602      1.0  0.53900  0.39676  0.20077  1.0000
  C   C603      1.0  0.55118  0.40340  0.17235  1.0000
  C   C604      1.0  0.66667  0.54586  0.41890  1.0000
  C   C605      1.0  0.56784  0.41839  0.17445  1.0000
  C   C606      1.0  0.96323  0.40469  0.03914  1.0000
  C   C607      1.0  0.65824  0.62305  0.24717  1.0000
  H   H721      1.0  0.66761  0.60822  0.25246  1.0000
  N   N42       1.0  0.73653  0.52225  0.11685  1.0000
  H   H722      1.0  0.95572  0.50163  0.01828  1.0000
  C   C608      1.0  0.89052  0.60377  0.21628  1.0000
  H   H723      1.0  0.94626  0.55937  0.15483  1.0000
  C   C609      1.0  0.79961  0.50927  0.07477  1.0000
  C   C610      1.0  0.79434  0.52979  0.08563  1.0000
  C   C611      1.0  0.73265  0.48245  0.02559  1.0000
  H   H724      1.0  0.77125  0.62165  0.44583  1.0000
  H   H725      1.0  0.55432  0.48650  0.04919  1.0000
  C   C612      1.0  0.55612  0.32950  0.00930  1.0000
  C   C613      1.0  0.63028  0.57342  0.41554  1.0000
  H   H726      1.0  0.80592  0.54272  0.08232  1.0000
  C   C614      1.0  0.58150  0.51573  0.02942  1.0000
  H   H727      1.0  0.58896  0.56227  0.42111  1.0000
  Fe  Fe83      1.0  0.68603  0.64830  0.32260  1.0000
  H   H728      1.0  0.77390  0.64934  0.45744  1.0000
  H   H729      1.0  0.88969  0.63545  0.19472  1.0000
  C   C615      1.0  0.92471  0.59143  0.02888  1.0000
  C   C616      1.0  0.77407  0.53378  0.09996  1.0000
  H   H730      1.0  0.52168  0.36791  0.24732  1.0000
  C   C617      1.0  0.70851  0.64365  0.47296  1.0000
  C   C618      1.0  0.61180  0.57457  0.01770  1.0000
  C   C619      1.0  0.93619  0.55706  0.00744  1.0000
  H   H731      1.0  0.92255  0.61257  0.09802  1.0000
  S   S163      1.0  0.96860  0.58488  0.02184  1.0000
  C   C620      1.0  0.64208  0.57092  0.44527  1.0000
  H   H732      1.0  0.91246  0.55620  0.12452  1.0000
  H   H733      1.0  0.53630  0.40203  0.25452  1.0000
  C   C621      1.0  0.77637  0.65379  0.32787  1.0000
  C   C622      1.0  0.66652  0.59682  0.18636  1.0000
  H   H734      1.0  0.90233  0.57865  0.10133  1.0000
  H   H735      1.0  0.78169  0.60109  0.49230  1.0000
  H   H736      1.0  0.96076  0.57162  0.12127  1.0000
  H   H737      1.0  0.69937  0.65398  0.45645  1.0000
  N   N43       1.0  0.92965  0.58604  0.13124  1.0000
  C   C623      1.0  0.93650  0.60453  0.10987  1.0000
  H   H738      1.0  0.92845  0.60754  0.03673  1.0000
  C   C624      1.0  0.91733  0.57099  0.11058  1.0000
  C   C625      1.0  0.91614  0.59242  0.16014  1.0000
  C   C626      1.0  0.90794  0.61363  0.16407  1.0000
  C   C627      1.0  0.91034  0.57706  0.18510  1.0000
  C   C628      1.0  0.57498  0.60078  0.01926  1.0000
  C   C629      1.0  0.74120  0.51752  0.00276  1.0000
  C   C630      1.0  0.52961  0.36089  0.18303  1.0000
  C   C631      1.0  0.61618  0.60457  0.38669  1.0000
  H   H739      1.0  0.57767  0.58594  0.40195  1.0000
  H   H740      1.0  0.66716  0.61003  0.46668  1.0000
  H   H741      1.0  0.61962  0.60991  0.45164  1.0000
  C   C632      1.0  0.51031  0.37544  0.22960  1.0000
  C   C633      1.0  0.95713  0.44747  0.00814  1.0000
  H   H742      1.0  0.56076  0.61082  0.01999  1.0000
  S   S164      1.0  0.96260  0.65697  0.15119  1.0000
  H   H743      1.0  0.58585  0.43885  0.20630  1.0000
  H   H744      1.0  0.99259  0.42023  0.08150  1.0000
  N   N44       1.0  0.61154  0.58803  0.41264  1.0000
  H   H745      1.0  0.49712  0.36354  0.22627  1.0000
  C   C634      1.0  0.99117  0.41248  0.99864  1.0000
  H   H746      1.0  0.91150  0.62653  0.14664  1.0000
  C   C635      1.0  0.86964  0.62514  0.47912  1.0000
  C   C636      1.0  0.56137  0.42100  0.23337  1.0000
  H   H747      1.0  0.95443  0.41015  0.06179  1.0000
  H   H748      1.0  0.58780  0.50341  0.04708  1.0000
  H   H749      1.0  0.61892  0.59758  0.36170  1.0000
  H   H750      1.0  0.97949  0.65460  0.34833  1.0000
  H   H751      1.0  0.53567  0.36314  0.15709  1.0000
  C   C637      1.0  0.63742  0.56134  0.38780  1.0000
  H   H752      1.0  0.59204  0.61044  0.44076  1.0000
  H   H753      1.0  0.81504  0.50628  0.06263  1.0000
  H   H754      1.0  0.96840  0.38772  0.04332  1.0000
  S   S165      1.0  0.50181  0.33888  0.03824  1.0000
  H   H755      1.0  0.68073  0.53557  0.41998  1.0000
  C   C638      1.0  0.80273  0.62910  0.49298  1.0000
  H   H756      1.0  0.66158  0.63432  0.26764  1.0000
  C   C639      1.0  0.96106  0.48511  0.02105  1.0000
  S   S166      1.0  0.87112  0.55524  0.01759  1.0000
  H   H757      1.0  0.98269  0.63865  0.29692  1.0000
  C   C640      1.0  0.73090  0.61245  0.48120  1.0000
  H   H758      1.0  0.88238  0.65655  0.46745  1.0000
  H   H759      1.0  0.81830  0.65131  0.41734  1.0000
  H   H760      1.0  0.95424  0.64444  0.33283  1.0000
  H   H761      1.0  0.53863  0.52928  0.07790  1.0000
  C   C641      1.0  0.55577  0.52795  0.06991  1.0000
  H   H762      1.0  0.56310  0.54420  0.07219  1.0000
  H   H763      1.0  0.63447  0.63888  0.16235  1.0000
  C   C642      1.0  0.97858  0.48012  0.04088  1.0000
  H   H764      1.0  0.55296  0.34507  0.02195  1.0000
  C   C643      1.0  0.54901  0.53593  0.01214  1.0000
  H   H765      1.0  0.73929  0.59869  0.47093  1.0000
  H   H766      1.0  0.95149  0.40380  0.01868  1.0000
  H   H767      1.0  0.69264  0.64279  0.18797  1.0000
  C   C644      1.0  0.52670  0.54095  0.01376  1.0000
  H   H768      1.0  0.51613  0.53332  0.03192  1.0000
  C   C645      1.0  0.91466  0.55026  0.00606  1.0000
  H   H769      1.0  0.91087  0.53436  0.99725  1.0000
  H   H770      1.0  0.49862  0.40591  0.18448  1.0000
  C   C646      1.0  0.99390  0.64792  0.24912  1.0000
  H   H771      1.0  0.59844  0.33015  0.01757  1.0000
  C   C647      1.0  0.96267  0.65899  0.34204  1.0000
  H   H772      1.0  0.73643  0.53381  0.99675  1.0000
  Fe  Fe84      1.0  0.85129  0.63419  0.63194  1.0000
  C   C648      1.0  0.60048  0.65517  0.88177  1.0000
  S   S167      1.0  0.86994  0.64767  0.58732  1.0000
  Fe  Fe85      1.0  0.84853  0.60872  0.69860  1.0000
  S   S168      1.0  0.81800  0.62518  0.71440  1.0000
  S   S169      1.0  0.86472  0.58287  0.73029  1.0000
  Fe  Fe86      1.0  0.80805  0.62028  0.66182  1.0000
  S   S170      1.0  0.77495  0.60830  0.64953  1.0000
  C   C649      1.0  0.96880  0.38395  0.84667  1.0000
  S   S171      1.0  0.83762  0.60180  0.64656  1.0000
  S   S172      1.0  0.86513  0.63946  0.68248  1.0000
  N   N45       1.0  0.99182  0.33448  0.80285  1.0000
  S   S173      1.0  0.65187  0.63475  0.67751  1.0000
  H   H773      1.0  0.63985  0.63455  0.75850  1.0000
  C   C650      1.0  0.62843  0.62973  0.89542  1.0000
  S   S174      1.0  0.59732  0.63615  0.72645  1.0000
  C   C651      1.0  0.55241  0.56240  0.96653  1.0000
  S   S175      1.0  0.65249  0.62304  0.58472  1.0000
  Fe  Fe87      1.0  0.87276  0.48805  0.94356  1.0000
  H   H774      1.0  0.89759  0.58067  0.86511  1.0000
  S   S176      1.0  0.90378  0.46882  0.93090  1.0000
  Fe  Fe88      1.0  0.84477  0.52420  0.91218  1.0000
  S   S177      1.0  0.82875  0.53151  0.96133  1.0000
  S   S178      1.0  0.83259  0.54768  0.87235  1.0000
  H   H775      1.0  0.56238  0.57113  0.94856  1.0000
  H   H776      1.0  0.85147  0.65947  0.78159  1.0000
  Fe  Fe89      1.0  0.82592  0.49600  0.96939  1.0000
  C   C652      1.0  0.86325  0.60160  0.89052  1.0000
  S   S179      1.0  0.87793  0.52367  0.93342  1.0000
  S   S180      1.0  0.84015  0.48829  0.91858  1.0000
  Fe  Fe90      1.0  0.54979  0.63270  0.94963  1.0000
  S   S181      1.0  0.53188  0.62104  0.90555  1.0000
  C   C653      1.0  0.53047  0.56681  0.96867  1.0000
  C   C654      1.0  0.58293  0.64593  0.76153  1.0000
  Fe  Fe91      1.0  0.64558  0.64689  0.62577  1.0000
  Fe  Fe92      1.0  0.62226  0.65314  0.69324  1.0000
  H   H777      1.0  0.82952  0.51630  0.79109  1.0000
  H   H778      1.0  0.97193  0.40105  0.84848  1.0000
  S   S182      1.0  0.94967  0.37703  0.95447  1.0000
  C   C655      1.0  0.93167  0.63310  0.93997  1.0000
  H   H779      1.0  0.70532  0.65659  0.60429  1.0000
  H   H780      1.0  0.85043  0.58999  0.88372  1.0000
  H   H781      1.0  0.60839  0.60493  0.85255  1.0000
  C   C656      1.0  0.91600  0.44302  0.93760  1.0000
  C   C657      1.0  0.90593  0.42647  0.95593  1.0000
  C   C658      1.0  0.91643  0.40647  0.96059  1.0000
  C   C659      1.0  0.93721  0.40266  0.94733  1.0000
  C   C660      1.0  0.94734  0.41923  0.92908  1.0000
  C   C661      1.0  0.93679  0.43918  0.92425  1.0000
  H   H782      1.0  0.58975  0.64961  0.90261  1.0000
  C   C662      1.0  0.97816  0.34865  0.82371  1.0000
  H   H783      1.0  0.96323  0.41667  0.91848  1.0000
  H   H784      1.0  0.94479  0.45179  0.91000  1.0000
  C   C663      1.0  0.72203  0.65169  0.69158  1.0000
  C   C664      1.0  0.91463  0.64144  0.92186  1.0000
  S   S183      1.0  0.58212  0.61640  0.95560  1.0000
  C   C665      1.0  0.89802  0.60561  0.91943  1.0000
  H   H785      1.0  0.82440  0.65553  0.50618  1.0000
  N   N46       1.0  0.71870  0.63640  0.56588  1.0000
  C   C666      1.0  0.94835  0.35276  0.86409  1.0000
  H   H786      1.0  0.86941  0.60877  0.86678  1.0000
  C   C667      1.0  0.81403  0.64264  0.51490  1.0000
  C   C668      1.0  0.71927  0.63355  0.52945  1.0000
  H   H787      1.0  0.91427  0.65849  0.91592  1.0000
  C   C669      1.0  0.51763  0.55613  0.99222  1.0000
  H   H788      1.0  0.58785  0.62420  0.84122  1.0000
  C   C670      1.0  0.55454  0.64013  0.80361  1.0000
  C   C671      1.0  0.56745  0.63258  0.77714  1.0000
  H   H789      1.0  0.54221  0.62990  0.81467  1.0000
  H   H790      1.0  0.56503  0.61646  0.76813  1.0000
  C   C672      1.0  0.62729  0.64508  0.84009  1.0000
  C   C673      1.0  0.65226  0.63028  0.54224  1.0000
  C   C674      1.0  0.66067  0.61591  0.51869  1.0000
  S   S184      1.0  0.82064  0.65197  0.64320  1.0000
  H   H791      1.0  0.66723  0.60067  0.52682  1.0000
  C   C675      1.0  0.75474  0.62470  0.66677  1.0000
  C   C676      1.0  0.76007  0.64351  0.68338  1.0000
  C   C677      1.0  0.89803  0.62798  0.91155  1.0000
  H   H792      1.0  0.88196  0.56992  0.95237  1.0000
  C   C678      1.0  0.71671  0.63282  0.67505  1.0000
  C   C679      1.0  0.73307  0.61919  0.66311  1.0000
  C   C680      1.0  0.65466  0.65927  0.78693  1.0000
  C   C681      1.0  0.86216  0.61137  0.50476  1.0000
  H   H793      1.0  0.70000  0.62857  0.67200  1.0000
  H   H794      1.0  0.72892  0.60443  0.65087  1.0000
  C   C682      1.0  0.84244  0.55747  0.83334  1.0000
  C   C683      1.0  0.83134  0.57443  0.81777  1.0000
  C   C684      1.0  0.83813  0.58255  0.78652  1.0000
  C   C685      1.0  0.85603  0.57367  0.77026  1.0000
  C   C686      1.0  0.86731  0.55689  0.78599  1.0000
  C   C687      1.0  0.86062  0.54885  0.81741  1.0000
  H   H795      1.0  0.81724  0.58117  0.82986  1.0000
  H   H796      1.0  0.82946  0.59562  0.77497  1.0000
  H   H797      1.0  0.88119  0.54989  0.77363  1.0000
  H   H798      1.0  0.86926  0.53572  0.82896  1.0000
  C   C688      1.0  0.78975  0.60869  0.54196  1.0000
  C   C689      1.0  0.86911  0.63864  0.54588  1.0000
  C   C690      1.0  0.86177  0.61812  0.53799  1.0000
  N   N47       1.0  0.61403  0.63739  0.86879  1.0000
  H   H799      1.0  0.85618  0.60730  0.55753  1.0000
  H   H800      1.0  0.90830  0.39383  0.97461  1.0000
  H   H801      1.0  0.80174  0.51185  0.83508  1.0000
  H   H802      1.0  0.74088  0.64369  0.60485  1.0000
  C   C691      1.0  0.62693  0.63521  0.80847  1.0000
  C   C692      1.0  0.87060  0.58062  0.93915  1.0000
  C   C693      1.0  0.64381  0.64994  0.53154  1.0000
  Fe  Fe93      1.0  0.50169  0.62492  0.93710  1.0000
  C   C694      1.0  0.59935  0.61940  0.86078  1.0000
  N   N48       1.0  0.78610  0.56365  0.72953  1.0000
  C   C695      1.0  0.80488  0.56676  0.70663  1.0000
  C   C696      1.0  0.76819  0.55495  0.70992  1.0000
  C   C697      1.0  0.77975  0.58514  0.74199  1.0000
  C   C698      1.0  0.79054  0.54892  0.75778  1.0000
  C   C699      1.0  0.81037  0.53769  0.76112  1.0000
  C   C700      1.0  0.77467  0.54539  0.78308  1.0000
  C   C701      1.0  0.81407  0.52422  0.78846  1.0000
  C   C702      1.0  0.77869  0.53210  0.81053  1.0000
  C   C703      1.0  0.79841  0.52165  0.81331  1.0000
  H   H803      1.0  0.80991  0.55145  0.69478  1.0000
  H   H804      1.0  0.80118  0.57812  0.68597  1.0000
  H   H805      1.0  0.81891  0.57356  0.71971  1.0000
  H   H806      1.0  0.77215  0.53863  0.70057  1.0000
  H   H807      1.0  0.76467  0.56550  0.68808  1.0000
  H   H808      1.0  0.75297  0.55364  0.72472  1.0000
  H   H809      1.0  0.79218  0.59166  0.75866  1.0000
  H   H810      1.0  0.77752  0.59698  0.72134  1.0000
  H   H811      1.0  0.76421  0.58486  0.75604  1.0000
  H   H812      1.0  0.82357  0.53942  0.74349  1.0000
  H   H813      1.0  0.75910  0.55308  0.78206  1.0000
  H   H814      1.0  0.88997  0.42902  0.96633  1.0000
  H   H815      1.0  0.76660  0.53007  0.83007  1.0000
  C   C704      1.0  0.80102  0.62223  0.56273  1.0000
  H   H816      1.0  0.53056  0.65190  0.73941  1.0000
  H   H817      1.0  0.96749  0.33167  0.76589  1.0000
  H   H818      1.0  0.61620  0.62213  0.80292  1.0000
  C   C705      1.0  0.70972  0.61670  0.58211  1.0000
  H   H819      1.0  0.94554  0.60484  0.96196  1.0000
  C   C706      1.0  0.64049  0.64226  0.78245  1.0000
  C   C707      1.0  0.91565  0.59769  0.93796  1.0000
  Fe  Fe94      1.0  0.98395  0.36349  0.94640  1.0000
  H   H820      1.0  0.61916  0.62292  0.91697  1.0000
  H   H821      1.0  0.85659  0.57034  0.93281  1.0000
  H   H822      1.0  0.58936  0.61428  0.88276  1.0000
  H   H823      1.0  0.85509  0.61418  0.90556  1.0000
  Fe  Fe95      1.0  0.86169  0.52864  0.98269  1.0000
  H   H824      1.0  0.73941  0.60487  0.53095  1.0000
  H   H825      1.0  0.85682  0.59532  0.49893  1.0000
  H   H826      1.0  0.88535  0.63552  0.89763  1.0000
  H   H827      1.0  0.61655  0.58693  0.96789  1.0000
  H   H828      1.0  0.75133  0.62568  0.57481  1.0000
  C   C708      1.0  0.70534  0.65492  0.57678  1.0000
  H   H829      1.0  0.74871  0.65374  0.56448  1.0000
  C   C709      1.0  0.95204  0.37479  0.86534  1.0000
  H   H830      1.0  0.78084  0.59522  0.55263  1.0000
  H   H831      1.0  0.70499  0.61937  0.60847  1.0000
  H   H832      1.0  0.68820  0.65285  0.56986  1.0000
  S   S185      1.0  0.79560  0.47996  0.99286  1.0000
  C   C710      1.0  0.60641  0.58728  0.98997  1.0000
  H   H833      1.0  0.72121  0.60303  0.58193  1.0000
  C   C711      1.0  0.87401  0.63402  0.77171  1.0000
  H   H834      1.0  0.91669  0.58092  0.94520  1.0000
  S   S186      1.0  0.49697  0.65948  0.92013  1.0000
  H   H835      1.0  0.80083  0.61931  0.58930  1.0000
  C   C712      1.0  0.89402  0.62868  0.75810  1.0000
  C   C713      1.0  0.87645  0.65246  0.52022  1.0000
  C   C714      1.0  0.74085  0.64001  0.57788  1.0000
  C   C715      1.0  0.88988  0.57376  0.88797  1.0000
  H   H836      1.0  0.90213  0.56388  0.90091  1.0000
  S   S187      1.0  0.52025  0.63473  0.98221  1.0000
  H   H837      1.0  0.77676  0.64788  0.68643  1.0000
  C   C716      1.0  0.81300  0.63922  0.54924  1.0000
  H   H838      1.0  0.77372  0.52176  0.98314  1.0000
  H   H839      1.0  0.97932  0.41363  0.97836  1.0000
  H   H840      1.0  0.86333  0.62146  0.78094  1.0000
  H   H841      1.0  0.89870  0.61189  0.75668  1.0000
  C   C717      1.0  0.73081  0.61609  0.51538  1.0000
  H   H842      1.0  0.87726  0.56226  0.88018  1.0000
  C   C718      1.0  0.58804  0.60046  0.99071  1.0000
  Fe  Fe96      1.0  0.83359  0.65530  0.69421  1.0000
  C   C719      1.0  0.93223  0.61126  0.94784  1.0000
  H   H843      1.0  0.86483  0.59280  0.95723  1.0000
  H   H844      1.0  0.94209  0.38471  0.88134  1.0000
  H   H845      1.0  0.63945  0.61691  0.88626  1.0000
  N   N49       1.0  0.88068  0.59085  0.90930  1.0000
  C   C720      1.0  0.64322  0.65491  0.49744  1.0000
  C   C721      1.0  0.70808  0.64731  0.50714  1.0000
  H   H846      1.0  0.93574  0.34569  0.87967  1.0000
  C   C722      1.0  0.76241  0.51070  0.99485  1.0000
  C   C723      1.0  0.98181  0.37117  0.82621  1.0000
  H   H847      1.0  0.63846  0.64285  0.90539  1.0000
  Fe  Fe97      1.0  0.52888  0.65607  0.89251  1.0000
  H   H848      1.0  0.94847  0.43552  0.99453  1.0000
  H   H849      1.0  0.52341  0.57869  0.95220  1.0000
  C   C724      1.0  0.79041  0.61213  0.50759  1.0000
  H   H850      1.0  0.69490  0.61131  0.56958  1.0000
  C   C725      1.0  0.86742  0.65541  0.77220  1.0000
  H   H851      1.0  0.94446  0.64358  0.94808  1.0000
  H   H852      1.0  0.57886  0.54507  0.98527  1.0000
  C   C726      1.0  0.96120  0.33981  0.84369  1.0000
  H   H853      1.0  0.93685  0.47267  0.98889  1.0000
  H   H854      1.0  0.50057  0.55983  0.99378  1.0000
  S   S188      1.0  0.85826  0.49340  0.99465  1.0000
  C   C727      1.0  0.90754  0.64472  0.74487  1.0000
  C   C728      1.0  0.56168  0.54727  0.98791  1.0000
  H   H855      1.0  0.82232  0.64931  0.56543  1.0000
  C   C729      1.0  0.74374  0.65686  0.69601  1.0000
  H   H856      1.0  0.92245  0.63960  0.73327  1.0000
  H   H857      1.0  0.56502  0.33308  0.98568  1.0000
  H   H858      1.0  0.99078  0.54201  0.99408  1.0000
  H   H859      1.0  0.69832  0.66063  0.51545  1.0000
  C   C730      1.0  0.71093  0.73536  0.34271  1.0000
  H   H860      1.0  0.63396  0.93597  0.03075  1.0000
  S   S189      1.0  0.90476  0.71283  0.37509  1.0000
  S   S190      1.0  0.98181  0.89465  0.99859  1.0000
  Fe  Fe98      1.0  0.63539  0.78424  0.33607  1.0000
  S   S191      1.0  0.61118  0.81089  0.34073  1.0000
  S   S192      1.0  0.62665  0.75007  0.34920  1.0000
  Fe  Fe99      1.0  0.67272  0.81467  0.32475  1.0000
  S   S193      1.0  0.65184  0.84395  0.32902  1.0000
  S   S194      1.0  0.70864  0.81212  0.31721  1.0000
  Fe  Fe100     1.0  0.63597  0.82670  0.37235  1.0000
  S   S195      1.0  0.62333  0.83998  0.42123  1.0000
  Fe  Fe101     1.0  0.62865  0.82587  0.29688  1.0000
  S   S196      1.0  0.61456  0.84530  0.25384  1.0000
  S   S197      1.0  0.65882  0.79901  0.37050  1.0000
  S   S198      1.0  0.65097  0.79769  0.28966  1.0000
  Fe  Fe102     1.0  0.83244  0.83987  0.35112  1.0000
  S   S199      1.0  0.86114  0.86366  0.35972  1.0000
  S   S200      1.0  0.83463  0.78396  0.34318  1.0000
  Fe  Fe103     1.0  0.80251  0.88209  0.35261  1.0000
  S   S201      1.0  0.82912  0.90564  0.36095  1.0000
  S   S202      1.0  0.76756  0.89145  0.35130  1.0000
  Fe  Fe104     1.0  0.84711  0.88674  0.32213  1.0000
  S   S203      1.0  0.86777  0.89856  0.27772  1.0000
  Fe  Fe105     1.0  0.84082  0.88071  0.39768  1.0000
  S   S204      1.0  0.84891  0.89030  0.45039  1.0000
  S   S205      1.0  0.81963  0.86482  0.31182  1.0000
  S   S206      1.0  0.81281  0.85887  0.39154  1.0000
  H   H861      1.0  0.73014  0.87946  0.47292  1.0000
  Fe  Fe106     1.0  0.87344  0.95635  0.04769  1.0000
  S   S207      1.0  0.88509  0.97492  0.09175  1.0000
  H   H862      1.0  0.78348  0.73682  0.38886  1.0000
  Fe  Fe107     1.0  0.85095  0.97133  0.11098  1.0000
  S   S208      1.0  0.83958  0.96553  0.16458  1.0000
  S   S209      1.0  0.84030  0.95062  0.06925  1.0000
  Fe  Fe108     1.0  0.52351  0.84195  0.11590  1.0000
  S   S210      1.0  0.54746  0.83976  0.07364  1.0000
  S   S211      1.0  0.53143  0.82769  0.16681  1.0000
  Fe  Fe109     1.0  0.51993  0.82512  0.04555  1.0000
  Fe  Fe110     1.0  0.53462  0.87207  0.05781  1.0000
  C   C731      1.0  0.93910  0.68182  0.31125  1.0000
  S   S212      1.0  0.51264  0.87550  0.10250  1.0000
  H   H863      1.0  0.86232  0.84528  0.44996  1.0000
  C   C732      1.0  0.66915  0.92318  0.09222  1.0000
  H   H864      1.0  0.93029  0.68584  0.33460  1.0000
  H   H865      1.0  0.57568  0.80606  0.12238  1.0000
  N   N50       1.0  0.55440  0.76935  0.10454  1.0000
  H   H866      1.0  0.56064  0.73556  0.09779  1.0000
  C   C733      1.0  0.63081  0.84742  0.48715  1.0000
  H   H867      1.0  0.71332  0.70113  0.33757  1.0000
  C   C734      1.0  0.85662  0.87198  0.48225  1.0000
  H   H868      1.0  0.67263  0.98372  0.03088  1.0000
  H   H869      1.0  0.50345  0.93558  0.06228  1.0000
  C   C735      1.0  0.57215  0.75581  0.15745  1.0000
  S   S213      1.0  0.50938  0.85763  0.02588  1.0000
  H   H870      1.0  0.64738  0.97018  0.03264  1.0000
  H   H871      1.0  0.80845  0.71574  0.33003  1.0000
  C   C736      1.0  0.85982  0.91751  0.24676  1.0000
  C   C737      1.0  0.87383  0.92197  0.21965  1.0000
  C   C738      1.0  0.86780  0.93631  0.19398  1.0000
  C   C739      1.0  0.84779  0.94662  0.19539  1.0000
  C   C740      1.0  0.83398  0.94245  0.22277  1.0000
  C   C741      1.0  0.83984  0.92787  0.24814  1.0000
  H   H872      1.0  0.88934  0.91411  0.21839  1.0000
  H   H873      1.0  0.87869  0.93952  0.17333  1.0000
  H   H874      1.0  0.81853  0.95045  0.22430  1.0000
  H   H875      1.0  0.82891  0.92471  0.26884  1.0000
  C   C742      1.0  0.64015  0.84391  0.45565  1.0000
  H   H876      1.0  0.80708  0.74580  0.36623  1.0000
  H   H877      1.0  0.66996  0.84167  0.42790  1.0000
  H   H878      1.0  0.65594  0.79851  0.47411  1.0000
  C   C743      1.0  0.59146  0.83984  0.22989  1.0000
  C   C744      1.0  0.58780  0.85233  0.20117  1.0000
  C   C745      1.0  0.56962  0.84874  0.18147  1.0000
  C   C746      1.0  0.55469  0.83280  0.19058  1.0000
  C   C747      1.0  0.55827  0.82042  0.21945  1.0000
  C   C748      1.0  0.57662  0.82380  0.23890  1.0000
  H   H879      1.0  0.59914  0.86481  0.19400  1.0000
  H   H880      1.0  0.56706  0.85843  0.15942  1.0000
  H   H881      1.0  0.54684  0.80804  0.22669  1.0000
  H   H882      1.0  0.57916  0.81410  0.26093  1.0000
  C   C749      1.0  0.72449  0.83437  0.32744  1.0000
  C   C750      1.0  0.71525  0.85385  0.33735  1.0000
  C   C751      1.0  0.72851  0.87144  0.34463  1.0000
  C   C752      1.0  0.75097  0.86948  0.34233  1.0000
  C   C753      1.0  0.76013  0.84994  0.33281  1.0000
  C   C754      1.0  0.74694  0.83246  0.32526  1.0000
  H   H883      1.0  0.69795  0.85542  0.33907  1.0000
  H   H884      1.0  0.72143  0.88657  0.35192  1.0000
  H   H885      1.0  0.77737  0.84845  0.33085  1.0000
  H   H886      1.0  0.75411  0.81746  0.31751  1.0000
  C   C755      1.0  0.67012  0.69780  0.30573  1.0000
  C   C756      1.0  0.65880  0.69433  0.33562  1.0000
  C   C757      1.0  0.64545  0.71044  0.34862  1.0000
  C   C758      1.0  0.64377  0.73036  0.33233  1.0000
  C   C759      1.0  0.65555  0.73412  0.30289  1.0000
  C   C760      1.0  0.66856  0.71777  0.28944  1.0000
  H   H887      1.0  0.75223  0.70063  0.33384  1.0000
  H   H888      1.0  0.63645  0.70745  0.37144  1.0000
  H   H889      1.0  0.65433  0.74945  0.29015  1.0000
  H   H890      1.0  0.67744  0.72063  0.26649  1.0000
  C   C761      1.0  0.88599  0.73306  0.36577  1.0000
  C   C762      1.0  0.88969  0.75436  0.37496  1.0000
  C   C763      1.0  0.87437  0.77040  0.36817  1.0000
  C   C764      1.0  0.85534  0.76520  0.35178  1.0000
  C   C765      1.0  0.85210  0.74395  0.34195  1.0000
  C   C766      1.0  0.86717  0.72792  0.34922  1.0000
  H   H891      1.0  0.90427  0.75838  0.38780  1.0000
  H   H892      1.0  0.87748  0.78649  0.37618  1.0000
  H   H893      1.0  0.83788  0.73976  0.32860  1.0000
  H   H894      1.0  0.86417  0.71157  0.34190  1.0000
  H   H895      1.0  0.78019  0.74387  0.28362  1.0000
  N   N51       1.0  0.88295  0.89029  0.10783  1.0000
  C   C767      1.0  0.89125  0.91261  0.10536  1.0000
  C   C768      1.0  0.90164  0.87584  0.11345  1.0000
  C   C769      1.0  0.87357  0.88438  0.07556  1.0000
  C   C770      1.0  0.86625  0.88908  0.13448  1.0000
  C   C771      1.0  0.86913  0.87737  0.16464  1.0000
  C   C772      1.0  0.84675  0.90078  0.13139  1.0000
  S   S214      1.0  0.88569  0.92654  0.02172  1.0000
  C   C773      1.0  0.83108  0.90071  0.15670  1.0000
  H   H896      1.0  0.61194  0.90977  0.06123  1.0000
  H   H897      1.0  0.89771  0.91796  0.12944  1.0000
  H   H898      1.0  0.90436  0.91417  0.08628  1.0000
  H   H899      1.0  0.87853  0.92421  0.09799  1.0000
  H   H900      1.0  0.91066  0.88043  0.13589  1.0000
  H   H901      1.0  0.91351  0.87673  0.09236  1.0000
  H   H902      1.0  0.89648  0.85875  0.11584  1.0000
  H   H903      1.0  0.58217  0.76753  0.07188  1.0000
  S   S215      1.0  0.86342  0.98564  0.01874  1.0000
  H   H904      1.0  0.86567  0.86834  0.07706  1.0000
  H   H905      1.0  0.88366  0.86853  0.16978  1.0000
  H   H906      1.0  0.84368  0.91061  0.10971  1.0000
  H   H907      1.0  0.93686  0.69571  0.29412  1.0000
  H   H908      1.0  0.81668  0.91044  0.15418  1.0000
  C   C774      1.0  0.75799  0.88716  0.44385  1.0000
  N   N52       1.0  0.60447  0.89131  0.33390  1.0000
  C   C775      1.0  0.58979  0.90539  0.35331  1.0000
  C   C776      1.0  0.60234  0.89733  0.29831  1.0000
  C   C777      1.0  0.59710  0.86873  0.33797  1.0000
  C   C778      1.0  0.62674  0.89331  0.34614  1.0000
  C   C779      1.0  0.64461  0.89891  0.32515  1.0000
  C   C780      1.0  0.63118  0.88909  0.38003  1.0000
  C   C781      1.0  0.66552  0.89989  0.33751  1.0000
  H   H909      1.0  0.88237  0.98526  0.16820  1.0000
  H   H910      1.0  0.75084  0.88205  0.42087  1.0000
  H   H911      1.0  0.59563  0.92232  0.35278  1.0000
  H   H912      1.0  0.57316  0.90527  0.34343  1.0000
  H   H913      1.0  0.58827  0.90018  0.37972  1.0000
  H   H914      1.0  0.60718  0.91431  0.29345  1.0000
  H   H915      1.0  0.58549  0.89546  0.28976  1.0000
  H   H916      1.0  0.61223  0.88667  0.28207  1.0000
  H   H917      1.0  0.59768  0.86290  0.36415  1.0000
  H   H918      1.0  0.58028  0.86655  0.32952  1.0000
  H   H919      1.0  0.60733  0.85777  0.32293  1.0000
  H   H920      1.0  0.64302  0.90203  0.29892  1.0000
  H   H921      1.0  0.61857  0.88430  0.39741  1.0000
  C   C782      1.0  0.97426  0.68766  0.25962  1.0000
  C   C783      1.0  0.65623  0.90811  0.10933  1.0000
  H   H922      1.0  0.95438  0.66332  0.36576  1.0000
  N   N53       1.0  0.85344  0.82074  0.27984  1.0000
  C   C784      1.0  0.83766  0.82266  0.25276  1.0000
  C   C785      1.0  0.86878  0.83893  0.27641  1.0000
  C   C786      1.0  0.86546  0.80035  0.27528  1.0000
  C   C787      1.0  0.84324  0.82073  0.31320  1.0000
  C   C788      1.0  0.85740  0.81927  0.34383  1.0000
  C   C789      1.0  0.81865  0.81934  0.31869  1.0000
  C   C790      1.0  0.84754  0.81692  0.37837  1.0000
  C   C791      1.0  0.80902  0.81693  0.35327  1.0000
  C   C792      1.0  0.82353  0.81517  0.38288  1.0000
  H   H923      1.0  0.82654  0.80863  0.25272  1.0000
  H   H924      1.0  0.82795  0.83763  0.25494  1.0000
  H   H925      1.0  0.84576  0.82320  0.22792  1.0000
  H   H926      1.0  0.87646  0.83976  0.25131  1.0000
  H   H927      1.0  0.88210  0.83791  0.29437  1.0000
  H   H928      1.0  0.86053  0.85451  0.28060  1.0000
  H   H929      1.0  0.85452  0.78621  0.27808  1.0000
  H   H930      1.0  0.87341  0.79956  0.25040  1.0000
  H   H931      1.0  0.87821  0.79813  0.29403  1.0000
  H   H932      1.0  0.87475  0.81927  0.34149  1.0000
  H   H933      1.0  0.80757  0.81944  0.29838  1.0000
  H   H934      1.0  0.85775  0.81583  0.39983  1.0000
  H   H935      1.0  0.79176  0.81553  0.35684  1.0000
  H   H936      1.0  0.81664  0.81258  0.40747  1.0000
  H   H937      1.0  0.66019  0.67920  0.34879  1.0000
  N   N54       1.0  0.63575  0.76220  0.45174  1.0000
  C   C793      1.0  0.62327  0.77982  0.43597  1.0000
  H   H938      1.0  0.97033  0.71075  0.31713  1.0000
  C   C794      1.0  0.66331  0.97103  0.04462  1.0000
  H   H939      1.0  0.71326  0.76969  0.34632  1.0000
  H   H940      1.0  0.75244  0.77043  0.34290  1.0000
  H   H941      1.0  0.66216  0.90006  0.13137  1.0000
  H   H942      1.0  0.61845  0.77578  0.41028  1.0000
  C   C795      1.0  0.64071  0.92857  0.05263  1.0000
  Fe  Fe111     1.0  0.83050  0.98076  0.04228  1.0000
  H   H943      1.0  0.70572  0.96590  0.04319  1.0000
  H   H944      1.0  0.49663  0.76768  0.04770  1.0000
  H   H945      1.0  0.61347  0.84716  0.49017  1.0000
  C   C796      1.0  0.50536  0.75827  0.02955  1.0000
  H   H946      1.0  0.56888  0.79330  0.07145  1.0000
  H   H947      1.0  0.63255  0.79502  0.43359  1.0000
  H   H948      1.0  0.68510  0.92673  0.00858  1.0000
  H   H949      1.0  0.52425  0.78182  0.08664  1.0000
  C   C797      1.0  0.69649  0.95366  0.05814  1.0000
  C   C798      1.0  0.83436  0.88907  0.18587  1.0000
  C   C799      1.0  0.74461  0.75492  0.34193  1.0000
  C   C800      1.0  0.72212  0.75470  0.34407  1.0000
  C   C801      1.0  0.51167  0.72343  0.00248  1.0000
  C   C802      1.0  0.56840  0.77233  0.13348  1.0000
  C   C803      1.0  0.78722  0.74993  0.30693  1.0000
  C   C804      1.0  0.66257  0.84428  0.45202  1.0000
  C   C805      1.0  0.54686  0.74687  0.10053  1.0000
  H   H950      1.0  0.53936  0.80041  0.11006  1.0000
  C   C806      1.0  0.56624  0.77565  0.07356  1.0000
  C   C807      1.0  0.67776  0.94303  0.00969  1.0000
  H   H951      1.0  0.69276  0.84946  0.47623  1.0000
  H   H952      1.0  0.91425  0.66224  0.24819  1.0000
  H   H953      1.0  0.80506  0.75025  0.30364  1.0000
  S   S216      1.0  0.52815  0.79606  0.01241  1.0000
  H   H954      1.0  0.77236  0.66815  0.31396  1.0000
  H   H955      1.0  0.66620  0.77416  0.43239  1.0000
  H   H956      1.0  0.78544  0.70703  0.30838  1.0000
  H   H957      1.0  0.86146  0.89624  0.06679  1.0000
  C   C808      1.0  0.79056  0.71484  0.33166  1.0000
  H   H958      1.0  0.78677  0.70385  0.35297  1.0000
  H   H959      1.0  0.69349  0.73530  0.34411  1.0000
  H   H960      1.0  0.66615  0.74627  0.44422  1.0000
  C   C809      1.0  0.66171  0.93390  0.06322  1.0000
  C   C810      1.0  0.75664  0.73563  0.33821  1.0000
  H   H961      1.0  0.78224  0.76699  0.30967  1.0000
  C   C811      1.0  0.57853  0.79244  0.13866  1.0000
  N   N55       1.0  0.78047  0.73635  0.33581  1.0000
  C   C812      1.0  0.92991  0.92957  0.02838  1.0000
  H   H962      1.0  0.60534  0.78202  0.20987  1.0000
  H   H963      1.0  0.50311  0.90830  0.04839  1.0000
  C   C813      1.0  0.78914  0.74587  0.36638  1.0000
  C   C814      1.0  0.74468  0.71613  0.33688  1.0000
  H   H964      1.0  0.78438  0.76298  0.36932  1.0000
  C   C815      1.0  0.63568  0.90332  0.09821  1.0000
  H   H965      1.0  0.93122  0.67495  0.19536  1.0000
  C   C816      1.0  0.97321  0.67200  0.28557  1.0000
  N   N56       1.0  0.67473  0.95007  0.04448  1.0000
  C   C817      1.0  0.65627  0.75930  0.43299  1.0000
  H   H966      1.0  0.58786  0.74667  0.20286  1.0000
  H   H967      1.0  0.92696  0.94371  0.04312  1.0000
  C   C818      1.0  0.72218  0.71613  0.33911  1.0000
  H   H968      1.0  0.55721  0.77137  0.05100  1.0000
  C   C819      1.0  0.52097  0.76822  0.00905  1.0000
  H   H969      1.0  0.61933  0.73884  0.42202  1.0000
  H   H970      1.0  0.56976  0.94104  0.01290  1.0000
  H   H971      1.0  0.52571  0.77908  0.13123  1.0000
  H   H972      1.0  0.60729  0.74321  0.46202  1.0000
  H   H973      1.0  0.65342  0.75495  0.40669  1.0000
  C   C820      1.0  0.74622  0.88604  0.47372  1.0000
  H   H974      1.0  0.63198  0.72778  0.45762  1.0000
  H   H975      1.0  0.81206  0.66553  0.45452  1.0000
  H   H976      1.0  0.68488  0.92611  0.10218  1.0000
  C   C821      1.0  0.86264  0.85084  0.47524  1.0000
  S   S217      1.0  0.55027  0.90375  0.04230  1.0000
  S   S218      1.0  0.88156  0.67238  0.31153  1.0000
  C   C822      1.0  0.50083  0.73607  0.02633  1.0000
  C   C823      1.0  0.66925  0.89544  0.37087  1.0000
  H   H977      1.0  0.60835  0.78346  0.45054  1.0000
  C   C824      1.0  0.58619  0.88904  0.00773  1.0000
  S   S219      1.0  0.99416  0.69067  0.00124  1.0000
  H   H978      1.0  0.65504  0.88625  0.41794  1.0000
  S   S220      1.0  0.85974  0.66937  0.38715  1.0000
  H   H979      1.0  0.63610  0.66990  0.48925  1.0000
  C   C825      1.0  0.91264  0.91865  0.01456  1.0000
  H   H980      1.0  0.96438  0.93046  0.03409  1.0000
  C   C826      1.0  0.62795  0.91353  0.06991  1.0000
  H   H981      1.0  0.67901  0.90364  0.32099  1.0000
  C   C827      1.0  0.57343  0.90663  0.01669  1.0000
  C   C828      1.0  0.58541  0.75932  0.18457  1.0000
  C   C829      1.0  0.59534  0.77918  0.18857  1.0000
  N   N57       1.0  0.96204  0.67693  0.31735  1.0000
  H   H982      1.0  0.85618  0.86934  0.21330  1.0000
  C   C830      1.0  0.77426  0.98272  0.00063  1.0000
  Fe  Fe112     1.0  0.89068  0.68056  0.36344  1.0000
  H   H983      1.0  0.78806  0.89586  0.42006  1.0000
  C   C831      1.0  0.85333  0.87744  0.18984  1.0000
  C   C832      1.0  0.65211  0.89011  0.39209  1.0000
  C   C833      1.0  0.62302  0.74212  0.44850  1.0000
  H   H984      1.0  0.88602  0.88391  0.05531  1.0000
  H   H985      1.0  0.53694  0.74516  0.07792  1.0000
  H   H986      1.0  0.59935  0.81124  0.16917  1.0000
  H   H987      1.0  0.56484  0.74013  0.15602  1.0000
  H   H988      1.0  0.62570  0.89165  0.11150  1.0000
  C   C834      1.0  0.59200  0.79565  0.16554  1.0000
  C   C835      1.0  0.53509  0.78317  0.10821  1.0000
  H   H989      1.0  0.53634  0.74156  0.12171  1.0000
  H   H990      1.0  0.68551  0.89582  0.38020  1.0000
  H   H991      1.0  0.80532  0.90616  0.47217  1.0000
  H   H992      1.0  0.82256  0.88978  0.20597  1.0000
  H   H993      1.0  0.96666  0.70317  0.26225  1.0000
  H   H994      1.0  0.66048  0.97671  0.07038  1.0000
  S   S221      1.0  0.68624  0.67725  0.28879  1.0000
  C   C836      1.0  0.65134  0.78723  0.49360  1.0000
  C   C837      1.0  0.78864  0.90088  0.47270  1.0000
  S   S222      1.0  0.81839  0.66608  0.31842  1.0000
  H   H995      1.0  0.58164  0.87302  0.01599  1.0000
  C   C838      1.0  0.77906  0.89481  0.44331  1.0000
  C   C839      1.0  0.98474  0.68344  0.22942  1.0000
  C   C840      1.0  0.50984  0.93275  0.99601  1.0000
  C   C841      1.0  0.57953  0.92736  0.00595  1.0000
  H   H996      1.0  0.65859  0.66485  0.23265  1.0000
  H   H997      1.0  0.69554  0.95985  0.08389  1.0000
  C   C842      1.0  0.64057  0.76771  0.48648  1.0000
  H   H998      1.0  0.70630  0.93868  0.05777  1.0000
  S   S223      1.0  0.80253  0.97828  0.00554  1.0000
  C   C843      1.0  0.97208  0.69597  0.33262  1.0000
  H   H999      1.0  0.96441  0.69970  0.35711  1.0000
  H   H1000     1.0  0.98958  0.69328  0.33652  1.0000
  H   H1001     1.0  0.93089  0.66775  0.30046  1.0000
  H   H1002     1.0  0.65732  0.66256  0.18866  1.0000
  C   C844      1.0  0.67545  0.84876  0.47947  1.0000
  C   C845      1.0  0.95507  0.90371  0.00400  1.0000
  H   H1003     1.0  0.98474  0.69531  0.20948  1.0000
  S   S224      1.0  0.49626  0.82634  0.08829  1.0000
  H   H1004     1.0  0.52123  0.94389  0.00812  1.0000
  C   C846      1.0  0.95106  0.92204  0.02322  1.0000
  S   S225      1.0  0.50529  0.69536  0.99972  1.0000
  C   C847      1.0  0.91666  0.90028  0.99551  1.0000
  H   H1005     1.0  0.87494  0.82100  0.49485  1.0000
  H   H1006     1.0  0.66236  0.94231  0.99625  1.0000
  H   H1007     1.0  0.89100  0.83288  0.79784  1.0000
  Fe  Fe113     1.0  0.63491  0.69179  0.65034  1.0000
  H   H1008     1.0  0.79101  0.79183  0.69087  1.0000
  S   S226      1.0  0.62468  0.72497  0.63341  1.0000
  C   C848      1.0  0.65127  0.77877  0.55230  1.0000
  H   H1009     1.0  0.75634  0.80676  0.70725  1.0000
  Fe  Fe114     1.0  0.68554  0.83172  0.66342  1.0000
  S   S227      1.0  0.65812  0.85126  0.64364  1.0000
  S   S228      1.0  0.68575  0.79833  0.68596  1.0000
  Fe  Fe115     1.0  0.71867  0.86638  0.64618  1.0000
  S   S229      1.0  0.69370  0.88891  0.62635  1.0000
  S   S230      1.0  0.75353  0.87389  0.63533  1.0000
  Fe  Fe116     1.0  0.67389  0.87860  0.67131  1.0000
  S   S231      1.0  0.65310  0.89996  0.70502  1.0000
  Fe  Fe117     1.0  0.68052  0.85992  0.60049  1.0000
  S   S232      1.0  0.68333  0.85910  0.54389  1.0000
  S   S233      1.0  0.70020  0.85825  0.69295  1.0000
  S   S234      1.0  0.70651  0.83808  0.61897  1.0000
  Fe  Fe118     1.0  0.88998  0.78926  0.66802  1.0000
  S   S235      1.0  0.91184  0.81380  0.64412  1.0000
  S   S236      1.0  0.89817  0.75429  0.66212  1.0000
  Fe  Fe119     1.0  0.85710  0.82282  0.68803  1.0000
  S   S237      1.0  0.87596  0.84985  0.66412  1.0000
  S   S238      1.0  0.82596  0.82665  0.71676  1.0000
  Fe  Fe120     1.0  0.88163  0.82713  0.62136  1.0000
  S   S239      1.0  0.88057  0.82610  0.56465  1.0000
  Fe  Fe121     1.0  0.90430  0.83385  0.68907  1.0000
  S   S240      1.0  0.92735  0.85490  0.71823  1.0000
  S   S241      1.0  0.86021  0.80158  0.64405  1.0000
  S   S242      1.0  0.88492  0.80787  0.71469  1.0000
  S   S243      1.0  0.63554  0.91661  0.95526  1.0000
  H   H1010     1.0  0.74146  0.90478  0.58509  1.0000
  Fe  Fe122     1.0  0.98932  0.84235  0.89918  1.0000
  H   H1011     1.0  0.63679  0.74868  0.56695  1.0000
  S   S244      1.0  0.97131  0.82846  0.85518  1.0000
  S   S245      1.0  0.97663  0.83539  0.95128  1.0000
  H   H1012     1.0  0.84369  0.86886  0.80701  1.0000
  Fe  Fe123     1.0  0.66637  0.96876  0.87320  1.0000
  S   S246      1.0  0.67942  0.95320  0.91931  1.0000
  S   S247      1.0  0.68321  0.95889  0.82485  1.0000
  H   H1013     1.0  0.73241  0.81402  0.68561  1.0000
  Fe  Fe124     1.0  0.64474  0.94953  0.93501  1.0000
  C   C849      1.0  0.90542  0.87788  0.85908  1.0000
  S   S248      1.0  0.63182  0.96290  0.88748  1.0000
  H   H1014     1.0  0.85350  0.89603  0.80644  1.0000
  H   H1015     1.0  0.86044  0.84175  0.76963  1.0000
  H   H1016     1.0  0.90335  0.89173  0.98483  1.0000
  C   C850      1.0  0.54763  0.67822  0.71566  1.0000
  C   C851      1.0  0.85733  0.87900  0.51527  1.0000
  H   H1017     1.0  0.81480  0.76299  0.70851  1.0000
  H   H1018     1.0  0.90996  0.89023  0.87636  1.0000
  H   H1019     1.0  0.72192  0.91874  0.51959  1.0000
  H   H1020     1.0  0.98526  0.83123  0.74853  1.0000
  Fe  Fe125     1.0  0.66952  0.66572  0.68360  1.0000
  H   H1021     1.0  0.88257  0.74074  0.50672  1.0000
  H   H1022     1.0  0.90035  0.67961  0.68299  1.0000
  H   H1023     1.0  0.72966  0.86850  0.56936  1.0000
  H   H1024     1.0  0.91919  0.71789  0.72406  1.0000
  C   C852      1.0  0.66613  0.85248  0.51094  1.0000
  C   C853      1.0  0.88669  0.86724  0.80861  1.0000
  C   C854      1.0  0.85214  0.88126  0.79143  1.0000
  C   C855      1.0  0.64374  0.85149  0.51479  1.0000
  C   C856      1.0  0.99341  0.73156  0.97315  1.0000
  H   H1025     1.0  0.51818  0.91688  0.99510  1.0000
  C   C857      1.0  0.93781  0.89288  0.99008  1.0000
  C   C858      1.0  0.57265  0.67447  0.79935  1.0000
  C   C859      1.0  0.93893  0.84755  0.75681  1.0000
  C   C860      1.0  0.94904  0.86336  0.77582  1.0000
  C   C861      1.0  0.95885  0.85799  0.80619  1.0000
  C   C862      1.0  0.95887  0.83665  0.81764  1.0000
  C   C863      1.0  0.94887  0.82088  0.79849  1.0000
  C   C864      1.0  0.93879  0.82629  0.76846  1.0000
  H   H1026     1.0  0.94934  0.87984  0.76696  1.0000
  H   H1027     1.0  0.96648  0.87031  0.82055  1.0000
  H   H1028     1.0  0.94884  0.80431  0.80703  1.0000
  H   H1029     1.0  0.93123  0.81392  0.75406  1.0000
  C   C865      1.0  0.86414  0.86511  0.54102  1.0000
  C   C866      1.0  0.87063  0.84410  0.53386  1.0000
  H   H1030     1.0  0.82640  0.70149  0.61812  1.0000
  H   H1031     1.0  0.86480  0.87080  0.56621  1.0000
  S   S249      1.0  0.64368  0.98099  0.96142  1.0000
  C   C867      1.0  0.77330  0.86061  0.65842  1.0000
  C   C868      1.0  0.79408  0.85859  0.64471  1.0000
  C   C869      1.0  0.81027  0.84804  0.66243  1.0000
  C   C870      1.0  0.80585  0.83986  0.69426  1.0000
  C   C871      1.0  0.78512  0.84202  0.70815  1.0000
  C   C872      1.0  0.76876  0.85219  0.69010  1.0000
  H   H1032     1.0  0.79767  0.86513  0.62023  1.0000
  H   H1033     1.0  0.82622  0.84640  0.65153  1.0000
  H   H1034     1.0  0.78171  0.83583  0.73289  1.0000
  H   H1035     1.0  0.75280  0.85392  0.70091  1.0000
  C   C873      1.0  0.66189  0.91554  0.73902  1.0000
  C   C874      1.0  0.68358  0.92074  0.74320  1.0000
  C   C875      1.0  0.68979  0.93378  0.76979  1.0000
  C   C876      1.0  0.67451  0.94158  0.79283  1.0000
  C   C877      1.0  0.65284  0.93616  0.78895  1.0000
  C   C878      1.0  0.64658  0.92334  0.76210  1.0000
  H   H1036     1.0  0.69555  0.91500  0.72561  1.0000
  H   H1037     1.0  0.70658  0.93798  0.77235  1.0000
  H   H1038     1.0  0.64083  0.94254  0.80587  1.0000
  H   H1039     1.0  0.62975  0.91955  0.75900  1.0000
  H   H1040     1.0  0.61010  0.66860  0.89164  1.0000
  C   C879      1.0  0.64081  0.75942  0.54628  1.0000
  H   H1041     1.0  0.87504  0.71261  0.54425  1.0000
  C   C880      1.0  0.65525  0.66945  0.81746  1.0000
  C   C881      1.0  0.74199  0.97765  0.96691  1.0000
  H   H1042     1.0  0.63636  0.85439  0.53883  1.0000
  C   C882      1.0  0.64169  0.74543  0.64770  1.0000
  C   C883      1.0  0.63781  0.76697  0.63891  1.0000
  C   C884      1.0  0.65140  0.78340  0.65005  1.0000
  C   C885      1.0  0.66866  0.77832  0.67056  1.0000
  C   C886      1.0  0.67241  0.75680  0.67950  1.0000
  C   C887      1.0  0.65909  0.74039  0.66790  1.0000
  H   H1043     1.0  0.62430  0.77099  0.62344  1.0000
  H   H1044     1.0  0.64832  0.79998  0.64324  1.0000
  H   H1045     1.0  0.68565  0.75277  0.69550  1.0000
  H   H1046     1.0  0.66228  0.72385  0.67479  1.0000
  H   H1047     1.0  0.75511  0.86190  0.55035  1.0000
  C   C888      1.0  0.76398  0.97366  0.97319  1.0000
  H   H1048     1.0  0.84148  0.88527  0.77027  1.0000
  C   C889      1.0  0.84807  0.70653  0.70146  1.0000
  C   C890      1.0  0.86137  0.70128  0.67444  1.0000
  C   C891      1.0  0.87629  0.71632  0.66173  1.0000
  C   C892      1.0  0.87758  0.73682  0.67548  1.0000
  C   C893      1.0  0.86360  0.74246  0.70151  1.0000
  C   C894      1.0  0.84907  0.72720  0.71480  1.0000
  H   H1049     1.0  0.88569  0.90575  0.77369  1.0000
  H   H1050     1.0  0.88692  0.71201  0.64132  1.0000
  H   H1051     1.0  0.86463  0.75825  0.71234  1.0000
  H   H1052     1.0  0.83890  0.73128  0.73586  1.0000
  N   N58       1.0  0.75087  0.78857  0.66291  1.0000
  C   C895      1.0  0.74295  0.80022  0.69254  1.0000
  C   C896      1.0  0.76271  0.80393  0.64070  1.0000
  C   C897      1.0  0.73182  0.78100  0.64459  1.0000
  C   C898      1.0  0.76525  0.77088  0.67365  1.0000
  C   C899      1.0  0.75924  0.74882  0.67216  1.0000
  C   C900      1.0  0.78561  0.77547  0.68751  1.0000
  C   C901      1.0  0.77303  0.73252  0.68308  1.0000
  C   C902      1.0  0.79932  0.75902  0.69808  1.0000
  C   C903      1.0  0.79303  0.73760  0.69587  1.0000
  H   H1053     1.0  0.73324  0.78947  0.70930  1.0000
  H   H1054     1.0  0.77587  0.81239  0.65342  1.0000
  H   H1055     1.0  0.75202  0.81698  0.63132  1.0000
  H   H1056     1.0  0.72080  0.77114  0.66071  1.0000
  H   H1057     1.0  0.72173  0.79464  0.63580  1.0000
  H   H1058     1.0  0.73663  0.77156  0.62244  1.0000
  H   H1059     1.0  0.74383  0.74370  0.66313  1.0000
  H   H1060     1.0  0.76806  0.71581  0.68210  1.0000
  H   H1061     1.0  0.80348  0.72485  0.70459  1.0000
  N   N59       1.0  0.64777  0.88882  0.86300  1.0000
  C   C904      1.0  0.64567  0.87215  0.88951  1.0000
  C   C905      1.0  0.66545  0.90354  0.87228  1.0000
  C   C906      1.0  0.62762  0.90164  0.86223  1.0000
  C   C907      1.0  0.65143  0.87835  0.83058  1.0000
  C   C908      1.0  0.63576  0.86413  0.81796  1.0000
  C   C909      1.0  0.67037  0.88171  0.81082  1.0000
  C   C910      1.0  0.63875  0.85413  0.78734  1.0000
  C   C911      1.0  0.67327  0.87141  0.78043  1.0000
  C   C912      1.0  0.65745  0.85781  0.76859  1.0000
  H   H1062     1.0  0.64353  0.87946  0.91446  1.0000
  H   H1063     1.0  0.63149  0.86157  0.88614  1.0000
  H   H1064     1.0  0.66024  0.86175  0.89023  1.0000
  H   H1065     1.0  0.66223  0.91105  0.89676  1.0000
  H   H1066     1.0  0.66742  0.91703  0.85403  1.0000
  H   H1067     1.0  0.68106  0.89492  0.87444  1.0000
  H   H1068     1.0  0.61309  0.89152  0.85915  1.0000
  H   H1069     1.0  0.62494  0.91061  0.88570  1.0000
  H   H1070     1.0  0.62812  0.91360  0.84149  1.0000
  H   H1071     1.0  0.62098  0.86077  0.83155  1.0000
  H   H1072     1.0  0.68301  0.89260  0.81775  1.0000
  H   H1073     1.0  0.62643  0.84364  0.77783  1.0000
  H   H1074     1.0  0.73454  0.97075  0.94546  1.0000
  H   H1075     1.0  0.62746  0.73863  0.51107  1.0000
  H   H1076     1.0  0.85408  0.76841  0.52063  1.0000
  H   H1077     1.0  0.87651  0.78661  0.52356  1.0000
  H   H1078     1.0  0.54391  0.76295  0.96923  1.0000
  H   H1079     1.0  0.90109  0.88545  0.75282  1.0000
  C   C913      1.0  0.88443  0.89045  0.76000  1.0000
  C   C914      1.0  0.90149  0.66675  0.74535  1.0000
  H   H1080     1.0  0.59855  0.67672  0.76290  1.0000
  H   H1081     1.0  0.66460  0.80772  0.53087  1.0000
  C   C915      1.0  0.63550  0.75386  0.51390  1.0000
  H   H1082     1.0  0.92448  0.66436  0.68707  1.0000
  C   C916      1.0  0.72054  0.90215  0.53003  1.0000
  H   H1083     1.0  0.86045  0.68551  0.66361  1.0000
  H   H1084     1.0  0.90689  0.70920  0.76267  1.0000
  C   C917      1.0  0.89424  0.84594  0.81441  1.0000
  S   S250      1.0  0.64065  0.68330  0.70384  1.0000
  H   H1085     1.0  0.53573  0.72404  0.96348  1.0000
  H   H1086     1.0  0.89232  0.70865  0.72451  1.0000
  C   C918      1.0  0.85032  0.74880  0.59571  1.0000
  H   H1087     1.0  0.90508  0.77913  0.56523  1.0000
  H   H1088     1.0  0.93741  0.68258  0.77088  1.0000
  C   C919      1.0  0.90820  0.70567  0.73573  1.0000
  H   H1089     1.0  0.90367  0.73539  0.53628  1.0000
  H   H1090     1.0  0.92314  0.85299  0.88436  1.0000
  H   H1091     1.0  0.71097  0.90288  0.55365  1.0000
  H   H1092     1.0  0.68756  0.87460  0.76532  1.0000
  N   N60       1.0  0.87342  0.87325  0.77974  1.0000
  H   H1093     1.0  0.88483  0.84884  0.74659  1.0000
  S   S251      1.0  0.83098  0.68712  0.71976  1.0000
  H   H1094     1.0  0.91295  0.82475  0.84540  1.0000
  H   H1095     1.0  0.55747  0.66717  0.70148  1.0000
  S   S252      1.0  0.66535  0.67678  0.63104  1.0000
  H   H1096     1.0  0.82619  0.74002  0.63253  1.0000
  C   C920      1.0  0.89394  0.76719  0.57720  1.0000
  H   H1097     1.0  0.88729  0.89949  0.82934  1.0000
  C   C921      1.0  0.91272  0.85691  0.86381  1.0000
  C   C922      1.0  0.90694  0.84097  0.84176  1.0000
  H   H1098     1.0  0.85949  0.86010  0.73552  1.0000
  C   C923      1.0  0.86977  0.83708  0.50084  1.0000
  H   H1099     1.0  0.87583  0.89422  0.73660  1.0000
  H   H1100     1.0  0.98533  0.72388  0.95293  1.0000
  H   H1101     1.0  0.57446  0.69086  0.80751  1.0000
  C   C924      1.0  0.52723  0.73339  0.98198  1.0000
  H   H1102     1.0  0.99353  0.76302  0.94916  1.0000
  C   C925      1.0  0.86449  0.71958  0.56275  1.0000
  H   H1103     1.0  0.67226  0.98858  0.76931  1.0000
  H   H1104     1.0  0.64304  0.67075  0.86701  1.0000
  C   C926      1.0  0.85058  0.70534  0.57965  1.0000
  C   C927      1.0  0.53236  0.66922  0.73760  1.0000
  H   H1105     1.0  0.94074  0.87872  0.97535  1.0000
  H   H1106     1.0  0.88521  0.77609  0.59695  1.0000
  H   H1107     1.0  0.65954  0.85044  0.74450  1.0000
  C   C928      1.0  0.89251  0.88301  0.83201  1.0000
  C   C929      1.0  0.73931  0.86976  0.54586  1.0000
  C   C930      1.0  0.88088  0.67161  0.75935  1.0000
  N   N61       1.0  0.56820  0.70981  0.69168  1.0000
  C   C931      1.0  0.56633  0.70151  0.65746  1.0000
  C   C932      1.0  0.56807  0.73368  0.68929  1.0000
  C   C933      1.0  0.58926  0.70317  0.70493  1.0000
  C   C934      1.0  0.55096  0.70080  0.71358  1.0000
  C   C935      1.0  0.53823  0.71374  0.73517  1.0000
  H   H1108     1.0  0.90312  0.76021  0.51367  1.0000
  C   C936      1.0  0.52322  0.70450  0.75739  1.0000
  H   H1109     1.0  0.65348  0.96853  0.72605  1.0000
  C   C937      1.0  0.91678  0.67993  0.69357  1.0000
  H   H1110     1.0  0.55010  0.70492  0.64739  1.0000
  H   H1111     1.0  0.57858  0.70889  0.64023  1.0000
  H   H1112     1.0  0.56915  0.68391  0.65608  1.0000
  H   H1113     1.0  0.55232  0.73979  0.68039  1.0000
  H   H1114     1.0  0.58076  0.73978  0.67159  1.0000
  H   H1115     1.0  0.57169  0.74117  0.71349  1.0000
  H   H1116     1.0  0.59134  0.68540  0.70473  1.0000
  H   H1117     1.0  0.60284  0.71024  0.69018  1.0000
  H   H1118     1.0  0.59107  0.70853  0.73097  1.0000
  H   H1119     1.0  0.53989  0.73099  0.73603  1.0000
  H   H1120     1.0  0.94595  0.66641  0.73644  1.0000
  H   H1121     1.0  0.85280  0.89536  0.52093  1.0000
  C   C938      1.0  0.75509  0.89317  0.50392  1.0000
  S   S253      1.0  0.61439  0.66274  0.64071  1.0000
  H   H1122     1.0  0.85094  0.68835  0.57395  1.0000
  H   H1123     1.0  0.76993  0.79560  0.61894  1.0000
  N   N62       1.0  0.87916  0.75754  0.55304  1.0000
  C   C939      1.0  0.86619  0.77496  0.53778  1.0000
  H   H1124     1.0  0.85752  0.78480  0.55660  1.0000
  N   N63       1.0  0.91572  0.68332  0.72990  1.0000
  C   C940      1.0  0.86473  0.74187  0.57029  1.0000
  C   C941      1.0  0.75221  0.90426  0.56268  1.0000
  C   C942      1.0  0.58604  0.66665  0.77362  1.0000
  C   C943      1.0  0.86944  0.85513  0.75705  1.0000
  H   H1125     1.0  0.50006  0.97220  0.98793  1.0000
  H   H1126     1.0  0.90377  0.75465  0.58981  1.0000
  H   H1127     1.0  0.94841  0.69480  0.73358  1.0000
  C   C944      1.0  0.83654  0.73442  0.61250  1.0000
  C   C945      1.0  0.93778  0.68164  0.74330  1.0000
  H   H1128     1.0  0.88229  0.66831  0.52613  1.0000
  H   H1129     1.0  0.75593  0.92118  0.55541  1.0000
  H   H1130     1.0  0.71038  0.89256  0.51330  1.0000
  S   S254      1.0  0.53840  0.67244  0.84354  1.0000
  H   H1131     1.0  0.92598  0.69291  0.68034  1.0000
  H   H1132     1.0  0.50754  0.93794  0.96982  1.0000
  H   H1133     1.0  0.84989  0.76538  0.60320  1.0000
  H   H1134     1.0  0.71146  0.67040  0.56624  1.0000
  C   C946      1.0  0.89265  0.74793  0.52627  1.0000
  C   C947      1.0  0.52033  0.68231  0.75863  1.0000
  C   C948      1.0  0.83666  0.71272  0.60444  1.0000
  H   H1135     1.0  0.74793  0.67138  0.70895  1.0000
  H   H1136     1.0  0.65537  0.78305  0.57738  1.0000
  H   H1137     1.0  0.73069  0.86019  0.52712  1.0000
  H   H1138     1.0  0.87438  0.68771  0.75981  1.0000
  S   S255      1.0  0.54845  0.66766  0.93504  1.0000
  N   N64       1.0  0.74213  0.89245  0.53513  1.0000
  H   H1139     1.0  0.78548  0.90480  0.52450  1.0000
  H   H1140     1.0  0.76719  0.89623  0.57125  1.0000
  H   H1141     1.0  0.51415  0.71451  0.77447  1.0000
  Fe  Fe126     1.0  0.51713  0.66915  0.96363  1.0000
  C   C949      1.0  0.64443  0.97915  0.74229  1.0000
  H   H1142     1.0  0.77319  0.96365  0.95640  1.0000
  C   C950      1.0  0.65499  0.99048  0.76671  1.0000
  C   C951      1.0  0.65650  0.79264  0.52604  1.0000
  Fe  Fe127     1.0  0.67786  0.98578  0.94221  1.0000
  H   H1143     1.0  0.66627  0.68273  0.82078  1.0000
  Fe  Fe128     1.0  0.99090  0.86767  0.96346  1.0000
  C   C952      1.0  0.53183  0.75554  0.98532  1.0000
  H   H1144     1.0  0.61510  0.87865  0.98217  1.0000
  C   C953      1.0  0.77695  0.90005  0.50268  1.0000
  S   S256      1.0  0.70192  0.66896  0.70702  1.0000
  C   C954      1.0  0.64183  0.66249  0.84371  1.0000
  C   C955      1.0  0.59826  0.93056  0.98644  1.0000
  H   H1145     1.0  0.60280  0.94661  0.97839  1.0000
  C   C956      1.0  0.61121  0.91303  0.97795  1.0000
  C   C957      1.0  0.72994  0.99104  0.98779  1.0000
  H   H1146     1.0  0.61405  0.97175  0.72076  1.0000
  C   C958      1.0  0.62220  0.98091  0.73951  1.0000
  C   C959      1.0  0.60511  0.89227  0.98856  1.0000
  H   H1147     1.0  0.66519  0.66458  0.76665  1.0000
  H   H1148     1.0  0.68838  0.95425  0.99514  1.0000
  H   H1149     1.0  0.58995  0.66190  0.86216  1.0000
  C   C960      1.0  0.55677  0.66128  0.81437  1.0000
  H   H1150     1.0  0.50926  0.67518  0.77674  1.0000
  H   H1151     1.0  0.60003  0.99398  0.84258  1.0000
  H   H1152     1.0  0.63723  0.66107  0.54947  1.0000
