data_image0
_chemical_formula_structural       H2SHC2HSCFeS2FeS2FeSFeS2HC3H2CH2C2H3C7H5C4H2CHNHCH3CHNHSH2CH4C2H3CHC2H2C2H2CH2C2HSC2SFeH5C2HCH2SH5FeH5SHCHFeSCHFeS2FeS2FeSFeS3FeS2FeSHFeSFeS3C6H4CHC6H4C5HC7H2C4HC7H4CHCHCH3CHC5HFeC2HNCHSFeC2HCH2NHNC9H14SC2HCHCH4CH2C3SHCH2SHC3H2CH5C2FeH2CH3C2SHCSHCHC2HNH2CHCH2NC9HCH11NCH2C4HC3H3C3H3SH3CNCHCHCHCH2NH2CH6C3H2CHC3H4S2CHC2SH2NHCH4CH5S2FeSHFeS2HCHC2H2CSC2HCHCHCSHCHFeS2FeS2FeSFeS3FeS2FeS2FeSFeS3HC2HCH3C6H4C4NCH4C4HCH4C6H8CH3C2SC8H4C6H4SHCH6CH3SCH3CHCHSH3CH3CH5FeSH3CNCHCNC7H13CHCNC6H10C2FeCH3C3HC3HCNC4H3SHCH2FeH2CH2CHC2FeHC2HCFeCSC2H2SH2FeCH2CHCH2SC3H3NCH2CH6SH4SHSFeSH2FeCH2C2FeH2C7H4C6H4NCFeC3HCFeH2CH2CH2SNC2HN2H2C3H4SHC2HCHS2H3C2HCHFeH2CSC4HC2HCH3C5H2C2FeSCFeSFeS3H3FeS2H4CHFeS2FeS2FeSFeS3C7H4C6H5SCFeHC2HC4H4CH2C2HCH3C2H2C7H6SNH3C2HCHCH4C4HCHCNSCH5CH3N2H2CH3CHC2HC3HNHCHC2HNCHCHCHC2H2C2NH2C5HCH2CSH2C4SH7C3H2CH3SHSHFeS2FeSFeSFeS3FeS2FeS2FeSFeS3HFeSCHC6H4CSC3H2C6H5C7H4CH2CSC2NHC2HC8H4CHC3HC2H4SHC2H3SHFeC2H5C3HSH3NC2HC4H3C2H3CFe2H5NC3SCHCFeCHCH4NC2H4NHCH8SH4C2NHC3HC3H3CHCNCH3CH2CHFeCH2CH2CH2CH3C4SCHFeCH5C2HC2NC2H2C2H3CH2CSCHCH2C3H2CSH2C2H3CSFeSFeH2SH3C2H2SCH2CHCH3C3HC2SC2H2CH3NHCH5SH3CH2C6H2SFeS2FeSHFe2S3FeS2FeS2FeCFeS3NCSCHCFeS2FeSFeSFeS3CHCHCHC3H2C7H4C6H6NHC2HCHC7H5C6H4C3HCH5C2H5SCNC9H12CH4CH2CHCHC2HSH2CH3CH2NC2H2CH2C2H2CH4CHNH2SH2FeCHFeH4C5H3CSCHCH4CHC2H2SCH4C3NHC2H3C3HCH4CSCHCHCHC2H3CHCH3C2H2CHSHFeSHCHSHSFeS3CFeS2FeSHFeCFeS3H3C3H2C6H6C2FeC2H5CS3H2FeC6H4C2HC4H2NC9H10CH3CHSHC4HC2NHCHCNC4H2CH3NCH2CH4NC3H2CH2CHSH4C2H4FeH3CHC2HC2SH3CH2CH2CH5CFeSFeS2FeSFeS3H3SFeS2FeS2FeHFeSHSFeS2FeS2FeSFeS3C2HCH3C6H4C6H3C4H2CHC2H3C3SH2FeC6H4C6H4C4HCHCH2CHSCHFeHCH2C3HC2HCH2CHCHC2H2SHNH9CH2CSCHCH2C3SCH2NC4HCH12SC2HCH5CHCHNC7NCH2CH5CHCHNHNHCH2C2H6CH3CH2CFeNCHSHSHCHSHCHC2H3CNH2C2H2C2HCH2SCHCH2CHCH6C2HC2H2SH2SH2CFeSCSFeS2FeS2FeSFeS3CNCHC2H2CSC7H3C6H5C5H2C4H2CNHFeC2HCH4CHCH2FeC3HC5H2CHC2NC2HC3HCH3C3H3CHC2HCHSC2H2CH6CH2S2H2SCHCH2CH3CNFeCSCHC3H4C2H2C2HSCH2CH3C2H5C2H4SCNHCHC2HCH2C3H4CH3FeHC2HCH2SCH2C2H2CHFeHCHC3FeS2FeS2FeCFeS3FeS2FeSHFeHFeS2H3CHC8H3CH2C2H2SHC7H4C2H4SC7H3C4H2CHC4H2SC2H2SCHC2H7CHCHNC3H8CSH7FeHCHC3HNSCFeSCH5CH3CH2C5FeC3HCSHCHC2H2CNH4CSHSHC2HCSCHCH3NH3NCH3CNH6C2HFeS2FeS2FeSFeS3CFeS2Fe2HS2FeHFeSHFeCSFeS2FeSFeCS4FeSFeSHS2CH2FeSH3C6H5CH4CH2CH2C6H4CH2C4H2C6H4C6H4C4H2C7H4SHNSHC5H3NH2CH5CHC7H5CNC9H14NC8NH18CHSFeS2CHCHC2HCH3CH2CH2CHC2H2CNC2HC6H2CHCHC2SNCFeCHCHC3HS2CHCHC2H2CH3CFeCHCSN2CH3CH2C2H2C3FeC2H4FeCSC2SFeHFeH2C2HSH2CH2CHCH3SHCH2CH2CNHCHC2HCH2CSCH2CHCHC2H5C3HCH3CH4CH4CSHCSFeS2FeSHSH3CSFe2S2FeSCFeSFeS3FeS2FeS2FeSFeS3CHFe2HSC3HC6H4C2H2C3HC7H3C6HCH4SHC6H4C6HSH2C3NC9H17CHCHCHCSHCNCH6CH2SHS2H3C2HCHSH2CFeCHCHCNC7H13CH2SFeH2CHCHCHCH3C2HC3SCHSHNHFeH2C2H2NCHCHFeHC2H2C5H6CHNHCH5CHC2HC4HCH3CHC2HCSNHCH2SCHC2H2CH2CH2FeHC2H4CFeCHCHC2HSCNH2FeHCSCH4SHS2HFeSFeHCH3CS2CH4CH2C4H3C2SC2NHSHCHCH3CH2NC2HFeSFeS2FeS2H2CHCHCHCHCHCHCHCHC3H2C2H4C2HC2HC4H2C2HCH2CHCSHCH2CHCHCHNHCSCH2CH2C2H2CHCHFeSCFeS2FeSFeS3HCFeHSH2S3HCH2SHSFeS3HFeHSFeSFe2S2FeS2FeSFeSCSC6H5CHFeHCHCH2SH6C7H4C4H3CH2CH5C6H4C6H5C4FeC3H2NC9H14C2HCH2C2H2C2HCH3NC9H14NCHC2H4FeH2NC4H7NC9H14S2C6HCS3HFeCH3CH2CHNC2HC6H2C2HSH2SHCHSH4NHCHCHCHCH2NHSC3H3C2HC4H2C4H4CHC5SHSHNC2HC2H5SC2H5NH2CHC4H2SH2FeSHFeS2FeSFeCS2FeSCFeS2FeSHS2C4HCHC5H3C2HC4H3C3HC6H7C2H3CH4C2HC6H2NHNCH6CH4NCH2C3SH4CNCHCH7C2HCH2CH2FeHC2SH3C2H2C2HNH3C3H4C3NHC3HCH2CH3CH4C2FeHFeS2FeSFeCS3CHCFeS2FeS2FeSFeS3FeSHFeS2FeSHFeSHFeSFeS3H4CHCH3C2H2C6H4C6H4NHC4H6FeCHCSC6H3SCHSHC6H5CH5C5H3C2H4CHFeCHCH2SC4H2CHFeSC2H5SH3C3H4CH2C2NC9H15CSCHNH2CHCHSH2CNC7H12NC5H10SC2HNHC4SC2H4C2HCH4NSHNHC2HSCHCHC5H3C2HC4FeH6C4HC4HCH2SHFeS2FeSFeHSHCNC2HFeS2FeSCFeSFeS3FeS2FeS2FeHFeS3HC6H5C5H5C6H4C3H2CH2C2H2CH2CH3NH3C2HNH8C3HCH4CH3NH7NCH2C2HCH2CH2CH4S2NC6HC2HCHCH2CHSH2CHC2H2C3H2SCHC2H3C6SHCH3CH3NC9H4C2HCH6CHCHFeCNHCH2C2SH2SH4CSHCHCFeHCSHFeNSFeHSH2FeCS2FeS2FeS2FeCSHCHSC7H4C3HC2H2C4H4CH2CHC6H4CSH2FeC2HCSCH3C2HCH2SH3CHFe2NH2C3H2CHCH2C2FeCNHCSC2HCHC2HCHCHCSH3SH4SH4CSH5CHCH3SFeS2FeCFeS2FeS2FeS2FeSFeS3CHCHC2HCHSFeS2CHFeS2H2CH3CH2C6H3C7H4C6H2CHCH3SC3H2C6H4CH6NHC6FeC2H3C2HCNHCH7CH3CHNH5CH5CH2CSCHCHC2H2NCHCH8C3H3C2HSNC8H5FeHC2H2SCH4CH4C3H3NCH2FeSCH4CH4C2HCSH2SCFeSCFe2SCSH3SH2CHNHCH4SFeCHFeS2FeS2FeS2FeS2FeSFeS3FeS2CFeHS2C6H5SC4H2C7H5C6SH4NC3H2C2H3C6H4CHCFeC2H4CH2C2SCH3C2H3CHSHCH3CSH3C4FeH2CH2C2HCHNC9H14CHCH2CH3CH2CSHNH5FeCH2CNC2HCSCFeHCH3FeS2CHCH2FeS3FeS2FeSCFeCFeS3H2FeS2FeS2FeSFeS3H4CH2C2FeCSH4C2NH3C6H5C6H6CH2C2H3CH2CNSH5C2HC7H3CH5CH2CH7C3NCHC5H2C3HCHCH5C4HNHCHCHFeCHC4HC3H2CHCNCNH2CHCH6C2HC2H7CH3C3H3CHC2SCHFeHSFeS2FeSFeCS2FeS2FeS2Fe2SHSH2C6H4CHC3H7C2HCHCH2CH3CSHC6H4C3H5CH2CSNC2H3C2H3C3H3C3H2SCH2C2HCHCH3CH2C2NC2H3C2HNHC4HC2HNC2SHCHC2HCH2CH3C2SCHCH8C2FeC2HC2H2CH2C2HC2H2C2HCHCH
_chemical_formula_sum              "H2592 S576 C2160 Fe288 N144"
_cell_length_a       69.1134
_cell_length_b       68.7453
_cell_length_c       70.918
_cell_angle_alpha    79.1008
_cell_angle_beta     78.5055
_cell_angle_gamma    78.9997

_space_group_name_H-M_alt    "P 1"
_space_group_IT_number       1

loop_
  _space_group_symop_operation_xyz
  'x, y, z'

loop_
  _atom_site_type_symbol
  _atom_site_label
  _atom_site_symmetry_multiplicity
  _atom_site_fract_x
  _atom_site_fract_y
  _atom_site_fract_z
  _atom_site_occupancy
  H   H1        1.0  0.23236  0.35006  0.03165  1.0000
  H   H2        1.0  0.25739  0.34471  0.01912  1.0000
  S   S1        1.0  0.29671  0.34057  0.08523  1.0000
  H   H3        1.0  0.17083  0.43389  0.05888  1.0000
  C   C1        1.0  0.10999  0.43160  0.08737  1.0000
  C   C2        1.0  0.10892  0.45919  0.15074  1.0000
  H   H4        1.0  0.24217  0.33269  0.06230  1.0000
  S   S2        1.0  0.10558  0.37098  0.20998  1.0000
  C   C3        1.0  0.21428  0.40232  0.07583  1.0000
  Fe  Fe1       1.0  0.19379  0.42142  0.16078  1.0000
  S   S3        1.0  0.21449  0.44447  0.15013  1.0000
  S   S4        1.0  0.18604  0.40735  0.19219  1.0000
  Fe  Fe2       1.0  0.18142  0.42497  0.12160  1.0000
  S   S5        1.0  0.20061  0.44818  0.10774  1.0000
  S   S6        1.0  0.16322  0.41237  0.10527  1.0000
  Fe  Fe3       1.0  0.22399  0.42879  0.12373  1.0000
  S   S7        1.0  0.25473  0.42663  0.10503  1.0000
  Fe  Fe4       1.0  0.18960  0.46191  0.13496  1.0000
  S   S8        1.0  0.20547  0.40425  0.13577  1.0000
  S   S9        1.0  0.16829  0.44017  0.14743  1.0000
  H   H5        1.0  0.20420  0.41300  0.08410  1.0000
  C   C4        1.0  0.16339  0.39779  0.19697  1.0000
  C   C5        1.0  0.15666  0.39136  0.18220  1.0000
  C   C6        1.0  0.13887  0.38317  0.18633  1.0000
  H   H6        1.0  0.09642  0.43655  0.12818  1.0000
  H   H7        1.0  0.13038  0.42641  0.13841  1.0000
  C   C7        1.0  0.20771  0.38542  0.07280  1.0000
  H   H8        1.0  0.16536  0.39237  0.16766  1.0000
  H   H9        1.0  0.13399  0.37774  0.17498  1.0000
  C   C8        1.0  0.12744  0.41954  0.09266  1.0000
  C   C9        1.0  0.24722  0.39119  0.05844  1.0000
  H   H10       1.0  0.15748  0.34860  0.21494  1.0000
  H   H11       1.0  0.13248  0.33176  0.20811  1.0000
  H   H12       1.0  0.24472  0.37019  0.01757  1.0000
  C   C10       1.0  0.10707  0.45230  0.08723  1.0000
  C   C11       1.0  0.28541  0.36470  0.09036  1.0000
  C   C12       1.0  0.26818  0.36649  0.10459  1.0000
  C   C13       1.0  0.25870  0.38539  0.10915  1.0000
  C   C14       1.0  0.26649  0.40267  0.09963  1.0000
  C   C15       1.0  0.28375  0.40091  0.08533  1.0000
  C   C16       1.0  0.29314  0.38197  0.08061  1.0000
  H   H13       1.0  0.26214  0.35319  0.11221  1.0000
  H   H14       1.0  0.24553  0.38651  0.12024  1.0000
  H   H15       1.0  0.28989  0.41421  0.07794  1.0000
  H   H16       1.0  0.30652  0.38072  0.06971  1.0000
  H   H17       1.0  0.12979  0.40356  0.09242  1.0000
  C   C17       1.0  0.17455  0.46348  0.06196  1.0000
  C   C18       1.0  0.24104  0.37372  0.05510  1.0000
  C   C19       1.0  0.16610  0.45532  0.03321  1.0000
  C   C20       1.0  0.09353  0.43547  0.17664  1.0000
  H   H18       1.0  0.08889  0.42033  0.18089  1.0000
  H   H19       1.0  0.02564  0.46360  0.08850  1.0000
  C   C21       1.0  0.12762  0.38157  0.20516  1.0000
  H   H20       1.0  0.03703  0.46521  0.05187  1.0000
  N   N1        1.0  0.10333  0.43882  0.15593  1.0000
  H   H21       1.0  0.11798  0.40810  0.15553  1.0000
  C   C22       1.0  0.22082  0.37131  0.06256  1.0000
  H   H22       1.0  0.28514  0.35126  0.02993  1.0000
  H   H23       1.0  0.13161  0.42336  0.16379  1.0000
  H   H24       1.0  0.23654  0.47232  0.10634  1.0000
  C   C23       1.0  0.13852  0.44865  0.09899  1.0000
  H   H25       1.0  0.08559  0.41980  0.14811  1.0000
  N   N2        1.0  0.25477  0.35821  0.04485  1.0000
  H   H26       1.0  0.14923  0.45518  0.10401  1.0000
  S   S10       1.0  0.31548  0.31302  0.04205  1.0000
  H   H27       1.0  0.27529  0.37734  0.02736  1.0000
  H   H28       1.0  0.28264  0.36407  0.05010  1.0000
  C   C24       1.0  0.08948  0.43521  0.14387  1.0000
  H   H29       1.0  0.10369  0.43600  0.18682  1.0000
  H   H30       1.0  0.07517  0.44587  0.14543  1.0000
  H   H31       1.0  0.26237  0.39416  0.05380  1.0000
  H   H32       1.0  0.16269  0.44447  0.02559  1.0000
  C   C25       1.0  0.14171  0.42802  0.09850  1.0000
  C   C26       1.0  0.17066  0.44940  0.05192  1.0000
  H   H33       1.0  0.09167  0.47097  0.12689  1.0000
  H   H34       1.0  0.26796  0.32711  0.05181  1.0000
  H   H35       1.0  0.08005  0.44697  0.17947  1.0000
  C   C27       1.0  0.25644  0.33882  0.05828  1.0000
  H   H36       1.0  0.23909  0.41820  0.07141  1.0000
  C   C28       1.0  0.12157  0.42357  0.15330  1.0000
  C   C29       1.0  0.24690  0.35569  0.02761  1.0000
  H   H37       1.0  0.26080  0.34057  0.07210  1.0000
  H   H38       1.0  0.26058  0.47206  0.07565  1.0000
  C   C30       1.0  0.23394  0.40524  0.06860  1.0000
  C   C31       1.0  0.27529  0.36306  0.03780  1.0000
  H   H39       1.0  0.19241  0.38317  0.07876  1.0000
  H   H40       1.0  0.09892  0.42489  0.08308  1.0000
  C   C32       1.0  0.10192  0.47372  0.13541  1.0000
  H   H41       1.0  0.17797  0.45809  0.07640  1.0000
  H   H42       1.0  0.21511  0.35829  0.06085  1.0000
  C   C33       1.0  0.16576  0.47526  0.02438  1.0000
  C   C34       1.0  0.12146  0.46086  0.09285  1.0000
  H   H43       1.0  0.12832  0.45459  0.17257  1.0000
  S   S11       1.0  0.30881  0.34563  0.98992  1.0000
  C   C35       1.0  0.15221  0.39608  0.21584  1.0000
  C   C36       1.0  0.12232  0.46480  0.16077  1.0000
  S   S12       1.0  0.08498  0.46715  0.08083  1.0000
  Fe  Fe5       1.0  0.32008  0.33613  0.05856  1.0000
  H   H44       1.0  0.99072  0.47533  0.09145  1.0000
  H   H45       1.0  0.11912  0.47682  0.09303  1.0000
  H   H46       1.0  0.18257  0.36074  0.21955  1.0000
  H   H47       1.0  0.19844  0.33700  0.21700  1.0000
  H   H48       1.0  0.05488  0.47902  0.05607  1.0000
  C   C37       1.0  0.13429  0.38809  0.21992  1.0000
  C   C38       1.0  0.14049  0.32503  0.22005  1.0000
  H   H49       1.0  0.20283  0.47970  0.07461  1.0000
  C   C39       1.0  0.02724  0.47970  0.08660  1.0000
  H   H50       1.0  0.15694  0.36366  0.24830  1.0000
  H   H51       1.0  0.20554  0.33240  0.25918  1.0000
  S   S13       1.0  0.11066  0.12799  0.42973  1.0000
  H   H52       1.0  0.04444  0.01330  0.42964  1.0000
  H   H53       1.0  0.00337  0.29783  0.34595  1.0000
  H   H54       1.0  0.05065  0.43096  0.28417  1.0000
  H   H55       1.0  0.15889  0.34632  0.27029  1.0000
  H   H56       1.0  0.04629  0.38998  0.34328  1.0000
  Fe  Fe6       1.0  0.09247  0.12147  0.45948  1.0000
  H   H57       1.0  0.17041  0.25467  0.45462  1.0000
  H   H58       1.0  0.08736  0.45990  0.34310  1.0000
  H   H59       1.0  0.16719  0.12370  0.42797  1.0000
  H   H60       1.0  0.02166  0.28357  0.32996  1.0000
  H   H61       1.0  0.28099  0.06427  0.26696  1.0000
  S   S14       1.0  0.30468  0.04974  0.29923  1.0000
  H   H62       1.0  0.18636  0.31887  0.27197  1.0000
  C   C40       1.0  0.21766  0.10896  0.29148  1.0000
  H   H63       1.0  0.03503  0.45712  0.33956  1.0000
  Fe  Fe7       1.0  0.29538  0.12487  0.27721  1.0000
  S   S15       1.0  0.26963  0.15047  0.27512  1.0000
  C   C41       1.0  0.26925  0.05693  0.26372  1.0000
  H   H64       1.0  0.10184  0.45211  0.31241  1.0000
  Fe  Fe8       1.0  0.15864  0.21632  0.38457  1.0000
  S   S16       1.0  0.18515  0.19392  0.39148  1.0000
  S   S17       1.0  0.12899  0.21657  0.40431  1.0000
  Fe  Fe9       1.0  0.18225  0.23947  0.35039  1.0000
  S   S18       1.0  0.21153  0.21931  0.35464  1.0000
  S   S19       1.0  0.17906  0.26803  0.32835  1.0000
  Fe  Fe10      1.0  0.19368  0.19421  0.35920  1.0000
  S   S20       1.0  0.20599  0.16328  0.35131  1.0000
  Fe  Fe11      1.0  0.20098  0.22028  0.38670  1.0000
  S   S21       1.0  0.22095  0.21829  0.40886  1.0000
  S   S22       1.0  0.16508  0.21417  0.35271  1.0000
  S   S23       1.0  0.17375  0.24289  0.38204  1.0000
  Fe  Fe12      1.0  0.09589  0.36830  0.28234  1.0000
  S   S24       1.0  0.07534  0.34636  0.29671  1.0000
  S   S25       1.0  0.11060  0.38375  0.29942  1.0000
  Fe  Fe13      1.0  0.09459  0.36139  0.24192  1.0000
  S   S26       1.0  0.07405  0.33830  0.25282  1.0000
  H   H65       1.0  0.31184  0.18517  0.35182  1.0000
  Fe  Fe14      1.0  0.05750  0.35996  0.27279  1.0000
  S   S27       1.0  0.02405  0.36849  0.28164  1.0000
  Fe  Fe15      1.0  0.09366  0.32672  0.27574  1.0000
  S   S28       1.0  0.10211  0.29388  0.28745  1.0000
  S   S29       1.0  0.07660  0.38390  0.26032  1.0000
  S   S30       1.0  0.11561  0.34776  0.26294  1.0000
  C   C42       1.0  0.15795  0.27484  0.31656  1.0000
  C   C43       1.0  0.15297  0.29482  0.30783  1.0000
  C   C44       1.0  0.13580  0.30087  0.29900  1.0000
  C   C45       1.0  0.12368  0.28688  0.29854  1.0000
  C   C46       1.0  0.12880  0.26686  0.30704  1.0000
  C   C47       1.0  0.14583  0.26087  0.31607  1.0000
  H   H66       1.0  0.16219  0.30575  0.30826  1.0000
  H   H67       1.0  0.13196  0.31635  0.29260  1.0000
  H   H68       1.0  0.11960  0.25592  0.30661  1.0000
  H   H69       1.0  0.14966  0.24539  0.32247  1.0000
  C   C48       1.0  0.20951  0.22426  0.43207  1.0000
  H   H70       1.0  0.18511  0.24545  0.42195  1.0000
  C   C49       1.0  0.25133  0.15365  0.29596  1.0000
  C   C50       1.0  0.23959  0.17254  0.29738  1.0000
  C   C51       1.0  0.22570  0.17579  0.31436  1.0000
  C   C52       1.0  0.22300  0.15993  0.32969  1.0000
  C   C53       1.0  0.23413  0.14083  0.32789  1.0000
  C   C54       1.0  0.24840  0.13773  0.31116  1.0000
  H   H71       1.0  0.24159  0.18485  0.28552  1.0000
  H   H72       1.0  0.21699  0.19050  0.31554  1.0000
  H   H73       1.0  0.23188  0.12846  0.33963  1.0000
  H   H74       1.0  0.25697  0.12300  0.30998  1.0000
  C   C55       1.0  0.00584  0.31047  0.28795  1.0000
  C   C56       1.0  0.22642  0.12360  0.27794  1.0000
  C   C57       1.0  0.99649  0.35119  0.24317  1.0000
  C   C58       1.0  0.16025  0.16872  0.45669  1.0000
  C   C59       1.0  0.15018  0.13781  0.45199  1.0000
  H   H75       1.0  0.99488  0.30714  0.26247  1.0000
  C   C60       1.0  0.24266  0.11800  0.26387  1.0000
  C   C61       1.0  0.03655  0.31535  0.30744  1.0000
  C   C62       1.0  0.06864  0.40040  0.35433  1.0000
  C   C63       1.0  0.08876  0.40275  0.35123  1.0000
  C   C64       1.0  0.10160  0.39776  0.33425  1.0000
  C   C65       1.0  0.09434  0.39040  0.32036  1.0000
  C   C66       1.0  0.07423  0.38808  0.32347  1.0000
  H   H76       1.0  0.09439  0.40850  0.36190  1.0000
  H   H77       1.0  0.11717  0.39951  0.33190  1.0000
  C   C67       1.0  0.20991  0.22013  0.46696  1.0000
  C   C68       1.0  0.09003  0.44842  0.30649  1.0000
  C   C69       1.0  0.00246  0.42277  0.26741  1.0000
  C   C70       1.0  0.99646  0.09752  0.43822  1.0000
  H   H78       1.0  0.04248  0.30110  0.30149  1.0000
  C   C71       1.0  0.18371  0.24351  0.45297  1.0000
  C   C72       1.0  0.11611  0.15254  0.42313  1.0000
  C   C73       1.0  0.10638  0.16756  0.43411  1.0000
  C   C74       1.0  0.11027  0.18726  0.42823  1.0000
  C   C75       1.0  0.12430  0.19189  0.41159  1.0000
  C   C76       1.0  0.13439  0.17683  0.40079  1.0000
  C   C77       1.0  0.13012  0.15721  0.40644  1.0000
  H   H79       1.0  0.09572  0.16413  0.44703  1.0000
  H   H80       1.0  0.10252  0.19887  0.43665  1.0000
  H   H81       1.0  0.14527  0.18032  0.38790  1.0000
  H   H82       1.0  0.13774  0.14564  0.39791  1.0000
  C   C78       1.0  0.16010  0.30844  0.25158  1.0000
  H   H83       1.0  0.12563  0.38697  0.23448  1.0000
  C   C79       1.0  0.01766  0.29819  0.33551  1.0000
  H   H84       1.0  0.26282  0.06033  0.30292  1.0000
  C   C80       1.0  0.07891  0.47377  0.33575  1.0000
  H   H85       1.0  0.26249  0.19907  0.39648  1.0000
  H   H86       1.0  0.03831  0.03903  0.43361  1.0000
  H   H87       1.0  0.02457  0.07766  0.43867  1.0000
  C   C81       1.0  0.00108  0.31287  0.30794  1.0000
  H   H88       1.0  0.06845  0.38263  0.31274  1.0000
  C   C82       1.0  0.01084  0.00090  0.41157  1.0000
  C   C83       1.0  0.26281  0.18003  0.35550  1.0000
  C   C84       1.0  0.06159  0.43616  0.29020  1.0000
  C   C85       1.0  0.25398  0.05138  0.29732  1.0000
  C   C86       1.0  0.00907  0.11653  0.46437  1.0000
  H   H89       1.0  0.29752  0.03716  0.36331  1.0000
  Fe  Fe16      1.0  0.02077  0.41622  0.37001  1.0000
  C   C87       1.0  0.19380  0.32437  0.25699  1.0000
  C   C88       1.0  0.30708  0.03864  0.34866  1.0000
  H   H90       1.0  0.10191  0.17196  0.35010  1.0000
  N   N3        1.0  0.25016  0.06078  0.27747  1.0000
  C   C89       1.0  0.06150  0.39277  0.34057  1.0000
  H   H91       1.0  0.12404  0.30030  0.22891  1.0000
  S   S31       1.0  0.05247  0.40755  0.37518  1.0000
  Fe  Fe17      1.0  0.99496  0.44823  0.34615  1.0000
  C   C90       1.0  0.01495  0.09039  0.44424  1.0000
  C   C91       1.0  0.01242  0.02085  0.40386  1.0000
  H   H92       1.0  0.05619  0.44465  0.35051  1.0000
  C   C92       1.0  0.05541  0.44906  0.30408  1.0000
  H   H93       1.0  0.99661  0.33409  0.33886  1.0000
  H   H94       1.0  0.14332  0.20563  0.44383  1.0000
  N   N4        1.0  0.15746  0.18642  0.46661  1.0000
  H   H95       1.0  0.20510  0.11346  0.30247  1.0000
  N   N5        1.0  0.11407  0.27703  0.37824  1.0000
  C   C93       1.0  0.09605  0.26781  0.38745  1.0000
  C   C94       1.0  0.12586  0.26457  0.36361  1.0000
  C   C95       1.0  0.12660  0.27597  0.39326  1.0000
  C   C96       1.0  0.10795  0.29826  0.36988  1.0000
  C   C97       1.0  0.09697  0.31221  0.38210  1.0000
  C   C98       1.0  0.11244  0.30572  0.34964  1.0000
  C   C99       1.0  0.09114  0.33235  0.37455  1.0000
  C   C100      1.0  0.10654  0.32589  0.34226  1.0000
  C   C101      1.0  0.09598  0.33917  0.35469  1.0000
  H   H96       1.0  0.08601  0.26884  0.37670  1.0000
  H   H97       1.0  0.10009  0.25160  0.39333  1.0000
  H   H98       1.0  0.08729  0.27506  0.39989  1.0000
  H   H99       1.0  0.11721  0.26398  0.35213  1.0000
  H   H100      1.0  0.13027  0.24872  0.37032  1.0000
  H   H101      1.0  0.14005  0.27027  0.35656  1.0000
  H   H102      1.0  0.14018  0.28303  0.38689  1.0000
  H   H103      1.0  0.11848  0.28353  0.40572  1.0000
  H   H104      1.0  0.13174  0.26013  0.39957  1.0000
  H   H105      1.0  0.09285  0.30765  0.39760  1.0000
  H   H106      1.0  0.12056  0.29630  0.33920  1.0000
  H   H107      1.0  0.08288  0.34284  0.38411  1.0000
  H   H108      1.0  0.11026  0.33131  0.32677  1.0000
  H   H109      1.0  0.09159  0.35480  0.34892  1.0000
  S   S32       1.0  0.30030  0.10447  0.30500  1.0000
  C   C102      1.0  0.08186  0.42958  0.28436  1.0000
  C   C103      1.0  0.00490  0.46684  0.42277  1.0000
  H   H110      1.0  0.32091  0.07646  0.34309  1.0000
  C   C104      1.0  0.16779  0.35314  0.25658  1.0000
  H   H111      1.0  0.00652  0.34711  0.31585  1.0000
  C   C105      1.0  0.04875  0.45955  0.34405  1.0000
  H   H112      1.0  0.00794  0.41090  0.30344  1.0000
  H   H113      1.0  0.19059  0.14839  0.41827  1.0000
  H   H114      1.0  0.99116  0.39590  0.29965  1.0000
  H   H115      1.0  0.03666  0.32800  0.29508  1.0000
  C   C106      1.0  0.21845  0.21526  0.44837  1.0000
  H   H116      1.0  0.01717  0.42604  0.26898  1.0000
  H   H117      1.0  0.20148  0.31118  0.24988  1.0000
  C   C107      1.0  0.10150  0.03772  0.44899  1.0000
  C   C108      1.0  0.31109  0.99428  0.28518  1.0000
  C   C109      1.0  0.28855  0.19249  0.37487  1.0000
  S   S33       1.0  0.00478  0.44687  0.37459  1.0000
  H   H118      1.0  0.23208  0.20452  0.44661  1.0000
  C   C110      1.0  0.00627  0.36161  0.27036  1.0000
  H   H119      1.0  0.02068  0.31074  0.27957  1.0000
  H   H120      1.0  0.02207  0.33778  0.33397  1.0000
  S   S34       1.0  0.30470  0.10021  0.25876  1.0000
  H   H121      1.0  0.02925  0.29915  0.34404  1.0000
  C   C111      1.0  0.19153  0.34766  0.22741  1.0000
  C   C112      1.0  0.17625  0.16588  0.44092  1.0000
  C   C113      1.0  0.29606  0.18539  0.35716  1.0000
  H   H122      1.0  0.21780  0.07784  0.30177  1.0000
  H   H123      1.0  0.00277  0.44900  0.28900  1.0000
  C   C114      1.0  0.14737  0.15400  0.46211  1.0000
  H   H124      1.0  0.24957  0.12954  0.25354  1.0000
  H   H125      1.0  0.31729  0.16543  0.30678  1.0000
  H   H126      1.0  0.03474  0.09335  0.46288  1.0000
  H   H127      1.0  0.31659  0.18655  0.31838  1.0000
  H   H128      1.0  0.25209  0.17557  0.34858  1.0000
  C   C115      1.0  0.30692  0.01064  0.29536  1.0000
  C   C116      1.0  0.99228  0.41129  0.30153  1.0000
  Fe  Fe18      1.0  0.31246  0.08048  0.28620  1.0000
  H   H129      1.0  0.23977  0.18788  0.37950  1.0000
  H   H130      1.0  0.26733  0.06225  0.24828  1.0000
  C   C117      1.0  0.09601  0.43573  0.29243  1.0000
  H   H131      1.0  0.26261  0.03590  0.29757  1.0000
  H   H132      1.0  0.29113  0.14551  0.31521  1.0000
  H   H133      1.0  0.00048  0.34655  0.22897  1.0000
  C   C118      1.0  0.28333  0.17898  0.34687  1.0000
  C   C119      1.0  0.01011  0.33422  0.32735  1.0000
  S   S35       1.0  0.10224  0.00470  0.43291  1.0000
  H   H134      1.0  0.04756  0.31725  0.31620  1.0000
  C   C120      1.0  0.26834  0.19337  0.38285  1.0000
  S   S36       1.0  0.99502  0.40082  0.38576  1.0000
  H   H135      1.0  0.15253  0.21875  0.45912  1.0000
  C   C121      1.0  0.04371  0.99655  0.46664  1.0000
  H   H136      1.0  0.04346  0.98563  0.45698  1.0000
  C   C122      1.0  0.09946  0.01740  0.45284  1.0000
  C   C123      1.0  0.23536  0.05071  0.27208  1.0000
  H   H137      1.0  0.27535  0.04061  0.26471  1.0000
  N   N6        1.0  0.01620  0.31515  0.31920  1.0000
  H   H138      1.0  0.22095  0.05192  0.28243  1.0000
  H   H139      1.0  0.10109  0.06423  0.46106  1.0000
  C   C124      1.0  0.13569  0.30736  0.23175  1.0000
  H   H140      1.0  0.29841  0.19748  0.38246  1.0000
  C   C125      1.0  0.31107  0.02958  0.28590  1.0000
  H   H141      1.0  0.02674  0.35425  0.24462  1.0000
  H   H142      1.0  0.01011  0.98557  0.46908  1.0000
  N   N7        1.0  0.05508  0.13387  0.41068  1.0000
  C   C126      1.0  0.05281  0.14168  0.42928  1.0000
  C   C127      1.0  0.03469  0.13504  0.40636  1.0000
  C   C128      1.0  0.06451  0.11250  0.41381  1.0000
  C   C129      1.0  0.06746  0.14495  0.39417  1.0000
  C   C130      1.0  0.07029  0.13993  0.37517  1.0000
  C   C131      1.0  0.07751  0.16041  0.39640  1.0000
  C   C132      1.0  0.08245  0.14969  0.35946  1.0000
  C   C133      1.0  0.08970  0.17001  0.38061  1.0000
  C   C134      1.0  0.09220  0.16465  0.36220  1.0000
  H   H143      1.0  0.06748  0.14017  0.43405  1.0000
  C   C135      1.0  0.14552  0.29905  0.24742  1.0000
  H   H144      1.0  0.04331  0.13323  0.44137  1.0000
  H   H145      1.0  0.03463  0.12705  0.39415  1.0000
  H   H146      1.0  0.02763  0.15092  0.40262  1.0000
  H   H147      1.0  0.02464  0.12799  0.41908  1.0000
  H   H148      1.0  0.08000  0.11104  0.41685  1.0000
  H   H149      1.0  0.05587  0.10366  0.42634  1.0000
  H   H150      1.0  0.06556  0.10506  0.40095  1.0000
  H   H151      1.0  0.06337  0.12815  0.37242  1.0000
  H   H152      1.0  0.07665  0.16507  0.41029  1.0000
  H   H153      1.0  0.08458  0.14543  0.34514  1.0000
  H   H154      1.0  0.99782  0.46169  0.43797  1.0000
  N   N8        1.0  0.03344  0.01687  0.45953  1.0000
  C   C136      1.0  0.15561  0.20504  0.45210  1.0000
  H   H155      1.0  0.26318  0.09461  0.25220  1.0000
  H   H156      1.0  0.24001  0.05004  0.30803  1.0000
  C   C137      1.0  0.19198  0.23826  0.43446  1.0000
  C   C138      1.0  0.28648  0.15109  0.32946  1.0000
  C   C139      1.0  0.06944  0.45552  0.31275  1.0000
  C   C140      1.0  0.25045  0.09774  0.26340  1.0000
  H   H157      1.0  0.22083  0.13939  0.27850  1.0000
  C   C141      1.0  0.22521  0.08863  0.29105  1.0000
  C   C142      1.0  0.16561  0.13587  0.43618  1.0000
  C   C143      1.0  0.09897  0.04872  0.46426  1.0000
  H   H158      1.0  0.26358  0.18563  0.31655  1.0000
  H   H159      1.0  0.00458  0.40265  0.45454  1.0000
  H   H160      1.0  0.24095  0.03441  0.27194  1.0000
  C   C144      1.0  0.99241  0.41509  0.45342  1.0000
  C   C145      1.0  0.24209  0.08239  0.27721  1.0000
  C   C146      1.0  0.01140  0.35545  0.25206  1.0000
  H   H161      1.0  0.08670  0.41923  0.27393  1.0000
  H   H162      1.0  0.29465  0.14048  0.34025  1.0000
  H   H163      1.0  0.04360  0.46893  0.35583  1.0000
  S   S37       1.0  0.01308  0.41883  0.34040  1.0000
  H   H164      1.0  0.23196  0.05752  0.25732  1.0000
  H   H165      1.0  0.27036  0.15008  0.33401  1.0000
  H   H166      1.0  0.06052  0.02381  0.44036  1.0000
  C   C147      1.0  0.25553  0.18707  0.37323  1.0000
  N   N9        1.0  0.06248  0.46903  0.32756  1.0000
  C   C148      1.0  0.28001  0.18508  0.31281  1.0000
  H   H167      1.0  0.14138  0.28553  0.25678  1.0000
  C   C149      1.0  0.00017  0.03586  0.45212  1.0000
  H   H168      1.0  0.03950  0.45380  0.30813  1.0000
  C   C150      1.0  0.19262  0.23443  0.46928  1.0000
  H   H169      1.0  0.04561  0.15767  0.42810  1.0000
  C   C151      1.0  0.99113  0.30830  0.27786  1.0000
  H   H170      1.0  0.16949  0.20629  0.44122  1.0000
  H   H171      1.0  0.28288  0.20077  0.31102  1.0000
  N   N10       1.0  0.29059  0.17178  0.32789  1.0000
  H   H172      1.0  0.16665  0.30144  0.26428  1.0000
  H   H173      1.0  0.11173  0.42993  0.28824  1.0000
  C   C152      1.0  0.00240  0.00026  0.46404  1.0000
  H   H174      1.0  0.00004  0.45803  0.41341  1.0000
  H   H175      1.0  0.10518  0.04497  0.43409  1.0000
  H   H176      1.0  0.30219  0.05375  0.34064  1.0000
  H   H177      1.0  0.30373  0.02777  0.34039  1.0000
  H   H178      1.0  0.09760  0.18140  0.38281  1.0000
  H   H179      1.0  0.28465  0.17988  0.29835  1.0000
  C   C153      1.0  0.02097  0.09957  0.45764  1.0000
  C   C154      1.0  0.16538  0.32652  0.23995  1.0000
  C   C155      1.0  0.17869  0.14982  0.43071  1.0000
  H   H180      1.0  0.00557  0.40679  0.26528  1.0000
  H   H181      1.0  0.99738  0.04927  0.39135  1.0000
  C   C156      1.0  0.31948  0.03211  0.26612  1.0000
  H   H182      1.0  0.02608  0.02658  0.40335  1.0000
  C   C157      1.0  0.99322  0.99355  0.41200  1.0000
  C   C158      1.0  0.99631  0.03358  0.39682  1.0000
  C   C159      1.0  0.01210  0.01748  0.45850  1.0000
  H   H183      1.0  0.00638  0.04959  0.44763  1.0000
  H   H184      1.0  0.99047  0.41265  0.42410  1.0000
  H   H185      1.0  0.18683  0.17629  0.43613  1.0000
  H   H186      1.0  0.17758  0.36229  0.26058  1.0000
  S   S38       1.0  0.99850  0.47594  0.32425  1.0000
  S   S39       1.0  0.98930  0.08571  0.42145  1.0000
  C   C160      1.0  0.15501  0.33457  0.22409  1.0000
  H   H187      1.0  0.30042  0.00855  0.31066  1.0000
  C   C161      1.0  0.99049  0.12365  0.45840  1.0000
  C   C162      1.0  0.04453  0.02361  0.43993  1.0000
  S   S40       1.0  0.07167  0.09911  0.46432  1.0000
  H   H188      1.0  0.02325  0.99099  0.41733  1.0000
  H   H189      1.0  0.13991  0.12703  0.45598  1.0000
  N   N11       1.0  0.17950  0.33762  0.24511  1.0000
  H   H190      1.0  0.05977  0.99651  0.46688  1.0000
  C   C163      1.0  0.31930  0.99673  0.26537  1.0000
  H   H191      1.0  0.99802  0.43223  0.25392  1.0000
  H   H192      1.0  0.15735  0.40110  0.22728  1.0000
  H   H193      1.0  0.20374  0.35410  0.23095  1.0000
  H   H194      1.0  0.02140  0.46251  0.42151  1.0000
  C   C164      1.0  0.31240  0.17131  0.32089  1.0000
  H   H195      1.0  0.18911  0.18593  0.46534  1.0000
  H   H196      1.0  0.02949  0.04643  0.46762  1.0000
  H   H197      1.0  0.30791  0.97980  0.29270  1.0000
  H   H198      1.0  0.01979  0.47663  0.44886  1.0000
  H   H199      1.0  0.26511  0.01145  0.62651  1.0000
  S   S41       1.0  0.06113  0.10670  0.51004  1.0000
  S   S42       1.0  0.99410  0.41651  0.49107  1.0000
  Fe  Fe19      1.0  0.08332  0.12818  0.50131  1.0000
  S   S43       1.0  0.08875  0.14659  0.52236  1.0000
  H   H200      1.0  0.00542  0.30636  0.71777  1.0000
  Fe  Fe20      1.0  0.03225  0.43615  0.53260  1.0000
  S   S44       1.0  0.01609  0.46166  0.54819  1.0000
  S   S45       1.0  0.06110  0.41523  0.53595  1.0000
  H   H201      1.0  0.17713  0.17145  0.48680  1.0000
  C   C165      1.0  0.99850  0.38747  0.59158  1.0000
  H   H202      1.0  0.06132  0.36122  0.54323  1.0000
  C   C166      1.0  0.22620  0.20277  0.62222  1.0000
  C   C167      1.0  0.23681  0.99200  0.61412  1.0000
  H   H203      1.0  0.19092  0.18962  0.63458  1.0000
  H   H204      1.0  0.20536  0.27621  0.62559  1.0000
  C   C168      1.0  0.29692  0.00871  0.57534  1.0000
  S   S46       1.0  0.27621  0.13523  0.62892  1.0000
  C   C169      1.0  0.04569  0.36081  0.54333  1.0000
  C   C170      1.0  0.12825  0.29289  0.56034  1.0000
  H   H205      1.0  0.13482  0.08885  0.51313  1.0000
  C   C171      1.0  0.14636  0.26258  0.53694  1.0000
  H   H206      1.0  0.16176  0.12641  0.51255  1.0000
  C   C172      1.0  0.02896  0.38703  0.63083  1.0000
  H   H207      1.0  0.99915  0.42152  0.60505  1.0000
  C   C173      1.0  0.28349  0.99513  0.58279  1.0000
  S   S47       1.0  0.30432  0.98380  0.64329  1.0000
  H   H208      1.0  0.04348  0.38471  0.51910  1.0000
  C   C174      1.0  0.07657  0.31569  0.71128  1.0000
  H   H209      1.0  0.15468  0.45398  0.69986  1.0000
  Fe  Fe21      1.0  0.08097  0.33423  0.65189  1.0000
  S   S48       1.0  0.09439  0.34303  0.62057  1.0000
  S   S49       1.0  0.05153  0.32291  0.66404  1.0000
  Fe  Fe22      1.0  0.11311  0.34937  0.66782  1.0000
  S   S50       1.0  0.12901  0.35921  0.63771  1.0000
  S   S51       1.0  0.11773  0.35539  0.69713  1.0000
  Fe  Fe23      1.0  0.09852  0.37107  0.63012  1.0000
  S   S52       1.0  0.08846  0.40312  0.61768  1.0000
  Fe  Fe24      1.0  0.12382  0.32998  0.63066  1.0000
  S   S53       1.0  0.14981  0.31303  0.61195  1.0000
  S   S54       1.0  0.08295  0.36328  0.66057  1.0000
  S   S55       1.0  0.11011  0.31913  0.66160  1.0000
  Fe  Fe25      1.0  0.18300  0.17875  0.54074  1.0000
  S   S56       1.0  0.20928  0.19033  0.52081  1.0000
  S   S57       1.0  0.17627  0.15007  0.53428  1.0000
  Fe  Fe26      1.0  0.17391  0.21443  0.56312  1.0000
  S   S58       1.0  0.19924  0.22873  0.54449  1.0000
  S   S59       1.0  0.15249  0.22763  0.58796  1.0000
  Fe  Fe27      1.0  0.18924  0.22010  0.51929  1.0000
  S   S60       1.0  0.18189  0.24145  0.49227  1.0000
  Fe  Fe28      1.0  0.21684  0.19735  0.54800  1.0000
  S   S61       1.0  0.24873  0.19228  0.55399  1.0000
  S   S62       1.0  0.16246  0.20809  0.53772  1.0000
  S   S63       1.0  0.19197  0.18349  0.56816  1.0000
  H   H210      1.0  0.15656  0.32238  0.52570  1.0000
  C   C175      1.0  0.01285  0.37007  0.66131  1.0000
  C   C176      1.0  0.00445  0.36064  0.54399  1.0000
  H   H211      1.0  0.31209  0.05207  0.64917  1.0000
  C   C177      1.0  0.01544  0.37375  0.52974  1.0000
  H   H212      1.0  0.23733  0.21319  0.61780  1.0000
  H   H213      1.0  0.15397  0.25191  0.52675  1.0000
  H   H214      1.0  0.15206  0.30413  0.50328  1.0000
  C   C178      1.0  0.14982  0.28964  0.60489  1.0000
  C   C179      1.0  0.16599  0.28198  0.59143  1.0000
  C   C180      1.0  0.16693  0.26313  0.58594  1.0000
  C   C181      1.0  0.15168  0.25173  0.59390  1.0000
  C   C182      1.0  0.13544  0.25943  0.60726  1.0000
  C   C183      1.0  0.13448  0.27831  0.61273  1.0000
  H   H215      1.0  0.17797  0.29061  0.58539  1.0000
  H   H216      1.0  0.17961  0.25730  0.57585  1.0000
  H   H217      1.0  0.12359  0.25069  0.61353  1.0000
  H   H218      1.0  0.12198  0.28400  0.62315  1.0000
  C   C184      1.0  0.03411  0.32363  0.64856  1.0000
  C   C185      1.0  0.03897  0.32898  0.62838  1.0000
  C   C186      1.0  0.02501  0.32908  0.61639  1.0000
  C   C187      1.0  0.00590  0.32432  0.62439  1.0000
  N   N12       1.0  0.01476  0.39230  0.59989  1.0000
  C   C188      1.0  0.01502  0.31867  0.65663  1.0000
  H   H219      1.0  0.05359  0.33274  0.62198  1.0000
  H   H220      1.0  0.02905  0.33277  0.60081  1.0000
  H   H221      1.0  0.01113  0.31447  0.67222  1.0000
  H   H222      1.0  0.05235  0.34690  0.69623  1.0000
  C   C189      1.0  0.27145  0.99545  0.60156  1.0000
  C   C190      1.0  0.16379  0.38731  0.68929  1.0000
  C   C191      1.0  0.15037  0.37579  0.68583  1.0000
  C   C192      1.0  0.13478  0.37027  0.70059  1.0000
  H   H223      1.0  0.01346  0.42098  0.58106  1.0000
  C   C193      1.0  0.00087  0.31920  0.64461  1.0000
  H   H224      1.0  0.17588  0.39138  0.67780  1.0000
  H   H225      1.0  0.15231  0.37087  0.67187  1.0000
  H   H226      1.0  0.13756  0.20150  0.48892  1.0000
  H   H227      1.0  0.17859  0.27630  0.54302  1.0000
  C   C194      1.0  0.26918  0.15043  0.60755  1.0000
  C   C195      1.0  0.25009  0.15080  0.60334  1.0000
  C   C196      1.0  0.24377  0.16324  0.58678  1.0000
  C   C197      1.0  0.25645  0.17561  0.57439  1.0000
  C   C198      1.0  0.27564  0.17506  0.57849  1.0000
  C   C199      1.0  0.28199  0.16255  0.59501  1.0000
  H   H228      1.0  0.24014  0.14139  0.61295  1.0000
  H   H229      1.0  0.22911  0.16325  0.58364  1.0000
  H   H230      1.0  0.28551  0.18464  0.56903  1.0000
  H   H231      1.0  0.29659  0.16261  0.59832  1.0000
  H   H232      1.0  0.23512  0.00217  0.62502  1.0000
  H   H233      1.0  0.03670  0.31876  0.70380  1.0000
  H   H234      1.0  0.15356  0.27871  0.50031  1.0000
  H   H235      1.0  0.13003  0.26288  0.53802  1.0000
  C   C200      1.0  0.03561  0.34718  0.55700  1.0000
  H   H236      1.0  0.29433  0.02255  0.65588  1.0000
  H   H237      1.0  0.17657  0.08902  0.56117  1.0000
  H   H238      1.0  0.17996  0.29467  0.52137  1.0000
  C   C201      1.0  0.01383  0.38455  0.62095  1.0000
  C   C202      1.0  0.12400  0.32662  0.56768  1.0000
  S   S64       1.0  0.09042  0.05366  0.50265  1.0000
  C   C203      1.0  0.29852  0.02314  0.58608  1.0000
  C   C204      1.0  0.09246  0.01910  0.48752  1.0000
  C   C205      1.0  0.06895  0.41226  0.55848  1.0000
  C   C206      1.0  0.08238  0.39513  0.56420  1.0000
  C   C207      1.0  0.08837  0.39213  0.58246  1.0000
  C   C208      1.0  0.08129  0.40651  0.59479  1.0000
  C   C209      1.0  0.06813  0.42379  0.58893  1.0000
  C   C210      1.0  0.06176  0.42655  0.57089  1.0000
  H   H239      1.0  0.08802  0.38410  0.55457  1.0000
  H   H240      1.0  0.09869  0.37887  0.58684  1.0000
  H   H241      1.0  0.06269  0.43498  0.59843  1.0000
  H   H242      1.0  0.05153  0.43986  0.56647  1.0000
  C   C211      1.0  0.11337  0.14861  0.52395  1.0000
  C   C212      1.0  0.12982  0.13593  0.51556  1.0000
  C   C213      1.0  0.14914  0.13668  0.51856  1.0000
  C   C214      1.0  0.15216  0.15047  0.52954  1.0000
  C   C215      1.0  0.13581  0.16369  0.53729  1.0000
  C   C216      1.0  0.11645  0.16261  0.53466  1.0000
  H   H243      1.0  0.14102  0.34689  0.54731  1.0000
  H   H244      1.0  0.17040  0.27875  0.64275  1.0000
  H   H245      1.0  0.13797  0.17418  0.54598  1.0000
  H   H246      1.0  0.10377  0.17243  0.54123  1.0000
  S   S65       1.0  0.10705  0.10721  0.48531  1.0000
  H   H247      1.0  0.03596  0.36698  0.59138  1.0000
  C   C217      1.0  0.03564  0.37399  0.52970  1.0000
  H   H248      1.0  0.11752  0.33749  0.57738  1.0000
  H   H249      1.0  0.08903  0.01187  0.50244  1.0000
  H   H250      1.0  0.00874  0.38428  0.51861  1.0000
  H   H251      1.0  0.10478  0.11261  0.55793  1.0000
  H   H252      1.0  0.10916  0.30322  0.58568  1.0000
  H   H253      1.0  0.14013  0.17491  0.49382  1.0000
  C   C218      1.0  0.13735  0.33183  0.55079  1.0000
  H   H254      1.0  0.12306  0.13124  0.57195  1.0000
  H   H255      1.0  0.30962  0.06265  0.60226  1.0000
  H   H256      1.0  0.12438  0.27804  0.56525  1.0000
  S   S66       1.0  0.02652  0.45183  0.50309  1.0000
  C   C219      1.0  0.12025  0.10640  0.55869  1.0000
  H   H257      1.0  0.13021  0.29218  0.51100  1.0000
  H   H258      1.0  0.22335  0.19940  0.63843  1.0000
  H   H259      1.0  0.20331  0.18105  0.61229  1.0000
  C   C220      1.0  0.15085  0.11115  0.56766  1.0000
  H   H260      1.0  0.02635  0.02637  0.48767  1.0000
  C   C221      1.0  0.17797  0.26483  0.63776  1.0000
  H   H261      1.0  0.04358  0.33661  0.56733  1.0000
  S   S67       1.0  0.00570  0.42066  0.53834  1.0000
  H   H262      1.0  0.29642  0.14308  0.54830  1.0000
  H   H263      1.0  0.22290  0.22716  0.58846  1.0000
  H   H264      1.0  0.30917  0.03341  0.58042  1.0000
  C   C222      1.0  0.16075  0.09362  0.56071  1.0000
  H   H265      1.0  0.09121  0.32086  0.70506  1.0000
  H   H266      1.0  0.12548  0.18890  0.47573  1.0000
  H   H267      1.0  0.00806  0.33639  0.56847  1.0000
  C   C223      1.0  0.13060  0.11735  0.56690  1.0000
  H   H268      1.0  0.15900  0.12025  0.57319  1.0000
  H   H269      1.0  0.29291  0.12338  0.57678  1.0000
  H   H270      1.0  0.18119  0.19923  0.61207  1.0000
  H   H271      1.0  0.30516  0.12559  0.53133  1.0000
  H   H272      1.0  0.23379  0.18861  0.61672  1.0000
  Fe  Fe29      1.0  0.98880  0.44724  0.55122  1.0000
  S   S68       1.0  0.01767  0.12961  0.47931  1.0000
  H   H273      1.0  0.31377  0.14942  0.52709  1.0000
  H   H274      1.0  0.21897  0.20307  0.58595  1.0000
  H   H275      1.0  0.21702  0.21320  0.47938  1.0000
  C   C224      1.0  0.30864  0.02213  0.64628  1.0000
  N   N13       1.0  0.20732  0.21093  0.61451  1.0000
  C   C225      1.0  0.20715  0.24580  0.62075  1.0000
  H   H276      1.0  0.31722  0.14599  0.57131  1.0000
  C   C226      1.0  0.14623  0.31764  0.53858  1.0000
  N   N14       1.0  0.11663  0.42440  0.65458  1.0000
  C   C227      1.0  0.10263  0.41061  0.66551  1.0000
  C   C228      1.0  0.10496  0.44122  0.64309  1.0000
  C   C229      1.0  0.13172  0.41307  0.64092  1.0000
  C   C230      1.0  0.12673  0.43248  0.66729  1.0000
  C   C231      1.0  0.15109  0.45290  0.67062  1.0000
  C   C232      1.0  0.14120  0.44521  0.65897  1.0000
  C   C233      1.0  0.09424  0.03955  0.48355  1.0000
  H   H277      1.0  0.30644  0.00781  0.56129  1.0000
  H   H278      1.0  0.99880  0.37095  0.59345  1.0000
  H   H279      1.0  0.11054  0.39729  0.67411  1.0000
  H   H280      1.0  0.03682  0.99074  0.48172  1.0000
  H   H281      1.0  0.09543  0.40470  0.65554  1.0000
  H   H282      1.0  0.11463  0.45137  0.63313  1.0000
  H   H283      1.0  0.09378  0.45044  0.65280  1.0000
  H   H284      1.0  0.09669  0.43571  0.63370  1.0000
  H   H285      1.0  0.14156  0.42273  0.63057  1.0000
  H   H286      1.0  0.14145  0.40088  0.64898  1.0000
  H   H287      1.0  0.12455  0.40604  0.63174  1.0000
  H   H288      1.0  0.11197  0.41856  0.69574  1.0000
  H   H289      1.0  0.04136  0.39455  0.62326  1.0000
  C   C234      1.0  0.28666  0.02412  0.60430  1.0000
  H   H290      1.0  0.16790  0.21950  0.63489  1.0000
  C   C235      1.0  0.03213  0.31734  0.71940  1.0000
  N   N15       1.0  0.11983  0.07713  0.54144  1.0000
  C   C236      1.0  0.11832  0.05715  0.55338  1.0000
  C   C237      1.0  0.09928  0.08705  0.53877  1.0000
  C   C238      1.0  0.13145  0.07428  0.52186  1.0000
  C   C239      1.0  0.13004  0.08870  0.55098  1.0000
  C   C240      1.0  0.15050  0.08239  0.55270  1.0000
  C   C241      1.0  0.29905  0.09301  0.58999  1.0000
  H   H291      1.0  0.15221  0.25013  0.64741  1.0000
  H   H292      1.0  0.10975  0.05861  0.56824  1.0000
  H   H293      1.0  0.11055  0.04811  0.54661  1.0000
  H   H294      1.0  0.13325  0.04823  0.55508  1.0000
  H   H295      1.0  0.08917  0.08846  0.55293  1.0000
  H   H296      1.0  0.09219  0.07833  0.53107  1.0000
  H   H297      1.0  0.09936  0.10227  0.52995  1.0000
  H   H298      1.0  0.12321  0.06748  0.51343  1.0000
  H   H299      1.0  0.15883  0.06893  0.54749  1.0000
  H   H300      1.0  0.98870  0.33659  0.52800  1.0000
  C   C242      1.0  0.01331  0.41444  0.59670  1.0000
  C   C243      1.0  0.03508  0.03046  0.47291  1.0000
  Fe  Fe30      1.0  0.08395  0.08686  0.49182  1.0000
  C   C244      1.0  0.31865  0.03891  0.64246  1.0000
  H   H301      1.0  0.15072  0.25596  0.55137  1.0000
  H   H302      1.0  0.09023  0.41832  0.67542  1.0000
  H   H303      1.0  0.03495  0.38891  0.57281  1.0000
  C   C245      1.0  0.11931  0.30728  0.57233  1.0000
  C   C246      1.0  0.14208  0.29766  0.54305  1.0000
  C   C247      1.0  0.30980  0.13661  0.53851  1.0000
  H   H304      1.0  0.19829  0.22332  0.58695  1.0000
  C   C248      1.0  0.99798  0.37475  0.63229  1.0000
  C   C249      1.0  0.16774  0.24868  0.64035  1.0000
  C   C250      1.0  0.03399  0.38363  0.58879  1.0000
  H   H305      1.0  0.14511  0.44920  0.64337  1.0000
  C   C251      1.0  0.30345  0.10961  0.57607  1.0000
  N   N16       1.0  0.15202  0.28284  0.53004  1.0000
  C   C252      1.0  0.14671  0.28982  0.51034  1.0000
  C   C253      1.0  0.19713  0.22906  0.62303  1.0000
  C   C254      1.0  0.17703  0.23106  0.63303  1.0000
  C   C255      1.0  0.02846  0.37979  0.65068  1.0000
  H   H306      1.0  0.22229  0.24555  0.61294  1.0000
  H   H307      1.0  0.05091  0.02982  0.47461  1.0000
  H   H308      1.0  0.02589  0.41931  0.60120  1.0000
  S   S69       1.0  0.98922  0.32464  0.60831  1.0000
  H   H309      1.0  0.09387  0.99223  0.47524  1.0000
  C   C256      1.0  0.16180  0.39348  0.70750  1.0000
  H   H310      1.0  0.12764  0.12521  0.50721  1.0000
  H   H311      1.0  0.18201  0.26893  0.51940  1.0000
  Fe  Fe31      1.0  0.99876  0.43776  0.50977  1.0000
  H   H312      1.0  0.13480  0.15476  0.47389  1.0000
  H   H313      1.0  0.28326  0.98419  0.57378  1.0000
  C   C257      1.0  0.17501  0.18549  0.47606  1.0000
  H   H314      1.0  0.22578  0.98153  0.62003  1.0000
  H   H315      1.0  0.14589  0.06405  0.52255  1.0000
  C   C258      1.0  0.21209  0.21641  0.59307  1.0000
  H   H316      1.0  0.99978  0.39330  0.57572  1.0000
  C   C259      1.0  0.17406  0.28064  0.52841  1.0000
  C   C260      1.0  0.01527  0.34714  0.55747  1.0000
  Fe  Fe32      1.0  0.05031  0.12041  0.48197  1.0000
  H   H317      1.0  0.28549  0.09435  0.60076  1.0000
  C   C261      1.0  0.13225  0.43634  0.69948  1.0000
  C   C262      1.0  0.14666  0.44842  0.69083  1.0000
  H   H318      1.0  0.04705  0.38794  0.59290  1.0000
  C   C263      1.0  0.19507  0.19455  0.61864  1.0000
  Fe  Fe33      1.0  0.30884  0.12708  0.63263  1.0000
  C   C264      1.0  0.27336  0.01051  0.61198  1.0000
  S   S70       1.0  0.07019  0.14393  0.47496  1.0000
  C   C265      1.0  0.12247  0.42831  0.68799  1.0000
  C   C266      1.0  0.19764  0.26340  0.62798  1.0000
  H   H319      1.0  0.07185  0.35646  0.70297  1.0000
  H   H320      1.0  0.12918  0.43262  0.71524  1.0000
  S   S71       1.0  0.31885  0.10303  0.65683  1.0000
  H   H321      1.0  0.16241  0.46223  0.66398  1.0000
  H   H322      1.0  0.04035  0.38157  0.65778  1.0000
  Fe  Fe34      1.0  0.00782  0.47622  0.51908  1.0000
  C   C267      1.0  0.05823  0.34938  0.70896  1.0000
  H   H323      1.0  0.23242  0.00132  0.60053  1.0000
  H   H324      1.0  0.28824  0.03504  0.61288  1.0000
  C   C268      1.0  0.31261  0.07518  0.59088  1.0000
  H   H325      1.0  0.07057  0.31313  0.69867  1.0000
  C   C269      1.0  0.31717  0.00473  0.63802  1.0000
  H   H326      1.0  0.04687  0.36046  0.71648  1.0000
  H   H327      1.0  0.17331  0.19836  0.48405  1.0000
  S   S72       1.0  0.17972  0.40718  0.71134  1.0000
  C   C270      1.0  0.13932  0.18794  0.48189  1.0000
  C   C271      1.0  0.13275  0.37648  0.71879  1.0000
  C   C272      1.0  0.09507  0.00801  0.47215  1.0000
  H   H328      1.0  0.19126  0.34219  0.71159  1.0000
  H   H329      1.0  0.19801  0.36581  0.71011  1.0000
  H   H330      1.0  0.21736  0.34426  0.70870  1.0000
  N   N17       1.0  0.25748  0.98098  0.61026  1.0000
  C   C273      1.0  0.20208  0.34975  0.71614  1.0000
  H   H331      1.0  0.21708  0.38106  0.72070  1.0000
  H   H332      1.0  0.01273  0.36404  0.67658  1.0000
  C   C274      1.0  0.99757  0.36773  0.65217  1.0000
  H   H333      1.0  0.07957  0.30089  0.72065  1.0000
  H   H334      1.0  0.99322  0.30277  0.75334  1.0000
  H   H335      1.0  0.06590  0.44508  0.82619  1.0000
  H   H336      1.0  0.30140  0.28917  0.80130  1.0000
  H   H337      1.0  0.04429  0.32401  0.76201  1.0000
  H   H338      1.0  0.22304  0.39625  0.85228  1.0000
  S   S73       1.0  0.12008  0.43909  0.88458  1.0000
  H   H339      1.0  0.22253  0.38174  0.80006  1.0000
  H   H340      1.0  0.31545  0.35761  0.78963  1.0000
  H   H341      1.0  0.21584  0.44103  0.81226  1.0000
  H   H342      1.0  0.09943  0.43547  0.80705  1.0000
  S   S74       1.0  0.15380  0.43751  0.75504  1.0000
  H   H343      1.0  0.22931  0.41528  0.83257  1.0000
  S   S75       1.0  0.18270  0.44027  0.78595  1.0000
  Fe  Fe35      1.0  0.16378  0.41888  0.78194  1.0000
  S   S76       1.0  0.14354  0.40299  0.80605  1.0000
  H   H344      1.0  0.30064  0.31248  0.81948  1.0000
  H   H345      1.0  0.29063  0.33590  0.77045  1.0000
  Fe  Fe36      1.0  0.17533  0.45752  0.75749  1.0000
  C   C275      1.0  0.22484  0.34588  0.76073  1.0000
  H   H346      1.0  0.16732  0.44653  0.86171  1.0000
  H   H347      1.0  0.17811  0.41112  0.82754  1.0000
  C   C276      1.0  0.01842  0.31323  0.75947  1.0000
  C   C277      1.0  0.19268  0.43994  0.83828  1.0000
  Fe  Fe37      1.0  0.10754  0.47189  0.88135  1.0000
  H   H348      1.0  0.18748  0.41815  0.87543  1.0000
  H   H349      1.0  0.19729  0.39068  0.83395  1.0000
  C   C278      1.0  0.09403  0.45107  0.80870  1.0000
  C   C279      1.0  0.24729  0.39801  0.79456  1.0000
  C   C280      1.0  0.23652  0.38267  0.80421  1.0000
  C   C281      1.0  0.24398  0.36840  0.81917  1.0000
  C   C282      1.0  0.26231  0.36925  0.82450  1.0000
  C   C283      1.0  0.27318  0.38441  0.81465  1.0000
  C   C284      1.0  0.26570  0.39869  0.79974  1.0000
  H   H350      1.0  0.23554  0.35663  0.82665  1.0000
  H   H351      1.0  0.28726  0.38529  0.81864  1.0000
  H   H352      1.0  0.27418  0.41044  0.79227  1.0000
  H   H353      1.0  0.24216  0.39486  0.73123  1.0000
  C   C285      1.0  0.12613  0.42969  0.86242  1.0000
  C   C286      1.0  0.12522  0.40955  0.86245  1.0000
  C   C287      1.0  0.13027  0.40161  0.84500  1.0000
  C   C288      1.0  0.13691  0.41359  0.82754  1.0000
  C   C289      1.0  0.13840  0.43361  0.82753  1.0000
  C   C290      1.0  0.13261  0.44177  0.84491  1.0000
  H   H354      1.0  0.12028  0.40015  0.87595  1.0000
  H   H355      1.0  0.12917  0.38610  0.84508  1.0000
  H   H356      1.0  0.14374  0.44287  0.81414  1.0000
  H   H357      1.0  0.13363  0.45724  0.84484  1.0000
  N   N18       1.0  0.06276  0.33046  0.72247  1.0000
  C   C291      1.0  0.18554  0.41062  0.86350  1.0000
  Fe  Fe38      1.0  0.20744  0.42206  0.76800  1.0000
  C   C292      1.0  0.20352  0.44945  0.82091  1.0000
  C   C293      1.0  0.17652  0.45226  0.84837  1.0000
  C   C294      1.0  0.31630  0.33554  0.96797  1.0000
  H   H358      1.0  0.06454  0.34673  0.74516  1.0000
  C   C295      1.0  0.24575  0.37156  0.75566  1.0000
  Fe  Fe39      1.0  0.18030  0.41918  0.73920  1.0000
  H   H359      1.0  0.16930  0.41302  0.86260  1.0000
  H   H360      1.0  0.21731  0.31624  0.73996  1.0000
  C   C296      1.0  0.04393  0.32259  0.73134  1.0000
  H   H361      1.0  0.21988  0.33291  0.77021  1.0000
  H   H362      1.0  0.22274  0.42117  0.85692  1.0000
  C   C297      1.0  0.29090  0.33297  0.78638  1.0000
  H   H363      1.0  0.29623  0.35823  0.95282  1.0000
  H   H364      1.0  0.30626  0.34495  0.92152  1.0000
  S   S77       1.0  0.20127  0.44072  0.73938  1.0000
  N   N19       1.0  0.19764  0.41802  0.84461  1.0000
  C   C298      1.0  0.07359  0.33485  0.73692  1.0000
  C   C299      1.0  0.30752  0.34504  0.95169  1.0000
  H   H365      1.0  0.16864  0.35126  0.74239  1.0000
  N   N20       1.0  0.31167  0.32693  0.79029  1.0000
  N   N21       1.0  0.20091  0.34633  0.73768  1.0000
  H   H366      1.0  0.02591  0.44445  0.87697  1.0000
  H   H367      1.0  0.17965  0.37300  0.74172  1.0000
  C   C300      1.0  0.21906  0.41253  0.84669  1.0000
  C   C301      1.0  0.31383  0.29013  0.78940  1.0000
  C   C302      1.0  0.19398  0.40726  0.82973  1.0000
  H   H368      1.0  0.01296  0.31168  0.77504  1.0000
  H   H369      1.0  0.20337  0.41111  0.81533  1.0000
  H   H370      1.0  0.31757  0.25837  0.78855  1.0000
  H   H371      1.0  0.18984  0.39419  0.86803  1.0000
  S   S78       1.0  0.18902  0.39915  0.76618  1.0000
  H   H372      1.0  0.03446  0.47357  0.95173  1.0000
  C   C303      1.0  0.14609  0.38811  0.72221  1.0000
  C   C304      1.0  0.22337  0.37259  0.73312  1.0000
  H   H373      1.0  0.28149  0.32122  0.79315  1.0000
  C   C305      1.0  0.06830  0.47641  0.82161  1.0000
  H   H374      1.0  0.04847  0.46960  0.87353  1.0000
  S   S79       1.0  0.27122  0.35093  0.84326  1.0000
  S   S80       1.0  0.23867  0.41634  0.77566  1.0000
  H   H375      1.0  0.19145  0.31794  0.73812  1.0000
  H   H376      1.0  0.28345  0.34686  0.79251  1.0000
  H   H377      1.0  0.30584  0.33688  0.81823  1.0000
  C   C306      1.0  0.20197  0.32435  0.74435  1.0000
  C   C307      1.0  0.00169  0.46605  0.86689  1.0000
  H   H378      1.0  0.20589  0.47637  0.79985  1.0000
  C   C308      1.0  0.02091  0.46008  0.87173  1.0000
  H   H379      1.0  0.19750  0.32060  0.76040  1.0000
  Fe  Fe40      1.0  0.30178  0.34942  0.85165  1.0000
  H   H380      1.0  0.07783  0.32113  0.74735  1.0000
  H   H381      1.0  0.25656  0.37829  0.76040  1.0000
  C   C309      1.0  0.07520  0.45642  0.81947  1.0000
  S   S81       1.0  0.30727  0.35871  0.87870  1.0000
  C   C310      1.0  0.31319  0.33755  0.93392  1.0000
  C   C311      1.0  0.21682  0.35453  0.74349  1.0000
  C   C312      1.0  0.00725  0.30820  0.74729  1.0000
  C   C313      1.0  0.18128  0.35650  0.74652  1.0000
  H   H382      1.0  0.17941  0.35407  0.76272  1.0000
  C   C314      1.0  0.17113  0.47252  0.84098  1.0000
  C   C315      1.0  0.23771  0.38082  0.73910  1.0000
  H   H383      1.0  0.24483  0.34766  0.77995  1.0000
  C   C316      1.0  0.23919  0.35425  0.76657  1.0000
  H   H384      1.0  0.14427  0.39283  0.73626  1.0000
  H   H385      1.0  0.12075  0.37232  0.73033  1.0000
  H   H386      1.0  0.12044  0.46077  0.79179  1.0000
  C   C317      1.0  0.03364  0.47431  0.86986  1.0000
  C   C318      1.0  0.19792  0.46971  0.81361  1.0000
  C   C319      1.0  0.10612  0.46565  0.80028  1.0000
  C   C320      1.0  0.03650  0.32033  0.75172  1.0000
  C   C321      1.0  0.01411  0.31024  0.72729  1.0000
  H   H387      1.0  0.08779  0.34050  0.72974  1.0000
  H   H388      1.0  0.04159  0.47409  0.92595  1.0000
  C   C322      1.0  0.31106  0.32296  0.81166  1.0000
  C   C323      1.0  0.32107  0.30855  0.78184  1.0000
  Fe  Fe41      1.0  0.09152  0.49705  0.06455  1.0000
  S   S82       1.0  0.12289  0.50260  0.05436  1.0000
  C   C324      1.0  0.09658  0.51643  0.98242  1.0000
  Fe  Fe42      1.0  0.07450  0.53907  0.04689  1.0000
  S   S83       1.0  0.04658  0.56072  0.04182  1.0000
  Fe  Fe43      1.0  0.11190  0.53200  0.06524  1.0000
  S   S84       1.0  0.12686  0.53853  0.08830  1.0000
  S   S85       1.0  0.08205  0.50969  0.03582  1.0000
  S   S86       1.0  0.08072  0.52552  0.07684  1.0000
  H   H389      1.0  0.21734  0.53114  0.12759  1.0000
  H   H390      1.0  0.17552  0.72749  0.16818  1.0000
  H   H391      1.0  0.17070  0.68598  0.13063  1.0000
  Fe  Fe44      1.0  0.29800  0.71704  0.05022  1.0000
  S   S87       1.0  0.30437  0.74696  0.03312  1.0000
  S   S88       1.0  0.26623  0.71002  0.05900  1.0000
  H   H392      1.0  0.22080  0.70375  0.11499  1.0000
  H   H393      1.0  0.20804  0.71438  0.16424  1.0000
  H   H394      1.0  0.22595  0.71400  0.14248  1.0000
  H   H395      1.0  0.20069  0.67073  0.14446  1.0000
  C   C325      1.0  0.14380  0.69929  0.14667  1.0000
  H   H396      1.0  0.19729  0.71986  0.11294  1.0000
  Fe  Fe45      1.0  0.18157  0.61374  0.11456  1.0000
  S   S89       1.0  0.21105  0.59993  0.12377  1.0000
  S   S90       1.0  0.17715  0.60728  0.08561  1.0000
  Fe  Fe46      1.0  0.16683  0.63347  0.15130  1.0000
  S   S91       1.0  0.19501  0.62053  0.16328  1.0000
  S   S92       1.0  0.13883  0.64916  0.16836  1.0000
  Fe  Fe47      1.0  0.21063  0.62968  0.13264  1.0000
  S   S93       1.0  0.23880  0.64331  0.12928  1.0000
  Fe  Fe48      1.0  0.19271  0.59210  0.15317  1.0000
  S   S94       1.0  0.19826  0.56124  0.17105  1.0000
  S   S95       1.0  0.18245  0.64444  0.12113  1.0000
  S   S96       1.0  0.16328  0.60429  0.14357  1.0000
  C   C326      1.0  0.13487  0.71191  0.16026  1.0000
  C   C327      1.0  0.19069  0.54206  0.16213  1.0000
  C   C328      1.0  0.19948  0.52192  0.16668  1.0000
  C   C329      1.0  0.19494  0.50689  0.15793  1.0000
  C   C330      1.0  0.18128  0.51199  0.14495  1.0000
  C   C331      1.0  0.17170  0.53186  0.14142  1.0000
  C   C332      1.0  0.17659  0.54686  0.14967  1.0000
  H   H397      1.0  0.21037  0.51805  0.17638  1.0000
  H   H398      1.0  0.28036  0.66902  0.04571  1.0000
  H   H399      1.0  0.16098  0.53580  0.13158  1.0000
  H   H400      1.0  0.16951  0.56216  0.14623  1.0000
  C   C333      1.0  0.25840  0.69203  0.07901  1.0000
  C   C334      1.0  0.26866  0.68602  0.09479  1.0000
  C   C335      1.0  0.26232  0.67121  0.11018  1.0000
  C   C336      1.0  0.24573  0.66228  0.10993  1.0000
  C   C337      1.0  0.23527  0.66850  0.09431  1.0000
  C   C338      1.0  0.24153  0.68342  0.07898  1.0000
  H   H401      1.0  0.28147  0.69280  0.09513  1.0000
  H   H402      1.0  0.27042  0.66654  0.12229  1.0000
  H   H403      1.0  0.22249  0.66170  0.09394  1.0000
  H   H404      1.0  0.23346  0.68808  0.06685  1.0000
  H   H405      1.0  0.29745  0.64848  0.99078  1.0000
  S   S97       1.0  0.10470  0.54842  0.03630  1.0000
  C   C339      1.0  0.16735  0.71956  0.16150  1.0000
  Fe  Fe49      1.0  0.11265  0.51819  0.02647  1.0000
  H   H406      1.0  0.02588  0.52001  0.05080  1.0000
  C   C340      1.0  0.04068  0.54033  0.01398  1.0000
  C   C341      1.0  0.98859  0.48190  0.07680  1.0000
  H   H407      1.0  0.07054  0.58411  0.01157  1.0000
  C   C342      1.0  0.13465  0.68724  0.21611  1.0000
  C   C343      1.0  0.11976  0.66748  0.19955  1.0000
  C   C344      1.0  0.13799  0.66316  0.18707  1.0000
  C   C345      1.0  0.15477  0.67041  0.18953  1.0000
  H   H408      1.0  0.04035  0.48927  0.03750  1.0000
  H   H409      1.0  0.01453  0.58695  0.98429  1.0000
  H   H410      1.0  0.10671  0.66194  0.19772  1.0000
  H   H411      1.0  0.16886  0.66715  0.18000  1.0000
  C   C346      1.0  0.09710  0.56384  0.98643  1.0000
  H   H412      1.0  0.21501  0.55745  0.12175  1.0000
  H   H413      1.0  0.21778  0.50375  0.11578  1.0000
  C   C347      1.0  0.10869  0.49227  0.13003  1.0000
  C   C348      1.0  0.22309  0.54330  0.11657  1.0000
  H   H414      1.0  0.23922  0.54225  0.11723  1.0000
  C   C349      1.0  0.22606  0.56070  0.08385  1.0000
  H   H415      1.0  0.13962  0.73127  0.17874  1.0000
  H   H416      1.0  0.05635  0.53425  0.01245  1.0000
  H   H417      1.0  0.24825  0.53601  0.06275  1.0000
  C   C350      1.0  0.16962  0.48947  0.03433  1.0000
  C   C351      1.0  0.07882  0.59321  0.99892  1.0000
  H   H418      1.0  0.24215  0.56133  0.08326  1.0000
  H   H419      1.0  0.03487  0.52310  0.99381  1.0000
  C   C352      1.0  0.22827  0.50457  0.10224  1.0000
  C   C353      1.0  0.13895  0.55928  0.08667  1.0000
  C   C354      1.0  0.14129  0.56468  0.10404  1.0000
  C   C355      1.0  0.15247  0.57975  0.10376  1.0000
  C   C356      1.0  0.16163  0.58948  0.08608  1.0000
  C   C357      1.0  0.15904  0.58434  0.06858  1.0000
  C   C358      1.0  0.14759  0.56933  0.06884  1.0000
  H   H420      1.0  0.13441  0.55713  0.11785  1.0000
  H   H421      1.0  0.15423  0.58354  0.11729  1.0000
  H   H422      1.0  0.16598  0.59192  0.05482  1.0000
  H   H423      1.0  0.14580  0.56530  0.05535  1.0000
  H   H424      1.0  0.11891  0.71331  0.16556  1.0000
  H   H425      1.0  0.01535  0.51937  0.07595  1.0000
  S   S98       1.0  0.13113  0.51442  0.99689  1.0000
  N   N22       1.0  0.15237  0.60345  0.21931  1.0000
  H   H426      1.0  0.08875  0.51812  0.99679  1.0000
  H   H427      1.0  0.10355  0.55618  0.97360  1.0000
  H   H428      1.0  0.20240  0.49156  0.16081  1.0000
  C   C359      1.0  0.28831  0.63743  0.07852  1.0000
  C   C360      1.0  0.17355  0.48408  0.05375  1.0000
  H   H429      1.0  0.26180  0.73910  0.97171  1.0000
  C   C361      1.0  0.17695  0.70677  0.14761  1.0000
  H   H430      1.0  0.26609  0.50406  0.05397  1.0000
  C   C362      1.0  0.13983  0.60615  0.20400  1.0000
  H   H431      1.0  0.20810  0.49711  0.05282  1.0000
  H   H432      1.0  0.08887  0.55329  0.99762  1.0000
  H   H433      1.0  0.30303  0.70863  0.98659  1.0000
  H   H434      1.0  0.04263  0.59381  0.99608  1.0000
  C   C363      1.0  0.29008  0.65847  0.03705  1.0000
  C   C364      1.0  0.11746  0.51377  0.97852  1.0000
  C   C365      1.0  0.00819  0.54229  0.00490  1.0000
  C   C366      1.0  0.01234  0.56304  0.02749  1.0000
  H   H435      1.0  0.06969  0.60830  0.99604  1.0000
  C   C367      1.0  0.15301  0.68267  0.20383  1.0000
  H   H436      1.0  0.14846  0.49681  0.08402  1.0000
  C   C368      1.0  0.16450  0.69660  0.14052  1.0000
  N   N23       1.0  0.08375  0.58299  0.98148  1.0000
  S   S99       1.0  0.17727  0.49498  0.13091  1.0000
  C   C369      1.0  0.19841  0.54315  0.09683  1.0000
  H   H437      1.0  0.21731  0.57460  0.08922  1.0000
  H   H438      1.0  0.22306  0.56183  0.06881  1.0000
  H   H439      1.0  0.19274  0.52950  0.10531  1.0000
  H   H440      1.0  0.18930  0.55613  0.10348  1.0000
  H   H441      1.0  0.19505  0.54477  0.08188  1.0000
  C   C370      1.0  0.20955  0.71665  0.14808  1.0000
  H   H442      1.0  0.11017  0.56603  0.99232  1.0000
  H   H443      1.0  0.17341  0.53073  0.06522  1.0000
  H   H444      1.0  0.12814  0.51106  0.13507  1.0000
  N   N24       1.0  0.17687  0.49882  0.06510  1.0000
  N   N25       1.0  0.19896  0.70288  0.14158  1.0000
  H   H445      1.0  0.28488  0.75840  0.97984  1.0000
  H   H446      1.0  0.04188  0.51233  0.06856  1.0000
  C   C371      1.0  0.23877  0.48641  0.09688  1.0000
  H   H447      1.0  0.27535  0.64928  0.07584  1.0000
  H   H448      1.0  0.15610  0.52355  0.05344  1.0000
  H   H449      1.0  0.18191  0.52354  0.04171  1.0000
  C   C372      1.0  0.02854  0.53422  0.00323  1.0000
  H   H450      1.0  0.16582  0.68887  0.20521  1.0000
  C   C373      1.0  0.17191  0.52001  0.05583  1.0000
  C   C374      1.0  0.25541  0.50430  0.06743  1.0000
  H   H451      1.0  0.16465  0.50892  0.09293  1.0000
  C   C375      1.0  0.20432  0.70505  0.11999  1.0000
  C   C376      1.0  0.02691  0.51136  0.06553  1.0000
  C   C377      1.0  0.31681  0.63047  0.03241  1.0000
  H   H452      1.0  0.17901  0.58920  0.20223  1.0000
  N   N26       1.0  0.02401  0.49029  0.06690  1.0000
  H   H453      1.0  0.16863  0.50469  0.02669  1.0000
  C   C378      1.0  0.00025  0.55705  0.01667  1.0000
  H   H454      1.0  0.20232  0.67957  0.16622  1.0000
  C   C379      1.0  0.24504  0.52262  0.07270  1.0000
  C   C380      1.0  0.14661  0.72202  0.16765  1.0000
  H   H455      1.0  0.00596  0.57418  0.03689  1.0000
  N   N27       1.0  0.22003  0.54232  0.09665  1.0000
  C   C381      1.0  0.20660  0.68210  0.15007  1.0000
  H   H456      1.0  0.13470  0.69081  0.14153  1.0000
  C   C382      1.0  0.29950  0.64708  0.00576  1.0000
  H   H457      1.0  0.28456  0.62310  0.07626  1.0000
  C   C383      1.0  0.03246  0.55439  0.02651  1.0000
  H   H458      1.0  0.22322  0.67866  0.14655  1.0000
  C   C384      1.0  0.23123  0.52330  0.09045  1.0000
  C   C385      1.0  0.16439  0.49659  0.08484  1.0000
  H   H459      1.0  0.20392  0.73262  0.14270  1.0000
  H   H460      1.0  0.19974  0.69317  0.11395  1.0000
  C   C386      1.0  0.25235  0.48626  0.07954  1.0000
  C   C387      1.0  0.16181  0.62172  0.21644  1.0000
  N   N28       1.0  0.30710  0.64208  0.06562  1.0000
  H   H461      1.0  0.13301  0.59269  0.20435  1.0000
  H   H462      1.0  0.29908  0.67407  0.06601  1.0000
  C   C388      1.0  0.31120  0.66141  0.06904  1.0000
  C   C389      1.0  0.99908  0.49842  0.04400  1.0000
  C   C390      1.0  0.28760  0.66023  0.01769  1.0000
  C   C391      1.0  0.12908  0.48333  0.15518  1.0000
  C   C392      1.0  0.00392  0.49003  0.06269  1.0000
  H   H463      1.0  0.27639  0.67194  0.01195  1.0000
  C   C393      1.0  0.30486  0.64361  0.04501  1.0000
  H   H464      1.0  0.09250  0.59550  0.00373  1.0000
  H   H465      1.0  0.20118  0.50555  0.07622  1.0000
  C   C394      1.0  0.11815  0.67923  0.21418  1.0000
  S   S100      1.0  0.99261  0.53347  0.99279  1.0000
  H   H466      1.0  0.28930  0.63614  0.09422  1.0000
  H   H467      1.0  0.17067  0.62460  0.20156  1.0000
  C   C395      1.0  0.16868  0.58623  0.21633  1.0000
  C   C396      1.0  0.03964  0.48056  0.05245  1.0000
  C   C397      1.0  0.19819  0.49517  0.06726  1.0000
  C   C398      1.0  0.04602  0.58583  0.98379  1.0000
  S   S101      1.0  0.31764  0.69990  0.02764  1.0000
  H   H468      1.0  0.14874  0.60911  0.18912  1.0000
  H   H469      1.0  0.14002  0.48694  0.16248  1.0000
  H   H470      1.0  0.12750  0.61912  0.20549  1.0000
  H   H471      1.0  0.10366  0.50296  0.11793  1.0000
  H   H472      1.0  0.16302  0.57231  0.21574  1.0000
  H   H473      1.0  0.31308  0.66090  0.08436  1.0000
  H   H474      1.0  0.15036  0.63535  0.21796  1.0000
  C   C399      1.0  0.02959  0.58194  0.97716  1.0000
  C   C400      1.0  0.12243  0.49694  0.13972  1.0000
  C   C401      1.0  0.06595  0.57899  0.97505  1.0000
  H   H475      1.0  0.01678  0.48692  0.09830  1.0000
  H   H476      1.0  0.00977  0.50521  0.03263  1.0000
  C   C402      1.0  0.31401  0.63218  0.01313  1.0000
  H   H477      1.0  0.16947  0.48258  0.09440  1.0000
  H   H478      1.0  0.04259  0.47999  0.08913  1.0000
  H   H479      1.0  0.16198  0.47988  0.00987  1.0000
  S   S102      1.0  0.09357  0.94469  0.37574  1.0000
  H   H480      1.0  0.03722  0.87679  0.39501  1.0000
  S   S103      1.0  0.06703  0.57218  0.34272  1.0000
  H   H481      1.0  0.02768  0.49787  0.46880  1.0000
  Fe  Fe50      1.0  0.10577  0.67227  0.29931  1.0000
  S   S104      1.0  0.08155  0.69366  0.31394  1.0000
  S   S105      1.0  0.11904  0.64184  0.31315  1.0000
  Fe  Fe51      1.0  0.11054  0.70039  0.26114  1.0000
  S   S106      1.0  0.08604  0.72427  0.27252  1.0000
  Fe  Fe52      1.0  0.10020  0.71758  0.29961  1.0000
  S   S107      1.0  0.10118  0.74462  0.31377  1.0000
  Fe  Fe53      1.0  0.06903  0.69869  0.28609  1.0000
  S   S108      1.0  0.03558  0.69729  0.29320  1.0000
  S   S109      1.0  0.12567  0.69555  0.28729  1.0000
  S   S110      1.0  0.09239  0.67540  0.27242  1.0000
  Fe  Fe54      1.0  0.16004  0.84284  0.35581  1.0000
  S   S111      1.0  0.14845  0.81767  0.37744  1.0000
  S   S112      1.0  0.13979  0.86757  0.34040  1.0000
  Fe  Fe55      1.0  0.20344  0.82504  0.35640  1.0000
  S   S113      1.0  0.19539  0.79817  0.37820  1.0000
  S   S114      1.0  0.23610  0.82764  0.34500  1.0000
  Fe  Fe56      1.0  0.17196  0.79746  0.36017  1.0000
  S   S115      1.0  0.16879  0.76755  0.35204  1.0000
  Fe  Fe57      1.0  0.17265  0.82058  0.39352  1.0000
  S   S116      1.0  0.16447  0.82208  0.42602  1.0000
  S   S117      1.0  0.18202  0.82261  0.33729  1.0000
  S   S118      1.0  0.18228  0.84748  0.37296  1.0000
  H   H482      1.0  0.28952  0.91249  0.38141  1.0000
  Fe  Fe58      1.0  0.29408  0.91419  0.28878  1.0000
  S   S119      1.0  0.26180  0.90948  0.29767  1.0000
  C   C403      1.0  0.14919  0.76945  0.24378  1.0000
  H   H483      1.0  0.25208  0.87590  0.26469  1.0000
  C   C404      1.0  0.24295  0.85041  0.33170  1.0000
  C   C405      1.0  0.26319  0.85133  0.32407  1.0000
  C   C406      1.0  0.26918  0.86932  0.31357  1.0000
  C   C407      1.0  0.25493  0.88651  0.31055  1.0000
  C   C408      1.0  0.23469  0.88555  0.31810  1.0000
  C   C409      1.0  0.22870  0.86759  0.32869  1.0000
  H   H484      1.0  0.27426  0.83804  0.32629  1.0000
  H   H485      1.0  0.28478  0.86982  0.30784  1.0000
  H   H486      1.0  0.22356  0.89877  0.31577  1.0000
  H   H487      1.0  0.21305  0.86701  0.33442  1.0000
  C   C410      1.0  0.18214  0.82421  0.44024  1.0000
  S   S120      1.0  0.07056  0.97187  0.41988  1.0000
  C   C411      1.0  0.21627  0.82284  0.44508  1.0000
  C   C412      1.0  0.20271  0.82114  0.43325  1.0000
  C   C413      1.0  0.19573  0.89986  0.46279  1.0000
  H   H488      1.0  0.23219  0.81997  0.43977  1.0000
  H   H489      1.0  0.20819  0.81703  0.41892  1.0000
  C   C414      1.0  0.12022  0.75058  0.32440  1.0000
  C   C415      1.0  0.11853  0.77017  0.32849  1.0000
  C   C416      1.0  0.13314  0.77563  0.33700  1.0000
  C   C417      1.0  0.14958  0.76146  0.34173  1.0000
  C   C418      1.0  0.15125  0.74186  0.33766  1.0000
  C   C419      1.0  0.13677  0.73647  0.32894  1.0000
  H   H490      1.0  0.10580  0.78123  0.32509  1.0000
  H   H491      1.0  0.13166  0.79077  0.33992  1.0000
  H   H492      1.0  0.16390  0.73078  0.34123  1.0000
  H   H493      1.0  0.13827  0.72132  0.32602  1.0000
  H   H494      1.0  0.04104  0.70322  0.33735  1.0000
  C   C420      1.0  0.99127  0.49594  0.33764  1.0000
  C   C421      1.0  0.08072  0.59217  0.33481  1.0000
  C   C422      1.0  0.07128  0.61214  0.33107  1.0000
  C   C423      1.0  0.08285  0.62766  0.32404  1.0000
  C   C424      1.0  0.10377  0.62318  0.32141  1.0000
  C   C425      1.0  0.11304  0.60326  0.32533  1.0000
  C   C426      1.0  0.10158  0.58780  0.33172  1.0000
  H   H495      1.0  0.05514  0.61553  0.33342  1.0000
  H   H496      1.0  0.07572  0.64306  0.32096  1.0000
  H   H497      1.0  0.12919  0.59975  0.32331  1.0000
  H   H498      1.0  0.10894  0.57243  0.33457  1.0000
  C   C427      1.0  0.02649  0.59644  0.44010  1.0000
  H   H499      1.0  0.00473  0.51047  0.39100  1.0000
  H   H500      1.0  0.12239  0.61868  0.28155  1.0000
  C   C428      1.0  0.05533  0.60828  0.45653  1.0000
  S   S121      1.0  0.02745  0.60832  0.37314  1.0000
  C   C429      1.0  0.30152  0.87753  0.35135  1.0000
  C   C430      1.0  0.99861  0.69833  0.28414  1.0000
  N   N29       1.0  0.17366  0.89327  0.41181  1.0000
  H   H501      1.0  0.14093  0.76360  0.23463  1.0000
  C   C431      1.0  0.29525  0.87505  0.26010  1.0000
  C   C432      1.0  0.18133  0.91480  0.45533  1.0000
  H   H502      1.0  0.05323  0.90574  0.41140  1.0000
  C   C433      1.0  0.04813  0.64804  0.27095  1.0000
  C   C434      1.0  0.17394  0.78853  0.29852  1.0000
  C   C435      1.0  0.10760  0.92328  0.36662  1.0000
  C   C436      1.0  0.10768  0.92183  0.34722  1.0000
  C   C437      1.0  0.11791  0.90478  0.33941  1.0000
  C   C438      1.0  0.12841  0.88907  0.35083  1.0000
  C   C439      1.0  0.12869  0.89051  0.37023  1.0000
  C   C440      1.0  0.11800  0.90754  0.37825  1.0000
  H   H503      1.0  0.09960  0.93388  0.33822  1.0000
  H   H504      1.0  0.11762  0.90373  0.32444  1.0000
  H   H505      1.0  0.13667  0.87830  0.37908  1.0000
  H   H506      1.0  0.11759  0.90841  0.39340  1.0000
  C   C441      1.0  0.02355  0.93979  0.42370  1.0000
  H   H507      1.0  0.05312  0.85427  0.40383  1.0000
  C   C442      1.0  0.02090  0.65087  0.41772  1.0000
  C   C443      1.0  0.15089  0.79354  0.27580  1.0000
  C   C444      1.0  0.05158  0.48825  0.31875  1.0000
  H   H508      1.0  0.01658  0.66136  0.25559  1.0000
  C   C445      1.0  0.16120  0.80135  0.28700  1.0000
  C   C446      1.0  0.18880  0.83149  0.47060  1.0000
  H   H509      1.0  0.29237  0.81904  0.27217  1.0000
  H   H510      1.0  0.23616  0.85308  0.37566  1.0000
  H   H511      1.0  0.31366  0.88491  0.34148  1.0000
  H   H512      1.0  0.25581  0.86540  0.42521  1.0000
  S   S122      1.0  0.31978  0.89099  0.29669  1.0000
  H   H513      1.0  0.13211  0.57169  0.23414  1.0000
  C   C447      1.0  0.01200  0.93420  0.41198  1.0000
  C   C448      1.0  0.00899  0.64894  0.26285  1.0000
  H   H514      1.0  0.04139  0.66415  0.26978  1.0000
  H   H515      1.0  0.05136  0.64366  0.25618  1.0000
  H   H516      1.0  0.15672  0.87323  0.40441  1.0000
  S   S123      1.0  0.13231  0.70425  0.23260  1.0000
  H   H517      1.0  0.99073  0.52983  0.41489  1.0000
  Fe  Fe59      1.0  0.09522  0.97354  0.43553  1.0000
  C   C449      1.0  0.25920  0.87172  0.36925  1.0000
  C   C450      1.0  0.24441  0.85821  0.40179  1.0000
  H   H518      1.0  0.16229  0.92468  0.43437  1.0000
  H   H519      1.0  0.16849  0.74376  0.28927  1.0000
  H   H520      1.0  0.18142  0.79447  0.30773  1.0000
  H   H521      1.0  0.14306  0.62621  0.25032  1.0000
  H   H522      1.0  0.00985  0.69625  0.33620  1.0000
  C   C451      1.0  0.02968  0.64310  0.30351  1.0000
  C   C452      1.0  0.01590  0.94083  0.44338  1.0000
  C   C453      1.0  0.11966  0.77397  0.26828  1.0000
  H   H523      1.0  0.10983  0.76599  0.26280  1.0000
  S   S124      1.0  0.30451  0.93890  0.29880  1.0000
  H   H524      1.0  0.04738  0.55709  0.46788  1.0000
  H   H525      1.0  0.14123  0.80410  0.26708  1.0000
  H   H526      1.0  0.15904  0.81738  0.28708  1.0000
  N   N30       1.0  0.06718  0.88065  0.39621  1.0000
  C   C454      1.0  0.06127  0.90249  0.39687  1.0000
  C   C455      1.0  0.07372  0.87824  0.37539  1.0000
  H   H527      1.0  0.29405  0.87111  0.34199  1.0000
  C   C456      1.0  0.08281  0.87199  0.40839  1.0000
  C   C457      1.0  0.07972  0.87495  0.42813  1.0000
  C   C458      1.0  0.10124  0.86028  0.40134  1.0000
  C   C459      1.0  0.03421  0.66452  0.41108  1.0000
  H   H528      1.0  0.02156  0.63290  0.31516  1.0000
  H   H529      1.0  0.13221  0.73698  0.26146  1.0000
  H   H530      1.0  0.07459  0.91021  0.39315  1.0000
  C   C460      1.0  0.99285  0.92953  0.41990  1.0000
  C   C461      1.0  0.13989  0.59955  0.23878  1.0000
  H   H531      1.0  0.06200  0.88553  0.36643  1.0000
  H   H532      1.0  0.07708  0.86218  0.37347  1.0000
  H   H533      1.0  0.08724  0.88534  0.36888  1.0000
  C   C462      1.0  0.02509  0.67051  0.37841  1.0000
  Fe  Fe60      1.0  0.10494  0.92829  0.44563  1.0000
  Fe  Fe61      1.0  0.03631  0.58044  0.35942  1.0000
  H   H534      1.0  0.01950  0.64314  0.43263  1.0000
  H   H535      1.0  0.10497  0.85689  0.38665  1.0000
  H   H536      1.0  0.12988  0.84416  0.40748  1.0000
  H   H537      1.0  0.16499  0.92474  0.40134  1.0000
  H   H538      1.0  0.17517  0.92753  0.46286  1.0000
  N   N31       1.0  0.02773  0.67971  0.35759  1.0000
  C   C463      1.0  0.16618  0.75991  0.28781  1.0000
  C   C464      1.0  0.01503  0.49258  0.44520  1.0000
  C   C465      1.0  0.00980  0.64671  0.40502  1.0000
  S   S125      1.0  0.02323  0.56051  0.38596  1.0000
  C   C466      1.0  0.01036  0.70754  0.24399  1.0000
  H   H539      1.0  0.19900  0.90351  0.39221  1.0000
  C   C467      1.0  0.99675  0.93628  0.45124  1.0000
  Fe  Fe62      1.0  0.99972  0.61157  0.36018  1.0000
  C   C468      1.0  0.17526  0.82950  0.45890  1.0000
  H   H540      1.0  0.31667  0.83884  0.26044  1.0000
  C   C469      1.0  0.27731  0.90785  0.34915  1.0000
  H   H541      1.0  0.10390  0.68279  0.22343  1.0000
  H   H542      1.0  0.04725  0.68432  0.38751  1.0000
  H   H543      1.0  0.11704  0.78983  0.26111  1.0000
  H   H544      1.0  0.13651  0.73783  0.28535  1.0000
  N   N32       1.0  0.07816  0.54431  0.46850  1.0000
  C   C470      1.0  0.09558  0.53575  0.45495  1.0000
  C   C471      1.0  0.06095  0.55125  0.45797  1.0000
  H   H545      1.0  0.00502  0.48582  0.38654  1.0000
  H   H546      1.0  0.29551  0.87386  0.22195  1.0000
  H   H547      1.0  0.30833  0.89007  0.38214  1.0000
  H   H548      1.0  0.99397  0.69500  0.29971  1.0000
  N   N33       1.0  0.03500  0.63508  0.28489  1.0000
  H   H549      1.0  0.99977  0.69989  0.36103  1.0000
  C   C472      1.0  0.18116  0.89593  0.42918  1.0000
  H   H550      1.0  0.09231  0.52331  0.44872  1.0000
  H   H551      1.0  0.10026  0.54725  0.44235  1.0000
  H   H552      1.0  0.10864  0.52976  0.46253  1.0000
  H   H553      1.0  0.28202  0.88678  0.26312  1.0000
  H   H554      1.0  0.06393  0.56361  0.44565  1.0000
  H   H555      1.0  0.01079  0.51508  0.31861  1.0000
  H   H556      1.0  0.03982  0.60475  0.30088  1.0000
  H   H557      1.0  0.26996  0.90183  0.33939  1.0000
  S   S126      1.0  0.00776  0.58938  0.43064  1.0000
  H   H558      1.0  0.04607  0.49888  0.32945  1.0000
  H   H559      1.0  0.00278  0.54152  0.33986  1.0000
  H   H560      1.0  0.26563  0.91826  0.35717  1.0000
  H   H561      1.0  0.01495  0.71129  0.22841  1.0000
  C   C473      1.0  0.26284  0.82007  0.28771  1.0000
  C   C474      1.0  0.04932  0.87075  0.40386  1.0000
  N   N34       1.0  0.28733  0.89180  0.36281  1.0000
  H   H562      1.0  0.14820  0.78591  0.23889  1.0000
  C   C475      1.0  0.19058  0.89065  0.39545  1.0000
  C   C476      1.0  0.25550  0.86013  0.27041  1.0000
  C   C477      1.0  0.20292  0.88296  0.45378  1.0000
  H   H563      1.0  0.07310  0.48385  0.34690  1.0000
  C   C478      1.0  0.01855  0.70084  0.27667  1.0000
  C   C479      1.0  0.17405  0.91295  0.43881  1.0000
  C   C480      1.0  0.27483  0.84898  0.26547  1.0000
  H   H564      1.0  0.11136  0.56495  0.26614  1.0000
  H   H565      1.0  0.20129  0.87668  0.39857  1.0000
  H   H566      1.0  0.18532  0.88953  0.38187  1.0000
  C   C481      1.0  0.13036  0.58226  0.24410  1.0000
  H   H567      1.0  0.12424  0.85134  0.44106  1.0000
  C   C482      1.0  0.12457  0.60853  0.27103  1.0000
  N   N35       1.0  0.29062  0.85867  0.25170  1.0000
  C   C483      1.0  0.01182  0.65634  0.38567  1.0000
  H   H568      1.0  0.30877  0.86475  0.36108  1.0000
  H   H569      1.0  0.30082  0.86912  0.27407  1.0000
  H   H570      1.0  0.02557  0.49149  0.39565  1.0000
  C   C484      1.0  0.02441  0.70541  0.25650  1.0000
  H   H571      1.0  0.04278  0.87310  0.41907  1.0000
  H   H572      1.0  0.10632  0.58828  0.28997  1.0000
  C   C485      1.0  0.01375  0.52540  0.45363  1.0000
  H   H573      1.0  0.09227  0.87105  0.45440  1.0000
  Fe  Fe63      1.0  0.09159  0.94672  0.40725  1.0000
  C   C486      1.0  0.14183  0.74248  0.26955  1.0000
  H   H574      1.0  0.03970  0.70742  0.25054  1.0000
  H   H575      1.0  0.27990  0.88486  0.40410  1.0000
  C   C487      1.0  0.24033  0.85137  0.28337  1.0000
  H   H576      1.0  0.04315  0.66731  0.42095  1.0000
  H   H577      1.0  0.06268  0.64722  0.27576  1.0000
  C   C488      1.0  0.11265  0.85682  0.43215  1.0000
  H   H578      1.0  0.02801  0.65219  0.34699  1.0000
  H   H579      1.0  0.03825  0.94351  0.41746  1.0000
  C   C489      1.0  0.04696  0.61469  0.28821  1.0000
  H   H580      1.0  0.01779  0.93375  0.39670  1.0000
  H   H581      1.0  0.26567  0.80469  0.29495  1.0000
  H   H582      1.0  0.04316  0.64522  0.30869  1.0000
  C   C490      1.0  0.03749  0.66395  0.34559  1.0000
  C   C491      1.0  0.24558  0.86045  0.38170  1.0000
  C   C492      1.0  0.09460  0.86779  0.43966  1.0000
  C   C493      1.0  0.16392  0.87512  0.41649  1.0000
  S   S127      1.0  0.00969  0.58498  0.34459  1.0000
  C   C494      1.0  0.27229  0.88093  0.37650  1.0000
  H   H583      1.0  0.11402  0.77379  0.28414  1.0000
  Fe  Fe64      1.0  0.99558  0.56765  0.37238  1.0000
  C   C495      1.0  0.19575  0.88094  0.43727  1.0000
  H   H584      1.0  0.04054  0.67035  0.32985  1.0000
  H   H585      1.0  0.20130  0.86724  0.43122  1.0000
  H   H586      1.0  0.30739  0.83206  0.24071  1.0000
  H   H587      1.0  0.01692  0.53464  0.46309  1.0000
  H   H588      1.0  0.27883  0.85567  0.22670  1.0000
  C   C496      1.0  0.24399  0.83139  0.29200  1.0000
  C   C497      1.0  0.27059  0.87851  0.39713  1.0000
  H   H589      1.0  0.07052  0.61478  0.42694  1.0000
  C   C498      1.0  0.00405  0.61979  0.28740  1.0000
  C   C499      1.0  0.15266  0.77253  0.27625  1.0000
  N   N36       1.0  0.14106  0.76460  0.26477  1.0000
  C   C500      1.0  0.99561  0.52831  0.34396  1.0000
  C   C501      1.0  0.17665  0.76792  0.29868  1.0000
  H   H590      1.0  0.05200  0.65632  0.35001  1.0000
  H   H591      1.0  0.23239  0.82486  0.30260  1.0000
  C   C502      1.0  0.01974  0.50468  0.45686  1.0000
  C   C503      1.0  0.13657  0.61264  0.25286  1.0000
  H   H592      1.0  0.05712  0.53918  0.45163  1.0000
  H   H593      1.0  0.99881  0.55027  0.43580  1.0000
  H   H594      1.0  0.15219  0.87568  0.42974  1.0000
  C   C504      1.0  0.28358  0.86732  0.23296  1.0000
  H   H595      1.0  0.06590  0.88322  0.43470  1.0000
  H   H596      1.0  0.05103  0.90994  0.38642  1.0000
  C   C505      1.0  0.04026  0.69588  0.35288  1.0000
  S   S128      1.0  0.11714  0.95033  0.42052  1.0000
  C   C506      1.0  0.29925  0.90140  0.37262  1.0000
  H   H597      1.0  0.28815  0.91688  0.33927  1.0000
  C   C507      1.0  0.04325  0.60330  0.42804  1.0000
  H   H598      1.0  0.04498  0.60426  0.41240  1.0000
  H   H599      1.0  0.04939  0.60723  0.27512  1.0000
  C   C508      1.0  0.03639  0.67423  0.39173  1.0000
  C   C509      1.0  0.05765  0.60928  0.43627  1.0000
  C   C510      1.0  0.15882  0.91043  0.40489  1.0000
  H   H600      1.0  0.15715  0.73421  0.26554  1.0000
  H   H601      1.0  0.15408  0.90829  0.39141  1.0000
  C   C511      1.0  0.25676  0.86733  0.40950  1.0000
  S   S129      1.0  0.30822  0.92237  0.25747  1.0000
  H   H602      1.0  0.16524  0.76268  0.24060  1.0000
  H   H603      1.0  0.05602  0.68997  0.35483  1.0000
  C   C512      1.0  0.02442  0.59516  0.46031  1.0000
  C   C513      1.0  0.01631  0.63440  0.27800  1.0000
  H   H604      1.0  0.15937  0.83218  0.46428  1.0000
  H   H605      1.0  0.30707  0.88269  0.25009  1.0000
  H   H606      1.0  0.27074  0.87973  0.23459  1.0000
  C   C514      1.0  0.11839  0.57829  0.26235  1.0000
  S   S130      1.0  0.08517  0.95183  0.46205  1.0000
  Fe  Fe65      1.0  0.06212  0.94842  0.44502  1.0000
  S   S131      1.0  0.08087  0.92307  0.43106  1.0000
  Fe  Fe66      1.0  0.01161  0.58901  0.39837  1.0000
  H   H607      1.0  0.03411  0.70792  0.36196  1.0000
  H   H608      1.0  0.22585  0.86031  0.28733  1.0000
  S   S132      1.0  0.02991  0.94793  0.45837  1.0000
  H   H609      1.0  0.23407  0.84918  0.41139  1.0000
  H   H610      1.0  0.17474  0.86124  0.41932  1.0000
  H   H611      1.0  0.06189  0.61515  0.29167  1.0000
  C   C515      1.0  0.11585  0.85288  0.41315  1.0000
  C   C516      1.0  0.11551  0.59140  0.27579  1.0000
  H   H612      1.0  0.00769  0.60924  0.30002  1.0000
  H   H613      1.0  0.18620  0.75804  0.30813  1.0000
  S   S133      1.0  0.07353  0.61538  0.46679  1.0000
  C   C517      1.0  0.00808  0.68867  0.35168  1.0000
  H   H614      1.0  0.14495  0.91215  0.41594  1.0000
  H   H615      1.0  0.25964  0.87284  0.35381  1.0000
  C   C518      1.0  0.03881  0.60099  0.46850  1.0000
  H   H616      1.0  0.99838  0.67731  0.35249  1.0000
  C   C519      1.0  0.27810  0.82862  0.27462  1.0000
  H   H617      1.0  0.01971  0.65791  0.30197  1.0000
  H   H618      1.0  0.08724  0.57363  0.46094  1.0000
  H   H619      1.0  0.00329  0.65212  0.37630  1.0000
  C   C520      1.0  0.00904  0.49433  0.39669  1.0000
  C   C521      1.0  0.99104  0.64820  0.25696  1.0000
  C   C522      1.0  0.00338  0.53415  0.43842  1.0000
  H   H620      1.0  0.06131  0.49574  0.30611  1.0000
  C   C523      1.0  0.99042  0.70489  0.25146  1.0000
  C   C524      1.0  0.00018  0.51331  0.33201  1.0000
  S   S134      1.0  0.12515  0.89995  0.45527  1.0000
  C   C525      1.0  0.20941  0.82798  0.46381  1.0000
  C   C526      1.0  0.00424  0.50104  0.42968  1.0000
  H   H621      1.0  0.01180  0.58940  0.46974  1.0000
  H   H622      1.0  0.31019  0.90969  0.36189  1.0000
  C   C527      1.0  0.30966  0.84479  0.24722  1.0000
  H   H623      1.0  0.08947  0.48168  0.32427  1.0000
  H   H624      1.0  0.99082  0.93692  0.46647  1.0000
  H   H625      1.0  0.03819  0.48610  0.31342  1.0000
  N   N37       1.0  0.99895  0.48878  0.41698  1.0000
  H   H626      1.0  0.21371  0.87110  0.45998  1.0000
  C   C528      1.0  0.99874  0.52224  0.42655  1.0000
  H   H627      1.0  0.15747  0.87282  0.46963  1.0000
  H   H628      1.0  0.99992  0.63556  0.41010  1.0000
  H   H629      1.0  0.17779  0.58286  0.22819  1.0000
  H   H630      1.0  0.99256  0.97812  0.41862  1.0000
  H   H631      1.0  0.17214  0.62040  0.22697  1.0000
  S   S135      1.0  0.98889  0.64177  0.34421  1.0000
  H   H632      1.0  0.32106  0.85255  0.23659  1.0000
  H   H633      1.0  0.06667  0.50822  0.46824  1.0000
  H   H634      1.0  0.00216  0.59274  0.52737  1.0000
  C   C529      1.0  0.15115  0.88287  0.48012  1.0000
  H   H635      1.0  0.10095  0.74701  0.56937  1.0000
  H   H636      1.0  0.04502  0.69363  0.65324  1.0000
  C   C530      1.0  0.26995  0.83314  0.59638  1.0000
  C   C531      1.0  0.17914  0.67207  0.69087  1.0000
  C   C532      1.0  0.01279  0.69704  0.65585  1.0000
  C   C533      1.0  0.12892  0.84223  0.50372  1.0000
  C   C534      1.0  0.15796  0.63655  0.65827  1.0000
  C   C535      1.0  0.03240  0.69801  0.64560  1.0000
  H   H637      1.0  0.01041  0.69194  0.67140  1.0000
  H   H638      1.0  0.04523  0.69363  0.55762  1.0000
  S   S136      1.0  0.00998  0.50843  0.50543  1.0000
  Fe  Fe67      1.0  0.04635  0.59354  0.53782  1.0000
  S   S137      1.0  0.07675  0.58746  0.51988  1.0000
  S   S138      1.0  0.02931  0.56878  0.55377  1.0000
  Fe  Fe68      1.0  0.04665  0.63816  0.53186  1.0000
  S   S139      1.0  0.07707  0.63607  0.51333  1.0000
  H   H639      1.0  0.30117  0.86657  0.61354  1.0000
  Fe  Fe69      1.0  0.06602  0.61457  0.49932  1.0000
  Fe  Fe70      1.0  0.08501  0.60942  0.53556  1.0000
  S   S140      1.0  0.11501  0.60189  0.54524  1.0000
  S   S141      1.0  0.03473  0.61903  0.51603  1.0000
  S   S142      1.0  0.05547  0.61323  0.55538  1.0000
  Fe  Fe71      1.0  0.18783  0.86647  0.53240  1.0000
  S   S143      1.0  0.18779  0.83535  0.52693  1.0000
  S   S144      1.0  0.15991  0.88944  0.53309  1.0000
  Fe  Fe72      1.0  0.23142  0.85839  0.53834  1.0000
  S   S145      1.0  0.23478  0.82650  0.53290  1.0000
  S   S146      1.0  0.25939  0.86902  0.54317  1.0000
  Fe  Fe73      1.0  0.21750  0.83908  0.50823  1.0000
  C   C536      1.0  0.12973  0.62761  0.68191  1.0000
  Fe  Fe74      1.0  0.20467  0.82550  0.55196  1.0000
  S   S147      1.0  0.19850  0.80148  0.57829  1.0000
  S   S148      1.0  0.21651  0.87101  0.51207  1.0000
  S   S149      1.0  0.20236  0.85657  0.55896  1.0000
  N   N38       1.0  0.14953  0.61952  0.67140  1.0000
  C   C537      1.0  0.11908  0.85793  0.53275  1.0000
  S   S150      1.0  0.27673  0.91436  0.60775  1.0000
  C   C538      1.0  0.09959  0.72012  0.52634  1.0000
  H   H640      1.0  0.09356  0.60716  0.61169  1.0000
  C   C539      1.0  0.13969  0.82516  0.53388  1.0000
  Fe  Fe75      1.0  0.12886  0.66972  0.61579  1.0000
  S   S151      1.0  0.11414  0.69516  0.59661  1.0000
  S   S152      1.0  0.14405  0.64007  0.60713  1.0000
  Fe  Fe76      1.0  0.11974  0.69217  0.64969  1.0000
  S   S153      1.0  0.10345  0.72011  0.63320  1.0000
  Fe  Fe77      1.0  0.08936  0.69851  0.62211  1.0000
  S   S154      1.0  0.05972  0.70372  0.61125  1.0000
  Fe  Fe78      1.0  0.12922  0.71521  0.60854  1.0000
  S   S155      1.0  0.14018  0.73849  0.58310  1.0000
  S   S156      1.0  0.10326  0.67119  0.64045  1.0000
  S   S157      1.0  0.14643  0.68893  0.62581  1.0000
  C   C540      1.0  0.13951  0.82577  0.51408  1.0000
  H   H641      1.0  0.13108  0.80821  0.57251  1.0000
  C   C541      1.0  0.00578  0.66605  0.55119  1.0000
  H   H642      1.0  0.00849  0.63440  0.55078  1.0000
  C   C542      1.0  0.03557  0.70427  0.62542  1.0000
  H   H643      1.0  0.03169  0.57011  0.51216  1.0000
  C   C543      1.0  0.99358  0.68296  0.55777  1.0000
  C   C544      1.0  0.01907  0.70997  0.61572  1.0000
  C   C545      1.0  0.28865  0.83747  0.58539  1.0000
  H   H644      1.0  0.02135  0.71504  0.60016  1.0000
  H   H645      1.0  0.14815  0.81211  0.54126  1.0000
  C   C546      1.0  0.16201  0.67964  0.68217  1.0000
  C   C547      1.0  0.26350  0.88245  0.56086  1.0000
  C   C548      1.0  0.24862  0.88765  0.57643  1.0000
  C   C549      1.0  0.25291  0.89754  0.59049  1.0000
  C   C550      1.0  0.27207  0.90245  0.58919  1.0000
  C   C551      1.0  0.28685  0.89757  0.57345  1.0000
  C   C552      1.0  0.28257  0.88761  0.55943  1.0000
  H   H646      1.0  0.23382  0.88404  0.57767  1.0000
  H   H647      1.0  0.24134  0.90128  0.60255  1.0000
  H   H648      1.0  0.19369  0.67474  0.68287  1.0000
  H   H649      1.0  0.29419  0.88371  0.54746  1.0000
  C   C553      1.0  0.18229  0.78400  0.57946  1.0000
  C   C554      1.0  0.17673  0.77176  0.59726  1.0000
  C   C555      1.0  0.16384  0.75773  0.59870  1.0000
  C   C556      1.0  0.15639  0.75585  0.58230  1.0000
  C   C557      1.0  0.16192  0.76813  0.56451  1.0000
  C   C558      1.0  0.17489  0.78205  0.56306  1.0000
  H   H650      1.0  0.18243  0.77311  0.61002  1.0000
  H   H651      1.0  0.15969  0.74838  0.61248  1.0000
  H   H652      1.0  0.15635  0.76669  0.55171  1.0000
  H   H653      1.0  0.17943  0.79105  0.54918  1.0000
  H   H654      1.0  0.27869  0.96206  0.62692  1.0000
  H   H655      1.0  0.99870  0.69734  0.55418  1.0000
  N   N39       1.0  0.07617  0.69757  0.54855  1.0000
  H   H656      1.0  0.13782  0.59394  0.66680  1.0000
  C   C559      1.0  0.12709  0.91115  0.49007  1.0000
  C   C560      1.0  0.00993  0.65417  0.63164  1.0000
  H   H657      1.0  0.24656  0.80684  0.61920  1.0000
  C   C561      1.0  0.12966  0.84131  0.54382  1.0000
  H   H658      1.0  0.02968  0.67568  0.60024  1.0000
  C   C562      1.0  0.15132  0.83850  0.56761  1.0000
  C   C563      1.0  0.12157  0.61288  0.56306  1.0000
  C   C564      1.0  0.13982  0.60489  0.56928  1.0000
  C   C565      1.0  0.14625  0.61326  0.58297  1.0000
  C   C566      1.0  0.13466  0.62995  0.59044  1.0000
  C   C567      1.0  0.11637  0.63823  0.58420  1.0000
  C   C568      1.0  0.10971  0.62954  0.57060  1.0000
  H   H659      1.0  0.14907  0.59207  0.56347  1.0000
  H   H660      1.0  0.16040  0.60683  0.58766  1.0000
  H   H661      1.0  0.10733  0.65110  0.59003  1.0000
  H   H662      1.0  0.09553  0.63562  0.56588  1.0000
  H   H663      1.0  0.15830  0.85140  0.55889  1.0000
  C   C569      1.0  0.01622  0.52459  0.51900  1.0000
  C   C570      1.0  0.02216  0.54281  0.50933  1.0000
  C   C571      1.0  0.02712  0.55611  0.51975  1.0000
  C   C572      1.0  0.02556  0.55145  0.54001  1.0000
  C   C573      1.0  0.01943  0.53333  0.54970  1.0000
  C   C574      1.0  0.01493  0.51984  0.53921  1.0000
  H   H664      1.0  0.01800  0.52976  0.56539  1.0000
  H   H665      1.0  0.01007  0.50598  0.54682  1.0000
  H   H666      1.0  0.17322  0.63158  0.65043  1.0000
  H   H667      1.0  0.27248  0.95690  0.59443  1.0000
  C   C575      1.0  0.13481  0.90854  0.50745  1.0000
  C   C576      1.0  0.15082  0.89321  0.51104  1.0000
  C   C577      1.0  0.15915  0.88059  0.49721  1.0000
  H   H668      1.0  0.11081  0.87118  0.50481  1.0000
  C   C578      1.0  0.19028  0.60616  0.70337  1.0000
  H   H669      1.0  0.12837  0.91838  0.51809  1.0000
  H   H670      1.0  0.17161  0.86887  0.49973  1.0000
  H   H671      1.0  0.00944  0.64096  0.64342  1.0000
  H   H672      1.0  0.16340  0.68808  0.66759  1.0000
  H   H673      1.0  0.23926  0.84702  0.57743  1.0000
  C   C579      1.0  0.29279  0.85689  0.60907  1.0000
  C   C580      1.0  0.14310  0.67637  0.69245  1.0000
  H   H674      1.0  0.13851  0.61378  0.64679  1.0000
  H   H675      1.0  0.11470  0.92294  0.48736  1.0000
  H   H676      1.0  0.16071  0.82452  0.56332  1.0000
  H   H677      1.0  0.30164  0.90122  0.57220  1.0000
  H   H678      1.0  0.12521  0.87221  0.56526  1.0000
  S   S158      1.0  0.12109  0.68515  0.68209  1.0000
  C   C581      1.0  0.11859  0.85816  0.51309  1.0000
  N   N40       1.0  0.16090  0.68381  0.54497  1.0000
  C   C582      1.0  0.15220  0.70441  0.54896  1.0000
  C   C583      1.0  0.15978  0.67035  0.56407  1.0000
  C   C584      1.0  0.18231  0.68342  0.53632  1.0000
  C   C585      1.0  0.15035  0.67796  0.53117  1.0000
  C   C586      1.0  0.14845  0.69031  0.51294  1.0000
  C   C587      1.0  0.14256  0.65962  0.53484  1.0000
  C   C588      1.0  0.13910  0.68480  0.49942  1.0000
  C   C589      1.0  0.13322  0.65427  0.52122  1.0000
  C   C590      1.0  0.13150  0.66681  0.50356  1.0000
  H   H679      1.0  0.15441  0.71609  0.53595  1.0000
  H   H680      1.0  0.13587  0.70565  0.55465  1.0000
  H   H681      1.0  0.15923  0.70876  0.56005  1.0000
  H   H682      1.0  0.14399  0.66961  0.57107  1.0000
  H   H683      1.0  0.16687  0.67561  0.57458  1.0000
  H   H684      1.0  0.16762  0.65481  0.56271  1.0000
  H   H685      1.0  0.18447  0.69429  0.52259  1.0000
  H   H686      1.0  0.19088  0.68737  0.54644  1.0000
  H   H687      1.0  0.18935  0.66825  0.53284  1.0000
  H   H688      1.0  0.15459  0.70414  0.50882  1.0000
  H   H689      1.0  0.14380  0.64889  0.54795  1.0000
  H   H690      1.0  0.98874  0.60739  0.54557  1.0000
  C   C591      1.0  0.29989  0.84905  0.59181  1.0000
  H   H691      1.0  0.02581  0.66196  0.58269  1.0000
  H   H692      1.0  0.08052  0.72071  0.57461  1.0000
  H   H693      1.0  0.11148  0.87123  0.53870  1.0000
  H   H694      1.0  0.06856  0.67543  0.53452  1.0000
  C   C592      1.0  0.17757  0.66106  0.70981  1.0000
  H   H695      1.0  0.22900  0.83732  0.60187  1.0000
  H   H696      1.0  0.29470  0.83263  0.57148  1.0000
  C   C593      1.0  0.05486  0.70542  0.55531  1.0000
  H   H697      1.0  0.02275  0.54670  0.49378  1.0000
  C   C594      1.0  0.07721  0.68812  0.53110  1.0000
  H   H698      1.0  0.09279  0.68160  0.52542  1.0000
  C   C595      1.0  0.25473  0.80293  0.60492  1.0000
  C   C596      1.0  0.08823  0.71397  0.54487  1.0000
  H   H699      1.0  0.07072  0.69893  0.51932  1.0000
  S   S159      1.0  0.03007  0.66796  0.53878  1.0000
  H   H700      1.0  0.10648  0.82281  0.57373  1.0000
  H   H701      1.0  0.05251  0.71102  0.56946  1.0000
  C   C597      1.0  0.08334  0.68152  0.56389  1.0000
  H   H702      1.0  0.09947  0.67561  0.55964  1.0000
  H   H703      1.0  0.07482  0.66874  0.56676  1.0000
  H   H704      1.0  0.08146  0.68682  0.57808  1.0000
  C   C598      1.0  0.26642  0.81400  0.57116  1.0000
  H   H705      1.0  0.12762  0.64006  0.52423  1.0000
  H   H706      1.0  0.18328  0.83569  0.48487  1.0000
  N   N41       1.0  0.13034  0.84036  0.56475  1.0000
  C   C599      1.0  0.06409  0.60676  0.60635  1.0000
  C   C600      1.0  0.11897  0.85841  0.57290  1.0000
  H   H707      1.0  0.12057  0.75692  0.53698  1.0000
  H   H708      1.0  0.12905  0.84292  0.48830  1.0000
  C   C601      1.0  0.07836  0.61511  0.61215  1.0000
  H   H709      1.0  0.04900  0.71798  0.54448  1.0000
  H   H710      1.0  0.25669  0.80499  0.56683  1.0000
  C   C602      1.0  0.14672  0.60568  0.65876  1.0000
  C   C603      1.0  0.12192  0.82257  0.57625  1.0000
  H   H711      1.0  0.11948  0.74009  0.50931  1.0000
  H   H712      1.0  0.03719  0.59957  0.48410  1.0000
  C   C604      1.0  0.99901  0.64753  0.55566  1.0000
  H   H713      1.0  0.14525  0.58403  0.69635  1.0000
  H   H714      1.0  0.06816  0.51797  0.53534  1.0000
  H   H715      1.0  0.09977  0.71341  0.51371  1.0000
  H   H716      1.0  0.12135  0.82185  0.59217  1.0000
  C   C605      1.0  0.26292  0.96970  0.62898  1.0000
  H   H717      1.0  0.26884  0.85967  0.63325  1.0000
  N   N42       1.0  0.01841  0.64793  0.61235  1.0000
  H   H718      1.0  0.12453  0.66237  0.49295  1.0000
  H   H719      1.0  0.23742  0.68128  0.71738  1.0000
  S   S160      1.0  0.30721  0.92607  0.64294  1.0000
  H   H720      1.0  0.16141  0.59813  0.65179  1.0000
  H   H721      1.0  0.05871  0.48701  0.52937  1.0000
  Fe  Fe79      1.0  0.31809  0.95551  0.63019  1.0000
  C   C606      1.0  0.15869  0.65777  0.72005  1.0000
  H   H722      1.0  0.24574  0.79327  0.60040  1.0000
  Fe  Fe80      1.0  0.30580  0.92316  0.61207  1.0000
  H   H723      1.0  0.25347  0.95789  0.63549  1.0000
  H   H724      1.0  0.05797  0.48246  0.49587  1.0000
  H   H725      1.0  0.15245  0.83811  0.58312  1.0000
  H   H726      1.0  0.03432  0.60970  0.60178  1.0000
  C   C607      1.0  0.03873  0.63622  0.61263  1.0000
  C   C608      1.0  0.99962  0.70875  0.62588  1.0000
  C   C609      1.0  0.05378  0.64440  0.61818  1.0000
  C   C610      1.0  0.13516  0.89816  0.47650  1.0000
  C   C611      1.0  0.01970  0.66609  0.59740  1.0000
  H   H727      1.0  0.13808  0.69434  0.48547  1.0000
  H   H728      1.0  0.18268  0.63079  0.68195  1.0000
  H   H729      1.0  0.14854  0.64376  0.64702  1.0000
  C   C612      1.0  0.16230  0.60880  0.68585  1.0000
  S   S161      1.0  0.31438  0.95363  0.59987  1.0000
  C   C613      1.0  0.27451  0.85302  0.62012  1.0000
  H   H730      1.0  0.08441  0.64045  0.62239  1.0000
  C   C614      1.0  0.10047  0.73958  0.55729  1.0000
  H   H731      1.0  0.15854  0.64869  0.66633  1.0000
  H   H732      1.0  0.14790  0.81360  0.50661  1.0000
  H   H733      1.0  0.12185  0.61556  0.69109  1.0000
  H   H734      1.0  0.05073  0.65917  0.62239  1.0000
  C   C615      1.0  0.99636  0.70209  0.64594  1.0000
  H   H735      1.0  0.12697  0.66315  0.71961  1.0000
  C   C616      1.0  0.04452  0.61703  0.60663  1.0000
  C   C617      1.0  0.14154  0.66560  0.71148  1.0000
  H   H736      1.0  0.22823  0.82454  0.58251  1.0000
  H   H737      1.0  0.31383  0.85267  0.58295  1.0000
  S   S162      1.0  0.19949  0.65176  0.72017  1.0000
  C   C618      1.0  0.23768  0.83297  0.58795  1.0000
  H   H738      1.0  0.11976  0.63645  0.67170  1.0000
  H   H739      1.0  0.24912  0.83881  0.62301  1.0000
  H   H740      1.0  0.26938  0.79370  0.60731  1.0000
  H   H741      1.0  0.00230  0.62285  0.61845  1.0000
  C   C619      1.0  0.11105  0.73550  0.52358  1.0000
  C   C620      1.0  0.26328  0.84122  0.61401  1.0000
  C   C621      1.0  0.11157  0.74512  0.53905  1.0000
  N   N43       1.0  0.25757  0.82097  0.59009  1.0000
  H   H742      1.0  0.10285  0.86053  0.57176  1.0000
  C   C622      1.0  0.17866  0.61656  0.68945  1.0000
  C   C623      1.0  0.08890  0.72435  0.56017  1.0000
  H   H743      1.0  0.11979  0.85731  0.58859  1.0000
  H   H744      1.0  0.26822  0.82691  0.55913  1.0000
  H   H745      1.0  0.28121  0.80432  0.57177  1.0000
  C   C624      1.0  0.18599  0.58788  0.71413  1.0000
  C   C625      1.0  0.16980  0.58008  0.71132  1.0000
  C   C626      1.0  0.15797  0.59043  0.69755  1.0000
  H   H746      1.0  0.16633  0.56601  0.72004  1.0000
  C   C627      1.0  0.07320  0.63388  0.61809  1.0000
  H   H747      1.0  0.20253  0.61250  0.70603  1.0000
  H   H748      1.0  0.00865  0.63267  0.59285  1.0000
  H   H749      1.0  0.99442  0.66265  0.63201  1.0000
  H   H750      1.0  0.13128  0.63787  0.69175  1.0000
  C   C628      1.0  0.06841  0.51581  0.52052  1.0000
  S   S163      1.0  0.22706  0.83013  0.47806  1.0000
  C   C629      1.0  0.06263  0.49586  0.49828  1.0000
  H   H751      1.0  0.06829  0.59232  0.60133  1.0000
  C   C630      1.0  0.00401  0.63675  0.60772  1.0000
  H   H752      1.0  0.00476  0.67558  0.59677  1.0000
  C   C631      1.0  0.07304  0.52876  0.48541  1.0000
  H   H753      1.0  0.01867  0.66432  0.63553  1.0000
  C   C632      1.0  0.07339  0.53083  0.50494  1.0000
  C   C633      1.0  0.06305  0.49838  0.51721  1.0000
  H   H754      1.0  0.24723  0.95502  0.60471  1.0000
  H   H755      1.0  0.07698  0.54407  0.50869  1.0000
  H   H756      1.0  0.09663  0.55838  0.48145  1.0000
  C   C634      1.0  0.25743  0.96604  0.59761  1.0000
  H   H757      1.0  0.25249  0.97331  0.58359  1.0000
  C   C635      1.0  0.08339  0.56225  0.47395  1.0000
  H   H758      1.0  0.31349  0.89148  0.71235  1.0000
  H   H759      1.0  0.31774  0.87326  0.68461  1.0000
  H   H760      1.0  0.20085  0.90107  0.47595  1.0000
  C   C636      1.0  0.06751  0.51078  0.48259  1.0000
  C   C637      1.0  0.31960  0.87562  0.71399  1.0000
  H   H761      1.0  0.07063  0.56999  0.48352  1.0000
  H   H762      1.0  0.26156  0.97950  0.64014  1.0000
  C   C638      1.0  0.98789  0.60274  0.53158  1.0000
  H   H763      1.0  0.98880  0.64592  0.60793  1.0000
  S   S164      1.0  0.08680  0.52863  0.87417  1.0000
  H   H764      1.0  0.27439  0.67253  0.75373  1.0000
  Fe  Fe81      1.0  0.09335  0.50834  0.90172  1.0000
  S   S165      1.0  0.13880  0.52260  0.83482  1.0000
  H   H765      1.0  0.04485  0.51929  0.91536  1.0000
  C   C639      1.0  0.20392  0.53630  0.76092  1.0000
  H   H766      1.0  0.22967  0.65323  0.74476  1.0000
  S   S166      1.0  0.29467  0.69820  0.92221  1.0000
  H   H767      1.0  0.06946  0.52045  0.97068  1.0000
  S   S167      1.0  0.31022  0.67185  0.87537  1.0000
  Fe  Fe82      1.0  0.29769  0.69240  0.85036  1.0000
  S   S168      1.0  0.27091  0.68917  0.83707  1.0000
  S   S169      1.0  0.12384  0.49431  0.88805  1.0000
  S   S170      1.0  0.29171  0.71915  0.86616  1.0000
  C   C640      1.0  0.98786  0.56192  0.92412  1.0000
  Fe  Fe83      1.0  0.22274  0.61933  0.78274  1.0000
  S   S171      1.0  0.19461  0.64102  0.77793  1.0000
  S   S172      1.0  0.25087  0.62369  0.79322  1.0000
  Fe  Fe84      1.0  0.20893  0.58601  0.76639  1.0000
  S   S173      1.0  0.18036  0.60555  0.75974  1.0000
  H   H768      1.0  0.26759  0.73442  0.90659  1.0000
  Fe  Fe85      1.0  0.19874  0.63040  0.74895  1.0000
  C   C641      1.0  0.26556  0.68387  0.76193  1.0000
  Fe  Fe86      1.0  0.17867  0.61434  0.78911  1.0000
  S   S174      1.0  0.15158  0.61297  0.81259  1.0000
  S   S175      1.0  0.22775  0.61005  0.75309  1.0000
  S   S176      1.0  0.20622  0.59356  0.79627  1.0000
  H   H769      1.0  0.25634  0.79018  0.90562  1.0000
  H   H770      1.0  0.26082  0.68065  0.72476  1.0000
  H   H771      1.0  0.10053  0.58843  0.95233  1.0000
  C   C642      1.0  0.17184  0.52846  0.75813  1.0000
  C   C643      1.0  0.18361  0.54245  0.75990  1.0000
  C   C644      1.0  0.09998  0.48601  0.80301  1.0000
  H   H772      1.0  0.15625  0.53344  0.75696  1.0000
  H   H773      1.0  0.17705  0.55801  0.76019  1.0000
  C   C645      1.0  0.26552  0.67021  0.82566  1.0000
  C   C646      1.0  0.24612  0.67177  0.82146  1.0000
  C   C647      1.0  0.24131  0.65772  0.81163  1.0000
  C   C648      1.0  0.25586  0.64183  0.80588  1.0000
  C   C649      1.0  0.27523  0.64022  0.81014  1.0000
  C   C650      1.0  0.28004  0.65426  0.81997  1.0000
  H   H774      1.0  0.23475  0.68404  0.82575  1.0000
  H   H775      1.0  0.22634  0.65921  0.80855  1.0000
  H   H776      1.0  0.28663  0.62801  0.80577  1.0000
  H   H777      1.0  0.29502  0.65284  0.82299  1.0000
  H   H778      1.0  0.01970  0.50505  0.96497  1.0000
  H   H779      1.0  0.01917  0.52694  0.91217  1.0000
  C   C651      1.0  0.30007  0.70345  0.95818  1.0000
  C   C652      1.0  0.30624  0.70773  0.93793  1.0000
  Fe  Fe87      1.0  0.07279  0.50351  0.86942  1.0000
  C   C653      1.0  0.29243  0.77212  0.93060  1.0000
  C   C654      1.0  0.08040  0.49108  0.81352  1.0000
  H   H780      1.0  0.11709  0.53139  0.79550  1.0000
  H   H781      1.0  0.23689  0.58912  0.83992  1.0000
  H   H782      1.0  0.25362  0.65261  0.75060  1.0000
  H   H783      1.0  0.00102  0.56916  0.92120  1.0000
  H   H784      1.0  0.26610  0.55563  0.79426  1.0000
  C   C655      1.0  0.26435  0.70552  0.78549  1.0000
  S   S177      1.0  0.08082  0.51979  0.93014  1.0000
  S   S178      1.0  0.16508  0.49128  0.75441  1.0000
  S   S179      1.0  0.04277  0.51273  0.85980  1.0000
  H   H785      1.0  0.12405  0.51155  0.92981  1.0000
  H   H786      1.0  0.15837  0.48146  0.84864  1.0000
  Fe  Fe88      1.0  0.11566  0.51229  0.85999  1.0000
  C   C656      1.0  0.13949  0.54838  0.82816  1.0000
  C   C657      1.0  0.13099  0.56197  0.84108  1.0000
  C   C658      1.0  0.13412  0.58207  0.83603  1.0000
  C   C659      1.0  0.14594  0.58844  0.81822  1.0000
  C   C660      1.0  0.15391  0.57486  0.80522  1.0000
  C   C661      1.0  0.15044  0.55500  0.81004  1.0000
  H   H787      1.0  0.12251  0.55691  0.85512  1.0000
  H   H788      1.0  0.12789  0.59256  0.84612  1.0000
  H   H789      1.0  0.16289  0.57960  0.79145  1.0000
  H   H790      1.0  0.15670  0.54464  0.79984  1.0000
  C   C662      1.0  0.00813  0.50038  0.85791  1.0000
  C   C663      1.0  0.11558  0.50409  0.77312  1.0000
  H   H791      1.0  0.24761  0.75550  0.90934  1.0000
  C   C664      1.0  0.09545  0.51610  0.94850  1.0000
  C   C665      1.0  0.11638  0.51279  0.94451  1.0000
  C   C666      1.0  0.12737  0.51177  0.95951  1.0000
  C   C667      1.0  0.24502  0.69059  0.76071  1.0000
  H   H792      1.0  0.01267  0.52771  0.94866  1.0000
  H   H793      1.0  0.29041  0.68518  0.77562  1.0000
  N   N44       1.0  0.20562  0.53783  0.82955  1.0000
  C   C668      1.0  0.18753  0.54618  0.84257  1.0000
  C   C669      1.0  0.19919  0.53643  0.81114  1.0000
  C   C670      1.0  0.21298  0.51732  0.83888  1.0000
  C   C671      1.0  0.22195  0.55000  0.82557  1.0000
  C   C672      1.0  0.22205  0.56534  0.83651  1.0000
  C   C673      1.0  0.23869  0.54639  0.81065  1.0000
  C   C674      1.0  0.23747  0.57689  0.83203  1.0000
  C   C675      1.0  0.25395  0.55809  0.80628  1.0000
  C   C676      1.0  0.25329  0.57336  0.81688  1.0000
  H   H794      1.0  0.03842  0.51802  0.94954  1.0000
  H   H795      1.0  0.17512  0.53736  0.84452  1.0000
  H   H796      1.0  0.19045  0.54586  0.85749  1.0000
  H   H797      1.0  0.28855  0.69420  0.96394  1.0000
  H   H798      1.0  0.29628  0.75779  0.87722  1.0000
  H   H799      1.0  0.19534  0.55161  0.80267  1.0000
  H   H800      1.0  0.21812  0.51769  0.85271  1.0000
  H   H801      1.0  0.20108  0.50768  0.84237  1.0000
  H   H802      1.0  0.22584  0.50978  0.82927  1.0000
  H   H803      1.0  0.08290  0.56262  0.95177  1.0000
  C   C677      1.0  0.00455  0.49558  0.93460  1.0000
  H   H804      1.0  0.24350  0.70374  0.72285  1.0000
  H   H805      1.0  0.21075  0.52760  0.80147  1.0000
  H   H806      1.0  0.26484  0.58281  0.81309  1.0000
  C   C678      1.0  0.29706  0.75594  0.89301  1.0000
  H   H807      1.0  0.10362  0.51942  0.81728  1.0000
  S   S180      1.0  0.21965  0.55339  0.76232  1.0000
  H   H808      1.0  0.00331  0.51587  0.85207  1.0000
  C   C679      1.0  0.00254  0.48463  0.92018  1.0000
  C   C680      1.0  0.13353  0.49366  0.80020  1.0000
  C   C681      1.0  0.29424  0.77117  0.95006  1.0000
  C   C682      1.0  0.18018  0.50818  0.75760  1.0000
  H   H809      1.0  0.30221  0.73978  0.89788  1.0000
  C   C683      1.0  0.02357  0.51361  0.95012  1.0000
  C   C684      1.0  0.10609  0.52084  0.80111  1.0000
  N   N45       1.0  0.11345  0.50099  0.79463  1.0000
  H   H810      1.0  0.22786  0.51109  0.76151  1.0000
  C   C685      1.0  0.03914  0.48332  0.93776  1.0000
  H   H811      1.0  0.18584  0.52888  0.81385  1.0000
  C   C686      1.0  0.27003  0.74863  0.96018  1.0000
  N   N46       1.0  0.23528  0.68215  0.74796  1.0000
  C   C687      1.0  0.05173  0.56425  0.95294  1.0000
  C   C688      1.0  0.27060  0.78409  0.89670  1.0000
  C   C689      1.0  0.03243  0.57099  0.96193  1.0000
  C   C690      1.0  0.21346  0.68961  0.74941  1.0000
  H   H812      1.0  0.18166  0.56189  0.83644  1.0000
  H   H813      1.0  0.12558  0.51532  0.76614  1.0000
  C   C691      1.0  0.26826  0.74927  0.94075  1.0000
  H   H814      1.0  0.20539  0.68582  0.76454  1.0000
  H   H815      1.0  0.01963  0.56751  0.95732  1.0000
  H   H816      1.0  0.21008  0.56923  0.84813  1.0000
  N   N47       1.0  0.27742  0.76285  0.90460  1.0000
  C   C692      1.0  0.24427  0.71264  0.78448  1.0000
  H   H817      1.0  0.20696  0.48641  0.75876  1.0000
  H   H818      1.0  0.21898  0.71127  0.77256  1.0000
  C   C693      1.0  0.27496  0.69114  0.77427  1.0000
  H   H819      1.0  0.15725  0.64939  0.73466  1.0000
  H   H820      1.0  0.21031  0.70610  0.74461  1.0000
  H   H821      1.0  0.30159  0.78127  0.91971  1.0000
  H   H822      1.0  0.10083  0.50939  0.76833  1.0000
  N   N48       1.0  0.02403  0.50156  0.93465  1.0000
  C   C694      1.0  0.23463  0.70537  0.77230  1.0000
  C   C695      1.0  0.08563  0.51780  0.96750  1.0000
  C   C696      1.0  0.28298  0.75954  0.96482  1.0000
  H   H823      1.0  0.19507  0.57988  0.72491  1.0000
  H   H824      1.0  0.05399  0.55567  0.94110  1.0000
  C   C697      1.0  0.06826  0.56826  0.95926  1.0000
  H   H825      1.0  0.28177  0.79387  0.89642  1.0000
  H   H826      1.0  0.10816  0.59961  0.96985  1.0000
  C   C698      1.0  0.26295  0.75074  0.90157  1.0000
  H   H827      1.0  0.32044  0.65061  0.95263  1.0000
  S   S181      1.0  0.07778  0.48406  0.89757  1.0000
  H   H828      1.0  0.23600  0.72344  0.79368  1.0000
  H   H829      1.0  0.14354  0.50971  0.95632  1.0000
  H   H830      1.0  0.25845  0.73990  0.93824  1.0000
  H   H831      1.0  0.14353  0.50525  0.79537  1.0000
  C   C699      1.0  0.20033  0.50194  0.75922  1.0000
  C   C700      1.0  0.21215  0.51597  0.76075  1.0000
  H   H832      1.0  0.07419  0.50616  0.81620  1.0000
  H   H833      1.0  0.12230  0.49003  0.76709  1.0000
  H   H834      1.0  0.27153  0.71064  0.79552  1.0000
  H   H835      1.0  0.09195  0.52831  0.79589  1.0000
  Fe  Fe89      1.0  0.30662  0.69914  0.88978  1.0000
  H   H836      1.0  0.23994  0.53485  0.80184  1.0000
  H   H837      1.0  0.23208  0.65570  0.76901  1.0000
  H   H838      1.0  0.03375  0.50504  0.90331  1.0000
  C   C701      1.0  0.23780  0.66002  0.75327  1.0000
  H   H839      1.0  0.26806  0.78578  0.88140  1.0000
  C   C702      1.0  0.09487  0.59587  0.96545  1.0000
  C   C703      1.0  0.27935  0.76122  0.92531  1.0000
  H   H840      1.0  0.17670  0.49656  0.81744  1.0000
  C   C704      1.0  0.03067  0.51372  0.91560  1.0000
  C   C705      1.0  0.99533  0.48625  0.86003  1.0000
  S   S182      1.0  0.10098  0.48895  0.85270  1.0000
  H   H841      1.0  0.20653  0.68264  0.73996  1.0000
  H   H842      1.0  0.30481  0.77902  0.95378  1.0000
  H   H843      1.0  0.26191  0.75219  0.88587  1.0000
  C   C706      1.0  0.02723  0.49448  0.86288  1.0000
  H   H844      1.0  0.05399  0.48717  0.93825  1.0000
  H   H845      1.0  0.08514  0.61020  0.96090  1.0000
  C   C707      1.0  0.24470  0.68721  0.72735  1.0000
  H   H846      1.0  0.13237  0.48948  0.81628  1.0000
  H   H847      1.0  0.30895  0.76431  0.89404  1.0000
  C   C708      1.0  0.18156  0.48112  0.82349  1.0000
  H   H848      1.0  0.01502  0.48053  0.90902  1.0000
  H   H849      1.0  0.31590  0.82062  0.76212  1.0000
  H   H850      1.0  0.14165  0.48044  0.79348  1.0000
  H   H851      1.0  0.98810  0.56179  0.89406  1.0000
  H   H852      1.0  0.05357  0.48056  0.82988  1.0000
  C   C709      1.0  0.30831  0.71154  0.97106  1.0000
  Fe  Fe90      1.0  0.55819  0.08880  0.00393  1.0000
  S   S183      1.0  0.52902  0.08403  0.02293  1.0000
  Fe  Fe91      1.0  0.56975  0.11165  0.03212  1.0000
  S   S184      1.0  0.54182  0.10786  0.05393  1.0000
  S   S185      1.0  0.59042  0.13296  0.03309  1.0000
  Fe  Fe92      1.0  0.54710  0.07639  0.04702  1.0000
  S   S186      1.0  0.54540  0.04719  0.06740  1.0000
  Fe  Fe93      1.0  0.52668  0.11578  0.02767  1.0000
  S   S187      1.0  0.50053  0.14051  0.02639  1.0000
  S   S188      1.0  0.57667  0.07943  0.02767  1.0000
  S   S189      1.0  0.55419  0.12137  0.00620  1.0000
  H   H853      1.0  0.48456  0.03908  0.04611  1.0000
  H   H854      1.0  0.42744  0.44785  0.98877  1.0000
  H   H855      1.0  0.50652  0.05863  0.05587  1.0000
  S   S190      1.0  0.38738  0.35659  0.02448  1.0000
  Fe  Fe94      1.0  0.62042  0.17171  0.11503  1.0000
  S   S191      1.0  0.60535  0.18035  0.14409  1.0000
  S   S192      1.0  0.61795  0.14035  0.11121  1.0000
  Fe  Fe95      1.0  0.63285  0.21289  0.09937  1.0000
  S   S193      1.0  0.61853  0.22460  0.12710  1.0000
  S   S194      1.0  0.58229  0.44874  0.97748  1.0000
  Fe  Fe96      1.0  0.63220  0.19489  0.14235  1.0000
  H   H856      1.0  0.53585  0.10919  0.97610  1.0000
  Fe  Fe97      1.0  0.59298  0.20905  0.12666  1.0000
  S   S195      1.0  0.56133  0.22542  0.13196  1.0000
  H   H857      1.0  0.55701  0.20643  0.17374  1.0000
  S   S196      1.0  0.60598  0.19954  0.09779  1.0000
  Fe  Fe98      1.0  0.44011  0.16128  0.12039  1.0000
  S   S197      1.0  0.46168  0.18322  0.11021  1.0000
  S   S198      1.0  0.44408  0.13285  0.10783  1.0000
  Fe  Fe99      1.0  0.41794  0.18201  0.15444  1.0000
  S   S199      1.0  0.43818  0.20536  0.14749  1.0000
  S   S200      1.0  0.39195  0.18484  0.17941  1.0000
  Fe  Fe100     1.0  0.43451  0.20650  0.11644  1.0000
  S   S201      1.0  0.42945  0.23749  0.09871  1.0000
  Fe  Fe101     1.0  0.46347  0.18017  0.14185  1.0000
  S   S202      1.0  0.49330  0.17096  0.15219  1.0000
  S   S203      1.0  0.41269  0.18476  0.12370  1.0000
  S   S204      1.0  0.44348  0.15669  0.15173  1.0000
  C   C710      1.0  0.38282  0.16297  0.19256  1.0000
  C   C711      1.0  0.39002  0.14417  0.18680  1.0000
  H   H858      1.0  0.56472  0.13941  0.09749  1.0000
  C   C712      1.0  0.49181  0.11807  0.14018  1.0000
  H   H859      1.0  0.40148  0.14282  0.17406  1.0000
  H   H860      1.0  0.36218  0.17901  0.21357  1.0000
  H   H861      1.0  0.57774  0.98211  0.00984  1.0000
  C   C713      1.0  0.54258  0.21017  0.13650  1.0000
  C   C714      1.0  0.52310  0.21859  0.13333  1.0000
  C   C715      1.0  0.50789  0.20663  0.13751  1.0000
  C   C716      1.0  0.51202  0.18634  0.14542  1.0000
  C   C717      1.0  0.53146  0.17802  0.14866  1.0000
  C   C718      1.0  0.54677  0.18977  0.14387  1.0000
  H   H862      1.0  0.51975  0.23438  0.12764  1.0000
  H   H863      1.0  0.49289  0.21319  0.13508  1.0000
  H   H864      1.0  0.53467  0.16247  0.15508  1.0000
  H   H865      1.0  0.56169  0.18311  0.14634  1.0000
  C   C719      1.0  0.37768  0.25927  0.06437  1.0000
  C   C720      1.0  0.38450  0.23862  0.06889  1.0000
  C   C721      1.0  0.39998  0.23162  0.07995  1.0000
  C   C722      1.0  0.40892  0.24530  0.08625  1.0000
  C   C723      1.0  0.40189  0.26589  0.08197  1.0000
  C   C724      1.0  0.38620  0.27282  0.07128  1.0000
  H   H866      1.0  0.40539  0.21571  0.08306  1.0000
  H   H867      1.0  0.40863  0.27654  0.08695  1.0000
  H   H868      1.0  0.38093  0.28868  0.06819  1.0000
  C   C725      1.0  0.64688  0.38501  0.02057  1.0000
  C   C726      1.0  0.64251  0.30292  0.08495  1.0000
  C   C727      1.0  0.36531  0.21676  0.13123  1.0000
  C   C728      1.0  0.40276  0.38584  0.99710  1.0000
  H   H869      1.0  0.53777  0.09190  0.10412  1.0000
  H   H870      1.0  0.35600  0.27246  0.15068  1.0000
  C   C729      1.0  0.43346  0.47887  0.98467  1.0000
  H   H871      1.0  0.34526  0.38196  0.97329  1.0000
  C   C730      1.0  0.60294  0.00915  0.99937  1.0000
  C   C731      1.0  0.39770  0.47592  0.98748  1.0000
  H   H872      1.0  0.51129  0.07701  0.98381  1.0000
  H   H873      1.0  0.51074  0.13944  0.09468  1.0000
  H   H874      1.0  0.63647  0.41660  0.02075  1.0000
  C   C732      1.0  0.38542  0.37931  0.00832  1.0000
  C   C733      1.0  0.36677  0.39105  0.00661  1.0000
  C   C734      1.0  0.61890  0.38765  0.99607  1.0000
  S   S205      1.0  0.35919  0.26774  0.04936  1.0000
  H   H875      1.0  0.41724  0.37689  0.99850  1.0000
  H   H876      1.0  0.35341  0.38637  0.01552  1.0000
  Fe  Fe102     1.0  0.34810  0.30111  0.04235  1.0000
  C   C735      1.0  0.48317  0.13811  0.04798  1.0000
  C   C736      1.0  0.47126  0.15526  0.05443  1.0000
  C   C737      1.0  0.45892  0.15370  0.07273  1.0000
  C   C738      1.0  0.45774  0.13487  0.08412  1.0000
  C   C739      1.0  0.46862  0.11760  0.07704  1.0000
  C   C740      1.0  0.48183  0.11926  0.05926  1.0000
  H   H877      1.0  0.47190  0.16981  0.04552  1.0000
  H   H878      1.0  0.45015  0.16703  0.07793  1.0000
  H   H879      1.0  0.46726  0.10296  0.08555  1.0000
  H   H880      1.0  0.49077  0.10594  0.05416  1.0000
  C   C741      1.0  0.59787  0.13457  0.05500  1.0000
  C   C742      1.0  0.60443  0.15216  0.05662  1.0000
  C   C743      1.0  0.61066  0.15401  0.07378  1.0000
  C   C744      1.0  0.61071  0.13813  0.08932  1.0000
  C   C745      1.0  0.60467  0.12027  0.08750  1.0000
  C   C746      1.0  0.59790  0.11861  0.07051  1.0000
  H   H881      1.0  0.60466  0.16445  0.04458  1.0000
  H   H882      1.0  0.61574  0.16761  0.07479  1.0000
  H   H883      1.0  0.60522  0.10775  0.09924  1.0000
  H   H884      1.0  0.59317  0.10487  0.06921  1.0000
  C   C747      1.0  0.52956  0.03325  0.06087  1.0000
  C   C748      1.0  0.53532  0.01255  0.06079  1.0000
  C   C749      1.0  0.49890  0.03170  0.04982  1.0000
  C   C750      1.0  0.51133  0.04278  0.05534  1.0000
  H   H885      1.0  0.54920  0.00498  0.06543  1.0000
  C   C751      1.0  0.54986  0.15776  0.07490  1.0000
  H   H886      1.0  0.58961  0.31075  0.10467  1.0000
  C   C752      1.0  0.33907  0.27241  0.10187  1.0000
  H   H887      1.0  0.55438  0.19200  0.19777  1.0000
  H   H888      1.0  0.49829  0.06657  0.00659  1.0000
  C   C753      1.0  0.38277  0.41566  0.98241  1.0000
  H   H889      1.0  0.48515  0.14180  0.10674  1.0000
  S   S206      1.0  0.32782  0.35818  0.03172  1.0000
  C   C754      1.0  0.43848  0.45758  0.98692  1.0000
  H   H890      1.0  0.52276  0.20346  0.02586  1.0000
  Fe  Fe103     1.0  0.32569  0.33407  0.01512  1.0000
  H   H891      1.0  0.56495  0.00532  0.99899  1.0000
  C   C755      1.0  0.59705  0.99570  0.06843  1.0000
  H   H892      1.0  0.58713  0.03857  0.02036  1.0000
  H   H893      1.0  0.35069  0.24150  0.10421  1.0000
  C   C756      1.0  0.51462  0.17240  0.05355  1.0000
  C   C757      1.0  0.36701  0.12871  0.21373  1.0000
  C   C758      1.0  0.45834  0.44808  0.98624  1.0000
  H   H894      1.0  0.50444  0.17945  0.06555  1.0000
  C   C759      1.0  0.55910  0.15452  0.09126  1.0000
  C   C760      1.0  0.55515  0.19015  0.09079  1.0000
  H   H895      1.0  0.56309  0.03043  0.02909  1.0000
  C   C761      1.0  0.53324  0.12578  0.13510  1.0000
  H   H896      1.0  0.56515  0.24209  0.20227  1.0000
  H   H897      1.0  0.55868  0.99671  0.02471  1.0000
  C   C762      1.0  0.38461  0.23664  0.14208  1.0000
  H   H898      1.0  0.39370  0.24013  0.12741  1.0000
  C   C763      1.0  0.52934  0.20180  0.03932  1.0000
  H   H899      1.0  0.59366  0.00230  0.08168  1.0000
  C   C764      1.0  0.36784  0.16452  0.20904  1.0000
  C   C765      1.0  0.38210  0.12712  0.19734  1.0000
  H   H900      1.0  0.53662  0.04702  0.98176  1.0000
  H   H901      1.0  0.39755  0.28243  0.99178  1.0000
  S   S207      1.0  0.64372  0.23397  0.07210  1.0000
  H   H902      1.0  0.57632  0.18654  0.18009  1.0000
  N   N49       1.0  0.57478  0.21325  0.19271  1.0000
  H   H903      1.0  0.50321  0.15066  0.11647  1.0000
  H   H904      1.0  0.55173  0.23776  0.18476  1.0000
  H   H905      1.0  0.65133  0.15427  0.16722  1.0000
  H   H906      1.0  0.46198  0.43187  0.98729  1.0000
  H   H907      1.0  0.52467  0.03757  0.00589  1.0000
  H   H908      1.0  0.49549  0.10377  0.15006  1.0000
  H   H909      1.0  0.47578  0.11977  0.13864  1.0000
  H   H910      1.0  0.37189  0.20280  0.14014  1.0000
  H   H911      1.0  0.54322  0.20871  0.03508  1.0000
  C   C766      1.0  0.50095  0.13845  0.10919  1.0000
  H   H912      1.0  0.54100  0.20911  0.06875  1.0000
  H   H913      1.0  0.51819  0.21064  0.04939  1.0000
  C   C767      1.0  0.54124  0.10057  0.11387  1.0000
  S   S208      1.0  0.35786  0.31998  0.01365  1.0000
  C   C768      1.0  0.50011  0.10335  0.11106  1.0000
  H   H914      1.0  0.58264  0.10602  0.13043  1.0000
  C   C769      1.0  0.63043  0.36915  0.00175  1.0000
  H   H915      1.0  0.64788  0.28904  0.09370  1.0000
  H   H916      1.0  0.50738  0.10453  0.09548  1.0000
  C   C770      1.0  0.56712  0.10824  0.12859  1.0000
  C   C771      1.0  0.50501  0.01120  0.04902  1.0000
  C   C772      1.0  0.56120  0.09745  0.11654  1.0000
  S   S209      1.0  0.64407  0.19703  0.16941  1.0000
  C   C773      1.0  0.49965  0.06741  0.99054  1.0000
  H   H917      1.0  0.38757  0.11269  0.19264  1.0000
  H   H918      1.0  0.39245  0.22252  0.14966  1.0000
  N   N50       1.0  0.41849  0.29452  0.01693  1.0000
  C   C774      1.0  0.40996  0.30594  0.03328  1.0000
  C   C775      1.0  0.41252  0.27429  0.02279  1.0000
  C   C776      1.0  0.44061  0.29187  0.01433  1.0000
  C   C777      1.0  0.41174  0.30568  0.99875  1.0000
  H   H919      1.0  0.48906  0.45187  0.98301  1.0000
  C   C778      1.0  0.41562  0.32555  0.99163  1.0000
  H   H920      1.0  0.65373  0.35368  0.01778  1.0000
  H   H921      1.0  0.60540  0.18112  0.19273  1.0000
  H   H922      1.0  0.49424  0.01869  0.99487  1.0000
  H   H923      1.0  0.41536  0.32054  0.03117  1.0000
  H   H924      1.0  0.39335  0.30923  0.03506  1.0000
  H   H925      1.0  0.41398  0.29758  0.04737  1.0000
  H   H926      1.0  0.39597  0.27530  0.02514  1.0000
  H   H927      1.0  0.41729  0.26646  0.03678  1.0000
  H   H928      1.0  0.41931  0.26435  0.01173  1.0000
  H   H929      1.0  0.44627  0.28302  0.02756  1.0000
  H   H930      1.0  0.44762  0.28390  0.00177  1.0000
  H   H931      1.0  0.44617  0.30647  0.01159  1.0000
  S   S210      1.0  0.56682  0.07439  0.97692  1.0000
  C   C779      1.0  0.48985  0.03492  0.99595  1.0000
  C   C780      1.0  0.55894  0.23032  0.19761  1.0000
  H   H932      1.0  0.59791  0.01821  0.98592  1.0000
  C   C781      1.0  0.65024  0.33512  0.06751  1.0000
  H   H933      1.0  0.57221  0.08678  0.10898  1.0000
  H   H934      1.0  0.52313  0.13738  0.14203  1.0000
  H   H935      1.0  0.55800  0.13132  0.14656  1.0000
  H   H936      1.0  0.61250  0.41912  0.99837  1.0000
  H   H937      1.0  0.62870  0.35590  0.99651  1.0000
  C   C782      1.0  0.55320  0.12249  0.13772  1.0000
  H   H938      1.0  0.51688  0.15588  0.05834  1.0000
  C   C783      1.0  0.40143  0.40392  0.98403  1.0000
  H   H939      1.0  0.54098  0.17252  0.01915  1.0000
  N   N51       1.0  0.60906  0.29233  0.08498  1.0000
  C   C784      1.0  0.58888  0.30257  0.09275  1.0000
  C   C785      1.0  0.60772  0.28373  0.06773  1.0000
  C   C786      1.0  0.61484  0.27545  0.10033  1.0000
  C   C787      1.0  0.62340  0.30680  0.07914  1.0000
  C   C788      1.0  0.61867  0.32522  0.06674  1.0000
  C   C789      1.0  0.52482  0.03815  0.99004  1.0000
  C   C790      1.0  0.33585  0.29001  0.10982  1.0000
  N   N52       1.0  0.53374  0.18041  0.04821  1.0000
  C   C791      1.0  0.54584  0.19362  0.07439  1.0000
  H   H940      1.0  0.58190  0.31352  0.08141  1.0000
  H   H941      1.0  0.57821  0.29174  0.09869  1.0000
  C   C792      1.0  0.34835  0.25441  0.11149  1.0000
  H   H942      1.0  0.62260  0.27594  0.06148  1.0000
  H   H943      1.0  0.60238  0.29541  0.05594  1.0000
  H   H944      1.0  0.59743  0.27239  0.07149  1.0000
  H   H945      1.0  0.61668  0.28095  0.11355  1.0000
  H   H946      1.0  0.60349  0.26519  0.10489  1.0000
  C   C793      1.0  0.58968  0.22135  0.17647  1.0000
  H   H947      1.0  0.60484  0.32896  0.06101  1.0000
  C   C794      1.0  0.63181  0.33924  0.06129  1.0000
  H   H948      1.0  0.61515  0.01596  0.00242  1.0000
  N   N53       1.0  0.50506  0.04719  0.98459  1.0000
  H   H949      1.0  0.56230  0.17365  0.02987  1.0000
  N   N54       1.0  0.58627  0.00856  0.01620  1.0000
  H   H950      1.0  0.33456  0.27276  0.08797  1.0000
  C   C795      1.0  0.59051  0.00657  0.05148  1.0000
  H   H951      1.0  0.55733  0.20267  0.09700  1.0000
  H   H952      1.0  0.47516  0.04009  0.99097  1.0000
  C   C796      1.0  0.47367  0.45933  0.98371  1.0000
  C   C797      1.0  0.56525  0.19892  0.18583  1.0000
  H   H953      1.0  0.59779  0.23160  0.18123  1.0000
  H   H954      1.0  0.64362  0.98790  0.16854  1.0000
  H   H955      1.0  0.58259  0.22972  0.16386  1.0000
  H   H956      1.0  0.35101  0.41840  0.99266  1.0000
  H   H957      1.0  0.58238  0.02150  0.05256  1.0000
  H   H958      1.0  0.48502  0.07523  0.98655  1.0000
  C   C798      1.0  0.52652  0.11460  0.12348  1.0000
  H   H959      1.0  0.37799  0.22801  0.06359  1.0000
  H   H960      1.0  0.35249  0.24238  0.16941  1.0000
  H   H961      1.0  0.50424  0.08779  0.11857  1.0000
  C   C799      1.0  0.52326  0.00163  0.05446  1.0000
  H   H962      1.0  0.48373  0.10552  0.11104  1.0000
  H   H963      1.0  0.33768  0.31099  0.97884  1.0000
  C   C800      1.0  0.59392  0.99798  0.03412  1.0000
  Fe  Fe104     1.0  0.35940  0.34262  0.03206  1.0000
  N   N55       1.0  0.50528  0.11840  0.12098  1.0000
  C   C801      1.0  0.62130  0.40478  0.00275  1.0000
  H   H964      1.0  0.41489  0.40891  0.97548  1.0000
  S   S211      1.0  0.60273  0.38956  0.97941  1.0000
  H   H965      1.0  0.42305  0.33307  0.99952  1.0000
  S   S212      1.0  0.35197  0.32280  0.06067  1.0000
  H   H966      1.0  0.60948  0.99398  0.99570  1.0000
  C   C802      1.0  0.54702  0.16952  0.03304  1.0000
  H   H967      1.0  0.49248  0.13065  0.14767  1.0000
  S   S213      1.0  0.48955  0.99777  0.04134  1.0000
  H   H968      1.0  0.54841  0.14469  0.06922  1.0000
  C   C803      1.0  0.54322  0.17742  0.06573  1.0000
  H   H969      1.0  0.56962  0.16799  0.11148  1.0000
  C   C804      1.0  0.57654  0.02960  0.01748  1.0000
  C   C805      1.0  0.56192  0.17064  0.09910  1.0000
  H   H970      1.0  0.57131  0.03732  0.00370  1.0000
  H   H971      1.0  0.54881  0.15298  0.03736  1.0000
  H   H972      1.0  0.50662  0.17513  0.04090  1.0000
  C   C806      1.0  0.36546  0.40929  0.99380  1.0000
  N   N56       1.0  0.36400  0.23471  0.14054  1.0000
  H   H973      1.0  0.35864  0.21622  0.16873  1.0000
  H   H974      1.0  0.38495  0.24870  0.15037  1.0000
  C   C807      1.0  0.57128  0.99773  0.01224  1.0000
  C   C808      1.0  0.35452  0.25354  0.12966  1.0000
  H   H975      1.0  0.62898  0.26582  0.09505  1.0000
  H   H976      1.0  0.64185  0.99900  0.20051  1.0000
  C   C809      1.0  0.35236  0.23079  0.16048  1.0000
  C   C810      1.0  0.40150  0.29729  0.98747  1.0000
  H   H977      1.0  0.60123  0.20937  0.17071  1.0000
  C   C811      1.0  0.63496  0.40337  0.01532  1.0000
  H   H978      1.0  0.37511  0.21796  0.11668  1.0000
  H   H979      1.0  0.48743  0.03566  0.01180  1.0000
  S   S214      1.0  0.64865  0.18405  0.11449  1.0000
  C   C812      1.0  0.64472  0.36792  0.01366  1.0000
  H   H980      1.0  0.35029  0.21438  0.12959  1.0000
  C   C813      1.0  0.60050  0.18624  0.20669  1.0000
  H   H981      1.0  0.33968  0.30358  0.13340  1.0000
  H   H982      1.0  0.52782  0.98573  0.05423  1.0000
  C   C814      1.0  0.34205  0.28976  0.12740  1.0000
  H   H983      1.0  0.33650  0.23016  0.15998  1.0000
  C   C815      1.0  0.35130  0.27185  0.13718  1.0000
  H   H984      1.0  0.32863  0.30391  0.10227  1.0000
  H   H985      1.0  0.52946  0.02256  0.98688  1.0000
  H   H986      1.0  0.54674  0.22524  0.20925  1.0000
  H   H987      1.0  0.40074  0.46727  0.97515  1.0000
  H   H988      1.0  0.39746  0.46512  0.00134  1.0000
  H   H989      1.0  0.62777  0.35339  0.05210  1.0000
  C   C816      1.0  0.40963  0.33634  0.97442  1.0000
  C   C817      1.0  0.58491  0.20277  0.20923  1.0000
  H   H990      1.0  0.65084  0.46444  0.00032  1.0000
  C   C818      1.0  0.36001  0.14745  0.21964  1.0000
  C   C819      1.0  0.65399  0.17567  0.18475  1.0000
  H   H991      1.0  0.62249  0.16381  0.21947  1.0000
  H   H992      1.0  0.33586  0.05361  0.32221  1.0000
  S   S215      1.0  0.43461  0.01176  0.37486  1.0000
  H   H993      1.0  0.58597  0.20309  0.25747  1.0000
  H   H994      1.0  0.39859  0.12451  0.28187  1.0000
  S   S216      1.0  0.42654  0.01321  0.33046  1.0000
  H   H995      1.0  0.35022  0.00987  0.35940  1.0000
  H   H996      1.0  0.60728  0.13857  0.28193  1.0000
  C   C820      1.0  0.48934  0.99756  0.34513  1.0000
  Fe  Fe105     1.0  0.41655  0.03212  0.35411  1.0000
  S   S217      1.0  0.41788  0.06494  0.35007  1.0000
  C   C821      1.0  0.64201  0.02146  0.39413  1.0000
  S   S218      1.0  0.38873  0.01903  0.36671  1.0000
  Fe  Fe106     1.0  0.55345  0.04409  0.35276  1.0000
  S   S219      1.0  0.57617  0.01616  0.35681  1.0000
  S   S220      1.0  0.52329  0.04879  0.34371  1.0000
  Fe  Fe107     1.0  0.57994  0.07097  0.36082  1.0000
  S   S221      1.0  0.60510  0.04589  0.36525  1.0000
  S   S222      1.0  0.58109  0.10207  0.36514  1.0000
  Fe  Fe108     1.0  0.59818  0.03578  0.33956  1.0000
  S   S223      1.0  0.62298  0.02892  0.31492  1.0000
  Fe  Fe109     1.0  0.58121  0.02863  0.38236  1.0000
  S   S224      1.0  0.58535  0.01075  0.41171  1.0000
  S   S225      1.0  0.57514  0.06275  0.33334  1.0000
  S   S226      1.0  0.55634  0.05466  0.37998  1.0000
  C   C822      1.0  0.33187  0.08422  0.36615  1.0000
  N   N57       1.0  0.53418  0.00725  0.46988  1.0000
  C   C823      1.0  0.60141  0.11263  0.35074  1.0000
  H   H997      1.0  0.39862  0.03131  0.40268  1.0000
  C   C824      1.0  0.63136  0.11139  0.32589  1.0000
  C   C825      1.0  0.61532  0.10231  0.33728  1.0000
  H   H998      1.0  0.64141  0.05818  0.33073  1.0000
  H   H999      1.0  0.61355  0.08749  0.33555  1.0000
  C   C826      1.0  0.63194  0.00351  0.31359  1.0000
  S   S227      1.0  0.34400  0.12243  0.31983  1.0000
  C   C827      1.0  0.64540  0.99851  0.29707  1.0000
  C   C828      1.0  0.39969  0.11145  0.24960  1.0000
  C   C829      1.0  0.59333  0.02486  0.42612  1.0000
  C   C830      1.0  0.59594  0.04478  0.41909  1.0000
  C   C831      1.0  0.60190  0.05605  0.43082  1.0000
  C   C832      1.0  0.60164  0.02793  0.45709  1.0000
  C   C833      1.0  0.59649  0.01636  0.44505  1.0000
  H   H1000     1.0  0.59329  0.05161  0.40464  1.0000
  H   H1001     1.0  0.60417  0.07136  0.42519  1.0000
  H   H1002     1.0  0.59479  0.00088  0.45051  1.0000
  C   C834      1.0  0.39666  0.08024  0.34241  1.0000
  C   C835      1.0  0.39339  0.10065  0.34385  1.0000
  C   C836      1.0  0.37692  0.11336  0.33724  1.0000
  C   C837      1.0  0.36403  0.10586  0.32856  1.0000
  C   C838      1.0  0.36739  0.08547  0.32686  1.0000
  C   C839      1.0  0.38344  0.07254  0.33426  1.0000
  H   H1003     1.0  0.40357  0.10662  0.35019  1.0000
  H   H1004     1.0  0.37439  0.12911  0.33855  1.0000
  H   H1005     1.0  0.35750  0.07964  0.32012  1.0000
  H   H1006     1.0  0.38589  0.05675  0.33325  1.0000
  H   H1007     1.0  0.55260  0.03257  0.43967  1.0000
  C   C840      1.0  0.48107  0.01753  0.33954  1.0000
  C   C841      1.0  0.49193  0.03297  0.33877  1.0000
  C   C842      1.0  0.51098  0.02863  0.34396  1.0000
  C   C843      1.0  0.51933  0.00867  0.34964  1.0000
  C   C844      1.0  0.34055  0.03855  0.33042  1.0000
  H   H1008     1.0  0.46627  0.02111  0.33576  1.0000
  H   H1009     1.0  0.48539  0.04838  0.33441  1.0000
  C   C845      1.0  0.55942  0.09277  0.44111  1.0000
  C   C846      1.0  0.53694  0.03790  0.44424  1.0000
  C   C847      1.0  0.40437  0.04471  0.42566  1.0000
  C   C848      1.0  0.40160  0.02869  0.41742  1.0000
  H   H1010     1.0  0.65074  0.01015  0.28584  1.0000
  H   H1011     1.0  0.40357  0.05960  0.41718  1.0000
  C   C849      1.0  0.60356  0.13188  0.35279  1.0000
  N   N58       1.0  0.64112  0.06665  0.26069  1.0000
  H   H1012     1.0  0.53610  0.99255  0.44512  1.0000
  Fe  Fe110     1.0  0.40771  0.99676  0.38555  1.0000
  C   C850      1.0  0.55710  0.00843  0.30882  1.0000
  C   C851      1.0  0.48579  0.05509  0.38955  1.0000
  H   H1013     1.0  0.32987  0.01775  0.24054  1.0000
  C   C852      1.0  0.61356  0.12425  0.27719  1.0000
  H   H1014     1.0  0.54910  0.02232  0.31360  1.0000
  H   H1015     1.0  0.32861  0.10019  0.36096  1.0000
  H   H1016     1.0  0.40720  0.99125  0.45568  1.0000
  H   H1017     1.0  0.61382  0.07471  0.29338  1.0000
  C   C853      1.0  0.49693  0.05402  0.45524  1.0000
  H   H1018     1.0  0.65118  0.04990  0.38804  1.0000
  C   C854      1.0  0.52883  0.05632  0.43443  1.0000
  H   H1019     1.0  0.38321  0.11390  0.25013  1.0000
  H   H1020     1.0  0.56818  0.22086  0.23149  1.0000
  Fe  Fe111     1.0  0.33120  0.11203  0.29759  1.0000
  C   C855      1.0  0.34127  0.07750  0.38235  1.0000
  C   C856      1.0  0.60870  0.10659  0.28888  1.0000
  C   C857      1.0  0.39558  0.04588  0.29174  1.0000
  H   H1021     1.0  0.45995  0.04659  0.36977  1.0000
  C   C858      1.0  0.57790  0.00463  0.30595  1.0000
  C   C859      1.0  0.40823  0.04154  0.44474  1.0000
  C   C860      1.0  0.63341  0.13071  0.32805  1.0000
  C   C861      1.0  0.45799  0.00274  0.43382  1.0000
  C   C862      1.0  0.50884  0.06435  0.43987  1.0000
  H   H1022     1.0  0.63298  0.03914  0.25646  1.0000
  H   H1023     1.0  0.57240  0.08400  0.44662  1.0000
  C   C863      1.0  0.52512  0.10973  0.44537  1.0000
  H   H1024     1.0  0.40394  0.12661  0.24779  1.0000
  C   C864      1.0  0.33229  0.04945  0.36195  1.0000
  C   C865      1.0  0.39559  0.10881  0.28421  1.0000
  N   N59       1.0  0.32858  0.03524  0.35026  1.0000
  C   C866      1.0  0.34124  0.04310  0.37897  1.0000
  C   C867      1.0  0.54469  0.10954  0.41293  1.0000
  H   H1025     1.0  0.40487  0.99099  0.22984  1.0000
  C   C868      1.0  0.39945  0.07814  0.27059  1.0000
  C   C869      1.0  0.41100  0.98954  0.27685  1.0000
  C   C870      1.0  0.54152  0.09837  0.45400  1.0000
  H   H1026     1.0  0.34330  0.98734  0.31459  1.0000
  C   C871      1.0  0.57982  0.20852  0.22809  1.0000
  H   H1027     1.0  0.34524  0.08821  0.38977  1.0000
  H   H1028     1.0  0.50265  0.07868  0.43228  1.0000
  H   H1029     1.0  0.43276  0.00379  0.28474  1.0000
  C   C872      1.0  0.33399  0.01380  0.35860  1.0000
  C   C873      1.0  0.54656  0.99415  0.30596  1.0000
  C   C874      1.0  0.60526  0.18232  0.24017  1.0000
  H   H1030     1.0  0.40083  0.10140  0.29804  1.0000
  H   H1031     1.0  0.33114  0.00354  0.34938  1.0000
  H   H1032     1.0  0.48143  0.06040  0.45968  1.0000
  C   C875      1.0  0.62594  0.05389  0.26102  1.0000
  H   H1033     1.0  0.60431  0.98424  0.29870  1.0000
  C   C876      1.0  0.42620  0.00434  0.23844  1.0000
  C   C877      1.0  0.39090  0.07145  0.25678  1.0000
  H   H1034     1.0  0.32524  0.01006  0.37340  1.0000
  C   C878      1.0  0.62679  0.12340  0.25964  1.0000
  H   H1035     1.0  0.35569  0.03110  0.44775  1.0000
  S   S228      1.0  0.32571  0.13417  0.27101  1.0000
  C   C879      1.0  0.61750  0.08799  0.28338  1.0000
  C   C880      1.0  0.36754  0.98718  0.27469  1.0000
  H   H1036     1.0  0.61323  0.17471  0.25189  1.0000
  H   H1037     1.0  0.48094  0.01788  0.37990  1.0000
  C   C881      1.0  0.56093  0.09830  0.42092  1.0000
  H   H1038     1.0  0.61728  0.05017  0.27586  1.0000
  H   H1039     1.0  0.35835  0.05917  0.46387  1.0000
  H   H1040     1.0  0.59286  0.13989  0.36316  1.0000
  H   H1041     1.0  0.54607  0.11384  0.39723  1.0000
  H   H1042     1.0  0.59844  0.10730  0.30258  1.0000
  H   H1043     1.0  0.49307  0.04643  0.37762  1.0000
  C   C882      1.0  0.34585  0.05700  0.38881  1.0000
  H   H1044     1.0  0.64321  0.07627  0.35974  1.0000
  H   H1045     1.0  0.40528  0.98472  0.29202  1.0000
  S   S229      1.0  0.34399  0.08639  0.28126  1.0000
  S   S230      1.0  0.39878  0.98943  0.41801  1.0000
  H   H1046     1.0  0.64533  0.98967  0.36201  1.0000
  H   H1047     1.0  0.40935  0.06812  0.29876  1.0000
  S   S231      1.0  0.41243  0.06195  0.45414  1.0000
  C   C883      1.0  0.60421  0.04786  0.45002  1.0000
  H   H1048     1.0  0.53032  0.99704  0.30864  1.0000
  C   C884      1.0  0.63538  0.10490  0.25379  1.0000
  H   H1049     1.0  0.51427  0.12411  0.41879  1.0000
  H   H1050     1.0  0.45096  0.03355  0.43629  1.0000
  C   C885      1.0  0.62536  0.98827  0.32817  1.0000
  H   H1051     1.0  0.53821  0.06441  0.42259  1.0000
  H   H1052     1.0  0.35339  0.05181  0.40131  1.0000
  H   H1053     1.0  0.43786  0.05170  0.38728  1.0000
  C   C886      1.0  0.45609  0.06502  0.41173  1.0000
  N   N60       1.0  0.46524  0.05089  0.39775  1.0000
  Fe  Fe112     1.0  0.33565  0.10796  0.25493  1.0000
  C   C887      1.0  0.50858  0.99310  0.35000  1.0000
  S   S232      1.0  0.60929  0.06311  0.46516  1.0000
  C   C888      1.0  0.52683  0.11525  0.42512  1.0000
  H   H1054     1.0  0.33902  0.02748  0.32138  1.0000
  C   C889      1.0  0.45790  0.02311  0.42636  1.0000
  C   C890      1.0  0.46607  0.98820  0.42191  1.0000
  C   C891      1.0  0.45324  0.05532  0.38182  1.0000
  H   H1055     1.0  0.45169  0.07140  0.37505  1.0000
  H   H1056     1.0  0.37904  0.10954  0.28664  1.0000
  H   H1057     1.0  0.39729  0.03591  0.30531  1.0000
  H   H1058     1.0  0.34533  0.02748  0.38473  1.0000
  C   C892      1.0  0.40924  0.02225  0.45562  1.0000
  C   C893      1.0  0.61947  0.14088  0.34149  1.0000
  H   H1059     1.0  0.45592  0.08094  0.40468  1.0000
  H   H1060     1.0  0.58606  0.01557  0.30862  1.0000
  C   C894      1.0  0.47462  0.01421  0.39506  1.0000
  C   C895      1.0  0.32749  0.07046  0.35602  1.0000
  H   H1061     1.0  0.35674  0.03712  0.33107  1.0000
  S   S233      1.0  0.35753  0.10690  0.22662  1.0000
  C   C896      1.0  0.40225  0.06444  0.28789  1.0000
  H   H1062     1.0  0.44020  0.06343  0.41764  1.0000
  H   H1063     1.0  0.44634  0.01681  0.25064  1.0000
  C   C897      1.0  0.61044  0.17620  0.22195  1.0000
  H   H1064     1.0  0.57480  0.09390  0.41131  1.0000
  H   H1065     1.0  0.61512  0.06146  0.25118  1.0000
  H   H1066     1.0  0.43256  0.08770  0.27953  1.0000
  C   C898      1.0  0.38439  0.05280  0.26073  1.0000
  C   C899      1.0  0.38643  0.04021  0.27830  1.0000
  H   H1067     1.0  0.62099  0.15580  0.34319  1.0000
  H   H1068     1.0  0.53400  0.00524  0.35376  1.0000
  H   H1069     1.0  0.64545  0.05501  0.29031  1.0000
  H   H1070     1.0  0.64581  0.10543  0.24022  1.0000
  H   H1071     1.0  0.40711  0.10519  0.23612  1.0000
  C   C900      1.0  0.46600  0.02948  0.40657  1.0000
  C   C901      1.0  0.40631  0.00619  0.44739  1.0000
  H   H1072     1.0  0.37727  0.04839  0.25023  1.0000
  H   H1073     1.0  0.38092  0.02601  0.28157  1.0000
  H   H1074     1.0  0.48591  0.07113  0.38304  1.0000
  H   H1075     1.0  0.49555  0.05114  0.40088  1.0000
  S   S234      1.0  0.65294  0.14293  0.31423  1.0000
  C   C902      1.0  0.63996  0.00454  0.38705  1.0000
  N   N61       1.0  0.40537  0.09828  0.26749  1.0000
  H   H1076     1.0  0.45123  0.99825  0.44879  1.0000
  C   C903      1.0  0.63119  0.08654  0.26567  1.0000
  H   H1077     1.0  0.32271  0.04670  0.25868  1.0000
  C   C904      1.0  0.58993  0.19838  0.24325  1.0000
  C   C905      1.0  0.52514  0.02668  0.45964  1.0000
  H   H1078     1.0  0.36998  0.99268  0.28763  1.0000
  C   C906      1.0  0.40248  0.00942  0.42830  1.0000
  H   H1079     1.0  0.46436  0.06263  0.42413  1.0000
  H   H1080     1.0  0.34834  0.14891  0.23216  1.0000
  C   C907      1.0  0.40261  0.98514  0.26169  1.0000
  C   C908      1.0  0.65404  0.06763  0.24119  1.0000
  C   C909      1.0  0.54551  0.99411  0.45563  1.0000
  H   H1081     1.0  0.38856  0.08053  0.24300  1.0000
  H   H1082     1.0  0.55910  0.99981  0.44704  1.0000
  H   H1083     1.0  0.51085  0.11460  0.45393  1.0000
  H   H1084     1.0  0.48050  0.98268  0.39315  1.0000
  C   C910      1.0  0.41056  0.99311  0.24229  1.0000
  H   H1085     1.0  0.36336  0.00061  0.26393  1.0000
  H   H1086     1.0  0.64538  0.07515  0.22944  1.0000
  H   H1087     1.0  0.63293  0.99272  0.39677  1.0000
  Fe  Fe113     1.0  0.39997  0.99810  0.34475  1.0000
  H   H1088     1.0  0.37517  0.98055  0.23854  1.0000
  C   C911      1.0  0.47450  0.99393  0.40259  1.0000
  C   C912      1.0  0.32346  0.01573  0.25586  1.0000
  H   H1089     1.0  0.63091  0.13711  0.25072  1.0000
  C   C913      1.0  0.43425  0.00808  0.25368  1.0000
  H   H1090     1.0  0.43245  0.11096  0.26322  1.0000
  H   H1091     1.0  0.43206  0.01026  0.22354  1.0000
  S   S235      1.0  0.37757  0.99574  0.32638  1.0000
  C   C914      1.0  0.42736  0.09609  0.26595  1.0000
  H   H1092     1.0  0.64194  0.10364  0.31531  1.0000
  H   H1093     1.0  0.43521  0.08786  0.25378  1.0000
  C   C915      1.0  0.42665  0.00071  0.27285  1.0000
  C   C916      1.0  0.65027  0.03718  0.38156  1.0000
  H   H1094     1.0  0.63676  0.02257  0.40943  1.0000
  H   H1095     1.0  0.36081  0.99682  0.46407  1.0000
  C   C917      1.0  0.58825  0.98660  0.30014  1.0000
  H   H1096     1.0  0.61513  0.99203  0.34110  1.0000
  Fe  Fe114     1.0  0.44256  0.99153  0.35238  1.0000
  H   H1097     1.0  0.32137  0.16115  0.33132  1.0000
  C   C918      1.0  0.50488  0.03551  0.46509  1.0000
  H   H1098     1.0  0.41227  0.01968  0.47029  1.0000
  C   C919      1.0  0.35848  0.02811  0.46263  1.0000
  C   C920      1.0  0.64678  0.00294  0.36746  1.0000
  C   C921      1.0  0.65394  0.05666  0.27528  1.0000
  Fe  Fe115     1.0  0.44521  0.03904  0.51393  1.0000
  S   S236      1.0  0.44424  0.06661  0.49141  1.0000
  S   S237      1.0  0.47458  0.01966  0.51813  1.0000
  Fe  Fe116     1.0  0.40053  0.04623  0.52795  1.0000
  S   S238      1.0  0.39574  0.07454  0.50665  1.0000
  S   S239      1.0  0.37366  0.03812  0.54957  1.0000
  Fe  Fe117     1.0  0.41713  0.05715  0.48527  1.0000
  C   C922      1.0  0.33566  0.00437  0.62563  1.0000
  Fe  Fe118     1.0  0.42306  0.08126  0.51483  1.0000
  S   S240      1.0  0.42622  0.11167  0.51950  1.0000
  S   S241      1.0  0.41974  0.02804  0.50591  1.0000
  S   S242      1.0  0.42622  0.05447  0.53791  1.0000
  Fe  Fe119     1.0  0.56698  0.05341  0.53019  1.0000
  S   S243      1.0  0.57535  0.03525  0.50598  1.0000
  S   S244      1.0  0.53521  0.06902  0.53636  1.0000
  Fe  Fe120     1.0  0.60934  0.04638  0.53855  1.0000
  S   S245      1.0  0.62152  0.02770  0.51462  1.0000
  H   H1099     1.0  0.41544  0.03098  0.62168  1.0000
  Fe  Fe121     1.0  0.60197  0.05087  0.49698  1.0000
  H   H1100     1.0  0.35852  0.11788  0.54072  1.0000
  Fe  Fe122     1.0  0.59390  0.01369  0.52559  1.0000
  S   S246      1.0  0.59230  0.07108  0.51976  1.0000
  S   S247      1.0  0.58306  0.03028  0.55091  1.0000
  H   H1101     1.0  0.65274  0.08321  0.51869  1.0000
  H   H1102     1.0  0.51902  0.11711  0.48418  1.0000
  H   H1103     1.0  0.50779  0.99322  0.47526  1.0000
  C   C923      1.0  0.64048  0.07110  0.58177  1.0000
  H   H1104     1.0  0.60929  0.08937  0.54883  1.0000
  C   C924      1.0  0.54812  0.01108  0.48167  1.0000
  C   C925      1.0  0.35720  0.00584  0.57014  1.0000
  C   C926      1.0  0.36900  0.14318  0.70917  1.0000
  C   C927      1.0  0.63346  0.17351  0.71078  1.0000
  C   C928      1.0  0.37402  0.17812  0.70375  1.0000
  C   C929      1.0  0.36387  0.18164  0.68777  1.0000
  C   C930      1.0  0.35631  0.16608  0.68255  1.0000
  C   C931      1.0  0.35935  0.14658  0.69285  1.0000
  H   H1105     1.0  0.51402  0.00754  0.52802  1.0000
  H   H1106     1.0  0.36178  0.19655  0.67942  1.0000
  H   H1107     1.0  0.34805  0.16918  0.67060  1.0000
  C   C932      1.0  0.38840  0.05537  0.58659  1.0000
  H   H1108     1.0  0.34301  0.13509  0.56843  1.0000
  H   H1109     1.0  0.50806  0.09515  0.48390  1.0000
  C   C933      1.0  0.44038  0.08213  0.57755  1.0000
  C   C934      1.0  0.40234  0.04003  0.61551  1.0000
  H   H1110     1.0  0.34235  0.99115  0.61908  1.0000
  H   H1111     1.0  0.61655  0.04402  0.61411  1.0000
  S   S248      1.0  0.36470  0.10778  0.63572  1.0000
  H   H1112     1.0  0.52117  0.09580  0.50285  1.0000
  C   C935      1.0  0.51922  0.99588  0.48314  1.0000
  C   C936      1.0  0.41043  0.12105  0.53951  1.0000
  C   C937      1.0  0.41068  0.14075  0.54174  1.0000
  C   C938      1.0  0.39816  0.14908  0.55721  1.0000
  C   C939      1.0  0.38540  0.13773  0.57076  1.0000
  C   C940      1.0  0.38520  0.11783  0.56883  1.0000
  C   C941      1.0  0.39767  0.10951  0.55306  1.0000
  H   H1113     1.0  0.42047  0.14970  0.53130  1.0000
  H   H1114     1.0  0.39830  0.16446  0.55858  1.0000
  H   H1115     1.0  0.37530  0.10902  0.57929  1.0000
  H   H1116     1.0  0.39747  0.09427  0.55133  1.0000
  C   C942      1.0  0.37388  0.01238  0.55764  1.0000
  C   C943      1.0  0.60961  0.00379  0.63016  1.0000
  H   H1117     1.0  0.34488  0.01666  0.57569  1.0000
  H   H1118     1.0  0.34775  0.13692  0.52358  1.0000
  H   H1119     1.0  0.54078  0.06405  0.49533  1.0000
  H   H1120     1.0  0.61793  0.98834  0.63357  1.0000
  S   S249      1.0  0.36972  0.14945  0.58945  1.0000
  C   C944      1.0  0.33501  0.09024  0.56361  1.0000
  C   C945      1.0  0.49103  0.03328  0.52405  1.0000
  C   C946      1.0  0.48560  0.05386  0.52463  1.0000
  C   C947      1.0  0.49903  0.06467  0.52894  1.0000
  C   C948      1.0  0.51805  0.05501  0.53238  1.0000
  C   C949      1.0  0.52346  0.03442  0.53190  1.0000
  C   C950      1.0  0.50989  0.02354  0.52794  1.0000
  H   H1121     1.0  0.47100  0.06148  0.52188  1.0000
  H   H1122     1.0  0.49472  0.08057  0.52941  1.0000
  H   H1123     1.0  0.53799  0.02679  0.53489  1.0000
  C   C951      1.0  0.45860  0.07068  0.57120  1.0000
  C   C952      1.0  0.33043  0.07373  0.57761  1.0000
  C   C953      1.0  0.40819  0.13648  0.62601  1.0000
  C   C954      1.0  0.42430  0.05195  0.58655  1.0000
  H   H1124     1.0  0.39862  0.18720  0.61627  1.0000
  H   H1125     1.0  0.43918  0.09830  0.57602  1.0000
  C   C955      1.0  0.41840  0.17601  0.64861  1.0000
  H   H1126     1.0  0.58176  0.99202  0.61549  1.0000
  C   C956      1.0  0.56657  0.05265  0.59475  1.0000
  C   C957      1.0  0.64611  0.15742  0.70274  1.0000
  C   C958      1.0  0.33740  0.03831  0.63047  1.0000
  C   C959      1.0  0.61821  0.08919  0.55978  1.0000
  H   H1127     1.0  0.34322  0.11172  0.52542  1.0000
  H   H1128     1.0  0.39349  0.01651  0.59221  1.0000
  S   S250      1.0  0.35139  0.05833  0.62608  1.0000
  C   C960      1.0  0.62919  0.07114  0.56739  1.0000
  C   C961      1.0  0.52125  0.10041  0.48690  1.0000
  H   H1129     1.0  0.36572  0.05241  0.49742  1.0000
  H   H1130     1.0  0.63510  0.01868  0.59868  1.0000
  S   S251      1.0  0.35186  0.12593  0.68573  1.0000
  C   C962      1.0  0.62630  0.00748  0.59669  1.0000
  H   H1131     1.0  0.63571  0.99256  0.59957  1.0000
  C   C963      1.0  0.34571  0.02104  0.62195  1.0000
  C   C964      1.0  0.63131  0.10720  0.57980  1.0000
  H   H1132     1.0  0.59511  0.00508  0.64034  1.0000
  H   H1133     1.0  0.40320  0.00329  0.54182  1.0000
  H   H1134     1.0  0.52629  0.98099  0.49004  1.0000
  H   H1135     1.0  0.61873  0.01394  0.63360  1.0000
  H   H1136     1.0  0.38304  0.06902  0.59359  1.0000
  H   H1137     1.0  0.37522  0.04746  0.58966  1.0000
  H   H1138     1.0  0.41967  0.18803  0.63644  1.0000
  C   C965      1.0  0.54178  0.06963  0.47945  1.0000
  H   H1139     1.0  0.61094  0.12118  0.55996  1.0000
  C   C966      1.0  0.46015  0.04993  0.57301  1.0000
  H   H1140     1.0  0.36009  0.02038  0.61255  1.0000
  N   N62       1.0  0.40082  0.15673  0.63155  1.0000
  C   C967      1.0  0.40553  0.17167  0.61387  1.0000
  C   C968      1.0  0.37881  0.15922  0.63728  1.0000
  C   C969      1.0  0.40817  0.14460  0.66556  1.0000
  H   H1141     1.0  0.42196  0.17100  0.60917  1.0000
  H   H1142     1.0  0.39941  0.16897  0.60134  1.0000
  H   H1143     1.0  0.40255  0.13482  0.61281  1.0000
  H   H1144     1.0  0.41222  0.02333  0.57201  1.0000
  H   H1145     1.0  0.37400  0.14734  0.64936  1.0000
  H   H1146     1.0  0.37281  0.17399  0.64216  1.0000
  H   H1147     1.0  0.37131  0.15853  0.62504  1.0000
  H   H1148     1.0  0.40056  0.13191  0.66694  1.0000
  C   C970      1.0  0.57449  0.06877  0.59774  1.0000
  S   S252      1.0  0.59277  0.98108  0.52776  1.0000
  H   H1149     1.0  0.63737  0.16963  0.65608  1.0000
  H   H1150     1.0  0.59460  0.99463  0.59044  1.0000
  H   H1151     1.0  0.42482  0.13351  0.62290  1.0000
  H   H1152     1.0  0.55731  0.11391  0.47808  1.0000
  H   H1153     1.0  0.39165  0.06010  0.57057  1.0000
  H   H1154     1.0  0.41374  0.13594  0.69505  1.0000
  H   H1155     1.0  0.47439  0.04109  0.56800  1.0000
  Fe  Fe123     1.0  0.35130  0.13149  0.61374  1.0000
  H   H1156     1.0  0.37132  0.01827  0.51462  1.0000
  C   C971      1.0  0.41550  0.14687  0.68188  1.0000
  H   H1157     1.0  0.43135  0.19168  0.66544  1.0000
  C   C972      1.0  0.40958  0.15900  0.64830  1.0000
  C   C973      1.0  0.63635  0.17062  0.67130  1.0000
  C   C974      1.0  0.55690  0.09754  0.48229  1.0000
  H   H1158     1.0  0.40304  0.12431  0.63754  1.0000
  N   N63       1.0  0.60652  0.00852  0.60957  1.0000
  S   S253      1.0  0.62994  0.04843  0.55891  1.0000
  C   C975      1.0  0.59227  0.06533  0.60510  1.0000
  Fe  Fe124     1.0  0.34129  0.09015  0.63295  1.0000
  S   S254      1.0  0.33011  0.11303  0.60896  1.0000
  C   C976      1.0  0.61919  0.10718  0.56607  1.0000
  H   H1159     1.0  0.59863  0.07795  0.60705  1.0000
  H   H1160     1.0  0.34102  0.05986  0.57853  1.0000
  H   H1161     1.0  0.39910  0.05475  0.62082  1.0000
  H   H1162     1.0  0.62001  0.98901  0.55075  1.0000
  H   H1163     1.0  0.61533  0.19825  0.67013  1.0000
  C   C977      1.0  0.57652  0.03299  0.59890  1.0000
  H   H1164     1.0  0.55286  0.05544  0.58873  1.0000
  H   H1165     1.0  0.38916  0.03235  0.62187  1.0000
  H   H1166     1.0  0.37116  0.12825  0.71747  1.0000
  C   C978      1.0  0.34478  0.12311  0.53404  1.0000
  H   H1167     1.0  0.56702  0.08401  0.59408  1.0000
  H   H1168     1.0  0.42856  0.16599  0.69482  1.0000
  C   C979      1.0  0.39004  0.99833  0.55100  1.0000
  C   C980      1.0  0.42356  0.07292  0.58552  1.0000
  C   C981      1.0  0.62240  0.18835  0.69903  1.0000
  C   C982      1.0  0.42385  0.16378  0.68178  1.0000
  C   C983      1.0  0.40789  0.02252  0.58809  1.0000
  Fe  Fe125     1.0  0.34141  0.12278  0.65781  1.0000
  C   C984      1.0  0.59503  0.02900  0.60589  1.0000
  C   C985      1.0  0.64771  0.15597  0.68296  1.0000
  C   C986      1.0  0.42532  0.17830  0.66519  1.0000
  H   H1169     1.0  0.56967  0.02128  0.59596  1.0000
  C   C987      1.0  0.36754  0.02040  0.50021  1.0000
  S   S255      1.0  0.63345  0.12998  0.58660  1.0000
  H   H1170     1.0  0.62462  0.01035  0.58107  1.0000
  C   C988      1.0  0.44335  0.04059  0.58070  1.0000
  H   H1171     1.0  0.54017  0.02074  0.49269  1.0000
  C   C989      1.0  0.64177  0.08905  0.58777  1.0000
  C   C990      1.0  0.62386  0.18681  0.67930  1.0000
  H   H1172     1.0  0.47157  0.07787  0.56481  1.0000
  H   H1173     1.0  0.40992  0.08247  0.59054  1.0000
  C   C991      1.0  0.60245  0.04579  0.60909  1.0000
  N   N64       1.0  0.40609  0.04255  0.59397  1.0000
  H   H1174     1.0  0.44557  0.02452  0.58142  1.0000
  H   H1175     1.0  0.41880  0.01101  0.59538  1.0000
  H   H1176     1.0  0.55554  0.09388  0.49847  1.0000
  H   H1177     1.0  0.49484  0.02849  0.47700  1.0000
  C   C992      1.0  0.36643  0.00384  0.49135  1.0000
  S   S256      1.0  0.60729  0.20943  0.70823  1.0000
  H   H1178     1.0  0.65085  0.21717  0.69031  1.0000
  S   S257      1.0  0.38420  0.19811  0.70899  1.0000
  H   H1179     1.0  0.34931  0.08810  0.55414  1.0000
  C   C993      1.0  0.36156  0.00832  0.47226  1.0000
  C   C994      1.0  0.36437  0.04009  0.49047  1.0000
  H   H1180     1.0  0.57179  0.08945  0.47652  1.0000
  C   C995      1.0  0.36002  0.04394  0.47165  1.0000
  S   S258      1.0  0.32928  0.14777  0.63569  1.0000
  C   C996      1.0  0.35621  0.98528  0.57518  1.0000
  H   H1181     1.0  0.33440  0.15563  0.55084  1.0000
  C   C997      1.0  0.59659  0.99252  0.60596  1.0000
  H   H1182     1.0  0.51140  0.00382  0.49546  1.0000
  H   H1183     1.0  0.39479  0.98968  0.51380  1.0000
  H   H1184     1.0  0.64820  0.05713  0.58836  1.0000
  N   N65       1.0  0.54023  0.09176  0.47528  1.0000
  H   H1185     1.0  0.52948  0.06462  0.47458  1.0000
  H   H1186     1.0  0.55543  0.99690  0.48968  1.0000
  H   H1187     1.0  0.56032  0.01879  0.47252  1.0000
  N   N66       1.0  0.32668  0.12709  0.54897  1.0000
  C   C998      1.0  0.33045  0.14159  0.56032  1.0000
  H   H1188     1.0  0.65093  0.08887  0.59851  1.0000
  H   H1189     1.0  0.35910  0.99066  0.53050  1.0000
  H   H1190     1.0  0.64972  0.03985  0.62986  1.0000
  C   C999      1.0  0.37620  0.15884  0.71466  1.0000
  N   N67       1.0  0.37090  0.98306  0.50165  1.0000
  H   H1191     1.0  0.59754  0.15523  0.71729  1.0000
  H   H1192     1.0  0.55625  0.06199  0.47215  1.0000
  H   H1193     1.0  0.40257  0.98060  0.49110  1.0000
  H   H1194     1.0  0.34139  0.98366  0.51878  1.0000
  H   H1195     1.0  0.34310  0.98040  0.58451  1.0000
  H   H1196     1.0  0.60391  0.02132  0.47175  1.0000
  C   C1000     1.0  0.32165  0.10881  0.56251  1.0000
  C   C1001     1.0  0.35733  0.98053  0.52071  1.0000
  H   H1197     1.0  0.42802  0.29547  0.75319  1.0000
  Fe  Fe126     1.0  0.51103  0.12070  0.84219  1.0000
  S   S259      1.0  0.52546  0.09090  0.83369  1.0000
  S   S260      1.0  0.50091  0.14575  0.81952  1.0000
  Fe  Fe127     1.0  0.52131  0.10942  0.88320  1.0000
  S   S261      1.0  0.53679  0.07872  0.87797  1.0000
  S   S262      1.0  0.51858  0.12182  0.91096  1.0000
  Fe  Fe128     1.0  0.54985  0.09445  0.84877  1.0000
  S   S263      1.0  0.58248  0.08826  0.83626  1.0000
  Fe  Fe129     1.0  0.51075  0.07853  0.86362  1.0000
  S   S264      1.0  0.49243  0.05361  0.87142  1.0000
  S   S265      1.0  0.53639  0.12517  0.85521  1.0000
  S   S266      1.0  0.49415  0.10831  0.87086  1.0000
  C   C1002     1.0  0.33625  0.31074  0.94868  1.0000
  Fe  Fe130     1.0  0.42514  0.42619  0.90255  1.0000
  S   S267      1.0  0.42819  0.41144  0.93299  1.0000
  S   S268      1.0  0.42329  0.40770  0.88009  1.0000
  Fe  Fe131     1.0  0.40749  0.43861  0.94201  1.0000
  Fe  Fe132     1.0  0.45228  0.43020  0.92981  1.0000
  H   H1198     1.0  0.63237  0.17452  0.72601  1.0000
  S   S269      1.0  0.40217  0.45184  0.91185  1.0000
  S   S270      1.0  0.45113  0.44276  0.89840  1.0000
  Fe  Fe133     1.0  0.56896  0.45794  0.95008  1.0000
  H   H1199     1.0  0.57987  0.45196  0.89414  1.0000
  Fe  Fe134     1.0  0.32910  0.33011  0.88191  1.0000
  S   S271      1.0  0.62466  0.43461  0.94875  1.0000
  H   H1200     1.0  0.58695  0.30140  0.78529  1.0000
  Fe  Fe135     1.0  0.60775  0.44458  0.92389  1.0000
  C   C1003     1.0  0.51831  0.22251  0.75210  1.0000
  S   S272      1.0  0.58167  0.42916  0.93832  1.0000
  Fe  Fe136     1.0  0.60643  0.19033  0.78128  1.0000
  S   S273      1.0  0.58462  0.18878  0.76235  1.0000
  S   S274      1.0  0.62418  0.16396  0.79763  1.0000
  Fe  Fe137     1.0  0.60376  0.23557  0.77182  1.0000
  S   S275      1.0  0.61758  0.26226  0.77501  1.0000
  Fe  Fe138     1.0  0.56657  0.21566  0.77485  1.0000
  C   C1004     1.0  0.60834  0.39145  0.88476  1.0000
  S   S276      1.0  0.58744  0.21537  0.79585  1.0000
  S   S277      1.0  0.62406  0.21040  0.75839  1.0000
  S   S278      1.0  0.42336  0.20225  0.77918  1.0000
  S   S279      1.0  0.38467  0.19004  0.76616  1.0000
  Fe  Fe139     1.0  0.39365  0.21795  0.77185  1.0000
  S   S280      1.0  0.37218  0.23446  0.79454  1.0000
  Fe  Fe140     1.0  0.41550  0.17521  0.77084  1.0000
  S   S281      1.0  0.42129  0.14528  0.78980  1.0000
  H   H1201     1.0  0.50442  0.98088  0.91626  1.0000
  S   S282      1.0  0.35553  0.34302  0.86362  1.0000
  S   S283      1.0  0.33801  0.40126  0.86430  1.0000
  C   C1005     1.0  0.50954  0.02929  0.93601  1.0000
  H   H1202     1.0  0.62017  0.23939  0.81409  1.0000
  H   H1203     1.0  0.55851  0.14552  0.94849  1.0000
  Fe  Fe141     1.0  0.34589  0.33451  0.83816  1.0000
  S   S284      1.0  0.36692  0.32291  0.81209  1.0000
  H   H1204     1.0  0.63233  0.34891  0.93801  1.0000
  H   H1205     1.0  0.40421  0.33508  0.89382  1.0000
  H   H1206     1.0  0.59917  0.32540  0.79912  1.0000
  C   C1006     1.0  0.37169  0.25890  0.79929  1.0000
  C   C1007     1.0  0.38166  0.27301  0.78597  1.0000
  C   C1008     1.0  0.37996  0.29262  0.79005  1.0000
  C   C1009     1.0  0.36863  0.29813  0.80756  1.0000
  C   C1010     1.0  0.35882  0.28395  0.82090  1.0000
  C   C1011     1.0  0.36024  0.26449  0.81669  1.0000
  H   H1207     1.0  0.38998  0.26904  0.77226  1.0000
  H   H1208     1.0  0.38708  0.30372  0.77946  1.0000
  H   H1209     1.0  0.35012  0.28796  0.83446  1.0000
  H   H1210     1.0  0.35236  0.25371  0.82701  1.0000
  H   H1211     1.0  0.61861  0.29921  0.85740  1.0000
  C   C1012     1.0  0.39556  0.30824  0.97026  1.0000
  H   H1212     1.0  0.54483  0.00949  0.83506  1.0000
  H   H1213     1.0  0.49412  0.20518  0.79693  1.0000
  H   H1214     1.0  0.58334  0.11881  0.96253  1.0000
  H   H1215     1.0  0.48018  0.01512  0.88055  1.0000
  C   C1013     1.0  0.54524  0.43874  0.90034  1.0000
  H   H1216     1.0  0.48378  0.25527  0.83125  1.0000
  H   H1217     1.0  0.53237  0.22725  0.74490  1.0000
  C   C1014     1.0  0.60771  0.40976  0.89103  1.0000
  H   H1218     1.0  0.59538  0.38391  0.88878  1.0000
  H   H1219     1.0  0.59436  0.41622  0.89987  1.0000
  C   C1015     1.0  0.39934  0.40542  0.87667  1.0000
  C   C1016     1.0  0.39747  0.39136  0.86544  1.0000
  C   C1017     1.0  0.37857  0.38935  0.86232  1.0000
  C   C1018     1.0  0.36149  0.40171  0.87008  1.0000
  C   C1019     1.0  0.36334  0.41572  0.88139  1.0000
  C   C1020     1.0  0.38221  0.41747  0.88481  1.0000
  H   H1220     1.0  0.41068  0.38200  0.85912  1.0000
  H   H1221     1.0  0.37730  0.37873  0.85335  1.0000
  H   H1222     1.0  0.35017  0.42546  0.88722  1.0000
  H   H1223     1.0  0.38349  0.42839  0.89338  1.0000
  C   C1021     1.0  0.49585  0.43246  0.94376  1.0000
  H   H1224     1.0  0.57000  0.44522  0.86590  1.0000
  H   H1225     1.0  0.62687  0.38420  0.91919  1.0000
  C   C1022     1.0  0.52116  0.45848  0.94756  1.0000
  C   C1023     1.0  0.39971  0.32766  0.96371  1.0000
  C   C1024     1.0  0.49107  0.45311  0.93769  1.0000
  C   C1025     1.0  0.39538  0.34457  0.90404  1.0000
  H   H1226     1.0  0.41860  0.44340  0.82849  1.0000
  H   H1227     1.0  0.47774  0.45901  0.93141  1.0000
  C   C1026     1.0  0.47980  0.14366  0.81049  1.0000
  C   C1027     1.0  0.46781  0.12906  0.81931  1.0000
  C   C1028     1.0  0.45010  0.12894  0.81246  1.0000
  C   C1029     1.0  0.44457  0.14336  0.79682  1.0000
  C   C1030     1.0  0.45717  0.15719  0.78748  1.0000
  C   C1031     1.0  0.47464  0.15745  0.79442  1.0000
  H   H1228     1.0  0.47184  0.11835  0.83173  1.0000
  H   H1229     1.0  0.44043  0.11811  0.81962  1.0000
  H   H1230     1.0  0.45337  0.16792  0.77502  1.0000
  H   H1231     1.0  0.48398  0.16862  0.78751  1.0000
  C   C1032     1.0  0.59341  0.10967  0.82527  1.0000
  C   C1033     1.0  0.61419  0.10822  0.82266  1.0000
  C   C1034     1.0  0.62338  0.12503  0.81429  1.0000
  C   C1035     1.0  0.61191  0.14335  0.80809  1.0000
  C   C1036     1.0  0.59108  0.14490  0.81058  1.0000
  C   C1037     1.0  0.58182  0.12808  0.81934  1.0000
  H   H1232     1.0  0.62323  0.09405  0.82719  1.0000
  H   H1233     1.0  0.63948  0.12374  0.81237  1.0000
  H   H1234     1.0  0.58213  0.15904  0.80579  1.0000
  H   H1235     1.0  0.56580  0.12925  0.82100  1.0000
  C   C1038     1.0  0.50434  0.03049  0.86470  1.0000
  C   C1039     1.0  0.52274  0.02882  0.85213  1.0000
  C   C1040     1.0  0.53077  0.01070  0.84507  1.0000
  C   C1041     1.0  0.49437  0.01388  0.87074  1.0000
  H   H1236     1.0  0.53054  0.04159  0.84751  1.0000
  H   H1237     1.0  0.43109  0.27492  0.80565  1.0000
  C   C1042     1.0  0.33739  0.30826  0.76604  1.0000
  C   C1043     1.0  0.53126  0.10762  0.92947  1.0000
  C   C1044     1.0  0.54485  0.09013  0.92648  1.0000
  C   C1045     1.0  0.55556  0.07979  0.94120  1.0000
  C   C1046     1.0  0.33891  0.39059  0.93626  1.0000
  C   C1047     1.0  0.58232  0.27785  0.83208  1.0000
  C   C1048     1.0  0.52789  0.11426  0.94752  1.0000
  H   H1238     1.0  0.54727  0.08458  0.91286  1.0000
  H   H1239     1.0  0.56633  0.06650  0.93868  1.0000
  H   H1240     1.0  0.34093  0.39738  0.92055  1.0000
  H   H1241     1.0  0.51729  0.12769  0.94998  1.0000
  S   S285      1.0  0.43171  0.45623  0.94143  1.0000
  H   H1242     1.0  0.62877  0.39252  0.94070  1.0000
  N   N68       1.0  0.35854  0.38363  0.94285  1.0000
  S   S286      1.0  0.40597  0.22764  0.74035  1.0000
  H   H1243     1.0  0.33013  0.37821  0.93801  1.0000
  C   C1049     1.0  0.33086  0.31846  0.96637  1.0000
  C   C1050     1.0  0.37159  0.37027  0.92975  1.0000
  C   C1051     1.0  0.36486  0.35324  0.92628  1.0000
  C   C1052     1.0  0.39111  0.37357  0.92017  1.0000
  C   C1053     1.0  0.37651  0.34071  0.91349  1.0000
  H   H1244     1.0  0.47250  0.28341  0.74702  1.0000
  H   H1245     1.0  0.60708  0.09712  0.94147  1.0000
  H   H1246     1.0  0.36957  0.36719  0.96864  1.0000
  N   N69       1.0  0.40382  0.47391  0.85017  1.0000
  H   H1247     1.0  0.55884  0.42708  0.89948  1.0000
  H   H1248     1.0  0.36211  0.47361  0.85691  1.0000
  C   C1054     1.0  0.39240  0.46082  0.84384  1.0000
  H   H1249     1.0  0.50260  0.08029  0.95413  1.0000
  H   H1250     1.0  0.41425  0.44974  0.87147  1.0000
  H   H1251     1.0  0.51145  0.01515  0.93063  1.0000
  H   H1252     1.0  0.42327  0.47829  0.82236  1.0000
  H   H1253     1.0  0.43220  0.45367  0.84988  1.0000
  C   C1055     1.0  0.64355  0.35387  0.94459  1.0000
  H   H1254     1.0  0.35874  0.29048  0.74686  1.0000
  C   C1056     1.0  0.56156  0.14820  0.75804  1.0000
  C   C1057     1.0  0.40275  0.36081  0.90755  1.0000
  C   C1058     1.0  0.46231  0.27226  0.74865  1.0000
  C   C1059     1.0  0.60284  0.13632  0.74416  1.0000
  C   C1060     1.0  0.41065  0.21159  0.82726  1.0000
  C   C1061     1.0  0.42601  0.22315  0.82127  1.0000
  C   C1062     1.0  0.44594  0.21395  0.81953  1.0000
  H   H1255     1.0  0.39327  0.18493  0.86753  1.0000
  H   H1256     1.0  0.37928  0.19698  0.81858  1.0000
  H   H1257     1.0  0.44739  0.26775  0.83419  1.0000
  H   H1258     1.0  0.39544  0.21942  0.82785  1.0000
  H   H1259     1.0  0.42230  0.23928  0.81779  1.0000
  C   C1063     1.0  0.37137  0.43528  0.83130  1.0000
  N   N70       1.0  0.58185  0.12980  0.88528  1.0000
  C   C1064     1.0  0.57672  0.11141  0.88083  1.0000
  C   C1065     1.0  0.56699  0.14700  0.87835  1.0000
  C   C1066     1.0  0.60178  0.13296  0.87383  1.0000
  C   C1067     1.0  0.58225  0.12737  0.90641  1.0000
  C   C1068     1.0  0.59625  0.11212  0.91506  1.0000
  C   C1069     1.0  0.56862  0.13942  0.91907  1.0000
  C   C1070     1.0  0.59668  0.10922  0.93504  1.0000
  C   C1071     1.0  0.56934  0.13652  0.93900  1.0000
  C   C1072     1.0  0.58331  0.12145  0.94697  1.0000
  H   H1260     1.0  0.56165  0.10877  0.88879  1.0000
  H   H1261     1.0  0.57652  0.11258  0.86504  1.0000
  H   H1262     1.0  0.58754  0.09775  0.88470  1.0000
  H   H1263     1.0  0.55141  0.14494  0.88536  1.0000
  H   H1264     1.0  0.56735  0.14863  0.86234  1.0000
  H   H1265     1.0  0.56995  0.16142  0.88124  1.0000
  H   H1266     1.0  0.61347  0.11966  0.87630  1.0000
  H   H1267     1.0  0.60163  0.13577  0.85782  1.0000
  H   H1268     1.0  0.60672  0.14605  0.87755  1.0000
  H   H1269     1.0  0.60669  0.10200  0.90650  1.0000
  H   H1270     1.0  0.55687  0.15083  0.91409  1.0000
  H   H1271     1.0  0.38749  0.30169  0.96203  1.0000
  H   H1272     1.0  0.34727  0.29734  0.94760  1.0000
  H   H1273     1.0  0.47151  0.25736  0.74715  1.0000
  N   N71       1.0  0.47814  0.05664  0.81324  1.0000
  C   C1073     1.0  0.49280  0.04905  0.79684  1.0000
  C   C1074     1.0  0.48754  0.06951  0.82212  1.0000
  C   C1075     1.0  0.47385  0.03893  0.82812  1.0000
  C   C1076     1.0  0.46012  0.06866  0.80607  1.0000
  C   C1077     1.0  0.44038  0.06519  0.81461  1.0000
  C   C1078     1.0  0.46198  0.08494  0.79052  1.0000
  C   C1079     1.0  0.42369  0.07709  0.80763  1.0000
  C   C1080     1.0  0.44521  0.09662  0.78360  1.0000
  N   N72       1.0  0.54024  0.15457  0.76597  1.0000
  H   H1274     1.0  0.49893  0.06127  0.78609  1.0000
  H   H1275     1.0  0.50601  0.03898  0.80203  1.0000
  H   H1276     1.0  0.48584  0.04035  0.78899  1.0000
  H   H1277     1.0  0.50113  0.06102  0.82781  1.0000
  H   H1278     1.0  0.47708  0.07542  0.83463  1.0000
  H   H1279     1.0  0.49216  0.08268  0.81162  1.0000
  H   H1280     1.0  0.46490  0.04343  0.84197  1.0000
  H   H1281     1.0  0.46600  0.02899  0.82265  1.0000
  H   H1282     1.0  0.48783  0.02949  0.83218  1.0000
  H   H1283     1.0  0.43741  0.05353  0.82684  1.0000
  H   H1284     1.0  0.47638  0.08912  0.78386  1.0000
  H   H1285     1.0  0.54780  0.17574  0.78103  1.0000
  H   H1286     1.0  0.54451  0.45028  0.86236  1.0000
  H   H1287     1.0  0.37067  0.32813  0.91069  1.0000
  H   H1288     1.0  0.44690  0.10926  0.77196  1.0000
  H   H1289     1.0  0.52905  0.16371  0.73875  1.0000
  H   H1290     1.0  0.50393  0.25021  0.79912  1.0000
  H   H1291     1.0  0.51350  0.14128  0.77638  1.0000
  C   C1081     1.0  0.40251  0.44578  0.83251  1.0000
  H   H1292     1.0  0.34406  0.32142  0.75941  1.0000
  S   S287      1.0  0.59387  0.47412  0.93331  1.0000
  Fe  Fe142     1.0  0.60061  0.21107  0.74058  1.0000
  S   S288      1.0  0.32616  0.36429  0.83184  1.0000
  S   S289      1.0  0.33478  0.31030  0.91034  1.0000
  C   C1082     1.0  0.42611  0.09274  0.79215  1.0000
  H   H1293     1.0  0.36336  0.42502  0.82721  1.0000
  C   C1083     1.0  0.50901  0.02934  0.95582  1.0000
  H   H1294     1.0  0.45436  0.27602  0.73590  1.0000
  C   C1084     1.0  0.50749  0.04730  0.92319  1.0000
  C   C1085     1.0  0.59566  0.30918  0.82917  1.0000
  H   H1295     1.0  0.53358  0.43273  0.89546  1.0000
  C   C1086     1.0  0.63783  0.38754  0.92718  1.0000
  H   H1296     1.0  0.54002  0.44002  0.91595  1.0000
  H   H1297     1.0  0.57103  0.47784  0.88708  1.0000
  H   H1298     1.0  0.41315  0.10226  0.78702  1.0000
  C   C1087     1.0  0.53869  0.16353  0.78381  1.0000
  H   H1299     1.0  0.57630  0.27087  0.80567  1.0000
  H   H1300     1.0  0.34481  0.45118  0.84624  1.0000
  C   C1088     1.0  0.39211  0.43313  0.82651  1.0000
  H   H1301     1.0  0.63353  0.30797  0.83489  1.0000
  H   H1302     1.0  0.62115  0.33718  0.81279  1.0000
  C   C1089     1.0  0.55579  0.45603  0.86811  1.0000
  H   H1303     1.0  0.56818  0.12825  0.78456  1.0000
  C   C1090     1.0  0.52951  0.16972  0.75212  1.0000
  C   C1091     1.0  0.60877  0.34128  0.82476  1.0000
  H   H1304     1.0  0.56258  0.46531  0.91135  1.0000
  H   H1305     1.0  0.42761  0.47064  0.86692  1.0000
  C   C1092     1.0  0.59442  0.12886  0.76306  1.0000
  N   N73       1.0  0.44817  0.27184  0.76745  1.0000
  C   C1093     1.0  0.43596  0.25591  0.76894  1.0000
  C   C1094     1.0  0.43489  0.29160  0.76663  1.0000
  H   H1306     1.0  0.34611  0.25877  0.76144  1.0000
  C   C1095     1.0  0.45828  0.26777  0.78469  1.0000
  C   C1096     1.0  0.44709  0.27007  0.80348  1.0000
  C   C1097     1.0  0.47908  0.26036  0.78363  1.0000
  C   C1098     1.0  0.45624  0.26579  0.82001  1.0000
  C   C1099     1.0  0.48805  0.25602  0.80028  1.0000
  C   C1100     1.0  0.47670  0.25879  0.81841  1.0000
  H   H1307     1.0  0.44538  0.24081  0.77007  1.0000
  H   H1308     1.0  0.35038  0.34960  0.93329  1.0000
  C   C1101     1.0  0.63885  0.25394  0.82636  1.0000
  H   H1309     1.0  0.42213  0.29200  0.77889  1.0000
  C   C1102     1.0  0.55255  0.08677  0.95903  1.0000
  H   H1310     1.0  0.44332  0.30379  0.76693  1.0000
  C   C1103     1.0  0.65226  0.20601  0.79924  1.0000
  C   C1104     1.0  0.34604  0.29053  0.75862  1.0000
  S   S290      1.0  0.53325  0.21639  0.78666  1.0000
  N   N74       1.0  0.60319  0.32320  0.83842  1.0000
  C   C1105     1.0  0.62933  0.26506  0.79430  1.0000
  Fe  Fe143     1.0  0.60831  0.46276  0.95972  1.0000
  C   C1106     1.0  0.52046  0.99428  0.85066  1.0000
  H   H1311     1.0  0.38405  0.47783  0.87730  1.0000
  C   C1107     1.0  0.38475  0.18557  0.85559  1.0000
  H   H1312     1.0  0.37265  0.17632  0.86133  1.0000
  C   C1108     1.0  0.62124  0.31279  0.84656  1.0000
  C   C1109     1.0  0.57405  0.13450  0.76985  1.0000
  C   C1110     1.0  0.43530  0.18146  0.83005  1.0000
  H   H1313     1.0  0.42867  0.25771  0.75591  1.0000
  S   S291      1.0  0.58123  0.23818  0.75189  1.0000
  S   S292      1.0  0.42953  0.18135  0.73940  1.0000
  C   C1111     1.0  0.49669  0.21019  0.78136  1.0000
  H   H1314     1.0  0.37709  0.20128  0.85226  1.0000
  C   C1112     1.0  0.51512  0.21613  0.77224  1.0000
  H   H1315     1.0  0.53662  0.18349  0.74789  1.0000
  C   C1113     1.0  0.36701  0.40176  0.94347  1.0000
  C   C1114     1.0  0.48152  0.21075  0.77051  1.0000
  H   H1316     1.0  0.46739  0.20624  0.77776  1.0000
  H   H1317     1.0  0.41413  0.15015  0.83079  1.0000
  C   C1115     1.0  0.50308  0.22322  0.74128  1.0000
  H   H1318     1.0  0.38124  0.39777  0.94942  1.0000
  H   H1319     1.0  0.61436  0.35146  0.83223  1.0000
  H   H1320     1.0  0.64982  0.19014  0.80320  1.0000
  C   C1116     1.0  0.41479  0.19037  0.83195  1.0000
  Fe  Fe144     1.0  0.43534  0.20963  0.74743  1.0000
  C   C1117     1.0  0.48458  0.21746  0.75041  1.0000
  H   H1321     1.0  0.41392  0.15350  0.85554  1.0000
  C   C1118     1.0  0.62864  0.25158  0.81177  1.0000
  S   S293      1.0  0.48061  0.41581  0.94109  1.0000
  N   N75       1.0  0.65331  0.36982  0.93114  1.0000
  N   N76       1.0  0.39818  0.17852  0.83826  1.0000
  C   C1119     1.0  0.64987  0.28373  0.80653  1.0000
  H   H1322     1.0  0.54361  0.15241  0.79616  1.0000
  H   H1323     1.0  0.57807  0.26413  0.84086  1.0000
  H   H1324     1.0  0.53143  0.12911  0.75837  1.0000
  C   C1120     1.0  0.38649  0.18120  0.82229  1.0000
  H   H1325     1.0  0.45788  0.22286  0.81460  1.0000
  H   H1326     1.0  0.62693  0.32276  0.85406  1.0000
  C   C1121     1.0  0.45056  0.19317  0.82395  1.0000
  C   C1122     1.0  0.42016  0.46152  0.85997  1.0000
  H   H1327     1.0  0.41735  0.36400  0.89996  1.0000
  H   H1328     1.0  0.37433  0.17189  0.82604  1.0000
  C   C1123     1.0  0.51311  0.47044  0.88573  1.0000
  C   C1124     1.0  0.51311  0.42489  0.95202  1.0000
  C   C1125     1.0  0.33889  0.27264  0.76674  1.0000
  Fe  Fe145     1.0  0.39906  0.19832  0.73506  1.0000
  C   C1126     1.0  0.63985  0.28123  0.79186  1.0000
  C   C1127     1.0  0.40499  0.15666  0.84355  1.0000
  H   H1329     1.0  0.39624  0.17684  0.80877  1.0000
  H   H1330     1.0  0.63945  0.21456  0.79227  1.0000
  H   H1331     1.0  0.39220  0.14819  0.84850  1.0000
  H   H1332     1.0  0.44006  0.16545  0.83295  1.0000
  Fe  Fe146     1.0  0.59747  0.42137  0.96416  1.0000
  C   C1128     1.0  0.58118  0.28166  0.81231  1.0000
  S   S294      1.0  0.38071  0.43794  0.96570  1.0000
  C   C1129     1.0  0.64257  0.39237  0.86863  1.0000
  C   C1130     1.0  0.56636  0.46370  0.89566  1.0000
  S   S295      1.0  0.53783  0.47458  0.94812  1.0000
  Fe  Fe147     1.0  0.42832  0.46728  0.91030  1.0000
  H   H1333     1.0  0.52304  0.17023  0.78921  1.0000
  Fe  Fe148     1.0  0.33337  0.37116  0.85920  1.0000
  H   H1334     1.0  0.50360  0.07945  0.92002  1.0000
  H   H1335     1.0  0.39762  0.38614  0.92173  1.0000
  C   C1131     1.0  0.50244  0.99580  0.86375  1.0000
  C   C1132     1.0  0.50500  0.06543  0.93010  1.0000
  H   H1336     1.0  0.33824  0.34061  0.78511  1.0000
  S   S296      1.0  0.46520  0.22077  0.73643  1.0000
  H   H1337     1.0  0.46611  0.18599  0.82249  1.0000
  H   H1338     1.0  0.53549  0.12581  0.78316  1.0000
  C   C1133     1.0  0.59436  0.31258  0.80901  1.0000
  H   H1339     1.0  0.58442  0.31776  0.86662  1.0000
  H   H1340     1.0  0.59575  0.35026  0.81842  1.0000
  C   C1134     1.0  0.57056  0.15531  0.73871  1.0000
  H   H1341     1.0  0.32926  0.40194  0.94477  1.0000
  C   C1135     1.0  0.52976  0.13689  0.77114  1.0000
  H   H1342     1.0  0.40018  0.42124  0.81852  1.0000
  H   H1343     1.0  0.63836  0.24332  0.83976  1.0000
  H   H1344     1.0  0.50785  0.04720  0.90785  1.0000
  S   S297      1.0  0.62367  0.44271  0.89326  1.0000
  H   H1345     1.0  0.63544  0.35902  0.95843  1.0000
  C   C1136     1.0  0.62435  0.41964  0.88575  1.0000
  H   H1346     1.0  0.59255  0.34151  0.86115  1.0000
  H   H1347     1.0  0.51240  0.45679  0.88062  1.0000
  C   C1137     1.0  0.36093  0.45008  0.84210  1.0000
  H   H1348     1.0  0.42397  0.25571  0.78197  1.0000
  H   H1349     1.0  0.59033  0.28759  0.85577  1.0000
  C   C1138     1.0  0.32747  0.32026  0.93238  1.0000
  N   N77       1.0  0.54930  0.45839  0.88888  1.0000
  H   H1350     1.0  0.51677  0.40893  0.95684  1.0000
  C   C1139     1.0  0.58769  0.33016  0.85451  1.0000
  H   H1351     1.0  0.40874  0.07433  0.81438  1.0000
  C   C1140     1.0  0.58717  0.29897  0.80082  1.0000
  C   C1141     1.0  0.52573  0.43788  0.95396  1.0000
  H   H1352     1.0  0.35673  0.41173  0.95313  1.0000
  C   C1142     1.0  0.50362  0.46612  0.93978  1.0000
  H   H1353     1.0  0.60374  0.11882  0.77262  1.0000
  H   H1354     1.0  0.39515  0.33599  0.95036  1.0000
  C   C1143     1.0  0.53841  0.10380  0.96232  1.0000
  S   S298      1.0  0.62617  0.35965  0.86628  1.0000
  C   C1144     1.0  0.62581  0.38266  0.87370  1.0000
  H   H1355     1.0  0.36977  0.41092  0.92877  1.0000
  H   H1356     1.0  0.48880  0.25746  0.77018  1.0000
  C   C1145     1.0  0.32281  0.27244  0.78208  1.0000
  H   H1357     1.0  0.51367  0.17462  0.75865  1.0000
  C   C1146     1.0  0.58943  0.29137  0.84044  1.0000
  H   H1358     1.0  0.57345  0.33715  0.84921  1.0000
  C   C1147     1.0  0.50606  0.04756  0.96346  1.0000
  C   C1148     1.0  0.50436  0.06568  0.94990  1.0000
  H   H1359     1.0  0.53907  0.43190  0.96027  1.0000
  H   H1360     1.0  0.49457  0.98313  0.86832  1.0000
  H   H1361     1.0  0.64040  0.29182  0.77844  1.0000
  H   H1362     1.0  0.61865  0.13207  0.73893  1.0000
  H   H1363     1.0  0.32616  0.31657  0.81524  1.0000
  C   C1149     1.0  0.37117  0.46275  0.84831  1.0000
  C   C1150     1.0  0.35523  0.37247  0.96299  1.0000
  C   C1151     1.0  0.64172  0.41101  0.87440  1.0000
  H   H1364     1.0  0.38382  0.15589  0.72708  1.0000
  C   C1152     1.0  0.59090  0.14937  0.73198  1.0000
  H   H1365     1.0  0.55841  0.47063  0.85891  1.0000
  H   H1366     1.0  0.56240  0.16579  0.72857  1.0000
  H   H1367     1.0  0.50557  0.22856  0.72576  1.0000
  C   C1153     1.0  0.53095  0.47360  0.89097  1.0000
  H   H1368     1.0  0.65126  0.21154  0.81323  1.0000
  H   H1369     1.0  0.34802  0.35908  0.96396  1.0000
  H   H1370     1.0  0.64973  0.35883  0.90556  1.0000
  H   H1371     1.0  0.64717  0.38725  0.96396  1.0000
  C   C1154     1.0  0.64954  0.27000  0.82385  1.0000
  H   H1372     1.0  0.64468  0.40049  0.91834  1.0000
  H   H1373     1.0  0.51083  0.01491  0.96507  1.0000
  H   H1374     1.0  0.41256  0.35160  0.96951  1.0000
  H   H1375     1.0  0.32241  0.34919  0.76659  1.0000
  C   C1155     1.0  0.32248  0.34427  0.78245  1.0000
  S   S299      1.0  0.32119  0.31917  0.85682  1.0000
  H   H1376     1.0  0.63324  0.51798  0.98084  1.0000
  C   C1156     1.0  0.51580  0.91749  0.10937  1.0000
  S   S300      1.0  0.35179  0.72778  0.02744  1.0000
  Fe  Fe149     1.0  0.50927  0.92883  0.02156  1.0000
  S   S301      1.0  0.53412  0.93069  0.99595  1.0000
  S   S302      1.0  0.50287  0.89824  0.03600  1.0000
  Fe  Fe150     1.0  0.54654  0.94781  0.01331  1.0000
  S   S303      1.0  0.57860  0.93904  0.01701  1.0000
  H   H1377     1.0  0.44522  0.65387  0.98403  1.0000
  S   S304      1.0  0.52301  0.94399  0.03970  1.0000
  H   H1378     1.0  0.55978  0.52121  0.99076  1.0000
  H   H1379     1.0  0.55796  0.96304  0.04609  1.0000
  H   H1380     1.0  0.40551  0.66224  0.02690  1.0000
  C   C1157     1.0  0.64184  0.78791  0.07420  1.0000
  S   S305      1.0  0.63113  0.62414  0.00214  1.0000
  Fe  Fe151     1.0  0.34201  0.69933  0.04447  1.0000
  Fe  Fe152     1.0  0.58789  0.90106  0.12095  1.0000
  S   S306      1.0  0.57151  0.87994  0.11263  1.0000
  S   S307      1.0  0.58461  0.93279  0.10552  1.0000
  Fe  Fe153     1.0  0.60275  0.87107  0.15401  1.0000
  S   S308      1.0  0.58691  0.84695  0.14865  1.0000
  C   C1158     1.0  0.58434  0.76229  0.08522  1.0000
  Fe  Fe154     1.0  0.59857  0.85669  0.11692  1.0000
  S   S309      1.0  0.60838  0.83862  0.09192  1.0000
  Fe  Fe155     1.0  0.56087  0.87184  0.14446  1.0000
  S   S310      1.0  0.52713  0.87418  0.15339  1.0000
  S   S311      1.0  0.61613  0.87893  0.12238  1.0000
  S   S312      1.0  0.57559  0.89482  0.15275  1.0000
  Fe  Fe156     1.0  0.43787  0.83526  0.12466  1.0000
  S   S313      1.0  0.42368  0.86750  0.12148  1.0000
  S   S314      1.0  0.46984  0.82401  0.12994  1.0000
  Fe  Fe157     1.0  0.40084  0.82121  0.11631  1.0000
  S   S315      1.0  0.38378  0.85271  0.11297  1.0000
  S   S316      1.0  0.39215  0.79206  0.11158  1.0000
  Fe  Fe158     1.0  0.41274  0.86137  0.09594  1.0000
  S   S317      1.0  0.41407  0.88366  0.06822  1.0000
  Fe  Fe159     1.0  0.39589  0.85645  0.13915  1.0000
  S   S318      1.0  0.37846  0.87856  0.15906  1.0000
  S   S319      1.0  0.42913  0.82987  0.09744  1.0000
  S   S320      1.0  0.41086  0.82413  0.14413  1.0000
  C   C1159     1.0  0.34990  0.77671  0.07518  1.0000
  H   H1381     1.0  0.43578  0.85735  0.16035  1.0000
  Fe  Fe160     1.0  0.60530  0.61873  0.98961  1.0000
  Fe  Fe161     1.0  0.40157  0.60428  0.97673  1.0000
  H   H1382     1.0  0.37790  0.84436  0.19093  1.0000
  S   S321      1.0  0.37022  0.60834  0.99336  1.0000
  C   C1160     1.0  0.62942  0.90399  0.17717  1.0000
  C   C1161     1.0  0.56457  0.76937  0.08140  1.0000
  C   C1162     1.0  0.41901  0.65721  0.01649  1.0000
  H   H1383     1.0  0.62127  0.90859  0.16510  1.0000
  C   C1163     1.0  0.51235  0.86114  0.14405  1.0000
  C   C1164     1.0  0.51911  0.84142  0.14060  1.0000
  C   C1165     1.0  0.50590  0.83032  0.13620  1.0000
  C   C1166     1.0  0.48606  0.83902  0.13451  1.0000
  C   C1167     1.0  0.47956  0.85903  0.13712  1.0000
  C   C1168     1.0  0.49257  0.86992  0.14219  1.0000
  H   H1384     1.0  0.53418  0.83439  0.14235  1.0000
  H   H1385     1.0  0.51101  0.81480  0.13434  1.0000
  H   H1386     1.0  0.46439  0.86594  0.13579  1.0000
  H   H1387     1.0  0.48714  0.88505  0.14518  1.0000
  C   C1169     1.0  0.37639  0.76670  0.09490  1.0000
  C   C1170     1.0  0.37528  0.78661  0.09788  1.0000
  H   H1388     1.0  0.38718  0.75503  0.10122  1.0000
  H   H1389     1.0  0.35932  0.81662  0.09268  1.0000
  C   C1171     1.0  0.62832  0.80298  0.10948  1.0000
  C   C1172     1.0  0.62310  0.81453  0.09225  1.0000
  C   C1173     1.0  0.62970  0.80681  0.07467  1.0000
  H   H1390     1.0  0.62296  0.80864  0.12309  1.0000
  C   C1174     1.0  0.47145  0.94187  0.06398  1.0000
  C   C1175     1.0  0.62945  0.64389  0.01524  1.0000
  C   C1176     1.0  0.61107  0.65506  0.02197  1.0000
  C   C1177     1.0  0.61050  0.67120  0.03178  1.0000
  C   C1178     1.0  0.62829  0.67631  0.03472  1.0000
  C   C1179     1.0  0.46930  0.48017  0.98146  1.0000
  C   C1180     1.0  0.41096  0.68239  0.98908  1.0000
  H   H1391     1.0  0.59734  0.65125  0.01962  1.0000
  H   H1392     1.0  0.59626  0.67977  0.03702  1.0000
  H   H1393     1.0  0.41524  0.64575  0.00924  1.0000
  C   C1181     1.0  0.36895  0.62581  0.00889  1.0000
  C   C1182     1.0  0.35886  0.64534  0.00466  1.0000
  C   C1183     1.0  0.35753  0.65930  0.01710  1.0000
  C   C1184     1.0  0.36618  0.65382  0.03392  1.0000
  C   C1185     1.0  0.37663  0.63435  0.03800  1.0000
  C   C1186     1.0  0.37809  0.62039  0.02545  1.0000
  H   H1394     1.0  0.35207  0.64978  0.99178  1.0000
  C   C1187     1.0  0.49855  0.95210  0.08725  1.0000
  H   H1395     1.0  0.38363  0.63007  0.05085  1.0000
  H   H1396     1.0  0.38619  0.60537  0.02865  1.0000
  H   H1397     1.0  0.61744  0.66393  0.97715  1.0000
  H   H1398     1.0  0.34953  0.90703  0.21871  1.0000
  S   S322      1.0  0.36443  0.67114  0.04980  1.0000
  H   H1399     1.0  0.51692  0.53124  0.99508  1.0000
  C   C1188     1.0  0.47804  0.89459  0.04443  1.0000
  C   C1189     1.0  0.47423  0.87832  0.05902  1.0000
  C   C1190     1.0  0.45458  0.87513  0.06653  1.0000
  C   C1191     1.0  0.43864  0.88794  0.05911  1.0000
  C   C1192     1.0  0.44240  0.90420  0.04441  1.0000
  C   C1193     1.0  0.46212  0.90764  0.03716  1.0000
  H   H1400     1.0  0.48649  0.86841  0.06487  1.0000
  H   H1401     1.0  0.45182  0.86269  0.07800  1.0000
  H   H1402     1.0  0.43006  0.91414  0.03866  1.0000
  H   H1403     1.0  0.46501  0.92017  0.02579  1.0000
  C   C1194     1.0  0.57983  0.93677  0.04177  1.0000
  C   C1195     1.0  0.56786  0.95079  0.05283  1.0000
  C   C1196     1.0  0.56946  0.94957  0.07241  1.0000
  C   C1197     1.0  0.58233  0.93377  0.08121  1.0000
  C   C1198     1.0  0.59375  0.91925  0.07036  1.0000
  C   C1199     1.0  0.59285  0.92104  0.05049  1.0000
  H   H1404     1.0  0.39974  0.76730  0.05388  1.0000
  S   S323      1.0  0.42739  0.58298  0.98710  1.0000
  H   H1405     1.0  0.60379  0.90708  0.07712  1.0000
  H   H1406     1.0  0.60216  0.91019  0.04194  1.0000
  C   C1200     1.0  0.36379  0.76175  0.08366  1.0000
  C   C1201     1.0  0.48850  0.93516  0.09191  1.0000
  C   C1202     1.0  0.61624  0.73832  0.08344  1.0000
  N   N78       1.0  0.55371  0.87700  0.05804  1.0000
  C   C1203     1.0  0.57246  0.86739  0.06536  1.0000
  C   C1204     1.0  0.55930  0.88643  0.03747  1.0000
  C   C1205     1.0  0.54367  0.89338  0.06928  1.0000
  C   C1206     1.0  0.54046  0.86176  0.06050  1.0000
  C   C1207     1.0  0.53259  0.85252  0.07944  1.0000
  C   C1208     1.0  0.53516  0.85548  0.04448  1.0000
  C   C1209     1.0  0.51980  0.83835  0.08212  1.0000
  C   C1210     1.0  0.52244  0.84122  0.04735  1.0000
  C   C1211     1.0  0.51474  0.83272  0.06612  1.0000
  H   H1407     1.0  0.58081  0.85537  0.05693  1.0000
  H   H1408     1.0  0.58265  0.87840  0.06449  1.0000
  H   H1409     1.0  0.56964  0.86017  0.08082  1.0000
  H   H1410     1.0  0.56801  0.87529  0.02822  1.0000
  H   H1411     1.0  0.56890  0.89807  0.03621  1.0000
  H   H1412     1.0  0.54585  0.89413  0.03109  1.0000
  H   H1413     1.0  0.54119  0.88818  0.08523  1.0000
  H   H1414     1.0  0.55270  0.90573  0.06683  1.0000
  H   H1415     1.0  0.52885  0.90003  0.06502  1.0000
  H   H1416     1.0  0.53611  0.85631  0.09236  1.0000
  H   H1417     1.0  0.54003  0.86190  0.02957  1.0000
  H   H1418     1.0  0.51346  0.83194  0.09667  1.0000
  H   H1419     1.0  0.51808  0.83720  0.03491  1.0000
  H   H1420     1.0  0.50445  0.82208  0.06831  1.0000
  H   H1421     1.0  0.43063  0.64938  0.02540  1.0000
  H   H1422     1.0  0.33772  0.80821  0.07219  1.0000
  H   H1423     1.0  0.45695  0.66054  0.00148  1.0000
  C   C1212     1.0  0.44593  0.66654  0.99143  1.0000
  H   H1424     1.0  0.42617  0.81647  0.18373  1.0000
  C   C1213     1.0  0.64747  0.77656  0.09136  1.0000
  H   H1425     1.0  0.43284  0.70330  0.00219  1.0000
  C   C1214     1.0  0.39135  0.69096  0.99692  1.0000
  H   H1426     1.0  0.38221  0.48429  0.98764  1.0000
  C   C1215     1.0  0.45183  0.86969  0.19668  1.0000
  S   S324      1.0  0.33149  0.73693  0.97893  1.0000
  H   H1427     1.0  0.57200  0.72971  0.07578  1.0000
  C   C1216     1.0  0.40710  0.50082  0.00192  1.0000
  N   N79       1.0  0.42596  0.67413  0.00202  1.0000
  C   C1217     1.0  0.64191  0.82403  0.15084  1.0000
  H   H1428     1.0  0.45243  0.94845  0.11073  1.0000
  H   H1429     1.0  0.45232  0.67852  0.98046  1.0000
  H   H1430     1.0  0.35019  0.67441  0.01335  1.0000
  H   H1431     1.0  0.48140  0.48885  0.97895  1.0000
  H   H1432     1.0  0.52244  0.90419  0.11824  1.0000
  H   H1433     1.0  0.52527  0.63060  0.00649  1.0000
  C   C1218     1.0  0.51419  0.63198  0.99727  1.0000
  H   H1434     1.0  0.49467  0.61515  0.01906  1.0000
  H   H1435     1.0  0.44750  0.81100  0.19568  1.0000
  S   S325      1.0  0.57367  0.61369  0.00248  1.0000
  H   H1436     1.0  0.63554  0.93368  0.17689  1.0000
  S   S326      1.0  0.46146  0.61300  0.00156  1.0000
  S   S327      1.0  0.41685  0.63100  0.97194  1.0000
  H   H1437     1.0  0.63665  0.82710  0.16605  1.0000
  H   H1438     1.0  0.63923  0.80867  0.15042  1.0000
  H   H1439     1.0  0.56092  0.96099  0.08070  1.0000
  C   C1219     1.0  0.57577  0.52073  0.98832  1.0000
  C   C1220     1.0  0.49690  0.62322  0.00433  1.0000
  H   H1440     1.0  0.47533  0.95718  0.05880  1.0000
  C   C1221     1.0  0.48447  0.55880  0.98801  1.0000
  H   H1441     1.0  0.50728  0.55843  0.01388  1.0000
  S   S328      1.0  0.33429  0.77173  0.05995  1.0000
  H   H1442     1.0  0.49120  0.90417  0.10769  1.0000
  H   H1443     1.0  0.45816  0.96698  0.08979  1.0000
  C   C1222     1.0  0.39526  0.78206  0.04594  1.0000
  Fe  Fe162     1.0  0.32975  0.74315  0.05009  1.0000
  C   C1223     1.0  0.45406  0.95170  0.09455  1.0000
  H   H1444     1.0  0.61072  0.54844  0.99073  1.0000
  C   C1224     1.0  0.56063  0.79660  0.09978  1.0000
  H   H1445     1.0  0.62597  0.75008  0.07848  1.0000
  C   C1225     1.0  0.64255  0.87825  0.20169  1.0000
  N   N80       1.0  0.40041  0.83616  0.04621  1.0000
  C   C1226     1.0  0.38983  0.83850  0.06615  1.0000
  C   C1227     1.0  0.42231  0.83332  0.04600  1.0000
  C   C1228     1.0  0.39508  0.85527  0.03315  1.0000
  C   C1229     1.0  0.39483  0.81850  0.04068  1.0000
  C   C1230     1.0  0.38198  0.82026  0.02686  1.0000
  C   C1231     1.0  0.40108  0.79887  0.05026  1.0000
  C   C1232     1.0  0.61720  0.51879  0.98279  1.0000
  H   H1446     1.0  0.62121  0.68265  0.98944  1.0000
  H   H1447     1.0  0.45743  0.94182  0.05850  1.0000
  H   H1448     1.0  0.37334  0.84034  0.06701  1.0000
  H   H1449     1.0  0.39417  0.82529  0.07708  1.0000
  H   H1450     1.0  0.39307  0.85189  0.07084  1.0000
  H   H1451     1.0  0.42697  0.84689  0.04915  1.0000
  H   H1452     1.0  0.43084  0.83013  0.03157  1.0000
  H   H1453     1.0  0.42735  0.82089  0.05730  1.0000
  H   H1454     1.0  0.37860  0.85968  0.03419  1.0000
  H   H1455     1.0  0.40035  0.86804  0.03722  1.0000
  H   H1456     1.0  0.40201  0.85423  0.01773  1.0000
  H   H1457     1.0  0.37594  0.83454  0.01926  1.0000
  H   H1458     1.0  0.40974  0.79638  0.06188  1.0000
  C   C1233     1.0  0.64717  0.64883  0.01846  1.0000
  H   H1459     1.0  0.53785  0.79129  0.08563  1.0000
  H   H1460     1.0  0.44697  0.91792  0.08499  1.0000
  S   S329      1.0  0.49002  0.95702  0.00998  1.0000
  Fe  Fe163     1.0  0.51631  0.96036  0.98588  1.0000
  H   H1461     1.0  0.44695  0.50609  0.97996  1.0000
  H   H1462     1.0  0.53939  0.93398  0.10914  1.0000
  C   C1234     1.0  0.64804  0.73052  0.97430  1.0000
  H   H1463     1.0  0.50497  0.83932  0.18558  1.0000
  C   C1235     1.0  0.49770  0.91776  0.10323  1.0000
  H   H1464     1.0  0.64710  0.78227  0.06052  1.0000
  C   C1236     1.0  0.37203  0.85804  0.19696  1.0000
  H   H1465     1.0  0.59517  0.71361  0.07695  1.0000
  C   C1237     1.0  0.34855  0.79655  0.07846  1.0000
  H   H1466     1.0  0.41983  0.87134  0.17809  1.0000
  H   H1467     1.0  0.36497  0.74641  0.08141  1.0000
  H   H1468     1.0  0.32868  0.61891  0.03693  1.0000
  C   C1238     1.0  0.58579  0.72727  0.08225  1.0000
  C   C1239     1.0  0.64817  0.91263  0.19964  1.0000
  H   H1469     1.0  0.50108  0.58366  0.00224  1.0000
  C   C1240     1.0  0.42163  0.84191  0.20871  1.0000
  C   C1241     1.0  0.49002  0.84756  0.18907  1.0000
  C   C1242     1.0  0.36100  0.80144  0.08986  1.0000
  S   S330      1.0  0.62721  0.69682  0.04672  1.0000
  C   C1243     1.0  0.63187  0.88387  0.18601  1.0000
  H   H1470     1.0  0.64471  0.77534  0.12236  1.0000
  S   S331      1.0  0.62230  0.86523  0.17771  1.0000
  H   H1471     1.0  0.65026  0.73568  0.98715  1.0000
  N   N81       1.0  0.41262  0.48953  0.98525  1.0000
  H   H1472     1.0  0.64426  0.70140  0.98952  1.0000
  Fe  Fe164     1.0  0.44363  0.60934  0.97959  1.0000
  H   H1473     1.0  0.63212  0.83478  0.14160  1.0000
  H   H1474     1.0  0.36555  0.80496  0.01292  1.0000
  C   C1244     1.0  0.42547  0.85596  0.17457  1.0000
  C   C1245     1.0  0.48278  0.62446  0.99230  1.0000
  H   H1475     1.0  0.62479  0.72474  0.07740  1.0000
  H   H1476     1.0  0.58160  0.72358  0.09836  1.0000
  N   N82       1.0  0.43563  0.84255  0.18986  1.0000
  C   C1246     1.0  0.44952  0.48986  0.98197  1.0000
  H   H1477     1.0  0.58603  0.79848  0.11212  1.0000
  C   C1247     1.0  0.37046  0.87648  0.18457  1.0000
  H   H1478     1.0  0.44966  0.82162  0.17007  1.0000
  Fe  Fe165     1.0  0.58060  0.58777  0.98568  1.0000
  H   H1479     1.0  0.47642  0.82506  0.18284  1.0000
  C   C1248     1.0  0.51671  0.95158  0.09334  1.0000
  C   C1249     1.0  0.36224  0.89407  0.19257  1.0000
  H   H1480     1.0  0.36084  0.90839  0.18305  1.0000
  H   H1481     1.0  0.47185  0.90469  0.08440  1.0000
  C   C1250     1.0  0.45367  0.85040  0.19141  1.0000
  C   C1251     1.0  0.36568  0.85732  0.21721  1.0000
  C   C1252     1.0  0.58376  0.53722  0.99064  1.0000
  C   C1253     1.0  0.48564  0.63512  0.97336  1.0000
  C   C1254     1.0  0.52534  0.93430  0.10435  1.0000
  H   H1482     1.0  0.60850  0.76317  0.05065  1.0000
  H   H1483     1.0  0.40860  0.83463  0.20854  1.0000
  H   H1484     1.0  0.61912  0.95223  0.05199  1.0000
  H   H1485     1.0  0.45754  0.91243  0.10678  1.0000
  H   H1486     1.0  0.39132  0.50858  0.00325  1.0000
  H   H1487     1.0  0.52638  0.57037  0.99817  1.0000
  C   C1255     1.0  0.51687  0.64299  0.97851  1.0000
  H   H1488     1.0  0.64455  0.86276  0.20867  1.0000
  N   N83       1.0  0.59657  0.74479  0.07683  1.0000
  H   H1489     1.0  0.55165  0.80972  0.10532  1.0000
  C   C1256     1.0  0.61149  0.96758  0.05168  1.0000
  H   H1490     1.0  0.44041  0.68437  0.02180  1.0000
  H   H1491     1.0  0.48087  0.54997  0.00276  1.0000
  H   H1492     1.0  0.58645  0.75374  0.04902  1.0000
  H   H1493     1.0  0.60663  0.76926  0.10009  1.0000
  H   H1494     1.0  0.46694  0.89252  0.20164  1.0000
  C   C1257     1.0  0.48769  0.86659  0.19410  1.0000
  H   H1495     1.0  0.55806  0.76205  0.07256  1.0000
  C   C1258     1.0  0.37593  0.80333  0.02295  1.0000
  C   C1259     1.0  0.46863  0.87763  0.19793  1.0000
  H   H1496     1.0  0.43735  0.87887  0.19961  1.0000
  C   C1260     1.0  0.62018  0.67970  0.97487  1.0000
  C   C1261     1.0  0.60044  0.75003  0.05530  1.0000
  C   C1262     1.0  0.59173  0.77327  0.09660  1.0000
  C   C1263     1.0  0.64472  0.71087  0.97543  1.0000
  H   H1497     1.0  0.43909  0.95246  0.09059  1.0000
  C   C1264     1.0  0.46108  0.91697  0.09071  1.0000
  H   H1498     1.0  0.60979  0.73736  0.04835  1.0000
  H   H1499     1.0  0.58213  0.49138  0.97987  1.0000
  H   H1500     1.0  0.41517  0.85713  0.21233  1.0000
  C   C1265     1.0  0.60449  0.53607  0.98824  1.0000
  H   H1501     1.0  0.41219  0.85024  0.17245  1.0000
  C   C1266     1.0  0.37704  0.69929  0.98501  1.0000
  C   C1267     1.0  0.64663  0.66511  0.02800  1.0000
  H   H1502     1.0  0.62564  0.81561  0.06128  1.0000
  C   C1268     1.0  0.42857  0.68989  0.01258  1.0000
  S   S332      1.0  0.56758  0.55914  0.99622  1.0000
  N   N84       1.0  0.46913  0.93623  0.08548  1.0000
  H   H1503     1.0  0.38688  0.69121  0.01239  1.0000
  C   C1269     1.0  0.38255  0.78430  0.03246  1.0000
  H   H1504     1.0  0.40889  0.49059  0.01588  1.0000
  H   H1505     1.0  0.48031  0.55057  0.97775  1.0000
  S   S333      1.0  0.61282  0.59102  0.97534  1.0000
  C   C1270     1.0  0.55291  0.78621  0.08869  1.0000
  H   H1506     1.0  0.61454  0.73445  0.09959  1.0000
  C   C1271     1.0  0.63755  0.91821  0.18392  1.0000
  C   C1272     1.0  0.57999  0.79017  0.10369  1.0000
  H   H1507     1.0  0.37716  0.77132  0.02998  1.0000
  H   H1508     1.0  0.41654  0.51263  0.00043  1.0000
  C   C1273     1.0  0.44003  0.82201  0.18466  1.0000
  H   H1509     1.0  0.50079  0.87293  0.19454  1.0000
  H   H1510     1.0  0.47439  0.57355  0.98774  1.0000
  C   C1274     1.0  0.47336  0.83955  0.18754  1.0000
  H   H1511     1.0  0.48338  0.93116  0.05666  1.0000
  H   H1512     1.0  0.33835  0.62924  0.06260  1.0000
  Fe  Fe166     1.0  0.32593  0.72928  0.01200  1.0000
  H   H1513     1.0  0.36222  0.70590  0.99136  1.0000
  C   C1275     1.0  0.35581  0.89335  0.21277  1.0000
  C   C1276     1.0  0.51033  0.56893  0.00003  1.0000
  H   H1514     1.0  0.32346  0.62203  0.00382  1.0000
  H   H1515     1.0  0.32508  0.66542  0.05944  1.0000
  H   H1516     1.0  0.41473  0.69495  0.02261  1.0000
  H   H1517     1.0  0.61192  0.96759  0.08191  1.0000
  C   C1277     1.0  0.64052  0.78411  0.10901  1.0000
  Fe  Fe167     1.0  0.56594  0.63188  0.97433  1.0000
  C   C1278     1.0  0.60917  0.50283  0.97931  1.0000
  H   H1518     1.0  0.49245  0.96594  0.07884  1.0000
  C   C1279     1.0  0.58844  0.50371  0.98232  1.0000
  H   H1519     1.0  0.52407  0.96472  0.08960  1.0000
  C   C1280     1.0  0.32368  0.62631  0.07152  1.0000
  C   C1281     1.0  0.65059  0.89253  0.20853  1.0000
  H   H1520     1.0  0.32511  0.62583  0.08698  1.0000
  S   S334      1.0  0.32177  0.71424  0.06860  1.0000
  C   C1282     1.0  0.51863  0.54204  0.98125  1.0000
  N   N85       1.0  0.50576  0.56167  0.98321  1.0000
  H   H1521     1.0  0.65145  0.84819  0.11060  1.0000
  H   H1522     1.0  0.60727  0.97032  0.02239  1.0000
  Fe  Fe168     1.0  0.50628  0.97243  0.02579  1.0000
  H   H1523     1.0  0.53468  0.54392  0.97740  1.0000
  C   C1283     1.0  0.60746  0.97623  0.06856  1.0000
  S   S335      1.0  0.53121  0.97785  0.00092  1.0000
  C   C1284     1.0  0.60467  0.97814  0.03476  1.0000
  H   H1524     1.0  0.65338  0.97362  0.20758  1.0000
  H   H1525     1.0  0.52446  0.59626  0.97435  1.0000
  H   H1526     1.0  0.32128  0.61111  0.07020  1.0000
  H   H1527     1.0  0.42923  0.83336  0.22090  1.0000
  S   S336      1.0  0.65437  0.74077  0.04099  1.0000
  H   H1528     1.0  0.51497  0.97767  0.35445  1.0000
  S   S337      1.0  0.34978  0.87336  0.25067  1.0000
  S   S338      1.0  0.34918  0.92327  0.27400  1.0000
  H   H1529     1.0  0.36693  0.84302  0.22674  1.0000
  Fe  Fe169     1.0  0.33163  0.91635  0.30393  1.0000
  S   S339      1.0  0.34537  0.91460  0.33054  1.0000
  Fe  Fe170     1.0  0.33471  0.90011  0.26581  1.0000
  H   H1530     1.0  0.39395  0.95825  0.24162  1.0000
  C   C1285     1.0  0.35081  0.97341  0.32166  1.0000
  H   H1531     1.0  0.62634  0.95628  0.33690  1.0000
  H   H1532     1.0  0.37713  0.94645  0.28376  1.0000
  H   H1533     1.0  0.60599  0.94787  0.31508  1.0000
  C   C1286     1.0  0.59647  0.94006  0.30910  1.0000
  S   S340      1.0  0.47520  0.97843  0.34677  1.0000
  S   S341      1.0  0.64991  0.93826  0.30404  1.0000
  C   C1287     1.0  0.63171  0.96805  0.32579  1.0000
  H   H1534     1.0  0.61472  0.94131  0.27084  1.0000
  H   H1535     1.0  0.58379  0.93674  0.32098  1.0000
  H   H1536     1.0  0.60579  0.92558  0.30583  1.0000
  H   H1537     1.0  0.58628  0.92687  0.27924  1.0000
  C   C1288     1.0  0.64446  0.96314  0.30874  1.0000
  H   H1538     1.0  0.61873  0.96109  0.28126  1.0000
  H   H1539     1.0  0.40360  0.94602  0.27583  1.0000
  C   C1289     1.0  0.37669  0.95536  0.33972  1.0000
  C   C1290     1.0  0.36948  0.93736  0.34040  1.0000
  C   C1291     1.0  0.35341  0.93730  0.33104  1.0000
  C   C1292     1.0  0.34404  0.95542  0.32181  1.0000
  H   H1540     1.0  0.39004  0.95905  0.29539  1.0000
  H   H1541     1.0  0.38959  0.95516  0.34628  1.0000
  H   H1542     1.0  0.37676  0.92339  0.34764  1.0000
  C   C1293     1.0  0.65164  0.97843  0.29467  1.0000
  C   C1294     1.0  0.55678  0.97603  0.30016  1.0000
  S   S342      1.0  0.32540  0.97621  0.25238  1.0000
  C   C1295     1.0  0.36754  0.97336  0.33003  1.0000
  C   C1296     1.0  0.57712  0.94069  0.28433  1.0000
  N   N86       1.0  0.58933  0.95239  0.29158  1.0000
  H   H1543     1.0  0.60252  0.96641  0.26331  1.0000
  S   S343      1.0  0.41689  0.97445  0.36469  1.0000
  H   H1544     1.0  0.54762  0.96552  0.29868  1.0000
  C   C1297     1.0  0.38934  0.95566  0.28087  1.0000
  H   H1545     1.0  0.56506  0.93534  0.29596  1.0000
  C   C1298     1.0  0.60695  0.95556  0.27608  1.0000
  H   H1546     1.0  0.36841  0.95845  0.25330  1.0000
  H   H1547     1.0  0.55106  0.97880  0.46291  1.0000
  H   H1548     1.0  0.33149  0.95563  0.31480  1.0000
  C   C1299     1.0  0.57806  0.97180  0.29683  1.0000
  H   H1549     1.0  0.57031  0.94974  0.27183  1.0000
  H   H1550     1.0  0.46554  0.97249  0.42756  1.0000
  N   N87       1.0  0.38546  0.97401  0.26636  1.0000
  C   C1300     1.0  0.38077  0.96757  0.24913  1.0000
  C   C1301     1.0  0.35758  0.87497  0.22518  1.0000
  H   H1551     1.0  0.35443  0.97911  0.27934  1.0000
  Fe  Fe171     1.0  0.32135  0.94493  0.26838  1.0000
  S   S344      1.0  0.61224  0.85333  0.70325  1.0000
  Fe  Fe172     1.0  0.34609  0.93788  0.59724  1.0000
  S   S345      1.0  0.35053  0.94169  0.62674  1.0000
  S   S346      1.0  0.36953  0.94574  0.57133  1.0000
  Fe  Fe173     1.0  0.33953  0.91208  0.63686  1.0000
  S   S347      1.0  0.35539  0.88513  0.65505  1.0000
  S   S348      1.0  0.33746  0.90713  0.60680  1.0000
  H   H1552     1.0  0.35459  0.91342  0.71417  1.0000
  H   H1553     1.0  0.42204  0.88560  0.63036  1.0000
  C   C1302     1.0  0.62026  0.94273  0.57857  1.0000
  H   H1554     1.0  0.60566  0.97735  0.60892  1.0000
  C   C1303     1.0  0.63617  0.95649  0.70168  1.0000
  H   H1555     1.0  0.58951  0.94130  0.54704  1.0000
  C   C1304     1.0  0.36026  0.90090  0.70631  1.0000
  H   H1556     1.0  0.36027  0.96502  0.52892  1.0000
  C   C1305     1.0  0.43186  0.88055  0.65821  1.0000
  H   H1557     1.0  0.65047  0.85142  0.71575  1.0000
  C   C1306     1.0  0.60374  0.96652  0.54713  1.0000
  H   H1558     1.0  0.44374  0.86874  0.65389  1.0000
  C   C1307     1.0  0.41277  0.90182  0.68131  1.0000
  H   H1559     1.0  0.37913  0.96775  0.47656  1.0000
  C   C1308     1.0  0.42856  0.88581  0.67716  1.0000
  H   H1560     1.0  0.44766  0.84630  0.68089  1.0000
  C   C1309     1.0  0.46222  0.87814  0.68458  1.0000
  H   H1561     1.0  0.35302  0.96941  0.48775  1.0000
  C   C1310     1.0  0.38894  0.97776  0.55582  1.0000
  C   C1311     1.0  0.36223  0.88545  0.67772  1.0000
  C   C1312     1.0  0.35518  0.90166  0.68788  1.0000
  H   H1562     1.0  0.39436  0.91273  0.63877  1.0000
  H   H1563     1.0  0.42500  0.84995  0.69816  1.0000
  C   C1313     1.0  0.44067  0.85298  0.69420  1.0000
  C   C1314     1.0  0.37458  0.86864  0.68602  1.0000
  H   H1564     1.0  0.34563  0.91465  0.68165  1.0000
  H   H1565     1.0  0.39575  0.96371  0.51322  1.0000
  H   H1566     1.0  0.64442  0.96829  0.69371  1.0000
  H   H1567     1.0  0.38005  0.85606  0.67822  1.0000
  C   C1315     1.0  0.60749  0.93533  0.56966  1.0000
  C   C1316     1.0  0.37184  0.97122  0.56759  1.0000
  H   H1568     1.0  0.46867  0.87245  0.67062  1.0000
  C   C1317     1.0  0.62506  0.96198  0.57159  1.0000
  C   C1318     1.0  0.36857  0.96747  0.49069  1.0000
  H   H1569     1.0  0.43587  0.89719  0.71056  1.0000
  C   C1319     1.0  0.64998  0.86192  0.70238  1.0000
  C   C1320     1.0  0.37978  0.86795  0.70436  1.0000
  C   C1321     1.0  0.62989  0.92238  0.70614  1.0000
  C   C1322     1.0  0.63324  0.87821  0.67534  1.0000
  H   H1570     1.0  0.40121  0.96689  0.55023  1.0000
  H   H1571     1.0  0.34401  0.81980  0.71772  1.0000
  C   C1323     1.0  0.64914  0.88895  0.66749  1.0000
  C   C1324     1.0  0.59943  0.94710  0.55384  1.0000
  H   H1572     1.0  0.41927  0.87865  0.71743  1.0000
  C   C1325     1.0  0.39188  0.97907  0.50509  1.0000
  H   H1573     1.0  0.37178  0.95208  0.49900  1.0000
  H   H1574     1.0  0.38864  0.92344  0.67099  1.0000
  C   C1326     1.0  0.41967  0.89021  0.64455  1.0000
  H   H1575     1.0  0.44900  0.84440  0.70590  1.0000
  C   C1327     1.0  0.62134  0.96010  0.71768  1.0000
  S   S349      1.0  0.65179  0.94484  0.63775  1.0000
  H   H1576     1.0  0.40885  0.90682  0.69533  1.0000
  C   C1328     1.0  0.40415  0.90562  0.64919  1.0000
  H   H1577     1.0  0.46330  0.89441  0.68219  1.0000
  H   H1578     1.0  0.63501  0.96771  0.57836  1.0000
  C   C1329     1.0  0.59352  0.90231  0.71939  1.0000
  H   H1579     1.0  0.60374  0.92046  0.57503  1.0000
  C   C1330     1.0  0.43486  0.88113  0.71110  1.0000
  H   H1580     1.0  0.33306  0.83759  0.68747  1.0000
  C   C1331     1.0  0.63345  0.86490  0.69295  1.0000
  H   H1581     1.0  0.62057  0.88048  0.66789  1.0000
  N   N88       1.0  0.44124  0.87482  0.69159  1.0000
  H   H1582     1.0  0.64865  0.89938  0.65405  1.0000
  C   C1332     1.0  0.40091  0.91159  0.66740  1.0000
  S   S350      1.0  0.62982  0.92738  0.59840  1.0000
  C   C1333     1.0  0.33699  0.83529  0.71732  1.0000
  H   H1583     1.0  0.60409  0.89654  0.70695  1.0000
  H   H1584     1.0  0.38923  0.85493  0.71053  1.0000
  C   C1334     1.0  0.37249  0.88403  0.71466  1.0000
  H   H1585     1.0  0.64677  0.91999  0.54513  1.0000
  H   H1586     1.0  0.63377  0.90804  0.70111  1.0000
  C   C1335     1.0  0.33068  0.84526  0.69996  1.0000
  C   C1336     1.0  0.64046  0.93763  0.69597  1.0000
  H   H1587     1.0  0.47211  0.87025  0.69530  1.0000
  H   H1588     1.0  0.58273  0.91487  0.71319  1.0000
  C   C1337     1.0  0.61657  0.97402  0.55600  1.0000
  H   H1589     1.0  0.65213  0.93471  0.68363  1.0000
  C   C1338     1.0  0.32196  0.86537  0.69833  1.0000
  H   H1590     1.0  0.37051  0.70584  0.95591  1.0000
  Fe  Fe174     1.0  0.51038  0.94824  0.85126  1.0000
  S   S351      1.0  0.47679  0.95314  0.85721  1.0000
  C   C1339     1.0  0.49241  0.81957  0.76694  1.0000
  Fe  Fe175     1.0  0.51382  0.90309  0.86193  1.0000
  S   S352      1.0  0.48079  0.90375  0.86900  1.0000
  S   S353      1.0  0.53359  0.87326  0.86490  1.0000
  Fe  Fe176     1.0  0.47987  0.92655  0.84199  1.0000
  S   S354      1.0  0.46133  0.92711  0.81913  1.0000
  Fe  Fe177     1.0  0.48052  0.92993  0.88369  1.0000
  S   S355      1.0  0.46313  0.93143  0.91378  1.0000
  S   S356      1.0  0.51315  0.92378  0.83352  1.0000
  S   S357      1.0  0.51378  0.92720  0.87904  1.0000
  H   H1591     1.0  0.62626  0.55100  0.89464  1.0000
  C   C1340     1.0  0.56682  0.94549  0.87000  1.0000
  Fe  Fe178     1.0  0.42738  0.62405  0.94163  1.0000
  H   H1592     1.0  0.54598  0.54830  0.94021  1.0000
  S   S358      1.0  0.42510  0.65190  0.91913  1.0000
  H   H1593     1.0  0.56868  0.51578  0.94349  1.0000
  H   H1594     1.0  0.59584  0.57973  0.92483  1.0000
  S   S359      1.0  0.32776  0.69977  0.83415  1.0000
  S   S360      1.0  0.45589  0.60464  0.94885  1.0000
  S   S361      1.0  0.42549  0.49985  0.89703  1.0000
  H   H1595     1.0  0.42949  0.67565  0.96126  1.0000
  C   C1341     1.0  0.36062  0.59899  0.92867  1.0000
  H   H1596     1.0  0.52953  0.96217  0.88695  1.0000
  H   H1597     1.0  0.48532  0.96402  0.89996  1.0000
  S   S362      1.0  0.41008  0.59855  0.94575  1.0000
  H   H1598     1.0  0.57087  0.95945  0.86042  1.0000
  S   S363      1.0  0.53016  0.97200  0.84111  1.0000
  Fe  Fe179     1.0  0.60233  0.61146  0.94962  1.0000
  S   S364      1.0  0.65401  0.71896  0.84830  1.0000
  S   S365      1.0  0.61941  0.61285  0.91910  1.0000
  S   S366      1.0  0.45356  0.54835  0.95129  1.0000
  H   H1599     1.0  0.52732  0.91746  0.94960  1.0000
  Fe  Fe180     1.0  0.33974  0.68100  0.86036  1.0000
  H   H1600     1.0  0.63714  0.79050  0.87173  1.0000
  S   S367      1.0  0.41661  0.83173  0.74173  1.0000
  Fe  Fe181     1.0  0.62439  0.80614  0.76667  1.0000
  S   S368      1.0  0.62951  0.83772  0.75472  1.0000
  Fe  Fe182     1.0  0.57941  0.81699  0.76626  1.0000
  Fe  Fe183     1.0  0.60197  0.84672  0.77559  1.0000
  S   S369      1.0  0.60119  0.87262  0.79095  1.0000
  S   S370      1.0  0.59827  0.81526  0.78924  1.0000
  Fe  Fe184     1.0  0.41544  0.84704  0.79177  1.0000
  S   S371      1.0  0.43390  0.81847  0.78309  1.0000
  S   S372      1.0  0.41664  0.85424  0.82121  1.0000
  Fe  Fe185     1.0  0.40672  0.81515  0.77170  1.0000
  S   S373      1.0  0.39544  0.78582  0.77353  1.0000
  Fe  Fe186     1.0  0.44207  0.83761  0.75426  1.0000
  S   S374      1.0  0.38752  0.84219  0.78284  1.0000
  C   C1342     1.0  0.35649  0.60260  0.90977  1.0000
  S   S375      1.0  0.36766  0.65776  0.85822  1.0000
  C   C1343     1.0  0.37617  0.77846  0.79248  1.0000
  C   C1344     1.0  0.36910  0.76052  0.79283  1.0000
  C   C1345     1.0  0.35421  0.75391  0.80806  1.0000
  C   C1346     1.0  0.34637  0.76516  0.82314  1.0000
  C   C1347     1.0  0.35310  0.78334  0.82252  1.0000
  C   C1348     1.0  0.36796  0.78996  0.80729  1.0000
  H   H1601     1.0  0.37527  0.75167  0.78130  1.0000
  H   H1602     1.0  0.34880  0.74012  0.80816  1.0000
  H   H1603     1.0  0.34703  0.79219  0.83407  1.0000
  H   H1604     1.0  0.37334  0.80375  0.80722  1.0000
  H   H1605     1.0  0.46649  0.50863  0.94266  1.0000
  C   C1349     1.0  0.32922  0.72796  0.94350  1.0000
  H   H1606     1.0  0.54732  0.97914  0.87963  1.0000
  Fe  Fe187     1.0  0.43775  0.57950  0.95567  1.0000
  H   H1607     1.0  0.33731  0.63612  0.96832  1.0000
  C   C1350     1.0  0.51289  0.83565  0.73881  1.0000
  H   H1608     1.0  0.34649  0.86008  0.76302  1.0000
  C   C1351     1.0  0.49405  0.83110  0.74837  1.0000
  H   H1609     1.0  0.56213  0.90920  0.88270  1.0000
  H   H1610     1.0  0.55497  0.94112  0.86380  1.0000
  S   S376      1.0  0.54955  0.80625  0.77722  1.0000
  H   H1611     1.0  0.61149  0.83742  0.84194  1.0000
  H   H1612     1.0  0.43769  0.77253  0.80020  1.0000
  H   H1613     1.0  0.47806  0.81591  0.77446  1.0000
  H   H1614     1.0  0.41978  0.51624  0.96530  1.0000
  H   H1615     1.0  0.33312  0.67460  0.92448  1.0000
  H   H1616     1.0  0.49986  0.48207  0.93512  1.0000
  C   C1352     1.0  0.63590  0.75870  0.80277  1.0000
  C   C1353     1.0  0.40927  0.65308  0.90226  1.0000
  C   C1354     1.0  0.40697  0.63588  0.89563  1.0000
  C   C1355     1.0  0.39446  0.63747  0.88184  1.0000
  C   C1356     1.0  0.38341  0.65605  0.87543  1.0000
  C   C1357     1.0  0.38542  0.67310  0.88248  1.0000
  C   C1358     1.0  0.39865  0.67171  0.89548  1.0000
  H   H1617     1.0  0.41519  0.62145  0.90077  1.0000
  H   H1618     1.0  0.39305  0.62420  0.87642  1.0000
  H   H1619     1.0  0.37695  0.68743  0.87788  1.0000
  H   H1620     1.0  0.40035  0.68503  0.90064  1.0000
  C   C1359     1.0  0.44844  0.50472  0.92261  1.0000
  C   C1360     1.0  0.43141  0.54492  0.92402  1.0000
  C   C1361     1.0  0.42535  0.53401  0.91193  1.0000
  C   C1362     1.0  0.43369  0.51381  0.91141  1.0000
  H   H1621     1.0  0.42471  0.56040  0.92464  1.0000
  H   H1622     1.0  0.41397  0.54112  0.90323  1.0000
  H   H1623     1.0  0.63469  0.51792  0.91665  1.0000
  C   C1363     1.0  0.50953  0.81218  0.77562  1.0000
  H   H1624     1.0  0.65321  0.65256  0.96876  1.0000
  H   H1625     1.0  0.34386  0.83824  0.78082  1.0000
  C   C1364     1.0  0.44617  0.53574  0.93523  1.0000
  H   H1626     1.0  0.50450  0.65334  0.95212  1.0000
  H   H1627     1.0  0.61951  0.82156  0.86282  1.0000
  H   H1628     1.0  0.54448  0.83181  0.74001  1.0000
  H   H1629     1.0  0.57152  0.95748  0.91299  1.0000
  H   H1630     1.0  0.62302  0.76214  0.79548  1.0000
  C   C1365     1.0  0.45014  0.90606  0.81953  1.0000
  C   C1366     1.0  0.44979  0.89038  0.83530  1.0000
  C   C1367     1.0  0.43943  0.87453  0.83579  1.0000
  C   C1368     1.0  0.42999  0.87393  0.82020  1.0000
  C   C1369     1.0  0.43070  0.88942  0.80428  1.0000
  C   C1370     1.0  0.44067  0.90547  0.80399  1.0000
  H   H1631     1.0  0.45715  0.89059  0.84725  1.0000
  H   H1632     1.0  0.43881  0.86266  0.84820  1.0000
  H   H1633     1.0  0.42285  0.88954  0.79256  1.0000
  H   H1634     1.0  0.44073  0.91763  0.79182  1.0000
  C   C1371     1.0  0.55345  0.87293  0.84534  1.0000
  C   C1372     1.0  0.56230  0.85478  0.83892  1.0000
  C   C1373     1.0  0.57694  0.85462  0.82213  1.0000
  C   C1374     1.0  0.58321  0.87253  0.81216  1.0000
  C   C1375     1.0  0.57495  0.89058  0.81910  1.0000
  C   C1376     1.0  0.55991  0.89082  0.83558  1.0000
  H   H1635     1.0  0.55736  0.84092  0.84653  1.0000
  H   H1636     1.0  0.58336  0.84064  0.81700  1.0000
  H   H1637     1.0  0.57989  0.90444  0.81151  1.0000
  H   H1638     1.0  0.55338  0.90483  0.84076  1.0000
  H   H1639     1.0  0.51247  0.51992  0.90462  1.0000
  C   C1377     1.0  0.49572  0.48472  0.88722  1.0000
  C   C1378     1.0  0.47719  0.93745  0.94558  1.0000
  C   C1379     1.0  0.47623  0.94355  0.92573  1.0000
  C   C1380     1.0  0.48625  0.95908  0.91519  1.0000
  Fe  Fe188     1.0  0.32256  0.72490  0.85170  1.0000
  C   C1381     1.0  0.53000  0.82849  0.74762  1.0000
  C   C1382     1.0  0.33467  0.65026  0.95791  1.0000
  C   C1383     1.0  0.63802  0.82230  0.81473  1.0000
  H   H1640     1.0  0.60598  0.80630  0.83073  1.0000
  H   H1641     1.0  0.55986  0.58002  0.93123  1.0000
  N   N89       1.0  0.39897  0.70880  0.82617  1.0000
  C   C1384     1.0  0.41236  0.69162  0.83531  1.0000
  C   C1385     1.0  0.38053  0.71256  0.84068  1.0000
  C   C1386     1.0  0.39308  0.70291  0.80929  1.0000
  C   C1387     1.0  0.40951  0.72637  0.81955  1.0000
  C   C1388     1.0  0.40255  0.74499  0.82654  1.0000
  C   C1389     1.0  0.42732  0.72518  0.80550  1.0000
  C   C1390     1.0  0.41281  0.76131  0.81971  1.0000
  C   C1391     1.0  0.43738  0.74164  0.79873  1.0000
  C   C1392     1.0  0.43011  0.75968  0.80578  1.0000
  H   H1642     1.0  0.40477  0.67819  0.84066  1.0000
  H   H1643     1.0  0.42602  0.68676  0.82502  1.0000
  H   H1644     1.0  0.41724  0.69545  0.84803  1.0000
  H   H1645     1.0  0.38386  0.71631  0.85417  1.0000
  H   H1646     1.0  0.37286  0.69917  0.84505  1.0000
  H   H1647     1.0  0.36943  0.72492  0.83476  1.0000
  H   H1648     1.0  0.38365  0.71571  0.80157  1.0000
  H   H1649     1.0  0.40619  0.69785  0.79849  1.0000
  H   H1650     1.0  0.38434  0.69023  0.81391  1.0000
  H   H1651     1.0  0.38899  0.74757  0.83695  1.0000
  H   H1652     1.0  0.43350  0.71157  0.79948  1.0000
  H   H1653     1.0  0.40699  0.77555  0.82482  1.0000
  H   H1654     1.0  0.45077  0.74053  0.78775  1.0000
  H   H1655     1.0  0.35968  0.67390  0.91671  1.0000
  C   C1393     1.0  0.34857  0.63822  0.91115  1.0000
  C   C1394     1.0  0.58863  0.91424  0.74992  1.0000
  H   H1656     1.0  0.37333  0.63688  0.95972  1.0000
  C   C1395     1.0  0.40065  0.69042  0.95685  1.0000
  H   H1657     1.0  0.64396  0.61016  0.94813  1.0000
  H   H1658     1.0  0.58525  0.88975  0.72668  1.0000
  C   C1396     1.0  0.50240  0.64488  0.96668  1.0000
  C   C1397     1.0  0.64822  0.63616  0.90204  1.0000
  H   H1659     1.0  0.54274  0.49549  0.90278  1.0000
  H   H1660     1.0  0.62772  0.55060  0.95457  1.0000
  C   C1398     1.0  0.55252  0.93077  0.90341  1.0000
  C   C1399     1.0  0.64716  0.73661  0.93984  1.0000
  H   H1661     1.0  0.53891  0.97153  0.90479  1.0000
  C   C1400     1.0  0.33248  0.81647  0.75933  1.0000
  H   H1662     1.0  0.48214  0.51368  0.89484  1.0000
  H   H1663     1.0  0.33728  0.80842  0.77326  1.0000
  H   H1664     1.0  0.34719  0.62499  0.88633  1.0000
  N   N90       1.0  0.41752  0.91861  0.88284  1.0000
  C   C1401     1.0  0.43023  0.93387  0.87264  1.0000
  C   C1402     1.0  0.40289  0.92754  0.89843  1.0000
  C   C1403     1.0  0.43074  0.90124  0.89200  1.0000
  C   C1404     1.0  0.40673  0.91189  0.86977  1.0000
  C   C1405     1.0  0.39584  0.89566  0.87672  1.0000
  C   C1406     1.0  0.40664  0.92104  0.85002  1.0000
  C   C1407     1.0  0.38638  0.88839  0.86442  1.0000
  C   C1408     1.0  0.39686  0.91382  0.83795  1.0000
  C   C1409     1.0  0.38702  0.89736  0.84503  1.0000
  H   H1665     1.0  0.42120  0.94806  0.86667  1.0000
  H   H1666     1.0  0.43877  0.93808  0.88263  1.0000
  H   H1667     1.0  0.44137  0.92816  0.86046  1.0000
  H   H1668     1.0  0.39262  0.94061  0.89216  1.0000
  H   H1669     1.0  0.41056  0.93287  0.90848  1.0000
  H   H1670     1.0  0.39351  0.91660  0.90749  1.0000
  H   H1671     1.0  0.44043  0.89271  0.88080  1.0000
  H   H1672     1.0  0.44070  0.90603  0.90026  1.0000
  H   H1673     1.0  0.42229  0.89057  0.90269  1.0000
  H   H1674     1.0  0.39487  0.88822  0.89164  1.0000
  H   H1675     1.0  0.41460  0.93334  0.84325  1.0000
  H   H1676     1.0  0.37885  0.87546  0.86977  1.0000
  H   H1677     1.0  0.51433  0.84452  0.72442  1.0000
  H   H1678     1.0  0.38031  0.89124  0.83533  1.0000
  N   N91       1.0  0.35149  0.65176  0.94137  1.0000
  C   C1410     1.0  0.53022  0.49195  0.89781  1.0000
  H   H1679     1.0  0.64811  0.55831  0.93643  1.0000
  C   C1411     1.0  0.62481  0.82793  0.84746  1.0000
  C   C1412     1.0  0.35315  0.63512  0.93028  1.0000
  H   H1680     1.0  0.64925  0.67851  0.93044  1.0000
  H   H1681     1.0  0.62673  0.89596  0.75042  1.0000
  H   H1682     1.0  0.64110  0.63917  0.88929  1.0000
  H   H1683     1.0  0.49621  0.55914  0.94797  1.0000
  Fe  Fe189     1.0  0.60865  0.83756  0.73444  1.0000
  H   H1684     1.0  0.58223  0.96688  0.88861  1.0000
  H   H1685     1.0  0.52974  0.61789  0.94337  1.0000
  N   N92       1.0  0.63847  0.68274  0.96040  1.0000
  C   C1413     1.0  0.35028  0.62214  0.90112  1.0000
  C   C1414     1.0  0.48869  0.94649  0.95469  1.0000
  C   C1415     1.0  0.63145  0.55779  0.90541  1.0000
  C   C1416     1.0  0.53699  0.89772  0.92815  1.0000
  H   H1686     1.0  0.62939  0.88543  0.72855  1.0000
  H   H1687     1.0  0.63282  0.66173  0.94374  1.0000
  H   H1688     1.0  0.59557  0.91848  0.76115  1.0000
  H   H1689     1.0  0.32218  0.85230  0.77162  1.0000
  H   H1690     1.0  0.36541  0.58377  0.93543  1.0000
  H   H1691     1.0  0.45517  0.48926  0.92205  1.0000
  H   H1692     1.0  0.33234  0.66298  0.96624  1.0000
  N   N93       1.0  0.50949  0.86310  0.80521  1.0000
  C   C1417     1.0  0.53008  0.85169  0.80379  1.0000
  C   C1418     1.0  0.50501  0.86949  0.78510  1.0000
  C   C1419     1.0  0.50884  0.88153  0.81351  1.0000
  C   C1420     1.0  0.49547  0.85044  0.81801  1.0000
  C   C1421     1.0  0.48034  0.84363  0.81114  1.0000
  C   C1422     1.0  0.49711  0.84404  0.83797  1.0000
  C   C1423     1.0  0.46774  0.83124  0.82356  1.0000
  C   C1424     1.0  0.48432  0.83176  0.85028  1.0000
  C   C1425     1.0  0.46965  0.82538  0.84308  1.0000
  H   H1693     1.0  0.54121  0.86035  0.79391  1.0000
  H   H1694     1.0  0.53509  0.84753  0.81815  1.0000
  H   H1695     1.0  0.53099  0.83744  0.79816  1.0000
  H   H1696     1.0  0.50647  0.85637  0.77749  1.0000
  H   H1697     1.0  0.51559  0.87922  0.77593  1.0000
  H   H1698     1.0  0.48965  0.87821  0.78517  1.0000
  H   H1699     1.0  0.51425  0.87828  0.82770  1.0000
  H   H1700     1.0  0.51849  0.89186  0.80377  1.0000
  H   H1701     1.0  0.49332  0.88994  0.81586  1.0000
  H   H1702     1.0  0.47782  0.84768  0.79626  1.0000
  H   H1703     1.0  0.50843  0.84838  0.84419  1.0000
  H   H1704     1.0  0.45613  0.82648  0.81805  1.0000
  H   H1705     1.0  0.48585  0.82714  0.86546  1.0000
  H   H1706     1.0  0.45965  0.81597  0.85263  1.0000
  S   S377      1.0  0.47299  0.83964  0.73658  1.0000
  S   S378      1.0  0.53833  0.65424  0.96976  1.0000
  C   C1426     1.0  0.54317  0.96603  0.89055  1.0000
  C   C1427     1.0  0.34774  0.67193  0.92959  1.0000
  C   C1428     1.0  0.33843  0.84689  0.76740  1.0000
  C   C1429     1.0  0.50351  0.57182  0.94760  1.0000
  C   C1430     1.0  0.49563  0.50264  0.89369  1.0000
  C   C1431     1.0  0.50673  0.58461  0.92982  1.0000
  H   H1707     1.0  0.50818  0.80293  0.78983  1.0000
  C   C1432     1.0  0.57629  0.95367  0.89800  1.0000
  S   S379      1.0  0.58117  0.84930  0.75450  1.0000
  S   S380      1.0  0.60544  0.80502  0.74450  1.0000
  S   S381      1.0  0.37800  0.88359  0.73809  1.0000
  H   H1708     1.0  0.32667  0.72253  0.91523  1.0000
  Fe  Fe190     1.0  0.39896  0.85897  0.75352  1.0000
  C   C1433     1.0  0.45487  0.51573  0.93424  1.0000
  H   H1709     1.0  0.61471  0.79133  0.85173  1.0000
  H   H1710     1.0  0.36978  0.66335  0.95677  1.0000
  H   H1711     1.0  0.37975  0.49796  0.85725  1.0000
  C   C1434     1.0  0.38169  0.69916  0.96501  1.0000
  H   H1712     1.0  0.62393  0.73568  0.82468  1.0000
  H   H1713     1.0  0.50165  0.58177  0.91723  1.0000
  C   C1435     1.0  0.36410  0.82797  0.74711  1.0000
  H   H1714     1.0  0.58100  0.90128  0.75747  1.0000
  N   N94       1.0  0.62595  0.54718  0.92550  1.0000
  C   C1436     1.0  0.63177  0.55785  0.93929  1.0000
  C   C1437     1.0  0.51280  0.50621  0.89904  1.0000
  H   H1715     1.0  0.60673  0.68968  0.97018  1.0000
  C   C1438     1.0  0.60408  0.54709  0.92994  1.0000
  C   C1439     1.0  0.59556  0.52914  0.93544  1.0000
  C   C1440     1.0  0.59053  0.56544  0.92860  1.0000
  C   C1441     1.0  0.57482  0.52967  0.93903  1.0000
  C   C1442     1.0  0.56984  0.56579  0.93222  1.0000
  C   C1443     1.0  0.56201  0.54795  0.93736  1.0000
  H   H1716     1.0  0.62421  0.57365  0.93841  1.0000
  H   H1717     1.0  0.51833  0.61128  0.91462  1.0000
  C   C1444     1.0  0.64218  0.70357  0.95875  1.0000
  C   C1445     1.0  0.53516  0.91581  0.93498  1.0000
  H   H1718     1.0  0.63557  0.83807  0.84757  1.0000
  S   S382      1.0  0.33691  0.70667  0.87654  1.0000
  H   H1719     1.0  0.58037  0.93383  0.86851  1.0000
  H   H1720     1.0  0.37193  0.84110  0.74125  1.0000
  S   S383      1.0  0.59676  0.63931  0.96299  1.0000
  H   H1721     1.0  0.60457  0.51447  0.93741  1.0000
  C   C1446     1.0  0.52841  0.81644  0.76594  1.0000
  H   H1722     1.0  0.63533  0.51826  0.94192  1.0000
  S   S384      1.0  0.42513  0.86635  0.76360  1.0000
  H   H1723     1.0  0.54105  0.94575  0.92890  1.0000
  H   H1724     1.0  0.53051  0.88533  0.93740  1.0000
  H   H1725     1.0  0.40098  0.49653  0.82500  1.0000
  H   H1726     1.0  0.64790  0.55738  0.90121  1.0000
  N   N95       1.0  0.55961  0.94858  0.89058  1.0000
  H   H1727     1.0  0.62410  0.83114  0.80990  1.0000
  C   C1447     1.0  0.63643  0.74375  0.81930  1.0000
  H   H1728     1.0  0.34396  0.65293  0.90336  1.0000
  C   C1448     1.0  0.49882  0.96195  0.94403  1.0000
  H   H1729     1.0  0.40423  0.68995  0.94130  1.0000
  C   C1449     1.0  0.64930  0.74335  0.95652  1.0000
  H   H1730     1.0  0.39764  0.92051  0.82274  1.0000
  C   C1450     1.0  0.65319  0.73895  0.82868  1.0000
  H   H1731     1.0  0.33637  0.80527  0.74921  1.0000
  H   H1732     1.0  0.37018  0.81998  0.76034  1.0000
  N   N96       1.0  0.34222  0.83450  0.75160  1.0000
  H   H1733     1.0  0.40051  0.49597  0.86921  1.0000
  S   S385      1.0  0.65291  0.78637  0.77394  1.0000
  C   C1451     1.0  0.51607  0.60122  0.92833  1.0000
  C   C1452     1.0  0.63804  0.52677  0.92688  1.0000
  C   C1453     1.0  0.51921  0.59232  0.96242  1.0000
  H   H1734     1.0  0.34032  0.73768  0.93773  1.0000
  H   H1735     1.0  0.38336  0.65056  0.93710  1.0000
  H   H1736     1.0  0.61064  0.87906  0.74857  1.0000
  C   C1454     1.0  0.65247  0.80073  0.84247  1.0000
  C   C1455     1.0  0.61833  0.89166  0.74038  1.0000
  H   H1737     1.0  0.62258  0.68723  0.93617  1.0000
  C   C1456     1.0  0.52243  0.60495  0.94454  1.0000
  C   C1457     1.0  0.50933  0.57549  0.96457  1.0000
  C   C1458     1.0  0.39139  0.48693  0.86405  1.0000
  C   C1459     1.0  0.64971  0.61988  0.93523  1.0000
  H   H1738     1.0  0.36184  0.61132  0.95362  1.0000
  H   H1739     1.0  0.62484  0.57399  0.90378  1.0000
  C   C1460     1.0  0.41276  0.48708  0.83290  1.0000
  C   C1461     1.0  0.33487  0.84528  0.73358  1.0000
  C   C1462     1.0  0.37024  0.65057  0.94904  1.0000
  C   C1463     1.0  0.35876  0.61494  0.93889  1.0000
  H   H1740     1.0  0.64403  0.81126  0.80452  1.0000
  H   H1741     1.0  0.46948  0.92541  0.95378  1.0000
  H   H1742     1.0  0.35813  0.59025  0.90177  1.0000
  H   H1743     1.0  0.36839  0.81746  0.73631  1.0000
  C   C1464     1.0  0.64066  0.62349  0.91866  1.0000
  H   H1744     1.0  0.62646  0.78602  0.82804  1.0000
  C   C1465     1.0  0.55494  0.91180  0.89718  1.0000
  C   C1466     1.0  0.54294  0.93204  0.92290  1.0000
  C   C1467     1.0  0.65129  0.79045  0.86194  1.0000
  C   C1468     1.0  0.54701  0.89567  0.90936  1.0000
  C   C1469     1.0  0.61071  0.94486  0.72803  1.0000
  S   S386      1.0  0.51441  0.97272  0.95449  1.0000
  H   H1745     1.0  0.48985  0.94138  0.96987  1.0000
  S   S387      1.0  0.32818  0.75713  0.84299  1.0000
  H   H1746     1.0  0.54816  0.88165  0.90396  1.0000
  N   N97       1.0  0.63419  0.81217  0.83529  1.0000
  C   C1470     1.0  0.32606  0.86588  0.73136  1.0000
  C   C1471     1.0  0.63565  0.67748  0.94183  1.0000
  H   H1747     1.0  0.34729  0.68407  0.93814  1.0000
  C   C1472     1.0  0.61971  0.79840  0.83655  1.0000
  C   C1473     1.0  0.64345  0.71710  0.94087  1.0000
  H   H1748     1.0  0.58882  0.94083  0.89859  1.0000
  H   H1749     1.0  0.64183  0.71291  0.92741  1.0000
  H   H1750     1.0  0.41630  0.49626  0.95397  1.0000
  H   H1751     1.0  0.59953  0.94863  0.74032  1.0000
  H   H1752     1.0  0.47487  0.63607  0.96392  1.0000
  S   S388      1.0  0.57081  0.60576  0.95845  1.0000
  C   C1474     1.0  0.32126  0.71959  0.93068  1.0000
  C   C1475     1.0  0.32256  0.72426  0.96370  1.0000
  H   H1753     1.0  0.42136  0.49729  0.83710  1.0000
  H   H1754     1.0  0.65261  0.75834  0.95559  1.0000
  H   H1755     1.0  0.64874  0.74647  0.92594  1.0000
  H   H1756     1.0  0.51515  0.53491  0.96976  1.0000
  H   H1757     1.0  0.64862  0.83314  0.81270  1.0000
  N   N98       1.0  0.60388  0.90887  0.73296  1.0000
  H   H1758     1.0  0.32450  0.87502  0.74255  1.0000
  H   H1759     1.0  0.57676  0.92666  0.74544  1.0000
  C   C1476     1.0  0.65231  0.76865  0.79537  1.0000
  H   H1760     1.0  0.39524  0.51132  0.96632  1.0000
  C   C1477     1.0  0.41093  0.50393  0.96698  1.0000
  C   C1478     1.0  0.49719  0.96851  0.92440  1.0000
  C   C1479     1.0  0.41516  0.68221  0.96860  1.0000
  C   C1480     1.0  0.61471  0.92545  0.72249  1.0000
  H   H1761     1.0  0.61813  0.97480  0.72211  1.0000
  H   H1762     1.0  0.48213  0.48184  0.88353  1.0000
  S   S389      1.0  0.62517  0.48248  0.97008  1.0000
  H   H1763     1.0  0.65438  0.52731  0.92336  1.0000
  H   H1764     1.0  0.44455  0.87247  0.72164  1.0000
  Fe  Fe191     1.0  0.69106  0.35994  0.03180  1.0000
  S   S390      1.0  0.71816  0.36833  0.01103  1.0000
  H   H1765     1.0  0.82522  0.45661  0.16042  1.0000
  Fe  Fe192     1.0  0.71148  0.31844  0.04523  1.0000
  S   S391      1.0  0.74062  0.32364  0.02569  1.0000
  S   S392      1.0  0.70932  0.28929  0.06623  1.0000
  Fe  Fe193     1.0  0.73504  0.35392  0.03544  1.0000
  S   S393      1.0  0.76017  0.36975  0.03879  1.0000
  Fe  Fe194     1.0  0.72145  0.33774  0.00293  1.0000
  C   C1481     1.0  0.87608  0.44371  0.15328  1.0000
  S   S394      1.0  0.70749  0.34755  0.05685  1.0000
  S   S395      1.0  0.69266  0.33051  0.02183  1.0000
  Fe  Fe195     1.0  0.83693  0.44448  0.09213  1.0000
  S   S396      1.0  0.80433  0.45727  0.09849  1.0000
  C   C1482     1.0  0.69294  0.43504  0.02961  1.0000
  Fe  Fe196     1.0  0.83604  0.41711  0.13168  1.0000
  S   S397      1.0  0.80342  0.42834  0.14110  1.0000
  S   S398      1.0  0.85823  0.39521  0.14850  1.0000
  Fe  Fe197     1.0  0.79978  0.42542  0.11071  1.0000
  S   S399      1.0  0.77270  0.41237  0.10740  1.0000
  H   H1766     1.0  0.92073  0.47782  0.97178  1.0000
  S   S400      1.0  0.83211  0.41239  0.10208  1.0000
  S   S401      1.0  0.84359  0.44803  0.12080  1.0000
  C   C1483     1.0  0.67350  0.24665  0.08549  1.0000
  C   C1484     1.0  0.87464  0.37900  0.20192  1.0000
  C   C1485     1.0  0.89120  0.44737  0.13737  1.0000
  C   C1486     1.0  0.71103  0.25231  0.98181  1.0000
  H   H1767     1.0  0.70201  0.29033  0.00728  1.0000
  C   C1487     1.0  0.71840  0.18012  0.18692  1.0000
  H   H1768     1.0  0.69220  0.04860  0.18251  1.0000
  C   C1488     1.0  0.67160  0.14233  0.20902  1.0000
  C   C1489     1.0  0.66484  0.26444  0.05472  1.0000
  C   C1490     1.0  0.68792  0.25909  0.08390  1.0000
  C   C1491     1.0  0.66499  0.13978  0.19228  1.0000
  C   C1492     1.0  0.68314  0.45462  0.03279  1.0000
  H   H1769     1.0  0.66706  0.12495  0.18840  1.0000
  H   H1770     1.0  0.86224  0.42621  0.19022  1.0000
  H   H1771     1.0  0.67147  0.23493  0.09792  1.0000
  C   C1493     1.0  0.74063  0.12707  0.20741  1.0000
  C   C1494     1.0  0.66820  0.46504  0.02224  1.0000
  H   H1772     1.0  0.71337  0.39537  0.06013  1.0000
  C   C1495     1.0  0.83250  0.44602  0.17178  1.0000
  C   C1496     1.0  0.87470  0.38224  0.18170  1.0000
  C   C1497     1.0  0.85711  0.39053  0.17408  1.0000
  C   C1498     1.0  0.83929  0.39510  0.18690  1.0000
  H   H1773     1.0  0.88852  0.37855  0.17188  1.0000
  H   H1774     1.0  0.82556  0.40105  0.18123  1.0000
  H   H1775     1.0  0.65607  0.26646  0.04325  1.0000
  C   C1499     1.0  0.70598  0.15749  0.16413  1.0000
  C   C1500     1.0  0.84490  0.44739  0.99516  1.0000
  C   C1501     1.0  0.86342  0.45962  0.16200  1.0000
  H   H1776     1.0  0.90022  0.43493  0.13068  1.0000
  C   C1502     1.0  0.76363  0.38084  0.05841  1.0000
  C   C1503     1.0  0.78046  0.39037  0.05610  1.0000
  C   C1504     1.0  0.78363  0.39984  0.07100  1.0000
  C   C1505     1.0  0.76986  0.40007  0.08837  1.0000
  C   C1506     1.0  0.75298  0.39061  0.09064  1.0000
  C   C1507     1.0  0.74996  0.38090  0.07585  1.0000
  H   H1777     1.0  0.79118  0.39037  0.04271  1.0000
  H   H1778     1.0  0.79667  0.40702  0.06902  1.0000
  H   H1779     1.0  0.74231  0.39058  0.10406  1.0000
  H   H1780     1.0  0.73718  0.37328  0.07806  1.0000
  H   H1781     1.0  0.86280  0.44189  0.02629  1.0000
  H   H1782     1.0  0.71873  0.28838  0.02429  1.0000
  H   H1783     1.0  0.68661  0.46217  0.04343  1.0000
  C   C1508     1.0  0.71735  0.14784  0.17848  1.0000
  C   C1509     1.0  0.65648  0.98902  0.20111  1.0000
  H   H1784     1.0  0.85712  0.34066  0.20787  1.0000
  H   H1785     1.0  0.72609  0.29783  0.99911  1.0000
  H   H1786     1.0  0.72676  0.12012  0.21122  1.0000
  C   C1510     1.0  0.70236  0.40421  0.05102  1.0000
  H   H1787     1.0  0.73222  0.43287  0.01785  1.0000
  H   H1788     1.0  0.69346  0.41189  0.01214  1.0000
  H   H1789     1.0  0.90596  0.46971  0.11729  1.0000
  H   H1790     1.0  0.71807  0.25322  0.03590  1.0000
  C   C1511     1.0  0.68693  0.42679  0.01520  1.0000
  C   C1512     1.0  0.72755  0.41889  0.02681  1.0000
  H   H1791     1.0  0.84889  0.43196  0.99135  1.0000
  C   C1513     1.0  0.66704  0.04071  0.14884  1.0000
  C   C1514     1.0  0.86703  0.47943  0.15388  1.0000
  C   C1515     1.0  0.83923  0.39192  0.20711  1.0000
  C   C1516     1.0  0.85691  0.38397  0.21469  1.0000
  C   C1517     1.0  0.69060  0.27446  0.06792  1.0000
  C   C1518     1.0  0.87696  0.45400  0.97747  1.0000
  H   H1792     1.0  0.74956  0.12031  0.21918  1.0000
  H   H1793     1.0  0.69702  0.25683  0.09515  1.0000
  N   N99       1.0  0.84709  0.45527  0.17845  1.0000
  H   H1794     1.0  0.82044  0.44154  0.18388  1.0000
  N   N100      1.0  0.73590  0.14929  0.20579  1.0000
  C   C1519     1.0  0.66204  0.24916  0.07079  1.0000
  H   H1795     1.0  0.70092  0.39429  0.04092  1.0000
  H   H1796     1.0  0.67905  0.06611  0.15265  1.0000
  H   H1797     1.0  0.88831  0.37278  0.20761  1.0000
  H   H1798     1.0  0.86304  0.47351  0.09439  1.0000
  H   H1799     1.0  0.86713  0.44704  0.19936  1.0000
  H   H1800     1.0  0.66132  0.04847  0.13577  1.0000
  C   C1520     1.0  0.71314  0.43391  0.05531  1.0000
  H   H1801     1.0  0.65649  0.01404  0.14799  1.0000
  H   H1802     1.0  0.74948  0.12237  0.19365  1.0000
  H   H1803     1.0  0.88893  0.33534  0.18660  1.0000
  H   H1804     1.0  0.75508  0.24683  0.00375  1.0000
  N   N101      1.0  0.86291  0.45572  0.99612  1.0000
  C   C1521     1.0  0.66259  0.45640  0.00831  1.0000
  H   H1805     1.0  0.74963  0.26196  0.02293  1.0000
  H   H1806     1.0  0.72626  0.40885  0.01670  1.0000
  C   C1522     1.0  0.67197  0.43733  0.00478  1.0000
  C   C1523     1.0  0.68440  0.04085  0.17511  1.0000
  C   C1524     1.0  0.86815  0.32848  0.21300  1.0000
  S   S402      1.0  0.85505  0.45586  0.06316  1.0000
  H   H1807     1.0  0.68052  0.28921  0.04123  1.0000
  H   H1808     1.0  0.71876  0.44816  0.04842  1.0000
  H   H1809     1.0  0.68754  0.40683  0.06059  1.0000
  H   H1810     1.0  0.69127  0.18562  0.15059  1.0000
  C   C1525     1.0  0.67879  0.27728  0.05346  1.0000
  N   N102      1.0  0.72636  0.26579  0.00560  1.0000
  C   C1526     1.0  0.74778  0.26173  0.00770  1.0000
  H   H1811     1.0  0.88602  0.44937  0.01378  1.0000
  C   C1527     1.0  0.71582  0.25180  0.02109  1.0000
  H   H1812     1.0  0.82542  0.39566  0.21692  1.0000
  H   H1813     1.0  0.83961  0.43243  0.16522  1.0000
  H   H1814     1.0  0.83448  0.44623  0.00932  1.0000
  H   H1815     1.0  0.88149  0.47666  0.03263  1.0000
  H   H1816     1.0  0.75636  0.27325  0.99845  1.0000
  H   H1817     1.0  0.87835  0.42744  0.00905  1.0000
  H   H1818     1.0  0.70232  0.20572  0.17060  1.0000
  C   C1528     1.0  0.85691  0.47658  0.00025  1.0000
  C   C1529     1.0  0.75515  0.15706  0.20195  1.0000
  H   H1819     1.0  0.72502  0.42462  0.06326  1.0000
  C   C1530     1.0  0.72427  0.26406  0.98561  1.0000
  H   H1820     1.0  0.69534  0.31822  0.97781  1.0000
  H   H1821     1.0  0.72129  0.23589  0.01911  1.0000
  C   C1531     1.0  0.68181  0.02100  0.18245  1.0000
  H   H1822     1.0  0.69934  0.25506  0.02154  1.0000
  H   H1823     1.0  0.91625  0.30877  0.19654  1.0000
  Fe  Fe198     1.0  0.81082  0.45915  0.12783  1.0000
  H   H1824     1.0  0.75302  0.17341  0.20239  1.0000
  C   C1532     1.0  0.71795  0.28646  0.00923  1.0000
  C   C1533     1.0  0.87292  0.44309  0.01195  1.0000
  S   S403      1.0  0.66422  0.38381  0.03590  1.0000
  H   H1825     1.0  0.83648  0.45699  0.98400  1.0000
  H   H1826     1.0  0.67025  0.31362  0.08359  1.0000
  H   H1827     1.0  0.82390  0.46950  0.19904  1.0000
  C   C1534     1.0  0.67178  0.01031  0.17316  1.0000
  C   C1535     1.0  0.72400  0.15893  0.19031  1.0000
  H   H1828     1.0  0.67182  0.39407  0.98101  1.0000
  H   H1829     1.0  0.87402  0.42827  0.15831  1.0000
  C   C1536     1.0  0.90191  0.31066  0.20610  1.0000
  C   C1537     1.0  0.66888  0.16155  0.21391  1.0000
  H   H1830     1.0  0.68774  0.01405  0.19554  1.0000
  N   N103      1.0  0.66899  0.98938  0.18150  1.0000
  H   H1831     1.0  0.66732  0.43054  0.99414  1.0000
  H   H1832     1.0  0.70062  0.14877  0.15558  1.0000
  H   H1833     1.0  0.88126  0.43820  0.97473  1.0000
  C   C1538     1.0  0.65564  0.31695  0.07918  1.0000
  C   C1539     1.0  0.67703  0.05070  0.15833  1.0000
  C   C1540     1.0  0.85539  0.44106  0.19451  1.0000
  H   H1834     1.0  0.72024  0.13166  0.18032  1.0000
  H   H1835     1.0  0.76375  0.15448  0.18736  1.0000
  H   H1836     1.0  0.72260  0.18954  0.19551  1.0000
  H   H1837     1.0  0.69973  0.43713  0.06658  1.0000
  C   C1541     1.0  0.70687  0.18957  0.17265  1.0000
  C   C1542     1.0  0.83588  0.47338  0.18659  1.0000
  C   C1543     1.0  0.88653  0.32561  0.20054  1.0000
  N   N104      1.0  0.70868  0.42339  0.04057  1.0000
  H   H1838     1.0  0.74004  0.41102  0.03459  1.0000
  C   C1544     1.0  0.66438  0.02081  0.15606  1.0000
  C   C1545     1.0  0.87104  0.47285  0.06364  1.0000
  C   C1546     1.0  0.89438  0.46693  0.12981  1.0000
  H   H1839     1.0  0.70213  0.24349  0.99328  1.0000
  C   C1547     1.0  0.70069  0.17828  0.16127  1.0000
  H   H1840     1.0  0.76470  0.14966  0.21308  1.0000
  H   H1841     1.0  0.66043  0.34598  0.06312  1.0000
  C   C1548     1.0  0.65610  0.15636  0.18024  1.0000
  H   H1842     1.0  0.95812  0.47601  0.08315  1.0000
  H   H1843     1.0  0.84362  0.43787  0.20741  1.0000
  H   H1844     1.0  0.66388  0.99390  0.21160  1.0000
  C   C1549     1.0  0.66024  0.17818  0.20171  1.0000
  H   H1845     1.0  0.65855  0.19308  0.20532  1.0000
  H   H1846     1.0  0.83775  0.46868  0.02809  1.0000
  H   H1847     1.0  0.69606  0.98101  0.19424  1.0000
  H   H1848     1.0  0.89116  0.45938  0.97746  1.0000
  C   C1550     1.0  0.87229  0.47875  0.08111  1.0000
  C   C1551     1.0  0.65908  0.97997  0.16956  1.0000
  Fe  Fe199     1.0  0.95610  0.09204  0.42188  1.0000
  H   H1849     1.0  0.66454  0.08519  0.34409  1.0000
  Fe  Fe200     1.0  0.92433  0.09497  0.39714  1.0000
  S   S404      1.0  0.89911  0.09854  0.42203  1.0000
  S   S405      1.0  0.92012  0.09350  0.36698  1.0000
  Fe  Fe201     1.0  0.91666  0.11932  0.42976  1.0000
  S   S406      1.0  0.89912  0.14891  0.43642  1.0000
  Fe  Fe202     1.0  0.91827  0.07441  0.43907  1.0000
  C   C1552     1.0  0.82325  0.21640  0.46067  1.0000
  S   S407      1.0  0.94042  0.11788  0.40320  1.0000
  S   S408      1.0  0.94212  0.06882  0.41347  1.0000
  S   S409      1.0  0.95762  0.44283  0.41354  1.0000
  C   C1553     1.0  0.98475  0.42540  0.46924  1.0000
  H   H1850     1.0  0.87032  0.25273  0.35275  1.0000
  C   C1554     1.0  0.89295  0.36990  0.36891  1.0000
  Fe  Fe203     1.0  0.83969  0.18217  0.34204  1.0000
  S   S410      1.0  0.81892  0.16548  0.36484  1.0000
  S   S411      1.0  0.86661  0.16674  0.32421  1.0000
  Fe  Fe204     1.0  0.81572  0.22271  0.34729  1.0000
  S   S412      1.0  0.79262  0.20930  0.37086  1.0000
  S   S413      1.0  0.81288  0.25637  0.33737  1.0000
  Fe  Fe205     1.0  0.81890  0.18954  0.38250  1.0000
  S   S414      1.0  0.82352  0.17813  0.41388  1.0000
  Fe  Fe206     1.0  0.79453  0.18637  0.35118  1.0000
  S   S415      1.0  0.76622  0.17579  0.34764  1.0000
  S   S416      1.0  0.84174  0.20456  0.36037  1.0000
  S   S417      1.0  0.81546  0.20143  0.32691  1.0000
  Fe  Fe207     1.0  0.67742  0.12632  0.29471  1.0000
  S   S418      1.0  0.70495  0.10792  0.30497  1.0000
  H   H1851     1.0  0.70580  0.06134  0.25202  1.0000
  Fe  Fe208     1.0  0.72134  0.12518  0.27843  1.0000
  S   S419      1.0  0.74988  0.13781  0.27757  1.0000
  S   S420      1.0  0.69375  0.14491  0.26921  1.0000
  Fe  Fe209     1.0  0.88184  0.36494  0.25588  1.0000
  S   S421      1.0  0.87255  0.35317  0.28773  1.0000
  H   H1852     1.0  0.93436  0.98783  0.42661  1.0000
  Fe  Fe210     1.0  0.92624  0.34974  0.25780  1.0000
  S   S422      1.0  0.92002  0.33634  0.28927  1.0000
  H   H1853     1.0  0.82284  0.30204  0.26159  1.0000
  Fe  Fe211     1.0  0.89428  0.32539  0.28175  1.0000
  S   S423      1.0  0.89036  0.29258  0.29101  1.0000
  Fe  Fe212     1.0  0.89902  0.36524  0.29234  1.0000
  S   S424      1.0  0.89773  0.38449  0.31530  1.0000
  S   S425      1.0  0.90225  0.33647  0.24965  1.0000
  S   S426      1.0  0.90651  0.37932  0.26110  1.0000
  H   H1854     1.0  0.96979  0.11964  0.44083  1.0000
  H   H1855     1.0  0.96694  0.03695  0.39106  1.0000
  H   H1856     1.0  0.94351  0.39884  0.25773  1.0000
  H   H1857     1.0  0.94981  0.44140  0.30454  1.0000
  C   C1555     1.0  0.98409  0.11403  0.44547  1.0000
  H   H1858     1.0  0.97604  0.31482  0.33211  1.0000
  C   C1556     1.0  0.84934  0.32653  0.26253  1.0000
  H   H1859     1.0  0.91117  0.28721  0.22873  1.0000
  H   H1860     1.0  0.84753  0.28888  0.26125  1.0000
  H   H1861     1.0  0.95608  0.36019  0.27837  1.0000
  C   C1557     1.0  0.69954  0.01834  0.28371  1.0000
  C   C1558     1.0  0.69692  0.00630  0.27069  1.0000
  H   H1862     1.0  0.69882  0.01225  0.29901  1.0000
  H   H1863     1.0  0.77574  0.21638  0.44855  1.0000
  C   C1559     1.0  0.83452  0.26640  0.32472  1.0000
  C   C1560     1.0  0.85216  0.25387  0.31845  1.0000
  C   C1561     1.0  0.86909  0.26219  0.30821  1.0000
  C   C1562     1.0  0.86863  0.28307  0.30422  1.0000
  C   C1563     1.0  0.85100  0.29564  0.31056  1.0000
  C   C1564     1.0  0.83399  0.28731  0.32068  1.0000
  H   H1864     1.0  0.85277  0.23776  0.32139  1.0000
  H   H1865     1.0  0.88264  0.25235  0.30334  1.0000
  H   H1866     1.0  0.85051  0.31173  0.30782  1.0000
  H   H1867     1.0  0.82043  0.29711  0.32558  1.0000
  C   C1565     1.0  0.76223  0.16522  0.32793  1.0000
  C   C1566     1.0  0.77705  0.16225  0.31165  1.0000
  C   C1567     1.0  0.77306  0.15389  0.29635  1.0000
  C   C1568     1.0  0.75433  0.14819  0.29723  1.0000
  C   C1569     1.0  0.73958  0.15108  0.31355  1.0000
  C   C1570     1.0  0.74352  0.15957  0.32875  1.0000
  H   H1868     1.0  0.79154  0.16645  0.31083  1.0000
  H   H1869     1.0  0.78459  0.15173  0.28382  1.0000
  H   H1870     1.0  0.72509  0.14685  0.31445  1.0000
  H   H1871     1.0  0.73195  0.16176  0.34126  1.0000
  N   N105      1.0  0.95825  0.99780  0.40491  1.0000
  H   H1872     1.0  0.66595  0.06534  0.27517  1.0000
  C   C1571     1.0  0.83048  0.18429  0.44892  1.0000
  C   C1572     1.0  0.82435  0.19342  0.43114  1.0000
  C   C1573     1.0  0.81819  0.21419  0.42795  1.0000
  C   C1574     1.0  0.81751  0.22558  0.44272  1.0000
  H   H1873     1.0  0.83539  0.16826  0.45146  1.0000
  H   H1874     1.0  0.81345  0.22141  0.41431  1.0000
  H   H1875     1.0  0.81221  0.24156  0.44034  1.0000
  H   H1876     1.0  0.88850  0.21887  0.35367  1.0000
  H   H1877     1.0  0.66094  0.05238  0.23780  1.0000
  H   H1878     1.0  0.66712  0.07242  0.36778  1.0000
  Fe  Fe213     1.0  0.70231  0.08701  0.28493  1.0000
  C   C1575     1.0  0.87649  0.17438  0.39684  1.0000
  H   H1879     1.0  0.85522  0.34095  0.25804  1.0000
  C   C1576     1.0  0.89496  0.02259  0.41755  1.0000
  S   S427      1.0  0.69335  0.99972  0.23421  1.0000
  C   C1577     1.0  0.95644  0.38163  0.33695  1.0000
  C   C1578     1.0  0.94146  0.39834  0.33867  1.0000
  C   C1579     1.0  0.92338  0.39910  0.33211  1.0000
  C   C1580     1.0  0.92061  0.38360  0.32306  1.0000
  C   C1581     1.0  0.93584  0.36720  0.32096  1.0000
  C   C1582     1.0  0.95355  0.36609  0.32815  1.0000
  H   H1880     1.0  0.91152  0.41171  0.33399  1.0000
  H   H1881     1.0  0.93383  0.35507  0.31429  1.0000
  H   H1882     1.0  0.96505  0.35316  0.32676  1.0000
  S   S428      1.0  0.67321  0.10403  0.27737  1.0000
  C   C1583     1.0  0.69748  0.01407  0.25090  1.0000
  H   H1883     1.0  0.83646  0.29309  0.23960  1.0000
  S   S429      1.0  0.72110  0.10252  0.25912  1.0000
  H   H1884     1.0  0.86058  0.31582  0.27010  1.0000
  C   C1584     1.0  0.90561  0.11470  0.35584  1.0000
  C   C1585     1.0  0.90838  0.11870  0.33550  1.0000
  C   C1586     1.0  0.89675  0.13514  0.32604  1.0000
  C   C1587     1.0  0.88184  0.14736  0.33683  1.0000
  C   C1588     1.0  0.87882  0.14335  0.35723  1.0000
  C   C1589     1.0  0.89095  0.12715  0.36677  1.0000
  H   H1885     1.0  0.91971  0.10913  0.32703  1.0000
  H   H1886     1.0  0.89914  0.13820  0.31028  1.0000
  H   H1887     1.0  0.86708  0.15259  0.36561  1.0000
  H   H1888     1.0  0.88862  0.12396  0.38251  1.0000
  H   H1889     1.0  0.88594  0.36241  0.36053  1.0000
  C   C1590     1.0  0.72464  0.15398  0.22490  1.0000
  H   H1890     1.0  0.94783  0.45858  0.44979  1.0000
  H   H1891     1.0  0.77549  0.18627  0.43440  1.0000
  H   H1892     1.0  0.93052  0.00449  0.39349  1.0000
  H   H1893     1.0  0.77800  0.20632  0.28041  1.0000
  H   H1894     1.0  0.66123  0.04135  0.27251  1.0000
  C   C1591     1.0  0.89852  0.03683  0.42772  1.0000
  C   C1592     1.0  0.90100  0.03138  0.44721  1.0000
  C   C1593     1.0  0.89990  0.01163  0.45651  1.0000
  C   C1594     1.0  0.89686  0.99722  0.44618  1.0000
  C   C1595     1.0  0.65971  0.07248  0.35522  1.0000
  H   H1895     1.0  0.97503  0.98822  0.46783  1.0000
  H   H1896     1.0  0.95492  0.02107  0.45731  1.0000
  H   H1897     1.0  0.94358  0.41038  0.34543  1.0000
  C   C1596     1.0  0.88557  0.17224  0.46468  1.0000
  C   C1597     1.0  0.89973  0.15619  0.45865  1.0000
  H   H1898     1.0  0.88266  0.40964  0.39297  1.0000
  H   H1899     1.0  0.97651  0.40368  0.26022  1.0000
  H   H1900     1.0  0.97902  0.44926  0.30350  1.0000
  H   H1901     1.0  0.88384  0.15844  0.39737  1.0000
  C   C1598     1.0  0.88229  0.38654  0.37699  1.0000
  H   H1902     1.0  0.69427  0.99109  0.27604  1.0000
  Fe  Fe214     1.0  0.69190  0.12081  0.25245  1.0000
  C   C1599     1.0  0.85859  0.23669  0.40126  1.0000
  H   H1903     1.0  0.86325  0.17638  0.38958  1.0000
  C   C1600     1.0  0.83007  0.19572  0.46358  1.0000
  H   H1904     1.0  0.83397  0.34946  0.23322  1.0000
  H   H1905     1.0  0.95999  0.30747  0.27907  1.0000
  S   S430      1.0  0.93373  0.09547  0.44918  1.0000
  C   C1601     1.0  0.65656  0.03645  0.36129  1.0000
  C   C1602     1.0  0.98207  0.00157  0.46340  1.0000
  C   C1603     1.0  0.93017  0.42999  0.29156  1.0000
  C   C1604     1.0  0.86886  0.21703  0.40221  1.0000
  H   H1906     1.0  0.77656  0.15308  0.45520  1.0000
  H   H1907     1.0  0.91557  0.17082  0.39886  1.0000
  C   C1605     1.0  0.83780  0.29999  0.25218  1.0000
  H   H1908     1.0  0.86801  0.20775  0.41639  1.0000
  Fe  Fe215     1.0  0.97812  0.43193  0.38750  1.0000
  S   S431      1.0  0.95802  0.34734  0.24125  1.0000
  C   C1606     1.0  0.70338  0.04601  0.25728  1.0000
  C   C1607     1.0  0.87982  0.20946  0.38522  1.0000
  H   H1909     1.0  0.70977  0.14902  0.22781  1.0000
  H   H1910     1.0  0.86685  0.39169  0.37513  1.0000
  H   H1911     1.0  0.66677  0.07577  0.24038  1.0000
  H   H1912     1.0  0.85009  0.24199  0.41442  1.0000
  H   H1913     1.0  0.89928  0.05206  0.42045  1.0000
  S   S432      1.0  0.97856  0.37909  0.34648  1.0000
  H   H1914     1.0  0.72195  0.17028  0.22571  1.0000
  H   H1915     1.0  0.95783  0.98333  0.43479  1.0000
  H   H1916     1.0  0.86584  0.13621  0.46590  1.0000
  C   C1608     1.0  0.94380  0.01150  0.39351  1.0000
  C   C1609     1.0  0.89455  0.00268  0.42662  1.0000
  C   C1610     1.0  0.97876  0.02628  0.39685  1.0000
  H   H1917     1.0  0.74706  0.19314  0.28071  1.0000
  H   H1918     1.0  0.67376  0.16371  0.22683  1.0000
  H   H1919     1.0  0.89150  0.09233  0.46666  1.0000
  H   H1920     1.0  0.98096  0.45853  0.27776  1.0000
  C   C1611     1.0  0.97138  0.30856  0.28720  1.0000
  H   H1921     1.0  0.66430  0.04391  0.32010  1.0000
  H   H1922     1.0  0.87508  0.18035  0.45534  1.0000
  C   C1612     1.0  0.97142  0.35888  0.27094  1.0000
  C   C1613     1.0  0.97679  0.00590  0.40422  1.0000
  N   N106      1.0  0.84033  0.11100  0.32994  1.0000
  C   C1614     1.0  0.84603  0.12743  0.31419  1.0000
  C   C1615     1.0  0.84788  0.11313  0.34755  1.0000
  C   C1616     1.0  0.85070  0.09149  0.32410  1.0000
  C   C1617     1.0  0.81834  0.11198  0.33308  1.0000
  C   C1618     1.0  0.80549  0.11873  0.34969  1.0000
  C   C1619     1.0  0.80904  0.10727  0.31873  1.0000
  C   C1620     1.0  0.78474  0.11997  0.35198  1.0000
  C   C1621     1.0  0.78828  0.10838  0.32126  1.0000
  C   C1622     1.0  0.77618  0.11459  0.33792  1.0000
  H   H1923     1.0  0.86242  0.12770  0.31154  1.0000
  H   H1924     1.0  0.84191  0.12616  0.30016  1.0000
  H   H1925     1.0  0.83841  0.14235  0.31801  1.0000
  H   H1926     1.0  0.84296  0.10198  0.36032  1.0000
  H   H1927     1.0  0.84304  0.12849  0.35136  1.0000
  H   H1928     1.0  0.86453  0.11077  0.34528  1.0000
  H   H1929     1.0  0.84834  0.08969  0.30954  1.0000
  H   H1930     1.0  0.86724  0.08987  0.32304  1.0000
  H   H1931     1.0  0.84555  0.07871  0.33489  1.0000
  H   H1932     1.0  0.81102  0.12354  0.36096  1.0000
  H   H1933     1.0  0.81764  0.10315  0.30520  1.0000
  H   H1934     1.0  0.77515  0.12576  0.36443  1.0000
  H   H1935     1.0  0.78141  0.10511  0.30996  1.0000
  H   H1936     1.0  0.76006  0.11600  0.33956  1.0000
  H   H1937     1.0  0.87082  0.17627  0.41229  1.0000
  C   C1623     1.0  0.77677  0.16619  0.46153  1.0000
  S   S433      1.0  0.68403  0.12119  0.22277  1.0000
  C   C1624     1.0  0.92814  0.41787  0.27866  1.0000
  H   H1938     1.0  0.66039  0.01630  0.33981  1.0000
  N   N107      1.0  0.89042  0.18850  0.38659  1.0000
  H   H1939     1.0  0.92114  0.35053  0.36439  1.0000
  H   H1940     1.0  0.91118  0.19099  0.35937  1.0000
  C   C1625     1.0  0.89157  0.39680  0.38700  1.0000
  H   H1941     1.0  0.88759  0.18389  0.35804  1.0000
  C   C1626     1.0  0.89924  0.18224  0.36734  1.0000
  H   H1942     1.0  0.95077  0.31126  0.31388  1.0000
  S   S434      1.0  0.90600  0.04903  0.45985  1.0000
  H   H1943     1.0  0.92453  0.13367  0.46600  1.0000
  H   H1944     1.0  0.89652  0.98187  0.45328  1.0000
  C   C1627     1.0  0.88048  0.22310  0.36736  1.0000
  N   N108      1.0  0.74836  0.24020  0.33338  1.0000
  C   C1628     1.0  0.74351  0.22898  0.35331  1.0000
  C   C1629     1.0  0.76784  0.24698  0.33191  1.0000
  C   C1630     1.0  0.73304  0.25838  0.33089  1.0000
  C   C1631     1.0  0.74837  0.22738  0.31875  1.0000
  C   C1632     1.0  0.76538  0.22240  0.30448  1.0000
  C   C1633     1.0  0.73087  0.21955  0.31842  1.0000
  C   C1634     1.0  0.73042  0.20749  0.30473  1.0000
  H   H1945     1.0  0.75427  0.21482  0.35543  1.0000
  H   H1946     1.0  0.74420  0.23780  0.36474  1.0000
  H   H1947     1.0  0.72836  0.22471  0.35640  1.0000
  H   H1948     1.0  0.78001  0.23405  0.33407  1.0000
  H   H1949     1.0  0.76759  0.25630  0.34325  1.0000
  H   H1950     1.0  0.77222  0.25630  0.31759  1.0000
  H   H1951     1.0  0.71765  0.25471  0.33362  1.0000
  H   H1952     1.0  0.73314  0.26876  0.34118  1.0000
  H   H1953     1.0  0.73577  0.26679  0.31581  1.0000
  H   H1954     1.0  0.77950  0.22730  0.30374  1.0000
  H   H1955     1.0  0.71746  0.22239  0.32896  1.0000
  H   H1956     1.0  0.71709  0.20117  0.30512  1.0000
  N   N109      1.0  0.92179  0.40272  0.39858  1.0000
  C   C1635     1.0  0.91246  0.40165  0.41940  1.0000
  C   C1636     1.0  0.94358  0.39558  0.39777  1.0000
  C   C1637     1.0  0.91923  0.42406  0.38916  1.0000
  C   C1638     1.0  0.91203  0.39089  0.38887  1.0000
  C   C1639     1.0  0.92233  0.37349  0.38089  1.0000
  H   H1957     1.0  0.91380  0.38583  0.42696  1.0000
  H   H1958     1.0  0.91969  0.41020  0.42720  1.0000
  H   H1959     1.0  0.89629  0.40807  0.42129  1.0000
  H   H1960     1.0  0.94670  0.38001  0.40563  1.0000
  H   H1961     1.0  0.95057  0.40502  0.40482  1.0000
  H   H1962     1.0  0.95155  0.39608  0.38244  1.0000
  H   H1963     1.0  0.92453  0.42540  0.37316  1.0000
  H   H1964     1.0  0.90343  0.43158  0.39149  1.0000
  H   H1965     1.0  0.92774  0.43311  0.39505  1.0000
  H   H1966     1.0  0.93795  0.36786  0.38136  1.0000
  S   S435      1.0  0.96679  0.43562  0.35922  1.0000
  C   C1640     1.0  0.90688  0.18630  0.39779  1.0000
  C   C1641     1.0  0.94821  0.99418  0.42543  1.0000
  H   H1967     1.0  0.69315  0.04467  0.35810  1.0000
  N   N110      1.0  0.98686  0.42626  0.28474  1.0000
  H   H1968     1.0  0.90118  0.18907  0.41304  1.0000
  C   C1642     1.0  0.86465  0.31626  0.23155  1.0000
  C   C1643     1.0  0.70082  0.03394  0.24426  1.0000
  C   C1644     1.0  0.96813  0.43618  0.43492  1.0000
  C   C1645     1.0  0.96040  0.44656  0.45073  1.0000
  S   S436      1.0  0.85604  0.38071  0.24014  1.0000
  C   C1646     1.0  0.87006  0.24272  0.36659  1.0000
  C   C1647     1.0  0.76473  0.21038  0.29083  1.0000
  H   H1969     1.0  0.69437  0.05999  0.33443  1.0000
  H   H1970     1.0  0.98110  0.13668  0.46365  1.0000
  H   H1971     1.0  0.91741  0.19700  0.39092  1.0000
  H   H1972     1.0  0.95077  0.01549  0.37803  1.0000
  C   C1648     1.0  0.70267  0.03826  0.27710  1.0000
  C   C1649     1.0  0.77616  0.20186  0.45778  1.0000
  H   H1973     1.0  0.86589  0.11851  0.45053  1.0000
  C   C1650     1.0  0.74731  0.20296  0.29094  1.0000
  H   H1974     1.0  0.87955  0.29195  0.25096  1.0000
  H   H1975     1.0  0.91344  0.41504  0.27785  1.0000
  H   H1976     1.0  0.85076  0.26458  0.38271  1.0000
  H   H1977     1.0  0.89314  0.02688  0.40244  1.0000
  N   N111      1.0  0.84563  0.31926  0.24542  1.0000
  S   S437      1.0  0.70448  0.05335  0.29412  1.0000
  H   H1978     1.0  0.90637  0.16617  0.36886  1.0000
  N   N112      1.0  0.66510  0.05304  0.34763  1.0000
  H   H1979     1.0  0.94384  0.00837  0.43171  1.0000
  C   C1651     1.0  0.85902  0.24945  0.38346  1.0000
  C   C1652     1.0  0.91282  0.36324  0.37109  1.0000
  H   H1980     1.0  0.91694  0.43651  0.30071  1.0000
  S   S438      1.0  0.89255  0.98469  0.41278  1.0000
  C   C1653     1.0  0.68716  0.04771  0.34420  1.0000
  H   H1981     1.0  0.69217  0.03406  0.33708  1.0000
  C   C1654     1.0  0.82973  0.33415  0.23703  1.0000
  H   H1982     1.0  0.83552  0.32902  0.27349  1.0000
  C   C1655     1.0  0.94915  0.43284  0.29349  1.0000
  C   C1656     1.0  0.97987  0.03702  0.45159  1.0000
  C   C1657     1.0  0.98435  0.42067  0.43620  1.0000
  C   C1658     1.0  0.97644  0.35295  0.25257  1.0000
  C   C1659     1.0  0.96623  0.31082  0.30676  1.0000
  H   H1983     1.0  0.93770  0.02552  0.39983  1.0000
  H   H1984     1.0  0.86170  0.08360  0.46423  1.0000
  H   H1985     1.0  0.81547  0.33567  0.24758  1.0000
  C   C1660     1.0  0.77594  0.18491  0.44980  1.0000
  C   C1661     1.0  0.96673  0.42412  0.28191  1.0000
  H   H1986     1.0  0.97110  0.05134  0.44681  1.0000
  C   C1662     1.0  0.97078  0.01995  0.45736  1.0000
  C   C1663     1.0  0.94507  0.40875  0.26739  1.0000
  C   C1664     1.0  0.96409  0.41175  0.26895  1.0000
  C   C1665     1.0  0.98082  0.31290  0.31703  1.0000
  Fe  Fe216     1.0  0.98593  0.40566  0.35632  1.0000
  H   H1987     1.0  0.84296  0.12807  0.46530  1.0000
  H   H1988     1.0  0.98211  0.41420  0.31532  1.0000
  H   H1989     1.0  0.98213  0.36764  0.29397  1.0000
  H   H1990     1.0  0.70141  0.04004  0.22897  1.0000
  H   H1991     1.0  0.73272  0.14639  0.23712  1.0000
  H   H1992     1.0  0.66287  0.06988  0.31886  1.0000
  C   C1666     1.0  0.65802  0.05635  0.32862  1.0000
  C   C1667     1.0  0.65522  0.01849  0.35478  1.0000
  C   C1668     1.0  0.85926  0.12292  0.46506  1.0000
  C   C1669     1.0  0.96891  0.44137  0.46781  1.0000
  H   H1993     1.0  0.82651  0.32984  0.22375  1.0000
  C   C1670     1.0  0.98628  0.36314  0.27977  1.0000
  C   C1671     1.0  0.88071  0.30123  0.23677  1.0000
  C   C1672     1.0  0.91336  0.14588  0.47070  1.0000
  C   C1673     1.0  0.98731  0.44661  0.28884  1.0000
  H   H1994     1.0  0.97225  0.98006  0.38235  1.0000
  C   C1674     1.0  0.89900  0.29848  0.22417  1.0000
  H   H1995     1.0  0.86326  0.31538  0.66728  1.0000
  H   H1996     1.0  0.92719  0.23338  0.54993  1.0000
  S   S439      1.0  0.66513  0.13646  0.67322  1.0000
  H   H1997     1.0  0.92269  0.14311  0.49854  1.0000
  Fe  Fe217     1.0  0.69670  0.14524  0.60248  1.0000
  S   S440      1.0  0.70398  0.12375  0.62909  1.0000
  S   S441      1.0  0.71283  0.17177  0.58828  1.0000
  Fe  Fe218     1.0  0.69431  0.10039  0.61610  1.0000
  S   S442      1.0  0.71162  0.06904  0.61397  1.0000
  Fe  Fe219     1.0  0.67133  0.13165  0.64150  1.0000
  H   H1998     1.0  0.72591  0.03367  0.56940  1.0000
  S   S443      1.0  0.69012  0.12125  0.58819  1.0000
  H   H1999     1.0  0.83471  0.18847  0.47720  1.0000
  C   C1675     1.0  0.66585  0.03682  0.62623  1.0000
  N   N113      1.0  0.86311  0.10624  0.48116  1.0000
  C   C1676     1.0  0.95212  0.17953  0.49301  1.0000
  C   C1677     1.0  0.72068  0.18877  0.63337  1.0000
  H   H2000     1.0  0.96380  0.34024  0.54191  1.0000
  Fe  Fe220     1.0  0.92117  0.30448  0.60848  1.0000
  S   S444      1.0  0.89788  0.33000  0.61802  1.0000
  S   S445      1.0  0.91563  0.27561  0.59980  1.0000
  Fe  Fe221     1.0  0.95577  0.32370  0.61633  1.0000
  S   S446      1.0  0.93477  0.35011  0.62676  1.0000
  C   C1678     1.0  0.85159  0.45776  0.70971  1.0000
  Fe  Fe222     1.0  0.91463  0.32797  0.64273  1.0000
  S   S447      1.0  0.89983  0.32596  0.67472  1.0000
  Fe  Fe223     1.0  0.91991  0.35001  0.60140  1.0000
  S   S448      1.0  0.91358  0.37752  0.57925  1.0000
  S   S449      1.0  0.93699  0.30114  0.63423  1.0000
  S   S450      1.0  0.94188  0.32477  0.58995  1.0000
  Fe  Fe224     1.0  0.84618  0.23104  0.54263  1.0000
  S   S451      1.0  0.81588  0.22734  0.53704  1.0000
  S   S452      1.0  0.85036  0.25852  0.55462  1.0000
  Fe  Fe225     1.0  0.86659  0.19351  0.52575  1.0000
  S   S453      1.0  0.83860  0.18679  0.51905  1.0000
  S   S454      1.0  0.89521  0.17246  0.51892  1.0000
  Fe  Fe226     1.0  0.83234  0.21955  0.50787  1.0000
  H   H2001     1.0  0.83999  0.32957  0.60364  1.0000
  Fe  Fe227     1.0  0.82435  0.19456  0.54853  1.0000
  S   S455      1.0  0.80699  0.17043  0.56672  1.0000
  S   S456      1.0  0.86165  0.22594  0.51242  1.0000
  S   S457      1.0  0.85333  0.19873  0.55623  1.0000
  H   H2002     1.0  0.89334  0.11231  0.47839  1.0000
  C   C1679     1.0  0.89783  0.27143  0.58648  1.0000
  C   C1680     1.0  0.88336  0.28686  0.57959  1.0000
  C   C1681     1.0  0.86906  0.28263  0.56983  1.0000
  C   C1682     1.0  0.86903  0.26298  0.56674  1.0000
  C   C1683     1.0  0.88345  0.24754  0.57370  1.0000
  C   C1684     1.0  0.89773  0.25175  0.58350  1.0000
  H   H2003     1.0  0.88314  0.30206  0.58179  1.0000
  H   H2004     1.0  0.85795  0.29470  0.56457  1.0000
  H   H2005     1.0  0.88328  0.23234  0.57188  1.0000
  H   H2006     1.0  0.90864  0.23964  0.58903  1.0000
  H   H2007     1.0  0.68317  0.19285  0.62577  1.0000
  C   C1685     1.0  0.86297  0.37889  0.70399  1.0000
  C   C1686     1.0  0.86678  0.38046  0.68357  1.0000
  C   C1687     1.0  0.87850  0.36461  0.67436  1.0000
  C   C1688     1.0  0.88616  0.34683  0.68555  1.0000
  C   C1689     1.0  0.88218  0.34519  0.70598  1.0000
  H   H2008     1.0  0.90154  0.21075  0.52227  1.0000
  H   H2009     1.0  0.86076  0.39406  0.67478  1.0000
  H   H2010     1.0  0.88143  0.36608  0.65863  1.0000
  H   H2011     1.0  0.81263  0.16574  0.50362  1.0000
  H   H2012     1.0  0.91667  0.23016  0.51212  1.0000
  C   C1690     1.0  0.73904  0.17113  0.58272  1.0000
  C   C1691     1.0  0.75241  0.15331  0.58590  1.0000
  C   C1692     1.0  0.77317  0.15345  0.58109  1.0000
  C   C1693     1.0  0.78076  0.17136  0.57309  1.0000
  C   C1694     1.0  0.76738  0.18925  0.57014  1.0000
  C   C1695     1.0  0.74662  0.18909  0.57488  1.0000
  H   H2013     1.0  0.74676  0.13941  0.59199  1.0000
  H   H2014     1.0  0.78341  0.13956  0.58355  1.0000
  H   H2015     1.0  0.77301  0.20319  0.56427  1.0000
  H   H2016     1.0  0.73635  0.20297  0.57248  1.0000
  C   C1696     1.0  0.69766  0.04909  0.61853  1.0000
  C   C1697     1.0  0.70748  0.02944  0.61689  1.0000
  C   C1698     1.0  0.67681  0.05265  0.62307  1.0000
  H   H2017     1.0  0.72363  0.02654  0.61338  1.0000
  H   H2018     1.0  0.66903  0.06761  0.62415  1.0000
  C   C1699     1.0  0.79887  0.16272  0.51418  1.0000
  H   H2019     1.0  0.86170  0.46417  0.69678  1.0000
  H   H2020     1.0  0.75996  0.15835  0.52014  1.0000
  C   C1700     1.0  0.66430  0.10114  0.53420  1.0000
  C   C1701     1.0  0.93863  0.19257  0.50422  1.0000
  H   H2021     1.0  0.82859  0.44742  0.68810  1.0000
  H   H2022     1.0  0.71741  0.20067  0.62086  1.0000
  C   C1702     1.0  0.94217  0.19546  0.52252  1.0000
  H   H2023     1.0  0.93284  0.40465  0.54841  1.0000
  H   H2024     1.0  0.83743  0.35684  0.62275  1.0000
  C   C1703     1.0  0.92777  0.39612  0.57962  1.0000
  H   H2025     1.0  0.70410  0.99841  0.61868  1.0000
  H   H2026     1.0  0.89179  0.29129  0.66143  1.0000
  H   H2027     1.0  0.92493  0.39158  0.61084  1.0000
  N   N114      1.0  0.78163  0.17861  0.51032  1.0000
  H   H2028     1.0  0.72650  0.05758  0.55372  1.0000
  H   H2029     1.0  0.66334  0.24964  0.68095  1.0000
  H   H2030     1.0  0.69410  0.25277  0.65651  1.0000
  C   C1704     1.0  0.67665  0.10106  0.54750  1.0000
  C   C1705     1.0  0.66323  0.08331  0.52819  1.0000
  H   H2031     1.0  0.88870  0.08853  0.49264  1.0000
  N   N115      1.0  0.70221  0.18539  0.64759  1.0000
  H   H2032     1.0  0.77865  0.21385  0.48232  1.0000
  H   H2033     1.0  0.83079  0.09496  0.50990  1.0000
  H   H2034     1.0  0.85378  0.29545  0.61552  1.0000
  H   H2035     1.0  0.67657  0.11484  0.55288  1.0000
  H   H2036     1.0  0.96345  0.18535  0.54274  1.0000
  H   H2037     1.0  0.83824  0.09311  0.47761  1.0000
  H   H2038     1.0  0.98622  0.31538  0.65093  1.0000
  H   H2039     1.0  0.85694  0.07593  0.48996  1.0000
  C   C1706     1.0  0.94396  0.41354  0.59729  1.0000
  C   C1707     1.0  0.83058  0.11352  0.53063  1.0000
  C   C1708     1.0  0.67486  0.20178  0.67138  1.0000
  H   H2040     1.0  0.69342  0.01980  0.57830  1.0000
  C   C1709     1.0  0.77789  0.20013  0.47736  1.0000
  H   H2041     1.0  0.89817  0.28638  0.63692  1.0000
  H   H2042     1.0  0.80219  0.16173  0.52912  1.0000
  H   H2043     1.0  0.71758  0.17151  0.67151  1.0000
  H   H2044     1.0  0.89782  0.26596  0.65673  1.0000
  C   C1710     1.0  0.93798  0.22261  0.54144  1.0000
  H   H2045     1.0  0.71559  0.15459  0.65566  1.0000
  H   H2046     1.0  0.87535  0.13472  0.49651  1.0000
  H   H2047     1.0  0.94680  0.41619  0.61098  1.0000
  N   N116      1.0  0.92774  0.20833  0.53527  1.0000
  H   H2048     1.0  0.84912  0.34937  0.65455  1.0000
  H   H2049     1.0  0.87489  0.25053  0.64503  1.0000
  H   H2050     1.0  0.67212  0.18068  0.71954  1.0000
  H   H2051     1.0  0.92522  0.19968  0.49847  1.0000
  H   H2052     1.0  0.67457  0.17544  0.64669  1.0000
  H   H2053     1.0  0.96276  0.44919  0.48010  1.0000
  H   H2054     1.0  0.79621  0.14753  0.51332  1.0000
  N   N117      1.0  0.83013  0.46576  0.70911  1.0000
  C   C1711     1.0  0.89772  0.16691  0.49534  1.0000
  H   H2055     1.0  0.88813  0.33153  0.71474  1.0000
  H   H2056     1.0  0.81803  0.10781  0.54044  1.0000
  C   C1712     1.0  0.78522  0.19716  0.51606  1.0000
  C   C1713     1.0  0.83811  0.10625  0.51298  1.0000
  H   H2057     1.0  0.91136  0.18423  0.54871  1.0000
  C   C1714     1.0  0.91105  0.22045  0.52576  1.0000
  H   H2058     1.0  0.79851  0.20281  0.50657  1.0000
  H   H2059     1.0  0.71520  0.04082  0.52794  1.0000
  C   C1715     1.0  0.88454  0.17757  0.48299  1.0000
  H   H2060     1.0  0.95737  0.37576  0.53151  1.0000
  H   H2061     1.0  0.67748  0.21553  0.71801  1.0000
  C   C1716     1.0  0.68884  0.23843  0.66074  1.0000
  H   H2062     1.0  0.78817  0.19455  0.53127  1.0000
  H   H2063     1.0  0.77210  0.20934  0.51541  1.0000
  H   H2064     1.0  0.69523  0.16729  0.62909  1.0000
  H   H2065     1.0  0.94893  0.21500  0.55107  1.0000
  S   S458      1.0  0.97921  0.46344  0.52316  1.0000
  S   S459      1.0  0.82051  0.23110  0.47937  1.0000
  N   N118      1.0  0.69929  0.04547  0.55650  1.0000
  C   C1717     1.0  0.71669  0.04823  0.56458  1.0000
  C   C1718     1.0  0.68587  0.03485  0.57232  1.0000
  C   C1719     1.0  0.70716  0.03244  0.54126  1.0000
  C   C1720     1.0  0.68780  0.06475  0.54855  1.0000
  C   C1721     1.0  0.68816  0.08318  0.55475  1.0000
  C   C1722     1.0  0.67457  0.06533  0.53540  1.0000
  H   H2066     1.0  0.71219  0.22435  0.64119  1.0000
  C   C1723     1.0  0.88504  0.09965  0.47973  1.0000
  C   C1724     1.0  0.87088  0.36122  0.71517  1.0000
  H   H2067     1.0  0.71198  0.05541  0.57791  1.0000
  C   C1725     1.0  0.95999  0.18445  0.52877  1.0000
  H   H2068     1.0  0.87342  0.18988  0.48755  1.0000
  C   C1726     1.0  0.77816  0.16431  0.48122  1.0000
  H   H2069     1.0  0.97513  0.39140  0.53168  1.0000
  H   H2070     1.0  0.68080  0.04351  0.58462  1.0000
  C   C1727     1.0  0.85448  0.08901  0.47825  1.0000
  H   H2071     1.0  0.71770  0.01898  0.54640  1.0000
  S   S460      1.0  0.96927  0.44031  0.58015  1.0000
  H   H2072     1.0  0.69666  0.08410  0.56569  1.0000
  H   H2073     1.0  0.67198  0.05183  0.53129  1.0000
  C   C1728     1.0  0.69915  0.22189  0.65204  1.0000
  H   H2074     1.0  0.94881  0.17714  0.47937  1.0000
  C   C1729     1.0  0.97347  0.17162  0.51734  1.0000
  C   C1730     1.0  0.67559  0.01723  0.62463  1.0000
  H   H2075     1.0  0.87694  0.26897  0.62393  1.0000
  H   H2076     1.0  0.98426  0.32850  0.55395  1.0000
  C   C1731     1.0  0.94883  0.42063  0.56207  1.0000
  C   C1732     1.0  0.91891  0.19539  0.55283  1.0000
  C   C1733     1.0  0.69236  0.20300  0.65709  1.0000
  H   H2077     1.0  0.85493  0.44118  0.71000  1.0000
  H   H2078     1.0  0.74995  0.18432  0.52079  1.0000
  S   S461      1.0  0.66084  0.99813  0.62862  1.0000
  C   C1734     1.0  0.76323  0.17263  0.52299  1.0000
  H   H2079     1.0  0.67219  0.03277  0.56733  1.0000
  C   C1735     1.0  0.97369  0.37592  0.53010  1.0000
  C   C1736     1.0  0.86299  0.12828  0.50574  1.0000
  H   H2080     1.0  0.90076  0.23048  0.53539  1.0000
  H   H2081     1.0  0.72772  0.17509  0.62669  1.0000
  H   H2082     1.0  0.94606  0.23157  0.52857  1.0000
  C   C1737     1.0  0.85559  0.13517  0.52351  1.0000
  C   C1738     1.0  0.83933  0.12792  0.53590  1.0000
  C   C1739     1.0  0.69647  0.01351  0.61986  1.0000
  C   C1740     1.0  0.93171  0.39948  0.59722  1.0000
  C   C1741     1.0  0.93601  0.40704  0.56205  1.0000
  C   C1742     1.0  0.77930  0.18115  0.48964  1.0000
  S   S462      1.0  0.84761  0.39899  0.71494  1.0000
  H   H2083     1.0  0.93038  0.18679  0.56151  1.0000
  C   C1743     1.0  0.91238  0.15128  0.48906  1.0000
  H   H2084     1.0  0.76447  0.17035  0.53870  1.0000
  H   H2085     1.0  0.98556  0.35992  0.66040  1.0000
  H   H2086     1.0  0.69515  0.02630  0.53705  1.0000
  C   C1744     1.0  0.85472  0.11337  0.50002  1.0000
  H   H2087     1.0  0.83496  0.47165  0.67764  1.0000
  H   H2088     1.0  0.86258  0.14621  0.52770  1.0000
  H   H2089     1.0  0.83357  0.13347  0.54963  1.0000
  N   N119      1.0  0.86871  0.28113  0.65083  1.0000
  C   C1745     1.0  0.85825  0.27469  0.67080  1.0000
  C   C1746     1.0  0.86811  0.26582  0.63878  1.0000
  C   C1747     1.0  0.88997  0.28117  0.65160  1.0000
  C   C1748     1.0  0.85946  0.30163  0.64313  1.0000
  C   C1749     1.0  0.85771  0.31769  0.65368  1.0000
  C   C1750     1.0  0.85268  0.30647  0.62486  1.0000
  C   C1751     1.0  0.84969  0.33730  0.64646  1.0000
  C   C1752     1.0  0.84467  0.32616  0.61778  1.0000
  C   C1753     1.0  0.84320  0.34153  0.62853  1.0000
  H   H2090     1.0  0.84192  0.27581  0.67102  1.0000
  H   H2091     1.0  0.86413  0.25889  0.67653  1.0000
  H   H2092     1.0  0.86020  0.28388  0.68141  1.0000
  H   H2093     1.0  0.85251  0.26509  0.63739  1.0000
  C   C1754     1.0  0.96952  0.16913  0.49952  1.0000
  C   C1755     1.0  0.70770  0.16793  0.66248  1.0000
  H   H2094     1.0  0.65483  0.14612  0.71185  1.0000
  C   C1756     1.0  0.68813  0.18008  0.63689  1.0000
  H   H2095     1.0  0.69440  0.16283  0.67244  1.0000
  H   H2096     1.0  0.95546  0.42873  0.54845  1.0000
  H   H2097     1.0  0.95544  0.36408  0.56557  1.0000
  H   H2098     1.0  0.97301  0.37956  0.56700  1.0000
  H   H2099     1.0  0.90753  0.20429  0.56265  1.0000
  H   H2100     1.0  0.97987  0.15889  0.49088  1.0000
  C   C1757     1.0  0.95279  0.42391  0.57972  1.0000
  H   H2101     1.0  0.80969  0.46945  0.68902  1.0000
  C   C1758     1.0  0.82565  0.46349  0.69013  1.0000
  H   H2102     1.0  0.73215  0.19270  0.64036  1.0000
  Fe  Fe228     1.0  0.65849  0.12817  0.60344  1.0000
  C   C1759     1.0  0.97167  0.36450  0.56433  1.0000
  N   N120      1.0  0.98285  0.36055  0.54494  1.0000
  H   H2103     1.0  0.77852  0.14952  0.48977  1.0000
  C   C1760     1.0  0.67154  0.23671  0.67453  1.0000
  H   H2104     1.0  0.90182  0.00734  0.47160  1.0000
  H   H2105     1.0  0.98356  0.39459  0.59840  1.0000
  C   C1761     1.0  0.66456  0.21841  0.67984  1.0000
  C   C1762     1.0  0.97983  0.34060  0.54204  1.0000
  S   S463      1.0  0.66233  0.10641  0.63084  1.0000
  H   H2106     1.0  0.97672  0.35320  0.57647  1.0000
  H   H2107     1.0  0.66868  0.18803  0.67577  1.0000
  S   S464      1.0  0.66433  0.15415  0.61541  1.0000
  H   H2108     1.0  0.98061  0.37347  0.51498  1.0000
  H   H2109     1.0  0.98695  0.16325  0.52240  1.0000
  H   H2110     1.0  0.98583  0.37200  0.62615  1.0000
  H   H2111     1.0  0.65483  0.11491  0.52929  1.0000
  C   C1763     1.0  0.76313  0.31867  0.78726  1.0000
  S   S465      1.0  0.81299  0.40952  0.76357  1.0000
  H   H2112     1.0  0.68634  0.18046  0.80036  1.0000
  C   C1764     1.0  0.66271  0.38387  0.95771  1.0000
  H   H2113     1.0  0.80242  0.36745  0.74387  1.0000
  C   C1765     1.0  0.77993  0.31442  0.79627  1.0000
  Fe  Fe229     1.0  0.95335  0.46261  0.87191  1.0000
  H   H2114     1.0  0.84560  0.47059  0.75477  1.0000
  C   C1766     1.0  0.85549  0.39631  0.84850  1.0000
  S   S466      1.0  0.92769  0.44719  0.88860  1.0000
  H   H2115     1.0  0.79535  0.46808  0.82516  1.0000
  Fe  Fe230     1.0  0.68786  0.31355  0.88231  1.0000
  N   N121      1.0  0.81802  0.33908  0.75657  1.0000
  S   S467      1.0  0.68917  0.30313  0.91459  1.0000
  Fe  Fe231     1.0  0.69947  0.33239  0.84009  1.0000
  H   H2116     1.0  0.87034  0.46265  0.96470  1.0000
  S   S468      1.0  0.72012  0.34772  0.81484  1.0000
  H   H2117     1.0  0.81326  0.33767  0.72760  1.0000
  H   H2118     1.0  0.85714  0.39762  0.83239  1.0000
  Fe  Fe232     1.0  0.67341  0.29917  0.84889  1.0000
  C   C1767     1.0  0.81870  0.45371  0.84155  1.0000
  S   S469      1.0  0.68536  0.34566  0.86739  1.0000
  S   S470      1.0  0.70394  0.30022  0.85541  1.0000
  Fe  Fe233     1.0  0.82391  0.38738  0.78833  1.0000
  S   S471      1.0  0.85427  0.37785  0.77110  1.0000
  S   S472      1.0  0.80855  0.36422  0.81050  1.0000
  Fe  Fe234     1.0  0.86369  0.40308  0.78136  1.0000
  S   S473      1.0  0.89199  0.39985  0.79366  1.0000
  S   S474      1.0  0.83435  0.41061  0.80035  1.0000
  Fe  Fe235     1.0  0.82601  0.43213  0.77432  1.0000
  C   C1768     1.0  0.83513  0.33275  0.76735  1.0000
  S   S475      1.0  0.88469  0.45903  0.85392  1.0000
  H   H2119     1.0  0.83203  0.33906  0.78123  1.0000
  C   C1769     1.0  0.79783  0.32087  0.78656  1.0000
  H   H2120     1.0  0.71924  0.37235  0.93747  1.0000
  S   S476      1.0  0.73295  0.33409  0.97123  1.0000
  C   C1770     1.0  0.82856  0.43550  0.85014  1.0000
  C   C1771     1.0  0.74387  0.35372  0.81514  1.0000
  C   C1772     1.0  0.75232  0.36701  0.79942  1.0000
  C   C1773     1.0  0.77183  0.37097  0.79816  1.0000
  C   C1774     1.0  0.78325  0.36132  0.81246  1.0000
  C   C1775     1.0  0.77471  0.34825  0.82834  1.0000
  C   C1776     1.0  0.75504  0.34458  0.82978  1.0000
  H   H2121     1.0  0.74377  0.37412  0.78804  1.0000
  H   H2122     1.0  0.77807  0.38124  0.78599  1.0000
  H   H2123     1.0  0.78343  0.34072  0.83946  1.0000
  H   H2124     1.0  0.74874  0.33424  0.84189  1.0000
  C   C1777     1.0  0.70011  0.31413  0.92965  1.0000
  C   C1778     1.0  0.71742  0.32273  0.92252  1.0000
  C   C1779     1.0  0.72718  0.32894  0.93545  1.0000
  H   H2125     1.0  0.84122  0.43606  0.85677  1.0000
  C   C1780     1.0  0.79945  0.33164  0.76723  1.0000
  C   C1781     1.0  0.69220  0.31260  0.94965  1.0000
  H   H2126     1.0  0.72378  0.32376  0.90720  1.0000
  H   H2127     1.0  0.74098  0.33491  0.92994  1.0000
  C   C1782     1.0  0.66856  0.37524  0.94038  1.0000
  C   C1783     1.0  0.80536  0.41791  0.84120  1.0000
  C   C1784     1.0  0.68941  0.37145  0.93314  1.0000
  C   C1785     1.0  0.82683  0.37974  0.85486  1.0000
  H   H2128     1.0  0.82076  0.45426  0.73935  1.0000
  H   H2129     1.0  0.84075  0.38259  0.88589  1.0000
  H   H2130     1.0  0.66700  0.17076  0.78143  1.0000
  H   H2131     1.0  0.82394  0.46761  0.84154  1.0000
  C   C1786     1.0  0.70851  0.25206  0.96275  1.0000
  H   H2132     1.0  0.82217  0.43688  0.72305  1.0000
  H   H2133     1.0  0.77876  0.30685  0.81123  1.0000
  C   C1787     1.0  0.67369  0.22992  0.78345  1.0000
  H   H2134     1.0  0.91752  0.44433  0.77844  1.0000
  C   C1788     1.0  0.88828  0.44346  0.83610  1.0000
  C   C1789     1.0  0.90481  0.42826  0.83387  1.0000
  C   C1790     1.0  0.90607  0.41504  0.82057  1.0000
  C   C1791     1.0  0.89088  0.41706  0.80949  1.0000
  C   C1792     1.0  0.87468  0.43261  0.81143  1.0000
  C   C1793     1.0  0.87341  0.44572  0.82469  1.0000
  H   H2135     1.0  0.91634  0.42643  0.84267  1.0000
  H   H2136     1.0  0.91869  0.40308  0.81906  1.0000
  H   H2137     1.0  0.86320  0.43474  0.80257  1.0000
  H   H2138     1.0  0.86088  0.45778  0.82600  1.0000
  C   C1794     1.0  0.67538  0.21324  0.74908  1.0000
  S   S477      1.0  0.85621  0.42613  0.75586  1.0000
  H   H2139     1.0  0.86289  0.40818  0.85143  1.0000
  H   H2140     1.0  0.82751  0.37941  0.83907  1.0000
  Fe  Fe236     1.0  0.84416  0.40154  0.74701  1.0000
  C   C1795     1.0  0.79569  0.43623  0.83254  1.0000
  C   C1796     1.0  0.68803  0.19655  0.79609  1.0000
  H   H2141     1.0  0.71660  0.26364  0.93232  1.0000
  C   C1797     1.0  0.78200  0.33572  0.75850  1.0000
  S   S478      1.0  0.80826  0.46242  0.77960  1.0000
  C   C1798     1.0  0.67251  0.18620  0.73279  1.0000
  H   H2142     1.0  0.83606  0.36557  0.86062  1.0000
  H   H2143     1.0  0.83959  0.40918  0.88234  1.0000
  H   H2144     1.0  0.78320  0.43657  0.82526  1.0000
  C   C1799     1.0  0.82261  0.41695  0.84969  1.0000
  C   C1800     1.0  0.91932  0.46631  0.79572  1.0000
  H   H2145     1.0  0.86447  0.38176  0.85372  1.0000
  C   C1801     1.0  0.83278  0.39704  0.87906  1.0000
  H   H2146     1.0  0.81689  0.39876  0.88652  1.0000
  H   H2147     1.0  0.74014  0.28388  0.93801  1.0000
  S   S479      1.0  0.66996  0.33028  0.83195  1.0000
  H   H2148     1.0  0.67895  0.30572  0.95530  1.0000
  H   H2149     1.0  0.86828  0.35989  0.73086  1.0000
  H   H2150     1.0  0.82621  0.31498  0.73969  1.0000
  C   C1802     1.0  0.71936  0.32729  0.95547  1.0000
  H   H2151     1.0  0.82791  0.36761  0.74502  1.0000
  Fe  Fe237     1.0  0.91038  0.46559  0.86578  1.0000
  Fe  Fe238     1.0  0.65655  0.34082  0.86046  1.0000
  N   N122      1.0  0.83411  0.39777  0.85782  1.0000
  H   H2152     1.0  0.79951  0.40470  0.84023  1.0000
  H   H2153     1.0  0.81118  0.37907  0.86243  1.0000
  C   C1803     1.0  0.67550  0.20583  0.73197  1.0000
  C   C1804     1.0  0.73236  0.27472  0.95025  1.0000
  C   C1805     1.0  0.80250  0.45404  0.83249  1.0000
  H   H2154     1.0  0.67235  0.34807  0.91440  1.0000
  H   H2155     1.0  0.75077  0.33320  0.76183  1.0000
  C   C1806     1.0  0.69709  0.38380  0.96019  1.0000
  H   H2156     1.0  0.74904  0.31442  0.79521  1.0000
  C   C1807     1.0  0.66163  0.36231  0.91238  1.0000
  H   H2157     1.0  0.67732  0.22872  0.74736  1.0000
  H   H2158     1.0  0.70279  0.19728  0.78644  1.0000
  C   C1808     1.0  0.81818  0.45304  0.72464  1.0000
  C   C1809     1.0  0.76414  0.32935  0.76844  1.0000
  Fe  Fe239     1.0  0.91908  0.47434  0.90352  1.0000
  C   C1810     1.0  0.71909  0.26330  0.94703  1.0000
  N   N123      1.0  0.67158  0.20839  0.78616  1.0000
  H   H2159     1.0  0.83874  0.31613  0.77073  1.0000
  C   C1811     1.0  0.70337  0.37582  0.94293  1.0000
  S   S480      1.0  0.65805  0.30970  0.87695  1.0000
  C   C1812     1.0  0.70155  0.31950  0.96247  1.0000
  C   C1813     1.0  0.89218  0.46800  0.77845  1.0000
  H   H2160     1.0  0.66919  0.37366  0.90158  1.0000
  C   C1814     1.0  0.66964  0.18095  0.76789  1.0000
  H   H2161     1.0  0.80991  0.31782  0.79481  1.0000
  C   C1815     1.0  0.82426  0.33166  0.73759  1.0000
  C   C1816     1.0  0.66962  0.17377  0.75071  1.0000
  H   H2162     1.0  0.67256  0.23520  0.79762  1.0000
  C   C1817     1.0  0.67223  0.20101  0.76767  1.0000
  H   H2163     1.0  0.69538  0.36474  0.92017  1.0000
  C   C1818     1.0  0.81427  0.36130  0.75289  1.0000
  H   H2164     1.0  0.68840  0.23279  0.77472  1.0000
  C   C1819     1.0  0.91048  0.45834  0.78352  1.0000
  S   S481      1.0  0.91188  0.47054  0.93626  1.0000
  H   H2165     1.0  0.84896  0.33821  0.75881  1.0000
  H   H2166     1.0  0.80939  0.36731  0.76689  1.0000
  H   H2167     1.0  0.88510  0.46147  0.76935  1.0000
  S   S482      1.0  0.98569  0.44827  0.86951  1.0000
  H   H2168     1.0  0.68851  0.20218  0.80971  1.0000
  H   H2169     1.0  0.65603  0.38576  0.85991  1.0000
  H   H2170     1.0  0.78187  0.34436  0.74412  1.0000
  H   H2171     1.0  0.80188  0.45715  0.72426  1.0000
  S   S483      1.0  0.66275  0.27177  0.84245  1.0000
  H   H2172     1.0  0.93331  0.45850  0.80006  1.0000
  H   H2173     1.0  0.85609  0.46100  0.72286  1.0000
  H   H2174     1.0  0.83868  0.33632  0.72962  1.0000
  H   H2175     1.0  0.66687  0.15861  0.75138  1.0000
  C   C1820     1.0  0.67677  0.38794  0.96752  1.0000
  S   S484      1.0  0.93694  0.47838  0.84753  1.0000
  H   H2176     1.0  0.69799  0.24344  0.96013  1.0000
  H   H2177     1.0  0.70804  0.38653  0.96799  1.0000
  H   H2178     1.0  0.66156  0.23967  0.77620  1.0000
  H   H2179     1.0  0.65815  0.29608  0.80429  1.0000
  H   H2180     1.0  0.95392  0.47793  0.93398  1.0000
  C   C1821     1.0  0.73479  0.27532  0.96922  1.0000
  H   H2181     1.0  0.98342  0.46982  0.90893  1.0000
  C   C1822     1.0  0.98447  0.47840  0.92000  1.0000
  H   H2182     1.0  0.74438  0.28539  0.97092  1.0000
  H   H2183     1.0  0.65478  0.34048  0.94841  1.0000
  H   H2184     1.0  0.65462  0.41864  0.87025  1.0000
  S   S485      1.0  0.93788  0.52196  0.00856  1.0000
  Fe  Fe240     1.0  0.92911  0.57600  0.02087  1.0000
  S   S486      1.0  0.94918  0.55070  0.03558  1.0000
  S   S487      1.0  0.92817  0.60734  0.02611  1.0000
  Fe  Fe241     1.0  0.96027  0.54249  0.00571  1.0000
  C   C1823     1.0  0.66655  0.83017  0.08930  1.0000
  Fe  Fe242     1.0  0.92478  0.53301  0.03690  1.0000
  S   S488      1.0  0.91415  0.51486  0.06550  1.0000
  S   S489      1.0  0.90369  0.55902  0.02445  1.0000
  Fe  Fe243     1.0  0.84400  0.63384  0.10851  1.0000
  S   S490      1.0  0.82350  0.61457  0.10326  1.0000
  S   S491      1.0  0.86279  0.65241  0.08531  1.0000
  Fe  Fe244     1.0  0.83347  0.62565  0.15266  1.0000
  S   S492      1.0  0.81200  0.60514  0.15123  1.0000
  S   S493      1.0  0.83568  0.63470  0.18152  1.0000
  Fe  Fe245     1.0  0.83545  0.59273  0.12783  1.0000
  S   S494      1.0  0.84778  0.56042  0.12371  1.0000
  Fe  Fe246     1.0  0.80156  0.62850  0.12680  1.0000
  S   S495      1.0  0.76849  0.64051  0.12728  1.0000
  S   S496      1.0  0.85784  0.61133  0.13120  1.0000
  S   S497      1.0  0.82116  0.64968  0.13004  1.0000
  C   C1824     1.0  0.73051  0.68556  0.98224  1.0000
  H   H2185     1.0  0.69501  0.78448  0.09751  1.0000
  C   C1825     1.0  0.86617  0.69973  0.14449  1.0000
  H   H2186     1.0  0.74193  0.66074  0.18427  1.0000
  C   C1826     1.0  0.88550  0.49171  0.08145  1.0000
  C   C1827     1.0  0.76481  0.61151  0.18383  1.0000
  H   H2187     1.0  0.80964  0.56290  0.08949  1.0000
  C   C1828     1.0  0.78180  0.57653  0.18896  1.0000
  H   H2188     1.0  0.83932  0.49187  0.12129  1.0000
  S   S498      1.0  0.69074  0.75620  0.99338  1.0000
  Fe  Fe247     1.0  0.70053  0.70027  0.05044  1.0000
  S   S499      1.0  0.70144  0.73337  0.04562  1.0000
  S   S500      1.0  0.73013  0.67892  0.05113  1.0000
  C   C1829     1.0  0.77204  0.57163  0.17554  1.0000
  H   H2189     1.0  0.83533  0.69355  0.11461  1.0000
  Fe  Fe248     1.0  0.68403  0.73508  0.02154  1.0000
  S   S501      1.0  0.67190  0.70256  0.07218  1.0000
  S   S502      1.0  0.68481  0.70197  0.02488  1.0000
  H   H2190     1.0  0.88630  0.49621  0.09503  1.0000
  H   H2191     1.0  0.68177  0.80852  0.07084  1.0000
  C   C1830     1.0  0.78002  0.64122  0.17939  1.0000
  H   H2192     1.0  0.82958  0.49380  0.07400  1.0000
  H   H2193     1.0  0.82492  0.58499  0.06478  1.0000
  H   H2194     1.0  0.83760  0.57755  0.08566  1.0000
  C   C1831     1.0  0.96563  0.49022  0.05366  1.0000
  H   H2195     1.0  0.85183  0.51833  0.05956  1.0000
  H   H2196     1.0  0.87393  0.53648  0.06525  1.0000
  C   C1832     1.0  0.85609  0.64326  0.18767  1.0000
  C   C1833     1.0  0.87475  0.64265  0.17552  1.0000
  C   C1834     1.0  0.88999  0.65110  0.18008  1.0000
  C   C1835     1.0  0.88711  0.65957  0.19723  1.0000
  C   C1836     1.0  0.80732  0.51450  0.08893  1.0000
  C   C1837     1.0  0.85332  0.65135  0.20502  1.0000
  H   H2197     1.0  0.87740  0.63575  0.16258  1.0000
  H   H2198     1.0  0.90417  0.65108  0.17031  1.0000
  H   H2199     1.0  0.85381  0.66392  0.14656  1.0000
  C   C1838     1.0  0.89570  0.49399  0.04657  1.0000
  C   C1839     1.0  0.75833  0.65182  0.10594  1.0000
  C   C1840     1.0  0.76945  0.65067  0.08728  1.0000
  C   C1841     1.0  0.76062  0.65914  0.07068  1.0000
  C   C1842     1.0  0.74073  0.66912  0.07251  1.0000
  C   C1843     1.0  0.72973  0.67057  0.09116  1.0000
  C   C1844     1.0  0.73846  0.66182  0.10778  1.0000
  H   H2200     1.0  0.78473  0.64300  0.08563  1.0000
  H   H2201     1.0  0.76925  0.65791  0.05633  1.0000
  H   H2202     1.0  0.71440  0.67813  0.09279  1.0000
  H   H2203     1.0  0.72971  0.66277  0.12212  1.0000
  C   C1845     1.0  0.83376  0.54045  0.12883  1.0000
  C   C1846     1.0  0.81418  0.54228  0.13912  1.0000
  C   C1847     1.0  0.80378  0.52578  0.14323  1.0000
  C   C1848     1.0  0.81275  0.50749  0.13682  1.0000
  C   C1849     1.0  0.83228  0.50577  0.12643  1.0000
  C   C1850     1.0  0.84275  0.52213  0.12256  1.0000
  H   H2204     1.0  0.80712  0.55633  0.14398  1.0000
  H   H2205     1.0  0.78865  0.52723  0.15121  1.0000
  C   C1851     1.0  0.87727  0.71255  0.17605  1.0000
  H   H2206     1.0  0.85783  0.52058  0.11449  1.0000
  C   C1852     1.0  0.75787  0.63233  0.20943  1.0000
  H   H2207     1.0  0.74549  0.61677  0.16158  1.0000
  H   H2208     1.0  0.79244  0.56515  0.19594  1.0000
  H   H2209     1.0  0.69908  0.97760  0.16923  1.0000
  S   S503      1.0  0.94206  0.56921  0.99083  1.0000
  C   C1853     1.0  0.76116  0.68720  0.99312  1.0000
  C   C1854     1.0  0.93794  0.61459  0.08249  1.0000
  C   C1855     1.0  0.85830  0.51274  0.99211  1.0000
  H   H2210     1.0  0.91587  0.63650  0.10706  1.0000
  H   H2211     1.0  0.82915  0.69318  0.14017  1.0000
  C   C1856     1.0  0.90796  0.61937  0.04118  1.0000
  C   C1857     1.0  0.90703  0.63988  0.04108  1.0000
  C   C1858     1.0  0.89261  0.64990  0.05425  1.0000
  C   C1859     1.0  0.87907  0.63947  0.06779  1.0000
  C   C1860     1.0  0.87969  0.61893  0.06785  1.0000
  C   C1861     1.0  0.89406  0.60889  0.05436  1.0000
  H   H2212     1.0  0.91776  0.64800  0.03095  1.0000
  H   H2213     1.0  0.89220  0.66573  0.05416  1.0000
  H   H2214     1.0  0.86938  0.61076  0.07849  1.0000
  H   H2215     1.0  0.89484  0.59301  0.05454  1.0000
  C   C1862     1.0  0.86062  0.70303  0.17914  1.0000
  H   H2216     1.0  0.76954  0.67649  0.98324  1.0000
  H   H2217     1.0  0.93387  0.59599  0.13073  1.0000
  H   H2218     1.0  0.78707  0.59938  0.20281  1.0000
  H   H2219     1.0  0.72848  0.70353  0.01447  1.0000
  H   H2220     1.0  0.86445  0.54763  0.08675  1.0000
  H   H2221     1.0  0.87686  0.56163  0.06528  1.0000
  N   N124      1.0  0.92707  0.60608  0.10163  1.0000
  H   H2222     1.0  0.95361  0.58892  0.11149  1.0000
  C   C1863     1.0  0.66589  0.84678  0.14477  1.0000
  C   C1864     1.0  0.88258  0.48079  0.04629  1.0000
  C   C1865     1.0  0.91888  0.58785  0.10099  1.0000
  C   C1866     1.0  0.90703  0.57866  0.11783  1.0000
  C   C1867     1.0  0.92263  0.57847  0.08408  1.0000
  C   C1868     1.0  0.89926  0.56135  0.11768  1.0000
  Fe  Fe249     1.0  0.67162  0.73602  0.06551  1.0000
  C   C1869     1.0  0.90319  0.55257  0.10089  1.0000
  C   C1870     1.0  0.86404  0.66942  0.13324  1.0000
  H   H2223     1.0  0.93132  0.58431  0.07046  1.0000
  H   H2224     1.0  0.84285  0.68816  0.16715  1.0000
  H   H2225     1.0  0.79345  0.63239  0.18515  1.0000
  C   C1871     1.0  0.98027  0.49836  0.03959  1.0000
  C   C1872     1.0  0.68165  0.80310  0.11957  1.0000
  H   H2226     1.0  0.72501  0.67148  0.01273  1.0000
  C   C1873     1.0  0.85521  0.69650  0.16370  1.0000
  N   N125      1.0  0.66328  0.82594  0.14415  1.0000
  H   H2227     1.0  0.90356  0.58482  0.13126  1.0000
  C   C1874     1.0  0.88291  0.70985  0.14175  1.0000
  H   H2228     1.0  0.88989  0.55483  0.13059  1.0000
  H   H2229     1.0  0.75179  0.58265  0.15513  1.0000
  H   H2230     1.0  0.89715  0.53914  0.10081  1.0000
  H   H2231     1.0  0.94809  0.61437  0.11631  1.0000
  H   H2232     1.0  0.86403  0.52526  0.98223  1.0000
  H   H2233     1.0  0.66789  0.97947  0.15465  1.0000
  H   H2234     1.0  0.95122  0.60387  0.07708  1.0000
  C   C1875     1.0  0.68867  0.97669  0.18341  1.0000
  H   H2235     1.0  0.87358  0.49191  0.97368  1.0000
  H   H2236     1.0  0.94360  0.62849  0.08325  1.0000
  H   H2237     1.0  0.75701  0.67830  0.00776  1.0000
  C   C1876     1.0  0.73219  0.71217  0.99971  1.0000
  H   H2238     1.0  0.77159  0.69692  0.99502  1.0000
  N   N126      1.0  0.76174  0.63230  0.18805  1.0000
  H   H2239     1.0  0.74077  0.72368  0.00144  1.0000
  H   H2240     1.0  0.67073  0.81687  0.17306  1.0000
  H   H2241     1.0  0.74546  0.62389  0.21675  1.0000
  H   H2242     1.0  0.68128  0.84952  0.13792  1.0000
  H   H2243     1.0  0.86127  0.66246  0.12134  1.0000
  C   C1877     1.0  0.75895  0.58637  0.16599  1.0000
  H   H2244     1.0  0.90468  0.49990  0.03317  1.0000
  H   H2245     1.0  0.83619  0.71550  0.12470  1.0000
  H   H2246     1.0  0.85799  0.49256  0.15917  1.0000
  H   H2247     1.0  0.75376  0.64783  0.21305  1.0000
  H   H2248     1.0  0.77125  0.62559  0.21629  1.0000
  C   C1878     1.0  0.75535  0.60603  0.16997  1.0000
  H   H2249     1.0  0.74735  0.64815  0.16384  1.0000
  H   H2250     1.0  0.83907  0.65167  0.21470  1.0000
  C   C1879     1.0  0.67873  0.81228  0.08543  1.0000
  S   S504      1.0  0.90633  0.67148  0.20132  1.0000
  C   C1880     1.0  0.70635  0.65842  0.97714  1.0000
  H   H2251     1.0  0.70416  0.64851  0.00801  1.0000
  C   C1881     1.0  0.84555  0.51609  0.00945  1.0000
  H   H2252     1.0  0.77862  0.65681  0.18233  1.0000
  C   C1882     1.0  0.87290  0.69721  0.10918  1.0000
  C   C1883     1.0  0.94125  0.60114  0.11565  1.0000
  H   H2253     1.0  0.98483  0.56406  0.01732  1.0000
  H   H2254     1.0  0.92802  0.61874  0.07131  1.0000
  N   N127      1.0  0.86084  0.69159  0.12863  1.0000
  C   C1884     1.0  0.66932  0.82131  0.12402  1.0000
  H   H2255     1.0  0.65830  0.67060  0.98133  1.0000
  C   C1885     1.0  0.91059  0.62196  0.10811  1.0000
  H   H2256     1.0  0.87966  0.66348  0.13560  1.0000
  H   H2257     1.0  0.88901  0.69087  0.10882  1.0000
  H   H2258     1.0  0.71792  0.72022  0.99522  1.0000
  H   H2259     1.0  0.87128  0.71379  0.10486  1.0000
  H   H2260     1.0  0.90153  0.72311  0.15525  1.0000
  H   H2261     1.0  0.69732  0.64791  0.97516  1.0000
  H   H2262     1.0  0.86814  0.69116  0.09757  1.0000
  H   H2263     1.0  0.85243  0.69984  0.19380  1.0000
  C   C1886     1.0  0.72230  0.67193  0.99812  1.0000
  C   C1887     1.0  0.89747  0.49906  0.06428  1.0000
  C   C1888     1.0  0.91482  0.56113  0.08416  1.0000
  H   H2264     1.0  0.89236  0.71277  0.12780  1.0000
  H   H2265     1.0  0.91774  0.55429  0.07111  1.0000
  H   H2266     1.0  0.67195  0.79664  0.16036  1.0000
  C   C1889     1.0  0.88834  0.71604  0.15740  1.0000
  C   C1890     1.0  0.86384  0.49334  0.98743  1.0000
  H   H2267     1.0  0.85013  0.58886  0.06297  1.0000
  S   S505      1.0  0.79919  0.48714  0.14214  1.0000
  N   N128      1.0  0.84678  0.55797  0.06405  1.0000
  C   C1891     1.0  0.84987  0.56027  0.04248  1.0000
  C   C1892     1.0  0.83943  0.57821  0.06961  1.0000
  C   C1893     1.0  0.86633  0.55061  0.07057  1.0000
  C   C1894     1.0  0.83298  0.54333  0.07265  1.0000
  C   C1895     1.0  0.83793  0.52331  0.06868  1.0000
  C   C1896     1.0  0.81453  0.54828  0.08516  1.0000
  C   C1897     1.0  0.82528  0.50915  0.07679  1.0000
  C   C1898     1.0  0.80194  0.53401  0.09305  1.0000
  H   H2268     1.0  0.85783  0.54627  0.03695  1.0000
  H   H2269     1.0  0.83532  0.56445  0.03711  1.0000
  H   H2270     1.0  0.85912  0.57215  0.03546  1.0000
  H   H2271     1.0  0.78820  0.53788  0.10298  1.0000
  H   H2272     1.0  0.69228  0.72070  0.97421  1.0000
  Fe  Fe250     1.0  0.91863  0.54944  0.99576  1.0000
  H   H2273     1.0  0.88473  0.49814  0.13199  1.0000
  C   C1899     1.0  0.83819  0.50007  0.02215  1.0000
  C   C1900     1.0  0.77841  0.59618  0.19298  1.0000
  H   H2274     1.0  0.66140  0.64010  0.01343  1.0000
  H   H2275     1.0  0.90341  0.61805  0.12350  1.0000
  S   S506      1.0  0.66311  0.75297  0.09143  1.0000
  C   C1901     1.0  0.96974  0.48210  0.07224  1.0000
  H   H2276     1.0  0.89867  0.62466  0.09901  1.0000
  H   H2277     1.0  0.73054  0.63906  0.18526  1.0000
  H   H2278     1.0  0.69125  0.81248  0.15360  1.0000
  H   H2279     1.0  0.65872  0.88794  0.22060  1.0000
  C   C1902     1.0  0.86878  0.65929  0.20988  1.0000
  H   H2280     1.0  0.88200  0.71664  0.18828  1.0000
  H   H2281     1.0  0.68758  0.79171  0.13056  1.0000
  H   H2282     1.0  0.77492  0.55646  0.17223  1.0000
  H   H2283     1.0  0.91597  0.50878  0.98619  1.0000
  C   C1903     1.0  0.68622  0.79876  0.10053  1.0000
  C   C1904     1.0  0.83948  0.69881  0.12700  1.0000
  C   C1905     1.0  0.66175  0.83460  0.10829  1.0000
  H   H2284     1.0  0.79779  0.50336  0.09566  1.0000
  H   H2285     1.0  0.66038  0.66874  0.03044  1.0000
  H   H2286     1.0  0.78321  0.64181  0.16328  1.0000
  N   N129      1.0  0.74341  0.69920  0.98534  1.0000
  C   C1906     1.0  0.67491  0.81233  0.15831  1.0000
  H   H2287     1.0  0.82830  0.50260  0.03568  1.0000
  H   H2288     1.0  0.84132  0.53114  0.01297  1.0000
  Fe  Fe251     1.0  0.65641  0.70725  0.04624  1.0000
  S   S507      1.0  0.65821  0.93143  0.20720  1.0000
  C   C1907     1.0  0.71033  0.65868  0.99558  1.0000
  H   H2289     1.0  0.68715  0.96058  0.18853  1.0000
  H   H2290     1.0  0.66003  0.84027  0.07767  1.0000
  H   H2291     1.0  0.65757  0.96413  0.17606  1.0000
  H   H2292     1.0  0.66311  0.85005  0.15998  1.0000
  C   C1908     1.0  0.74460  0.64553  0.18006  1.0000
  H   H2293     1.0  0.97701  0.50480  0.02517  1.0000
  H   H2294     1.0  0.82815  0.48417  0.17552  1.0000
  H   H2295     1.0  0.65509  0.85830  0.13737  1.0000
  H   H2296     1.0  0.95101  0.49032  0.05020  1.0000
  C   C1909     1.0  0.84369  0.48063  0.01763  1.0000
  C   C1910     1.0  0.91239  0.50964  0.97193  1.0000
  H   H2297     1.0  0.84591  0.48113  0.19202  1.0000
  C   C1911     1.0  0.88238  0.48291  0.13809  1.0000
  S   S508      1.0  0.90151  0.55032  0.97163  1.0000
  H   H2298     1.0  0.66074  0.47988  0.02495  1.0000
  H   H2299     1.0  0.92205  0.80350  0.40058  1.0000
  S   S509      1.0  0.92054  0.93278  0.40119  1.0000
  C   C1912     1.0  0.84713  0.93815  0.40933  1.0000
  Fe  Fe252     1.0  0.91771  0.92136  0.45719  1.0000
  S   S510      1.0  0.93272  0.89856  0.43804  1.0000
  C   C1913     1.0  0.90471  0.81609  0.35879  1.0000
  Fe  Fe253     1.0  0.94567  0.92436  0.41859  1.0000
  Fe  Fe254     1.0  0.90612  0.90908  0.42269  1.0000
  S   S511      1.0  0.88861  0.88636  0.41773  1.0000
  C   C1914     1.0  0.80129  0.93461  0.32738  1.0000
  S   S512      1.0  0.89016  0.93000  0.44364  1.0000
  H   H2300     1.0  0.96883  0.48973  0.43271  1.0000
  H   H2301     1.0  0.97814  0.66677  0.30975  1.0000
  H   H2302     1.0  0.86633  0.66568  0.22314  1.0000
  S   S513      1.0  0.82074  0.85660  0.46715  1.0000
  H   H2303     1.0  0.87268  0.83464  0.41675  1.0000
  H   H2304     1.0  0.66182  0.97489  0.28172  1.0000
  C   C1915     1.0  0.82536  0.82145  0.45180  1.0000
  H   H2305     1.0  0.83831  0.84319  0.25294  1.0000
  N   N130      1.0  0.89409  0.82087  0.39440  1.0000
  H   H2306     1.0  0.84001  0.90948  0.42289  1.0000
  C   C1916     1.0  0.87341  0.82560  0.40508  1.0000
  H   H2307     1.0  0.91834  0.83775  0.38208  1.0000
  H   H2308     1.0  0.83235  0.81087  0.24752  1.0000
  H   H2309     1.0  0.84186  0.79983  0.26943  1.0000
  H   H2310     1.0  0.81790  0.79557  0.26632  1.0000
  S   S514      1.0  0.98293  0.59492  0.38657  1.0000
  Fe  Fe255     1.0  0.67028  0.93725  0.27509  1.0000
  C   C1917     1.0  0.81535  0.90772  0.46272  1.0000
  H   H2311     1.0  0.86700  0.81203  0.41270  1.0000
  Fe  Fe256     1.0  0.92085  0.66668  0.27017  1.0000
  S   S515      1.0  0.92519  0.69691  0.27456  1.0000
  S   S516      1.0  0.92421  0.63955  0.29339  1.0000
  Fe  Fe257     1.0  0.89776  0.70848  0.26089  1.0000
  S   S517      1.0  0.87075  0.72756  0.27634  1.0000
  S   S518      1.0  0.89201  0.67777  0.25880  1.0000
  Fe  Fe258     1.0  0.80457  0.84642  0.33500  1.0000
  S   S519      1.0  0.82006  0.81479  0.34322  1.0000
  S   S520      1.0  0.77314  0.85286  0.32797  1.0000
  Fe  Fe259     1.0  0.83808  0.86510  0.34260  1.0000
  S   S521      1.0  0.85653  0.83539  0.35080  1.0000
  S   S522      1.0  0.84859  0.89413  0.34305  1.0000
  Fe  Fe260     1.0  0.84765  0.82590  0.32551  1.0000
  S   S523      1.0  0.87139  0.81035  0.30372  1.0000
  Fe  Fe261     1.0  0.82777  0.82653  0.36793  1.0000
  S   S524      1.0  0.82833  0.80789  0.39781  1.0000
  S   S525      1.0  0.83166  0.85677  0.31552  1.0000
  S   S526      1.0  0.80974  0.85706  0.36141  1.0000
  Fe  Fe262     1.0  0.71101  0.92326  0.25314  1.0000
  S   S527      1.0  0.66029  0.95770  0.24909  1.0000
  S   S528      1.0  0.74278  0.90655  0.25291  1.0000
  C   C1918     1.0  0.89416  0.81048  0.37787  1.0000
  Fe  Fe263     1.0  0.94229  0.69873  0.24407  1.0000
  H   H2312     1.0  0.77743  0.82745  0.29080  1.0000
  S   S529      1.0  0.69975  0.94788  0.27122  1.0000
  S   S530      1.0  0.97323  0.70793  0.23514  1.0000
  C   C1919     1.0  0.76508  0.86894  0.30744  1.0000
  C   C1920     1.0  0.74453  0.87342  0.30672  1.0000
  C   C1921     1.0  0.73744  0.88570  0.29046  1.0000
  C   C1922     1.0  0.75094  0.89321  0.27456  1.0000
  C   C1923     1.0  0.77153  0.88883  0.27531  1.0000
  C   C1924     1.0  0.77858  0.87691  0.29178  1.0000
  H   H2313     1.0  0.73400  0.86727  0.31877  1.0000
  H   H2314     1.0  0.72158  0.88884  0.28998  1.0000
  H   H2315     1.0  0.78205  0.89443  0.26296  1.0000
  H   H2316     1.0  0.79443  0.87345  0.29209  1.0000
  H   H2317     1.0  0.97692  0.60799  0.28881  1.0000
  S   S531      1.0  0.93251  0.94649  0.43892  1.0000
  C   C1925     1.0  0.82676  0.81087  0.43626  1.0000
  C   C1926     1.0  0.82486  0.82125  0.41748  1.0000
  C   C1927     1.0  0.82139  0.84220  0.41438  1.0000
  C   C1928     1.0  0.82010  0.85274  0.42981  1.0000
  H   H2318     1.0  0.82946  0.79464  0.43876  1.0000
  H   H2319     1.0  0.81980  0.85030  0.40007  1.0000
  C   C1929     1.0  0.85018  0.95690  0.41179  1.0000
  C   C1930     1.0  0.87151  0.75030  0.28415  1.0000
  C   C1931     1.0  0.88749  0.76092  0.27708  1.0000
  C   C1932     1.0  0.88727  0.77922  0.28336  1.0000
  C   C1933     1.0  0.87133  0.78683  0.29704  1.0000
  C   C1934     1.0  0.85564  0.77588  0.30457  1.0000
  C   C1935     1.0  0.85558  0.75788  0.29789  1.0000
  H   H2320     1.0  0.89986  0.75519  0.26656  1.0000
  H   H2321     1.0  0.89951  0.78756  0.27750  1.0000
  H   H2322     1.0  0.84347  0.78132  0.31540  1.0000
  H   H2323     1.0  0.84321  0.74968  0.30349  1.0000
  H   H2324     1.0  0.96938  0.69814  0.27757  1.0000
  C   C1936     1.0  0.97138  0.64046  0.32989  1.0000
  C   C1937     1.0  0.96881  0.65524  0.31372  1.0000
  C   C1938     1.0  0.95455  0.65484  0.30233  1.0000
  C   C1939     1.0  0.94262  0.63976  0.30719  1.0000
  C   C1940     1.0  0.94540  0.62473  0.32322  1.0000
  C   C1941     1.0  0.95989  0.62498  0.33450  1.0000
  S   S532      1.0  0.91504  0.71301  0.23022  1.0000
  H   H2325     1.0  0.95318  0.66596  0.28953  1.0000
  H   H2326     1.0  0.93635  0.61288  0.32692  1.0000
  H   H2327     1.0  0.96192  0.61340  0.34692  1.0000
  H   H2328     1.0  0.75192  0.86120  0.24249  1.0000
  N   N131      1.0  0.81804  0.82494  0.27266  1.0000
  C   C1942     1.0  0.84747  0.96169  0.43045  1.0000
  C   C1943     1.0  0.98153  0.52625  0.36110  1.0000
  C   C1944     1.0  0.76507  0.85309  0.24833  1.0000
  H   H2329     1.0  0.80604  0.83122  0.30174  1.0000
  H   H2330     1.0  0.82687  0.81339  0.46623  1.0000
  C   C1945     1.0  0.98465  0.70016  0.27163  1.0000
  C   C1946     1.0  0.73553  0.91789  0.32464  1.0000
  H   H2331     1.0  0.90037  0.79332  0.41406  1.0000
  H   H2332     1.0  0.96095  0.50776  0.37926  1.0000
  H   H2333     1.0  0.84545  0.83381  0.27599  1.0000
  C   C1947     1.0  0.87669  0.89032  0.39724  1.0000
  C   C1948     1.0  0.88169  0.90428  0.38067  1.0000
  C   C1949     1.0  0.87272  0.90580  0.36414  1.0000
  C   C1950     1.0  0.85908  0.89309  0.36402  1.0000
  C   C1951     1.0  0.85387  0.87946  0.38072  1.0000
  C   C1952     1.0  0.86237  0.87835  0.39735  1.0000
  H   H2334     1.0  0.89268  0.91364  0.38048  1.0000
  H   H2335     1.0  0.87679  0.91643  0.35126  1.0000
  H   H2336     1.0  0.84320  0.86983  0.38082  1.0000
  H   H2337     1.0  0.85792  0.86807  0.41034  1.0000
  C   C1953     1.0  0.82794  0.80706  0.26356  1.0000
  H   H2338     1.0  0.98553  0.65972  0.24565  1.0000
  C   C1954     1.0  0.84001  0.92792  0.44482  1.0000
  Fe  Fe264     1.0  0.90639  0.95303  0.42331  1.0000
  C   C1955     1.0  0.79966  0.83398  0.26443  1.0000
  C   C1956     1.0  0.90421  0.80613  0.34344  1.0000
  H   H2339     1.0  0.86318  0.83413  0.39499  1.0000
  H   H2340     1.0  0.81619  0.92892  0.33193  1.0000
  H   H2341     1.0  0.79963  0.90739  0.30436  1.0000
  H   H2342     1.0  0.97085  0.92638  0.44600  1.0000
  C   C1957     1.0  0.78393  0.85274  0.23680  1.0000
  H   H2343     1.0  0.87573  0.78842  0.39473  1.0000
  H   H2344     1.0  0.80199  0.90573  0.35711  1.0000
  C   C1958     1.0  0.81410  0.81852  0.29408  1.0000
  C   C1959     1.0  0.84224  0.94757  0.44680  1.0000
  S   S533      1.0  0.68197  0.91080  0.25908  1.0000
  C   C1960     1.0  0.76244  0.94517  0.31656  1.0000
  H   H2345     1.0  0.80445  0.94041  0.31151  1.0000
  H   H2346     1.0  0.77827  0.92187  0.36161  1.0000
  H   H2347     1.0  0.84892  0.88636  0.44722  1.0000
  C   C1961     1.0  0.82209  0.84244  0.44854  1.0000
  C   C1962     1.0  0.88344  0.78406  0.36519  1.0000
  H   H2348     1.0  0.96567  0.63285  0.26169  1.0000
  H   H2349     1.0  0.84929  0.93441  0.39479  1.0000
  H   H2350     1.0  0.90080  0.84819  0.40087  1.0000
  C   C1963     1.0  0.89350  0.79025  0.34661  1.0000
  H   H2351     1.0  0.80398  0.92152  0.46330  1.0000
  S   S534      1.0  0.97593  0.54398  0.37703  1.0000
  H   H2352     1.0  0.80521  0.80601  0.29827  1.0000
  C   C1964     1.0  0.79929  0.90243  0.32030  1.0000
  H   H2353     1.0  0.77953  0.89694  0.35672  1.0000
  H   H2354     1.0  0.79209  0.88874  0.32447  1.0000
  H   H2355     1.0  0.89269  0.78302  0.33452  1.0000
  C   C1965     1.0  0.75443  0.91198  0.33003  1.0000
  S   S535      1.0  0.93956  0.66766  0.24052  1.0000
  H   H2356     1.0  0.89382  0.85049  0.37750  1.0000
  H   H2357     1.0  0.91301  0.82847  0.35519  1.0000
  H   H2358     1.0  0.91166  0.81111  0.32882  1.0000
  C   C1966     1.0  0.78697  0.91047  0.35263  1.0000
  C   C1967     1.0  0.83216  0.83962  0.26866  1.0000
  C   C1968     1.0  0.90215  0.84009  0.38833  1.0000
  C   C1969     1.0  0.90640  0.80754  0.40802  1.0000
  Fe  Fe265     1.0  0.69055  0.96680  0.24417  1.0000
  H   H2359     1.0  0.82823  0.81298  0.30001  1.0000
  H   H2360     1.0  0.81421  0.90106  0.44992  1.0000
  C   C1970     1.0  0.78011  0.83401  0.27561  1.0000
  H   H2361     1.0  0.81526  0.84319  0.23505  1.0000
  H   H2362     1.0  0.90688  0.81487  0.42063  1.0000
  C   C1971     1.0  0.84195  0.92390  0.42556  1.0000
  C   C1972     1.0  0.88391  0.79382  0.38066  1.0000
  H   H2363     1.0  0.81503  0.89776  0.32279  1.0000
  C   C1973     1.0  0.85037  0.89350  0.45957  1.0000
  H   H2364     1.0  0.79419  0.94726  0.33546  1.0000
  N   N132      1.0  0.88897  0.69380  0.33061  1.0000
  C   C1974     1.0  0.86890  0.70644  0.33285  1.0000
  C   C1975     1.0  0.88973  0.68113  0.31565  1.0000
  C   C1976     1.0  0.89083  0.68054  0.34952  1.0000
  C   C1977     1.0  0.90567  0.70557  0.32464  1.0000
  C   C1978     1.0  0.92579  0.69576  0.32386  1.0000
  C   C1979     1.0  0.90267  0.72674  0.31872  1.0000
  C   C1980     1.0  0.94183  0.70640  0.31742  1.0000
  C   C1981     1.0  0.91884  0.73722  0.31218  1.0000
  C   C1982     1.0  0.93838  0.72706  0.31142  1.0000
  H   H2365     1.0  0.85671  0.69719  0.33786  1.0000
  H   H2366     1.0  0.86745  0.71673  0.34360  1.0000
  H   H2367     1.0  0.86578  0.71550  0.31869  1.0000
  H   H2368     1.0  0.88776  0.69051  0.30132  1.0000
  H   H2369     1.0  0.87785  0.67149  0.31967  1.0000
  H   H2370     1.0  0.90425  0.67095  0.31334  1.0000
  H   H2371     1.0  0.89226  0.68928  0.36074  1.0000
  H   H2372     1.0  0.87766  0.67268  0.35514  1.0000
  H   H2373     1.0  0.90400  0.66839  0.34834  1.0000
  H   H2374     1.0  0.92932  0.67966  0.32763  1.0000
  H   H2375     1.0  0.88799  0.73554  0.31859  1.0000
  H   H2376     1.0  0.95704  0.69850  0.31659  1.0000
  H   H2377     1.0  0.91619  0.75327  0.30723  1.0000
  H   H2378     1.0  0.95089  0.73514  0.30588  1.0000
  C   C1983     1.0  0.74351  0.95086  0.31114  1.0000
  H   H2379     1.0  0.82475  0.85393  0.27391  1.0000
  C   C1984     1.0  0.73010  0.93725  0.31516  1.0000
  H   H2380     1.0  0.94916  0.97283  0.39612  1.0000
  H   H2381     1.0  0.87481  0.77193  0.36758  1.0000
  C   C1985     1.0  0.76848  0.92545  0.32622  1.0000
  H   H2382     1.0  0.74846  0.84410  0.27659  1.0000
  H   H2383     1.0  0.97504  0.56655  0.46488  1.0000
  H   H2384     1.0  0.75810  0.89658  0.33683  1.0000
  C   C1986     1.0  0.80099  0.84313  0.24460  1.0000
  H   H2385     1.0  0.72518  0.90723  0.32747  1.0000
  H   H2386     1.0  0.71554  0.94162  0.31073  1.0000
  C   C1987     1.0  0.76315  0.84348  0.26757  1.0000
  S   S536      1.0  0.97821  0.92339  0.40485  1.0000
  H   H2387     1.0  0.85498  0.96766  0.39924  1.0000
  N   N133      1.0  0.78864  0.91857  0.33151  1.0000
  H   H2388     1.0  0.81758  0.86898  0.42718  1.0000
  H   H2389     1.0  0.77211  0.95641  0.31279  1.0000
  H   H2390     1.0  0.85023  0.97621  0.43224  1.0000
  H   H2391     1.0  0.84095  0.95215  0.46079  1.0000
  H   H2392     1.0  0.86601  0.89649  0.45708  1.0000
  Fe  Fe266     1.0  0.91097  0.68135  0.22911  1.0000
  C   C1988     1.0  0.98627  0.61902  0.28120  1.0000
  H   H2393     1.0  0.97103  0.96628  0.40660  1.0000
  H   H2394     1.0  0.97147  0.50831  0.41118  1.0000
  C   C1989     1.0  0.97698  0.49262  0.41750  1.0000
  N   N134      1.0  0.83571  0.91214  0.46175  1.0000
  C   C1990     1.0  0.96294  0.97852  0.39712  1.0000
  C   C1991     1.0  0.97212  0.50924  0.36624  1.0000
  H   H2395     1.0  0.78530  0.86030  0.22184  1.0000
  C   C1992     1.0  0.97727  0.49395  0.35478  1.0000
  S   S537      1.0  0.70420  0.94318  0.22533  1.0000
  C   C1993     1.0  0.97983  0.63313  0.26595  1.0000
  Fe  Fe267     1.0  0.67435  0.93239  0.23231  1.0000
  H   H2396     1.0  0.73924  0.96585  0.30352  1.0000
  C   C1994     1.0  0.98534  0.93047  0.43959  1.0000
  H   H2397     1.0  0.97076  0.60270  0.46618  1.0000
  H   H2398     1.0  0.97229  0.48282  0.40894  1.0000
  H   H2399     1.0  0.97015  0.48071  0.35913  1.0000
  Fe  Fe268     1.0  0.70001  0.93559  0.60001  1.0000
  S   S538      1.0  0.70030  0.94535  0.62850  1.0000
  S   S539      1.0  0.72851  0.93067  0.57837  1.0000
  C   C1995     1.0  0.89862  0.90443  0.50419  1.0000
  H   H2400     1.0  0.88917  0.89415  0.48114  1.0000
  C   C1996     1.0  0.93532  0.67454  0.69782  1.0000
  H   H2401     1.0  0.66583  0.87986  0.56384  1.0000
  H   H2402     1.0  0.97532  0.55244  0.52591  1.0000
  Fe  Fe269     1.0  0.67968  0.92278  0.64116  1.0000
  S   S540      1.0  0.68467  0.90095  0.66839  1.0000
  S   S541      1.0  0.67398  0.95907  0.59272  1.0000
  S   S542      1.0  0.68142  0.91156  0.61316  1.0000
  Fe  Fe270     1.0  0.83438  0.81117  0.53172  1.0000
  S   S543      1.0  0.82134  0.83064  0.55457  1.0000
  S   S544      1.0  0.85089  0.77957  0.53844  1.0000
  Fe  Fe271     1.0  0.82182  0.84333  0.49866  1.0000
  S   S545      1.0  0.80814  0.86579  0.51877  1.0000
  C   C1997     1.0  0.97018  0.59863  0.49726  1.0000
  Fe  Fe272     1.0  0.83502  0.85457  0.53300  1.0000
  C   C1998     1.0  0.73275  0.87965  0.52022  1.0000
  Fe  Fe273     1.0  0.79531  0.84034  0.53867  1.0000
  S   S546      1.0  0.76383  0.84435  0.55560  1.0000
  S   S547      1.0  0.85026  0.83453  0.51117  1.0000
  S   S548      1.0  0.80683  0.81843  0.51750  1.0000
  H   H2403     1.0  0.90486  0.91226  0.53010  1.0000
  H   H2404     1.0  0.74458  0.90577  0.52207  1.0000
  Fe  Fe274     1.0  0.93555  0.68336  0.60995  1.0000
  S   S549      1.0  0.95001  0.71041  0.60847  1.0000
  S   S550      1.0  0.94589  0.65973  0.59047  1.0000
  Fe  Fe275     1.0  0.90494  0.69216  0.64582  1.0000
  S   S551      1.0  0.91733  0.71954  0.64742  1.0000
  S   S552      1.0  0.87608  0.68650  0.66602  1.0000
  Fe  Fe276     1.0  0.91841  0.72649  0.61498  1.0000
  S   S553      1.0  0.90655  0.75865  0.60311  1.0000
  Fe  Fe277     1.0  0.94770  0.70107  0.64082  1.0000
  S   S554      1.0  0.97211  0.69898  0.65867  1.0000
  S   S555      1.0  0.90420  0.70016  0.61374  1.0000
  S   S556      1.0  0.93512  0.67295  0.64198  1.0000
  H   H2405     1.0  0.88804  0.84688  0.55496  1.0000
  H   H2406     1.0  0.82658  0.74039  0.65220  1.0000
  H   H2407     1.0  0.68151  0.88811  0.57708  1.0000
  H   H2408     1.0  0.75626  0.90362  0.64927  1.0000
  C   C1999     1.0  0.82741  0.76438  0.61614  1.0000
  H   H2409     1.0  0.88927  0.81017  0.52203  1.0000
  H   H2410     1.0  0.84390  0.53143  0.69202  1.0000
  C   C2000     1.0  0.87633  0.66721  0.68634  1.0000
  C   C2001     1.0  0.89385  0.65393  0.68936  1.0000
  Fe  Fe278     1.0  0.67248  0.96666  0.62246  1.0000
  C   C2002     1.0  0.90440  0.69682  0.70599  1.0000
  S   S557      1.0  0.91799  0.91599  0.48928  1.0000
  H   H2411     1.0  0.90721  0.65453  0.67848  1.0000
  H   H2412     1.0  0.68165  0.93858  0.54503  1.0000
  H   H2413     1.0  0.82234  0.75256  0.56622  1.0000
  H   H2414     1.0  0.81592  0.72272  0.64330  1.0000
  C   C2003     1.0  0.81657  0.77492  0.58485  1.0000
  C   C2004     1.0  0.86232  0.73557  0.62979  1.0000
  N   N135      1.0  0.84415  0.72914  0.62649  1.0000
  H   H2415     1.0  0.83724  0.70306  0.61793  1.0000
  H   H2416     1.0  0.74168  0.91707  0.63085  1.0000
  H   H2417     1.0  0.85743  0.69783  0.63136  1.0000
  C   C2005     1.0  0.86530  0.77345  0.55731  1.0000
  C   C2006     1.0  0.86531  0.78721  0.56952  1.0000
  C   C2007     1.0  0.87771  0.78231  0.58378  1.0000
  C   C2008     1.0  0.89013  0.76362  0.58600  1.0000
  C   C2009     1.0  0.88960  0.74956  0.57428  1.0000
  C   C2010     1.0  0.87725  0.75451  0.55994  1.0000
  H   H2418     1.0  0.85589  0.80168  0.56785  1.0000
  H   H2419     1.0  0.87782  0.79311  0.59304  1.0000
  H   H2420     1.0  0.89910  0.73510  0.57587  1.0000
  H   H2421     1.0  0.87722  0.74374  0.55062  1.0000
  H   H2422     1.0  0.85169  0.92154  0.48078  1.0000
  C   C2011     1.0  0.73816  0.90648  0.57244  1.0000
  C   C2012     1.0  0.75769  0.90280  0.56223  1.0000
  C   C2013     1.0  0.76571  0.88379  0.55709  1.0000
  C   C2014     1.0  0.75421  0.86832  0.56203  1.0000
  C   C2015     1.0  0.73466  0.87197  0.57230  1.0000
  C   C2016     1.0  0.72666  0.89100  0.57746  1.0000
  H   H2423     1.0  0.76674  0.91465  0.55839  1.0000
  H   H2424     1.0  0.78089  0.88109  0.54955  1.0000
  H   H2425     1.0  0.72566  0.86010  0.57609  1.0000
  H   H2426     1.0  0.71158  0.89368  0.58515  1.0000
  H   H2427     1.0  0.82891  0.76859  0.62964  1.0000
  H   H2428     1.0  0.74703  0.87204  0.51362  1.0000
  C   C2017     1.0  0.66539  0.88643  0.67723  1.0000
  H   H2429     1.0  0.86157  0.70961  0.60660  1.0000
  H   H2430     1.0  0.65612  0.90014  0.57684  1.0000
  C   C2018     1.0  0.85893  0.66594  0.70034  1.0000
  C   C2019     1.0  0.97501  0.55770  0.49568  1.0000
  H   H2431     1.0  0.87311  0.83478  0.54423  1.0000
  H   H2432     1.0  0.66606  0.92335  0.52419  1.0000
  H   H2433     1.0  0.73256  0.87052  0.66260  1.0000
  C   C2020     1.0  0.83667  0.91787  0.48070  1.0000
  H   H2434     1.0  0.87001  0.72442  0.64056  1.0000
  H   H2435     1.0  0.86210  0.87761  0.50342  1.0000
  C   C2021     1.0  0.96828  0.66264  0.57434  1.0000
  N   N136      1.0  0.97056  0.59232  0.53335  1.0000
  S   S558      1.0  0.84945  0.87454  0.54542  1.0000
  H   H2436     1.0  0.67845  0.87065  0.70212  1.0000
  H   H2437     1.0  0.72954  0.90559  0.65362  1.0000
  H   H2438     1.0  0.66369  0.93245  0.56602  1.0000
  H   H2439     1.0  0.71352  0.92252  0.53833  1.0000
  H   H2440     1.0  0.91584  0.80183  0.51965  1.0000
  C   C2022     1.0  0.88019  0.89576  0.53665  1.0000
  C   C2023     1.0  0.89551  0.90478  0.52421  1.0000
  H   H2441     1.0  0.87779  0.89628  0.55211  1.0000
  C   C2024     1.0  0.72693  0.88600  0.62565  1.0000
  C   C2025     1.0  0.76309  0.88138  0.61902  1.0000
  C   C2026     1.0  0.77648  0.89553  0.61203  1.0000
  C   C2027     1.0  0.76746  0.86356  0.61052  1.0000
  C   C2028     1.0  0.79326  0.89180  0.59767  1.0000
  C   C2029     1.0  0.78429  0.85999  0.59623  1.0000
  C   C2030     1.0  0.79719  0.87407  0.58983  1.0000
  H   H2442     1.0  0.72688  0.87248  0.61921  1.0000
  H   H2443     1.0  0.71312  0.88762  0.63678  1.0000
  H   H2444     1.0  0.72559  0.89922  0.61397  1.0000
  C   C2031     1.0  0.93586  0.70802  0.70239  1.0000
  H   H2445     1.0  0.75763  0.85243  0.61449  1.0000
  H   H2446     1.0  0.80314  0.90288  0.59230  1.0000
  H   H2447     1.0  0.78694  0.84657  0.58951  1.0000
  H   H2448     1.0  0.80999  0.87146  0.57840  1.0000
  H   H2449     1.0  0.81358  0.79443  0.60589  1.0000
  C   C2032     1.0  0.66136  0.91275  0.53755  1.0000
  H   H2450     1.0  0.91382  0.79657  0.56678  1.0000
  H   H2451     1.0  0.77421  0.90973  0.61717  1.0000
  C   C2033     1.0  0.71325  0.90811  0.53449  1.0000
  H   H2452     1.0  0.87320  0.73739  0.61602  1.0000
  H   H2453     1.0  0.83762  0.72622  0.58901  1.0000
  H   H2454     1.0  0.83404  0.90543  0.49304  1.0000
  H   H2455     1.0  0.94284  0.78988  0.58274  1.0000
  H   H2456     1.0  0.74441  0.85348  0.64625  1.0000
  H   H2457     1.0  0.81018  0.78657  0.57420  1.0000
  H   H2458     1.0  0.91906  0.83842  0.50755  1.0000
  C   C2034     1.0  0.94168  0.80226  0.57076  1.0000
  C   C2035     1.0  0.97133  0.58490  0.51485  1.0000
  C   C2036     1.0  0.73134  0.89866  0.52501  1.0000
  N   N137      1.0  0.90496  0.82611  0.53620  1.0000
  C   C2037     1.0  0.67810  0.92640  0.55732  1.0000
  H   H2459     1.0  0.96544  0.69435  0.57426  1.0000
  C   C2038     1.0  0.82337  0.75564  0.58042  1.0000
  C   C2039     1.0  0.66984  0.89332  0.56769  1.0000
  C   C2040     1.0  0.86808  0.88606  0.52918  1.0000
  C   C2041     1.0  0.71592  0.87024  0.52435  1.0000
  C   C2042     1.0  0.66587  0.87274  0.69458  1.0000
  H   H2460     1.0  0.89560  0.68429  0.70972  1.0000
  H   H2461     1.0  0.71717  0.85540  0.52064  1.0000
  C   C2043     1.0  0.87130  0.88535  0.50916  1.0000
  C   C2044     1.0  0.92290  0.82219  0.54565  1.0000
  C   C2045     1.0  0.93830  0.83428  0.54012  1.0000
  H   H2462     1.0  0.96943  0.81121  0.57221  1.0000
  C   C2046     1.0  0.95488  0.83024  0.54962  1.0000
  H   H2463     1.0  0.95843  0.56770  0.55280  1.0000
  C   C2047     1.0  0.95659  0.81425  0.56486  1.0000
  H   H2464     1.0  0.85913  0.75011  0.63533  1.0000
  H   H2465     1.0  0.84528  0.67610  0.69806  1.0000
  H   H2466     1.0  0.90377  0.70283  0.69035  1.0000
  H   H2467     1.0  0.93785  0.84704  0.52859  1.0000
  H   H2468     1.0  0.88524  0.82126  0.56385  1.0000
  C   C2048     1.0  0.69770  0.87963  0.53364  1.0000
  C   C2049     1.0  0.97485  0.68124  0.56936  1.0000
  C   C2050     1.0  0.90233  0.80759  0.52971  1.0000
  C   C2051     1.0  0.88711  0.83247  0.55042  1.0000
  H   H2469     1.0  0.83679  0.71444  0.65612  1.0000
  N   N138      1.0  0.92529  0.69043  0.70959  1.0000
  H   H2470     1.0  0.90627  0.85695  0.52278  1.0000
  C   C2052     1.0  0.81859  0.77930  0.60268  1.0000
  H   H2471     1.0  0.75948  0.86573  0.65679  1.0000
  C   C2053     1.0  0.74322  0.90358  0.64229  1.0000
  H   H2472     1.0  0.84939  0.49631  0.68747  1.0000
  Fe  Fe279     1.0  0.65537  0.93576  0.60846  1.0000
  C   C2054     1.0  0.69593  0.89863  0.53951  1.0000
  H   H2473     1.0  0.95110  0.62045  0.52639  1.0000
  C   C2055     1.0  0.83229  0.74062  0.59372  1.0000
  C   C2056     1.0  0.85029  0.70909  0.62022  1.0000
  C   C2057     1.0  0.83454  0.74455  0.61210  1.0000
  C   C2058     1.0  0.74549  0.86787  0.65062  1.0000
  H   H2474     1.0  0.93519  0.71381  0.68670  1.0000
  C   C2059     1.0  0.92506  0.80617  0.56139  1.0000
  C   C2060     1.0  0.83436  0.52127  0.70114  1.0000
  C   C2061     1.0  0.95187  0.60670  0.53751  1.0000
  H   H2475     1.0  0.82501  0.93084  0.48420  1.0000
  H   H2476     1.0  0.89943  0.79530  0.54200  1.0000
  C   C2062     1.0  0.97381  0.56414  0.51351  1.0000
  H   H2477     1.0  0.68508  0.87171  0.53646  1.0000
  C   C2063     1.0  0.83021  0.72663  0.64530  1.0000
  N   N139      1.0  0.74512  0.88477  0.63413  1.0000
  C   C2064     1.0  0.90584  0.84210  0.51885  1.0000
  N   N140      1.0  0.67674  0.90772  0.55033  1.0000
  H   H2478     1.0  0.96643  0.83968  0.54518  1.0000
  H   H2479     1.0  0.89234  0.84433  0.51186  1.0000
  C   C2065     1.0  0.83751  0.50108  0.69885  1.0000
  H   H2480     1.0  0.95211  0.70402  0.70322  1.0000
  C   C2066     1.0  0.88654  0.89468  0.49659  1.0000
  H   H2481     1.0  0.95052  0.61198  0.55172  1.0000
  H   H2482     1.0  0.90797  0.63036  0.70932  1.0000
  H   H2483     1.0  0.93543  0.67989  0.68198  1.0000
  H   H2484     1.0  0.95119  0.66963  0.69984  1.0000
  H   H2485     1.0  0.89629  0.70861  0.71477  1.0000
  H   H2486     1.0  0.92789  0.66103  0.70172  1.0000
  C   C2067     1.0  0.89422  0.64021  0.70677  1.0000
  C   C2068     1.0  0.97117  0.57613  0.55050  1.0000
  H   H2487     1.0  0.93847  0.59968  0.53806  1.0000
  C   C2069     1.0  0.85923  0.65202  0.71765  1.0000
  C   C2070     1.0  0.98017  0.64587  0.56710  1.0000
  H   H2488     1.0  0.92913  0.72067  0.71055  1.0000
  H   H2489     1.0  0.96879  0.61460  0.49700  1.0000
  H   H2490     1.0  0.97511  0.63146  0.57099  1.0000
  H   H2491     1.0  0.97044  0.58216  0.56419  1.0000
  H   H2492     1.0  0.65842  0.89924  0.53279  1.0000
  H   H2493     1.0  0.68964  0.92370  0.56687  1.0000
  H   H2494     1.0  0.81107  0.89661  0.47582  1.0000
  C   C2071     1.0  0.82585  0.48728  0.71125  1.0000
  H   H2495     1.0  0.97730  0.54176  0.49496  1.0000
  H   H2496     1.0  0.98539  0.56536  0.54892  1.0000
  H   H2497     1.0  0.98716  0.71300  0.61812  1.0000
  C   C2072     1.0  0.97123  0.59202  0.47954  1.0000
  C   C2073     1.0  0.97375  0.57159  0.47874  1.0000
  C   C2074     1.0  0.81926  0.52840  0.71552  1.0000
  H   H2498     1.0  0.81732  0.54389  0.71776  1.0000
  H   H2499     1.0  0.84839  0.88175  0.47264  1.0000
  H   H2500     1.0  0.98743  0.61651  0.52045  1.0000
  C   C2075     1.0  0.87703  0.63943  0.72111  1.0000
  H   H2501     1.0  0.79606  0.50186  0.79003  1.0000
  C   C2076     1.0  0.67176  0.79939  0.83064  1.0000
  C   C2077     1.0  0.96928  0.49369  0.94845  1.0000
  S   S559      1.0  0.92891  0.53467  0.84993  1.0000
  C   C2078     1.0  0.80704  0.51545  0.72744  1.0000
  H   H2502     1.0  0.90022  0.52994  0.78295  1.0000
  Fe  Fe280     1.0  0.69814  0.67897  0.89484  1.0000
  H   H2503     1.0  0.92470  0.65987  0.78574  1.0000
  S   S560      1.0  0.69379  0.65355  0.91942  1.0000
  Fe  Fe281     1.0  0.72579  0.69497  0.85901  1.0000
  S   S561      1.0  0.70744  0.72581  0.85721  1.0000
  S   S562      1.0  0.75439  0.69006  0.83725  1.0000
  Fe  Fe282     1.0  0.70502  0.72159  0.88979  1.0000
  S   S563      1.0  0.70693  0.74794  0.90360  1.0000
  Fe  Fe283     1.0  0.68105  0.70977  0.86329  1.0000
  C   C2079     1.0  0.95042  0.56393  0.88199  1.0000
  S   S564      1.0  0.72604  0.69243  0.89106  1.0000
  S   S565      1.0  0.69948  0.67901  0.86292  1.0000
  Fe  Fe284     1.0  0.83747  0.57012  0.76494  1.0000
  S   S566      1.0  0.86315  0.57771  0.77559  1.0000
  S   S567      1.0  0.84523  0.54256  0.74997  1.0000
  Fe  Fe285     1.0  0.80947  0.60731  0.77799  1.0000
  S   S568      1.0  0.83335  0.61787  0.78892  1.0000
  S   S569      1.0  0.77688  0.62152  0.78410  1.0000
  Fe  Fe286     1.0  0.85334  0.60929  0.76147  1.0000
  Fe  Fe287     1.0  0.84094  0.58556  0.80164  1.0000
  S   S570      1.0  0.84310  0.57592  0.83335  1.0000
  H   H2504     1.0  0.88804  0.54302  0.80267  1.0000
  S   S571      1.0  0.81599  0.57523  0.79231  1.0000
  H   H2505     1.0  0.79785  0.63063  0.85710  1.0000
  H   H2506     1.0  0.81037  0.53348  0.77885  1.0000
  C   C2080     1.0  0.76019  0.67081  0.82273  1.0000
  C   C2081     1.0  0.77845  0.66916  0.80980  1.0000
  C   C2082     1.0  0.78382  0.65392  0.79813  1.0000
  C   C2083     1.0  0.77079  0.64039  0.79908  1.0000
  C   C2084     1.0  0.75238  0.64219  0.81181  1.0000
  C   C2085     1.0  0.74717  0.65721  0.82377  1.0000
  H   H2507     1.0  0.78857  0.67967  0.80887  1.0000
  H   H2508     1.0  0.79790  0.65287  0.78817  1.0000
  H   H2509     1.0  0.74216  0.63186  0.81248  1.0000
  H   H2510     1.0  0.73313  0.65823  0.83376  1.0000
  C   C2086     1.0  0.89122  0.49417  0.79806  1.0000
  H   H2511     1.0  0.73124  0.69496  0.95066  1.0000
  C   C2087     1.0  0.70305  0.76660  0.93480  1.0000
  C   C2088     1.0  0.70265  0.74841  0.92894  1.0000
  C   C2089     1.0  0.69890  0.73170  0.94320  1.0000
  H   H2512     1.0  0.90640  0.64607  0.76591  1.0000
  H   H2513     1.0  0.66964  0.67005  0.95625  1.0000
  H   H2514     1.0  0.70599  0.77953  0.92396  1.0000
  H   H2515     1.0  0.69836  0.71762  0.93878  1.0000
  H   H2516     1.0  0.94334  0.56166  0.86989  1.0000
  H   H2517     1.0  0.71729  0.69415  0.82109  1.0000
  H   H2518     1.0  0.94057  0.53654  0.93594  1.0000
  C   C2090     1.0  0.91486  0.66630  0.73970  1.0000
  C   C2091     1.0  0.79394  0.59226  0.86894  1.0000
  H   H2519     1.0  0.84594  0.65159  0.72867  1.0000
  C   C2092     1.0  0.92531  0.68242  0.73051  1.0000
  H   H2520     1.0  0.85116  0.51167  0.80387  1.0000
  C   C2093     1.0  0.79626  0.62247  0.84555  1.0000
  H   H2521     1.0  0.68209  0.74621  0.82891  1.0000
  H   H2522     1.0  0.67630  0.72326  0.79394  1.0000
  C   C2094     1.0  0.98732  0.49991  0.94883  1.0000
  H   H2523     1.0  0.69968  0.78268  0.95872  1.0000
  H   H2524     1.0  0.90676  0.65955  0.73179  1.0000
  H   H2525     1.0  0.67301  0.69323  0.81727  1.0000
  C   C2095     1.0  0.84558  0.50224  0.75320  1.0000
  S   S572      1.0  0.89969  0.49161  0.88226  1.0000
  H   H2526     1.0  0.76535  0.66218  0.75375  1.0000
  C   C2096     1.0  0.90523  0.54761  0.84604  1.0000
  C   C2097     1.0  0.90326  0.56157  0.82909  1.0000
  C   C2098     1.0  0.88418  0.57077  0.82522  1.0000
  C   C2099     1.0  0.86715  0.56618  0.83845  1.0000
  C   C2100     1.0  0.86921  0.55308  0.85586  1.0000
  C   C2101     1.0  0.88821  0.54370  0.85958  1.0000
  H   H2527     1.0  0.91644  0.56481  0.81868  1.0000
  H   H2528     1.0  0.88265  0.58117  0.81189  1.0000
  H   H2529     1.0  0.85606  0.54974  0.86627  1.0000
  H   H2530     1.0  0.88965  0.53358  0.87303  1.0000
  C   C2102     1.0  0.90464  0.52806  0.96186  1.0000
  C   C2103     1.0  0.89911  0.52878  0.94375  1.0000
  C   C2104     1.0  0.90181  0.51123  0.93550  1.0000
  H   H2531     1.0  0.73690  0.64238  0.89532  1.0000
  H   H2532     1.0  0.94357  0.68771  0.77065  1.0000
  H   H2533     1.0  0.93000  0.53372  0.88894  1.0000
  H   H2534     1.0  0.89276  0.54297  0.93607  1.0000
  H   H2535     1.0  0.89744  0.51184  0.92154  1.0000
  C   C2105     1.0  0.89540  0.52806  0.79905  1.0000
  H   H2536     1.0  0.79467  0.60024  0.88095  1.0000
  H   H2537     1.0  0.96394  0.52712  0.87222  1.0000
  C   C2106     1.0  0.81815  0.51977  0.77369  1.0000
  S   S573      1.0  0.87907  0.62470  0.74409  1.0000
  N   N141      1.0  0.88173  0.51298  0.80567  1.0000
  C   C2107     1.0  0.90962  0.49284  0.94560  1.0000
  C   C2108     1.0  0.86241  0.52200  0.79909  1.0000
  H   H2538     1.0  0.66996  0.65574  0.88951  1.0000
  H   H2539     1.0  0.70715  0.66001  0.78702  1.0000
  H   H2540     1.0  0.90902  0.52402  0.80599  1.0000
  C   C2109     1.0  0.72732  0.61654  0.86289  1.0000
  C   C2110     1.0  0.66640  0.62870  0.93513  1.0000
  H   H2541     1.0  0.69254  0.67202  0.81697  1.0000
  H   H2542     1.0  0.93814  0.52149  0.91109  1.0000
  H   H2543     1.0  0.85563  0.53608  0.80514  1.0000
  C   C2111     1.0  0.91484  0.49206  0.96384  1.0000
  C   C2112     1.0  0.96967  0.53064  0.88463  1.0000
  C   C2113     1.0  0.93550  0.68180  0.76194  1.0000
  H   H2544     1.0  0.73674  0.64439  0.76729  1.0000
  H   H2545     1.0  0.67415  0.80621  0.81552  1.0000
  H   H2546     1.0  0.86820  0.49721  0.83276  1.0000
  C   C2114     1.0  0.74691  0.60930  0.85467  1.0000
  C   C2115     1.0  0.69016  0.71582  0.78547  1.0000
  C   C2116     1.0  0.76365  0.61376  0.86098  1.0000
  H   H2547     1.0  0.69447  0.71156  0.82420  1.0000
  H   H2548     1.0  0.67858  0.68028  0.79692  1.0000
  S   S574      1.0  0.94576  0.48841  0.88842  1.0000
  C   C2117     1.0  0.96164  0.54757  0.94706  1.0000
  H   H2549     1.0  0.78543  0.57968  0.87531  1.0000
  H   H2550     1.0  0.80961  0.58559  0.86348  1.0000
  C   C2118     1.0  0.69556  0.75198  0.96890  1.0000
  C   C2119     1.0  0.66927  0.74946  0.82164  1.0000
  H   H2551     1.0  0.97359  0.51621  0.89426  1.0000
  C   C2120     1.0  0.66899  0.76396  0.80481  1.0000
  H   H2552     1.0  0.75983  0.70391  0.95600  1.0000
  C   C2121     1.0  0.68560  0.68533  0.80757  1.0000
  H   H2553     1.0  0.67342  0.62570  0.94795  1.0000
  H   H2554     1.0  0.76016  0.72275  0.97014  1.0000
  H   H2555     1.0  0.91726  0.48955  0.81234  1.0000
  C   C2122     1.0  0.71793  0.68849  0.78540  1.0000
  H   H2556     1.0  0.87010  0.52279  0.83350  1.0000
  H   H2557     1.0  0.96413  0.57036  0.87488  1.0000
  C   C2123     1.0  0.75203  0.66972  0.76202  1.0000
  C   C2124     1.0  0.73452  0.69847  0.77690  1.0000
  N   N142      1.0  0.95474  0.54490  0.89546  1.0000
  C   C2125     1.0  0.71896  0.66883  0.78124  1.0000
  C   C2126     1.0  0.90992  0.48399  0.80284  1.0000
  H   H2558     1.0  0.86446  0.52614  0.78295  1.0000
  H   H2559     1.0  0.94439  0.70191  0.73652  1.0000
  H   H2560     1.0  0.73792  0.72259  0.96112  1.0000
  C   C2127     1.0  0.70725  0.70616  0.81322  1.0000
  C   C2128     1.0  0.68701  0.77898  0.85728  1.0000
  H   H2561     1.0  0.77915  0.58055  0.84188  1.0000
  N   N143      1.0  0.70048  0.69862  0.79773  1.0000
  H   H2562     1.0  0.95634  0.49709  0.95946  1.0000
  C   C2129     1.0  0.75947  0.62596  0.87585  1.0000
  C   C2130     1.0  0.91463  0.65836  0.75936  1.0000
  C   C2131     1.0  0.69546  0.73346  0.96325  1.0000
  C   C2132     1.0  0.66455  0.64553  0.90217  1.0000
  H   H2563     1.0  0.71551  0.71899  0.80753  1.0000
  C   C2133     1.0  0.73582  0.65969  0.76971  1.0000
  C   C2134     1.0  0.93589  0.53631  0.90158  1.0000
  H   H2564     1.0  0.68571  0.71089  0.77309  1.0000
  N   N144      1.0  0.78460  0.60578  0.85315  1.0000
  C   C2135     1.0  0.66834  0.77976  0.86917  1.0000
  C   C2136     1.0  0.72379  0.62831  0.87756  1.0000
  S   S575      1.0  0.82875  0.60135  0.74925  1.0000
  H   H2565     1.0  0.80058  0.48595  0.73571  1.0000
  C   C2137     1.0  0.92491  0.66611  0.77049  1.0000
  H   H2566     1.0  0.85916  0.50242  0.74254  1.0000
  C   C2138     1.0  0.81018  0.49518  0.72543  1.0000
  C   C2139     1.0  0.78639  0.59419  0.83702  1.0000
  H   H2567     1.0  0.77986  0.60355  0.82451  1.0000
  C   C2140     1.0  0.73982  0.63310  0.88395  1.0000
  H   H2568     1.0  0.78895  0.63362  0.83458  1.0000
  H   H2569     1.0  0.89172  0.50396  0.83363  1.0000
  C   C2141     1.0  0.69948  0.76837  0.95455  1.0000
  H   H2570     1.0  0.71475  0.61303  0.85786  1.0000
  H   H2571     1.0  0.71082  0.67146  0.94689  1.0000
  H   H2572     1.0  0.79560  0.52099  0.73890  1.0000
  C   C2142     1.0  0.96280  0.54871  0.91203  1.0000
  C   C2143     1.0  0.72592  0.68508  0.96363  1.0000
  S   S576      1.0  0.67711  0.70801  0.89573  1.0000
  C   C2144     1.0  0.83791  0.48420  0.76006  1.0000
  H   H2573     1.0  0.77137  0.63002  0.88138  1.0000
  C   C2145     1.0  0.67369  0.64171  0.91871  1.0000
  H   H2574     1.0  0.92385  0.54660  0.90937  1.0000
  H   H2575     1.0  0.70860  0.63376  0.88400  1.0000
  H   H2576     1.0  0.95448  0.54336  0.96195  1.0000
  H   H2577     1.0  0.70017  0.77069  0.86302  1.0000
  H   H2578     1.0  0.68173  0.77161  0.79909  1.0000
  H   H2579     1.0  0.74851  0.60040  0.84327  1.0000
  H   H2580     1.0  0.81174  0.61705  0.83838  1.0000
  H   H2581     1.0  0.93997  0.57541  0.88980  1.0000
  C   C2146     1.0  0.81008  0.50185  0.78000  1.0000
  C   C2147     1.0  0.75137  0.68909  0.76555  1.0000
  Fe  Fe288     1.0  0.92733  0.50313  0.86548  1.0000
  C   C2148     1.0  0.87780  0.50908  0.82728  1.0000
  C   C2149     1.0  0.83570  0.52009  0.75993  1.0000
  H   H2582     1.0  0.98073  0.49091  0.85583  1.0000
  C   C2150     1.0  0.93580  0.68989  0.74223  1.0000
  C   C2151     1.0  0.81984  0.48407  0.77306  1.0000
  H   H2583     1.0  0.80228  0.58884  0.83116  1.0000
  H   H2584     1.0  0.69972  0.72757  0.77922  1.0000
  C   C2152     1.0  0.95379  0.54359  0.93178  1.0000
  H   H2585     1.0  0.76416  0.69671  0.75979  1.0000
  H   H2586     1.0  0.73472  0.71351  0.77922  1.0000
  C   C2153     1.0  0.97846  0.55694  0.94328  1.0000
  C   C2154     1.0  0.96786  0.48295  0.93409  1.0000
  H   H2587     1.0  0.70325  0.78769  0.82878  1.0000
  C   C2155     1.0  0.98027  0.55775  0.90869  1.0000
  C   C2156     1.0  0.71404  0.67166  0.96123  1.0000
  H   H2588     1.0  0.86827  0.49202  0.78153  1.0000
  H   H2589     1.0  0.66719  0.77192  0.88406  1.0000
  C   C2157     1.0  0.68870  0.78866  0.83805  1.0000
  C   C2158     1.0  0.65566  0.66844  0.96699  1.0000
  H   H2590     1.0  0.98419  0.56024  0.95530  1.0000
  C   C2159     1.0  0.88257  0.48558  0.78567  1.0000
  H   H2591     1.0  0.98381  0.53661  0.87825  1.0000
  C   C2160     1.0  0.75063  0.71261  0.96731  1.0000
  H   H2592     1.0  0.98738  0.50801  0.96048  1.0000
