data_image0
_chemical_formula_structural       FeS2HCNCH2FeS2FeS2FeSFeS3CSC9H4C2HCH3C2HCHCHCH2C6H6CHCH3FeNHC3HC2H4CH4CHCH2C3SHCHCNCH3CH2C3HC2H4CH10CH2C2HCSFeH3C8H4NHCHCHCHCHC2HCH2FeS2FeS2FeSFeS4HFeSCFeS2FeS2FeSFeS3FeS2FeS2FeSFeHS2FeS2H2FeS2FeSHFeS2C3HC2HC4H4C6H4C6H5C6H4C6H4CHC6H4C6H4CSC3H3C3H2SCH3C2HFeHNFeH2C3HNC2H2CHNC9H16C2HCHC2H3CH2SHC2HNCH2NC9H14NC8H9SHCH3CHNC6HCH7CH2CHCFeH2CH2CHCHSHCHC4HCH2C2H2CHC2HCHCHCNCSH7SH2CH2NHCH3CH2CHS2C2HFeSCFeS2FeS2FeSFeS3FeS2HSH4CHC6H4CHC2H2C3H2C6H4CH3CFeHNCH2CH5CH2CH5CHCH2CNHCHC2HCSHC2HC2H9C2H3CH2SC2HCHC2H4C2HCHNH2C2H5C4HCHC2H2NC5H2CH2NHC2FeH2CHC2H3SCHCHC3H5CHFeSCSFeS2FeS2FeSFeS3H2SC6H4CHC2H3C6H5CH3CHC2HCHCNHCH2CH2SH5C3H2FeCH2NC5H10CFeH2SH2C2HC2HCH3C2HCHC2HC5SNCH2CNC2HCH2CH3C2H2FeS2FeS2FeSFeS3HSCHSFeSFeSHCHS2H2FeSHFeS2FeS2FeSFeS3FeS2FeS2FeCFeS3FeS2H2SFeS2FeSFeS3C3H3FeHC6H4C6FeHCHC6H6C6H4C6H4C4HCH2CH2NHCHCH4C6H4C6H4C5H4NC7HCH3CH8FeH3C2H2CH4CH4CHC8H6NC7HCH2CH4C3H4NCSHC2H3NH4CHC2SCHCH2C2HC2HC2H2C2HC2H4CHCHC2H6C3H4C4HSCH2CHNH3CHNHSC2H4CHCH2CH2C2H4CHSH6CH2CH4CHC2HSCH2C2NH4C4H2C2H7FeHC3NFeCH2SHCHC4HCHFeSCSCFeS2FeS2FeSFeS3FeHSH2CH3C6H4C2SH2C3H2C6H4C3H2SCHNHCFeCH2SCH2CSC2HCNH2NC9H17SCHCHNCH4CHCHCHCSH3SH2C2H2FeC2FeCH4CHC2NCHC2HFeCSCNHCHS2FeHSFeH4S2FeS2FeS2FeSFeS3FeS2FeS2FeSFeS3CSCSH2FeSHC6H4C2FeH2C6H5C2H5C6H8CHC6H4C2H3C2H6FeH3CH2C2HCHS2NC2H2CHCH3CH2NCHC3HC2HC2H2SHCH4CNC2H4C3H2CHCHC3NH2C2HCHSCHNSC2HCHCH5CHC2H4C2HCH4C2HC2NH2CH5FeH2C2HC2H4CSHSFeSHNSC2SC2H3C4HCH3C3NH5C6HCH3CHCH2FeC3HFeCHC2H2C2H5CHCHNFeCHCHCHC2HCHCHSC3H2S2CH3CHCHCHCHSHCH2C2H5C5H4CSCFeHSFeSCHS2HSFeS2FeS2FeSFeS3FeS2FeS2FeSFeS3FeS2FeSHFeSFeS3H3C7H6C2HC2HC7H4CH4SCH2C6H5C7H4SC2H2CNC9H11CNHCHC2HC2HCH3C2HC2HC3HC2HCFeC5H2CHCHFeH2CSH2CNH2CH2C2H3CH2C3HC2HCNC2N2CH5CSHCH3C2H4CHC2SH3CHCH7CH2C2H2CH2C2HCH3C2H4SC2SCHFeSCFeS2FeS2FeSFeS3FeS2FeS2FeSFeS5HCFeSH2CH3C6H4C3FeHC6H4C2H2CHCHC6H4NC3H3C6H5CH2CHC2H4C3H2CH2CHCHC2HNC8H11C2SCH2CHCHCHSH2CHCHC2H2C2H6CHCH2CHNHSCNHC2H2CHCH3NC4H4CH9SCHSH2CH2NC3H2C3H2FeCHCH2CH6CHC2H2CHCH2NHFeH2C3FeC2H2C2HS3HFeSH3S2CH2C9HC2H3SCH2C6H2CH3C6HCNCHNFeCNCFeSCH3C2H6SH2CH4C2H5CHCHSC2SHCSHC3HCH4C2H2FeH8CNHCH2CHCFeC2HCHC2H2SHC2H3C2FeCSH3CH2SCSH2FeS2FeS2FeSFeS3FeS2FeS2FeSFeS3CSHFeSHFeSFeSHSC5H2C6H4C8H8CFeH4C6H5CH2CH2C6H5NC9H13FeNC9H12SHNC9H14CH8CHCH2CH3NHC2HFeH3CFeHC4H4C2H2SCHCHCH4NC2SC3H3NHCNCHCHSC5NCH3C3H3C5HCH2SCH2C6H2C2FeCSC2SFeHFeS2CHS2FeS2FeS2FeSFeS3CSHSHFeSFeSHFeS2FeS2FeSFeCS2C3H2CHCHFeH2C6H4C6H4C3H2C6H6C2SC2FeC8H7CHC6H5CHC2HC2H2CNC9H17NH7CNHCHCNC5HC2H12SHCNC6H2CH6CHCH2CSCHNCFeC7H2SH2CH2CSNHCH5CHNCH2C2H2NCH2CH2CH4CH4C2H4CH4FeCHCH2CHC3HC2H2C3H2SC2SFeCSCHSHFeSFeHSH2S4CHCH2CFeHFeHC3NHCH2CHC6H4SHCH4CHCH3C2HC4H2CSC4SHCNH2FeH2NC9H11CHCHSH2NCSCH2SFeHSHC2H2C3HCH2CFeHC2HCSHFeSH2SFeS2FeS2FeSFeS3FeSHFeSFe2SFeSHSFeS2FeS2FeSFeHS2H6SHCHCH2C6H4C6H4C3H4NC6H4C6H5CHCHCH3C2HC2H2CHCHCH6CH3CH2C3HCNH2CH3NHC6HCH2CH3CH4C2HNC5H13CNC9H12SCNC9H8FeSHCH2SHCH2C4SCSCH2CH2SH2CH3C2H2CH2NHC2HCHSHFeSHSCFeSHSCSCFeCFeSHFeS2FeS2FeSFeS3FeS2FeS2FeSFeHS2CHC5H4SHC7H4C3HCH2C6H5C2H3C6H5C2HC8H8CHCHCH3C5H2NCHNC2H7CH2C2H2CHCH2C2HC5H4C3H2CHC2H4CHCH3FeH2CHFeHCHCNH3CH2C4NC2HC2HSHCHC2HCH3CHCHSHC2NH5CH4C2HCH3NHC2H4C3H2SCH2CHCHC2SH2CH2FeH2CHNSHCH3SH2CH2CFeHSFeSC2S2HFeNS2CS2CH4C2H2C2NSC6H6C2HCHC3H2NCHC2HC2H3CHNHC2H2C2HCHC3H4FeCH2CH2C3HCH2C3HC2H4CH5CHC2H3CHCH3C3H3CH2CH3C2HC2FeHSH2C3HC4HCHC3HCH3SHCHCHSHSHCHNCSHFeS2FeSFeS2HFeS2FeS2FeSFeS3FeSHFeS2FeSFeS3HC6H4CHSC2H3C6H4C3H2C6H6CH2C2H3C6H6CFeC2HCHCH4FeH2CHCH2CNC9H7SH5C4NC2H4NHSH2CH2CH3CHNCH2CHCH3CNH2CH3CHCHCH2CHCHCH2C2H2C2H7CH2CHCSHNH5C2H2C2SCHC2HC2H3CFeCHFeHSCHCFeS2FeS2FeSFeS3C4H2CHC2H3C6H5C7H4C6HC5H2C3H5C3H2CHNC4H11NC7H11CNC3SHSCH3NHSH2CH6SHCH2CH8CHNHFeS2FeS2FeSFeS3H2SHSH3CFeS2CHCSH2FeS2FeS2FeSFeS3FeS2FeS2FeSFeHS2FeS2FeSFeHS2C2SC6H4NH2C6H4C7H3C9H5FeC7H6CHC6H4C6H4NHC2HC2HSH3NC5FeH10C2H3SNHCHCH4CH2C2HCH3C2H4C2H2CHC2HFeH5C2SCHCSCH4NH5CNC9H14NC9H14CHFeC2H2CNC9H9C2HCH2C2SH3CH2FeH2CSC4HCH3CSHCSHC2HC2H4CNSH5NH3CHC2HCHCH2C3H3CH4CHCFeSCSFeHSFeS2FeS2FeSFeS3HC3H4C4H4C7H6C8H4C2H2CFeSC3HC4H2C5NCHCH2CSNC9H15C2HNH4CH2C2SHCH2CHCHCHCH5CH11CH2C3SHCFeS2FeS2FeSFeS4C4H2C6H4NCH2C6H8CHCNC9H16CHC4H6CHCH4C3H2FeCFeCNH2CSCH2CHCH3CHSC2H2CHC2H3C4H2CHCSCHCHCSCFeS2FeS2FeSFeS3FeS2C2FeSHSCS2FeSHFeHSFeS2FeS2FeS2FeSFeS3FeS2FeS2FeSFeS3FeS2FeSHCFeSHSC2HC7HSH2C6H4C7H2CH3CHC8H6C6H4CH2C4H2C6H4C6H11C4NC9H16C2HFeHCH2SNHNFeHC3HSHCH4NCSCH4CHNH6CHSCNC9H15CHC2H6CNH7C3H2CHCH10CHC2HC2H6CH3CFeNHC3SCH2C4HCH4CNH2CNC9H4CH2C2H6CFeHC3HC2H2SHCH6CFeSFeS2FeS2FeSFeS3C2HFeSH3C8H5NC3HC2HSH2C6H4CH2CHCHCH2CHC4NH5CHSCNH9CHC2H6C3HNHC2HCH2C2H4C2HCH6C3H2CHC4H
_chemical_formula_sum              "Fe288 S576 H2592 C2160 N144"
_cell_length_a       72.9025
_cell_length_b       72.9097
_cell_length_c       72.7929
_cell_angle_alpha    84.5022
_cell_angle_beta     85.5257
_cell_angle_gamma    85.1831

_space_group_name_H-M_alt    "P 1"
_space_group_IT_number       1

loop_
  _space_group_symop_operation_xyz
  'x, y, z'

loop_
  _atom_site_type_symbol
  _atom_site_label
  _atom_site_symmetry_multiplicity
  _atom_site_fract_x
  _atom_site_fract_y
  _atom_site_fract_z
  _atom_site_occupancy
  Fe  Fe1       1.0  0.01425  0.40002  0.09641  1.0000
  S   S1        1.0  0.02064  0.41874  0.07068  1.0000
  S   S2        1.0  0.03013  0.39682  0.12267  1.0000
  H   H1        1.0  0.99193  0.44641  0.03251  1.0000
  C   C1        1.0  0.11527  0.43250  0.25370  1.0000
  N   N1        1.0  0.09516  0.34237  0.17124  1.0000
  C   C2        1.0  0.05885  0.45867  0.12769  1.0000
  H   H2        1.0  0.08393  0.36742  0.18263  1.0000
  H   H3        1.0  0.06046  0.30032  0.22628  1.0000
  Fe  Fe2       1.0  0.13227  0.39097  0.16145  1.0000
  S   S3        1.0  0.12047  0.39967  0.18870  1.0000
  S   S4        1.0  0.11626  0.39191  0.13552  1.0000
  Fe  Fe3       1.0  0.17129  0.38420  0.17484  1.0000
  S   S5        1.0  0.16169  0.39311  0.20350  1.0000
  S   S6        1.0  0.20229  0.37533  0.16896  1.0000
  Fe  Fe4       1.0  0.13766  0.37580  0.20225  1.0000
  S   S7        1.0  0.11973  0.36025  0.22531  1.0000
  Fe  Fe5       1.0  0.14499  0.41653  0.18840  1.0000
  S   S8        1.0  0.13393  0.44522  0.19665  1.0000
  S   S9        1.0  0.14798  0.36562  0.17453  1.0000
  S   S10       1.0  0.15608  0.40899  0.16013  1.0000
  C   C3        1.0  0.09204  0.40480  0.27587  1.0000
  S   S11       1.0  0.12297  0.31798  0.30713  1.0000
  C   C4        1.0  0.09337  0.32585  0.20323  1.0000
  C   C5        1.0  0.06815  0.32371  0.18393  1.0000
  C   C6        1.0  0.09749  0.36041  0.17819  1.0000
  C   C7        1.0  0.12109  0.34838  0.24799  1.0000
  C   C8        1.0  0.10477  0.34268  0.25778  1.0000
  C   C9        1.0  0.10500  0.33332  0.27574  1.0000
  C   C10       1.0  0.12165  0.32938  0.28423  1.0000
  C   C11       1.0  0.13800  0.33498  0.27439  1.0000
  C   C12       1.0  0.13774  0.34444  0.25647  1.0000
  H   H4        1.0  0.09177  0.34563  0.25147  1.0000
  H   H5        1.0  0.09229  0.32924  0.28305  1.0000
  H   H6        1.0  0.15098  0.33209  0.28073  1.0000
  H   H7        1.0  0.15046  0.34859  0.24921  1.0000
  C   C13       1.0  0.21695  0.36533  0.15089  1.0000
  C   C14       1.0  0.17136  0.25392  0.28728  1.0000
  H   H8        1.0  0.10648  0.33065  0.20590  1.0000
  C   C15       1.0  0.21080  0.36291  0.13358  1.0000
  H   H9        1.0  0.11894  0.45456  0.11455  1.0000
  H   H10       1.0  0.12336  0.47767  0.13719  1.0000
  H   H11       1.0  0.19654  0.36679  0.13090  1.0000
  C   C16       1.0  0.14455  0.46645  0.19630  1.0000
  C   C17       1.0  0.23371  0.41428  0.13959  1.0000
  H   H12       1.0  0.10246  0.39664  0.23234  1.0000
  C   C18       1.0  0.11366  0.33343  0.16615  1.0000
  H   H13       1.0  0.12497  0.26277  0.29964  1.0000
  C   C19       1.0  0.16372  0.46724  0.19512  1.0000
  H   H14       1.0  0.00904  0.25887  0.32037  1.0000
  C   C20       1.0  0.05932  0.31287  0.19834  1.0000
  H   H15       1.0  0.12278  0.33180  0.17785  1.0000
  H   H16       1.0  0.17262  0.45472  0.19386  1.0000
  C   C21       1.0  0.05414  0.39647  0.12568  1.0000
  C   C22       1.0  0.06755  0.39504  0.11097  1.0000
  C   C23       1.0  0.08646  0.39388  0.11425  1.0000
  C   C24       1.0  0.09221  0.39429  0.13220  1.0000
  C   C25       1.0  0.07879  0.39622  0.14686  1.0000
  C   C26       1.0  0.05990  0.39715  0.14362  1.0000
  H   H17       1.0  0.06336  0.39448  0.09711  1.0000
  H   H18       1.0  0.09670  0.39244  0.10278  1.0000
  H   H19       1.0  0.08289  0.39694  0.16070  1.0000
  H   H20       1.0  0.04961  0.39838  0.15507  1.0000
  H   H21       1.0  0.11258  0.31946  0.16154  1.0000
  H   H22       1.0  0.01063  0.46834  0.12490  1.0000
  C   C27       1.0  0.15926  0.24634  0.30180  1.0000
  H   H23       1.0  0.17369  0.26844  0.28546  1.0000
  C   C28       1.0  0.01153  0.39300  0.00679  1.0000
  H   H24       1.0  0.14513  0.40872  0.25210  1.0000
  H   H25       1.0  0.08331  0.33319  0.14772  1.0000
  H   H26       1.0  0.11454  0.47337  0.16110  1.0000
  Fe  Fe6       1.0  0.00904  0.39742  0.05523  1.0000
  N   N2        1.0  0.10800  0.45342  0.14293  1.0000
  H   H27       1.0  0.13517  0.38282  0.26938  1.0000
  C   C29       1.0  0.99764  0.44436  0.01818  1.0000
  C   C30       1.0  0.05418  0.47751  0.12859  1.0000
  C   C31       1.0  0.10987  0.40139  0.26694  1.0000
  H   H28       1.0  0.13569  0.39284  0.23833  1.0000
  C   C32       1.0  0.13458  0.40735  0.24217  1.0000
  C   C33       1.0  0.12148  0.38671  0.27519  1.0000
  H   H29       1.0  0.07150  0.35381  0.15658  1.0000
  H   H30       1.0  0.12430  0.43415  0.26500  1.0000
  H   H31       1.0  0.06103  0.32661  0.17138  1.0000
  H   H32       1.0  0.09298  0.35499  0.14327  1.0000
  C   C34       1.0  0.12883  0.25719  0.31370  1.0000
  H   H33       1.0  0.09062  0.31199  0.23068  1.0000
  H   H34       1.0  0.04606  0.30782  0.19651  1.0000
  H   H35       1.0  0.22246  0.40774  0.14769  1.0000
  H   H36       1.0  0.08247  0.41573  0.27046  1.0000
  C   C35       1.0  0.03093  0.48640  0.01802  1.0000
  H   H37       1.0  0.12019  0.44138  0.24122  1.0000
  C   C36       1.0  0.13326  0.48294  0.19805  1.0000
  H   H38       1.0  0.18999  0.24883  0.26348  1.0000
  H   H39       1.0  0.10615  0.35904  0.19018  1.0000
  C   C37       1.0  0.10286  0.41132  0.23531  1.0000
  C   C38       1.0  0.09784  0.37975  0.29954  1.0000
  C   C39       1.0  0.16668  0.21609  0.28961  1.0000
  S   S12       1.0  0.02368  0.39290  0.02697  1.0000
  H   H40       1.0  0.04264  0.35142  0.01010  1.0000
  C   C40       1.0  0.06740  0.30862  0.21511  1.0000
  H   H41       1.0  0.13849  0.41624  0.22937  1.0000
  C   C41       1.0  0.17143  0.48424  0.19607  1.0000
  N   N3        1.0  0.11567  0.41284  0.24987  1.0000
  C   C42       1.0  0.23565  0.36014  0.15391  1.0000
  H   H42       1.0  0.10998  0.43290  0.12302  1.0000
  H   H43       1.0  0.10116  0.43833  0.25787  1.0000
  H   H44       1.0  0.04886  0.44994  0.12347  1.0000
  C   C43       1.0  0.08552  0.33055  0.18597  1.0000
  H   H45       1.0  0.12109  0.34176  0.15468  1.0000
  H   H46       1.0  0.08851  0.41661  0.23923  1.0000
  C   C44       1.0  0.08968  0.46198  0.13796  1.0000
  C   C45       1.0  0.11549  0.37620  0.29130  1.0000
  C   C46       1.0  0.22314  0.35559  0.11960  1.0000
  H   H47       1.0  0.09325  0.37128  0.31184  1.0000
  C   C47       1.0  0.08521  0.34615  0.15404  1.0000
  C   C48       1.0  0.08438  0.31513  0.21756  1.0000
  H   H48       1.0  0.01243  0.35106  0.99713  1.0000
  H   H49       1.0  0.22825  0.44003  0.15184  1.0000
  H   H50       1.0  0.10446  0.36979  0.16743  1.0000
  H   H51       1.0  0.09799  0.42755  0.15509  1.0000
  C   C49       1.0  0.08615  0.39406  0.29188  1.0000
  H   H52       1.0  0.07924  0.43629  0.13136  1.0000
  H   H53       1.0  0.00992  0.45251  0.01540  1.0000
  H   H54       1.0  0.11842  0.48254  0.19906  1.0000
  H   H55       1.0  0.21812  0.35391  0.10631  1.0000
  H   H56       1.0  0.12449  0.36497  0.29731  1.0000
  H   H57       1.0  0.11915  0.43290  0.16312  1.0000
  H   H58       1.0  0.00256  0.42947  0.01822  1.0000
  H   H59       1.0  0.01906  0.48395  0.05602  1.0000
  H   H60       1.0  0.04061  0.46741  0.99770  1.0000
  H   H61       1.0  0.13152  0.43824  0.13005  1.0000
  C   C50       1.0  0.11748  0.44446  0.12694  1.0000
  H   H62       1.0  0.10713  0.41942  0.22212  1.0000
  H   H63       1.0  0.13403  0.45980  0.15229  1.0000
  C   C51       1.0  0.17852  0.22391  0.27564  1.0000
  C   C52       1.0  0.01043  0.28492  0.30410  1.0000
  H   H64       1.0  0.18628  0.48462  0.19545  1.0000
  C   C53       1.0  0.10560  0.43914  0.15866  1.0000
  S   S13       1.0  0.00445  0.37756  0.08084  1.0000
  Fe  Fe7       1.0  0.99126  0.43000  0.07441  1.0000
  H   H65       1.0  0.09804  0.44515  0.17085  1.0000
  H   H66       1.0  0.02484  0.28598  0.30631  1.0000
  H   H67       1.0  0.14912  0.28446  0.29996  1.0000
  C   C54       1.0  0.00269  0.47479  0.11374  1.0000
  C   C55       1.0  0.15314  0.27737  0.31347  1.0000
  C   C56       1.0  0.18083  0.24277  0.27446  1.0000
  C   C57       1.0  0.15714  0.22709  0.30249  1.0000
  C   C58       1.0  0.12043  0.46674  0.14854  1.0000
  C   C59       1.0  0.99296  0.38932  0.00793  1.0000
  C   C60       1.0  0.08445  0.48117  0.13873  1.0000
  C   C61       1.0  0.04194  0.35111  0.99530  1.0000
  H   H68       1.0  0.07241  0.39677  0.29836  1.0000
  H   H69       1.0  0.14796  0.22040  0.31298  1.0000
  H   H70       1.0  0.18586  0.21534  0.26564  1.0000
  H   H71       1.0  0.16480  0.20142  0.29046  1.0000
  N   N4        1.0  0.14887  0.25766  0.31555  1.0000
  H   H72       1.0  0.00759  0.31124  0.28829  1.0000
  C   C62       1.0  0.07632  0.45098  0.13227  1.0000
  H   H73       1.0  0.16801  0.27885  0.31492  1.0000
  C   C63       1.0  0.00064  0.29918  0.29402  1.0000
  H   H74       1.0  0.03528  0.47642  0.02907  1.0000
  C   C64       1.0  0.03403  0.48098  0.00001  1.0000
  H   H75       1.0  0.00212  0.44959  0.10066  1.0000
  C   C65       1.0  0.00149  0.26965  0.31202  1.0000
  H   H76       1.0  0.12410  0.24300  0.31647  1.0000
  C   C66       1.0  0.23699  0.43241  0.14198  1.0000
  C   C67       1.0  0.99776  0.46416  0.10010  1.0000
  H   H77       1.0  0.04063  0.48350  0.12509  1.0000
  C   C68       1.0  0.06694  0.48872  0.13407  1.0000
  H   H78       1.0  0.24066  0.36185  0.16719  1.0000
  H   H79       1.0  0.07120  0.35157  0.98935  1.0000
  Fe  Fe8       1.0  0.08282  0.38798  0.47675  1.0000
  S   S14       1.0  0.06025  0.37624  0.49597  1.0000
  S   S15       1.0  0.08513  0.38396  0.44578  1.0000
  Fe  Fe9       1.0  0.09460  0.41147  0.50643  1.0000
  S   S16       1.0  0.07326  0.40060  0.52778  1.0000
  S   S17       1.0  0.11042  0.43354  0.51705  1.0000
  Fe  Fe10      1.0  0.08104  0.37280  0.51762  1.0000
  S   S18       1.0  0.08136  0.34538  0.53556  1.0000
  Fe  Fe11      1.0  0.05464  0.40498  0.50458  1.0000
  S   S19       1.0  0.02701  0.41999  0.50996  1.0000
  S   S20       1.0  0.10434  0.38291  0.49786  1.0000
  S   S21       1.0  0.07527  0.41737  0.48383  1.0000
  S   S22       1.0  0.11813  0.00556  0.41536  1.0000
  H   H80       1.0  0.00626  0.30763  0.40150  1.0000
  Fe  Fe12      1.0  0.10567  0.00577  0.57734  1.0000
  S   S23       1.0  0.10952  0.03661  0.57518  1.0000
  C   C69       1.0  0.01303  0.36853  0.51387  1.0000
  Fe  Fe13      1.0  0.16051  0.10686  0.40394  1.0000
  S   S24       1.0  0.18365  0.09688  0.42192  1.0000
  S   S25       1.0  0.13617  0.09038  0.39893  1.0000
  Fe  Fe14      1.0  0.17115  0.14748  0.39985  1.0000
  S   S26       1.0  0.19483  0.13973  0.41825  1.0000
  S   S27       1.0  0.16793  0.17869  0.38978  1.0000
  Fe  Fe15      1.0  0.20140  0.11484  0.40182  1.0000
  S   S28       1.0  0.08152  0.32141  0.34859  1.0000
  Fe  Fe16      1.0  0.17571  0.12240  0.43684  1.0000
  S   S29       1.0  0.16693  0.12135  0.46787  1.0000
  S   S30       1.0  0.17861  0.12326  0.38259  1.0000
  S   S31       1.0  0.15171  0.13170  0.41962  1.0000
  Fe  Fe17      1.0  0.17670  0.10798  0.60369  1.0000
  S   S32       1.0  0.20633  0.10485  0.59219  1.0000
  S   S33       1.0  0.16305  0.08199  0.61578  1.0000
  Fe  Fe18      1.0  0.17509  0.15069  0.59981  1.0000
  S   S34       1.0  0.20473  0.14999  0.58811  1.0000
  S   S35       1.0  0.15672  0.17831  0.59851  1.0000
  Fe  Fe19      1.0  0.19756  0.12780  0.57088  1.0000
  S   S36       1.0  0.20897  0.12850  0.54058  1.0000
  Fe  Fe20      1.0  0.21125  0.12698  0.61037  1.0000
  H   H81       1.0  0.19675  0.08464  0.62866  1.0000
  S   S37       1.0  0.16767  0.12948  0.58128  1.0000
  S   S38       1.0  0.18191  0.12910  0.62315  1.0000
  Fe  Fe21      1.0  0.09758  0.30861  0.64083  1.0000
  S   S39       1.0  0.08666  0.28112  0.63726  1.0000
  S   S40       1.0  0.10002  0.33372  0.61978  1.0000
  H   H82       1.0  0.17702  0.17408  0.56419  1.0000
  H   H83       1.0  0.02233  0.35599  0.51127  1.0000
  Fe  Fe22      1.0  0.09664  0.26833  0.35311  1.0000
  S   S41       1.0  0.11591  0.29031  0.35540  1.0000
  S   S42       1.0  0.10581  0.23701  0.35420  1.0000
  Fe  Fe23      1.0  0.06365  0.29780  0.34668  1.0000
  S   S43       1.0  0.08449  0.28318  0.32731  1.0000
  H   H84       1.0  0.15178  0.14960  0.54634  1.0000
  Fe  Fe24      1.0  0.09281  0.30401  0.37299  1.0000
  S   S44       1.0  0.09597  0.31095  0.40253  1.0000
  S   S45       1.0  0.07399  0.28115  0.37195  1.0000
  C   C70       1.0  0.01170  0.29955  0.34638  1.0000
  C   C71       1.0  0.15252  0.46609  0.54140  1.0000
  C   C72       1.0  0.00946  0.28199  0.35540  1.0000
  H   H85       1.0  0.15257  0.45452  0.55193  1.0000
  C   C73       1.0  0.00440  0.35632  0.54609  1.0000
  C   C74       1.0  0.13524  0.22373  0.63743  1.0000
  H   H86       1.0  0.09156  0.23916  0.63468  1.0000
  C   C75       1.0  0.15232  0.19371  0.63270  1.0000
  C   C76       1.0  0.14883  0.19556  0.61395  1.0000
  C   C77       1.0  0.13846  0.21163  0.60706  1.0000
  C   C78       1.0  0.13178  0.22563  0.61864  1.0000
  H   H87       1.0  0.21452  0.18846  0.37719  1.0000
  H   H88       1.0  0.16022  0.18151  0.63831  1.0000
  H   H89       1.0  0.13564  0.21331  0.59261  1.0000
  H   H90       1.0  0.12398  0.23788  0.61303  1.0000
  C   C79       1.0  0.14947  0.19445  0.38129  1.0000
  C   C80       1.0  0.13511  0.18873  0.37200  1.0000
  C   C81       1.0  0.12181  0.20188  0.36414  1.0000
  C   C82       1.0  0.12228  0.22098  0.36574  1.0000
  C   C83       1.0  0.13636  0.22666  0.37546  1.0000
  C   C84       1.0  0.14996  0.21355  0.38287  1.0000
  H   H91       1.0  0.13447  0.17419  0.37048  1.0000
  H   H92       1.0  0.11106  0.19719  0.35672  1.0000
  H   H93       1.0  0.13697  0.24118  0.37705  1.0000
  H   H94       1.0  0.16091  0.21826  0.39000  1.0000
  C   C85       1.0  0.17918  0.12256  0.48791  1.0000
  C   C86       1.0  0.19814  0.12464  0.48692  1.0000
  C   C87       1.0  0.20705  0.12621  0.50320  1.0000
  C   C88       1.0  0.19719  0.12553  0.52065  1.0000
  C   C89       1.0  0.17828  0.12314  0.52165  1.0000
  C   C90       1.0  0.16934  0.12176  0.50538  1.0000
  H   H95       1.0  0.20592  0.12523  0.47363  1.0000
  H   H96       1.0  0.22168  0.12800  0.50225  1.0000
  H   H97       1.0  0.17056  0.12238  0.53496  1.0000
  H   H98       1.0  0.15469  0.12012  0.50633  1.0000
  H   H99       1.0  0.05083  0.01565  0.48701  1.0000
  C   C91       1.0  0.12569  0.04826  0.58590  1.0000
  C   C92       1.0  0.13367  0.04072  0.60208  1.0000
  C   C93       1.0  0.14522  0.05116  0.61096  1.0000
  C   C94       1.0  0.14927  0.06903  0.60354  1.0000
  C   C95       1.0  0.14170  0.07636  0.58709  1.0000
  C   C96       1.0  0.12980  0.06611  0.57846  1.0000
  H   H100      1.0  0.13048  0.02710  0.60806  1.0000
  H   H101      1.0  0.15086  0.04544  0.62376  1.0000
  H   H102      1.0  0.14461  0.09010  0.58126  1.0000
  H   H103      1.0  0.12363  0.07210  0.56601  1.0000
  C   C97       1.0  0.12274  0.02926  0.41083  1.0000
  C   C98       1.0  0.14082  0.03426  0.41213  1.0000
  C   C99       1.0  0.14523  0.05283  0.40859  1.0000
  C   C100      1.0  0.13159  0.06667  0.40356  1.0000
  C   C101      1.0  0.11352  0.06166  0.40225  1.0000
  C   C102      1.0  0.10908  0.04312  0.40595  1.0000
  H   H104      1.0  0.15152  0.02368  0.41591  1.0000
  H   H105      1.0  0.15920  0.05640  0.40960  1.0000
  H   H106      1.0  0.10285  0.07222  0.39831  1.0000
  H   H107      1.0  0.09512  0.03955  0.40484  1.0000
  C   C103      1.0  0.99333  0.42148  0.49614  1.0000
  H   H108      1.0  0.14573  0.25849  0.34523  1.0000
  C   C104      1.0  0.08780  0.36343  0.43409  1.0000
  C   C105      1.0  0.08738  0.36488  0.41468  1.0000
  C   C106      1.0  0.08977  0.34903  0.40474  1.0000
  C   C107      1.0  0.09271  0.33150  0.41415  1.0000
  C   C108      1.0  0.09296  0.33004  0.43356  1.0000
  C   C109      1.0  0.09045  0.34588  0.44349  1.0000
  H   H109      1.0  0.08539  0.37840  0.40726  1.0000
  H   H110      1.0  0.08964  0.35041  0.38983  1.0000
  H   H111      1.0  0.09521  0.31656  0.44099  1.0000
  H   H112      1.0  0.09083  0.34451  0.45839  1.0000
  C   C110      1.0  0.08383  0.34277  0.55971  1.0000
  C   C111      1.0  0.08402  0.32497  0.56911  1.0000
  C   C112      1.0  0.08790  0.32204  0.58789  1.0000
  C   C113      1.0  0.09166  0.33693  0.59740  1.0000
  C   C114      1.0  0.09068  0.35479  0.58820  1.0000
  C   C115      1.0  0.08683  0.35773  0.56944  1.0000
  H   H113      1.0  0.08169  0.31332  0.56168  1.0000
  H   H114      1.0  0.08868  0.30821  0.59479  1.0000
  H   H115      1.0  0.09350  0.36639  0.59548  1.0000
  H   H116      1.0  0.08674  0.37148  0.56237  1.0000
  C   C116      1.0  0.02001  0.29263  0.64778  1.0000
  S   S46       1.0  0.23211  0.10503  0.39516  1.0000
  C   C117      1.0  0.10543  0.47098  0.52051  1.0000
  C   C118      1.0  0.10787  0.45708  0.50821  1.0000
  C   C119      1.0  0.11066  0.46220  0.48925  1.0000
  H   H117      1.0  0.15211  0.47501  0.49486  1.0000
  H   H118      1.0  0.10356  0.46714  0.53523  1.0000
  H   H119      1.0  0.11282  0.45164  0.47965  1.0000
  C   C120      1.0  0.04997  0.00900  0.52383  1.0000
  C   C121      1.0  0.01830  0.40525  0.47886  1.0000
  C   C122      1.0  0.01202  0.41568  0.49359  1.0000
  H   H120      1.0  0.05061  0.31681  0.37768  1.0000
  H   H121      1.0  0.03285  0.40130  0.47644  1.0000
  S   S47       1.0  0.03377  0.30833  0.34111  1.0000
  C   C123      1.0  0.99167  0.27547  0.35860  1.0000
  H   H122      1.0  0.99445  0.39207  0.53616  1.0000
  H   H123      1.0  0.14853  0.23589  0.33800  1.0000
  H   H124      1.0  0.02024  0.01134  0.48084  1.0000
  C   C124      1.0  0.00559  0.39925  0.46768  1.0000
  C   C125      1.0  0.05729  0.24751  0.61916  1.0000
  H   H125      1.0  0.15223  0.44883  0.51902  1.0000
  Fe  Fe25      1.0  0.10286  0.30586  0.33053  1.0000
  H   H126      1.0  0.06672  0.99640  0.49335  1.0000
  N   N5        1.0  0.06742  0.22621  0.64705  1.0000
  Fe  Fe26      1.0  0.11013  0.26901  0.65433  1.0000
  H   H127      1.0  0.02143  0.27327  0.35960  1.0000
  H   H128      1.0  0.12063  0.26554  0.32386  1.0000
  C   C126      1.0  0.99107  0.00762  0.52768  1.0000
  C   C127      1.0  0.21581  0.15272  0.36964  1.0000
  C   C128      1.0  0.01274  0.01012  0.49423  1.0000
  H   H129      1.0  0.23901  0.16545  0.33645  1.0000
  N   N6        1.0  0.04594  0.48302  0.50677  1.0000
  C   C129      1.0  0.15308  0.25005  0.33454  1.0000
  C   C130      1.0  0.14747  0.16402  0.54959  1.0000
  H   H130      1.0  0.12149  0.03689  0.51201  1.0000
  H   H131      1.0  0.04680  0.02411  0.52057  1.0000
  C   C131      1.0  0.15253  0.46282  0.52287  1.0000
  H   H132      1.0  0.00666  0.25040  0.64013  1.0000
  N   N7        1.0  0.12758  0.08246  0.46199  1.0000
  C   C132      1.0  0.14578  0.08235  0.45144  1.0000
  C   C133      1.0  0.11308  0.08899  0.44909  1.0000
  C   C134      1.0  0.12729  0.09626  0.47580  1.0000
  C   C135      1.0  0.12461  0.06351  0.47036  1.0000
  C   C136      1.0  0.12412  0.05856  0.48978  1.0000
  C   C137      1.0  0.12282  0.04911  0.45893  1.0000
  C   C138      1.0  0.12171  0.04040  0.49715  1.0000
  C   C139      1.0  0.12043  0.03101  0.46642  1.0000
  C   C140      1.0  0.11986  0.02666  0.48551  1.0000
  H   H133      1.0  0.14674  0.07325  0.43995  1.0000
  H   H134      1.0  0.14855  0.09642  0.44505  1.0000
  H   H135      1.0  0.15717  0.07762  0.46053  1.0000
  H   H136      1.0  0.11380  0.08089  0.43685  1.0000
  H   H137      1.0  0.11460  0.10352  0.44319  1.0000
  H   H138      1.0  0.09904  0.08826  0.45616  1.0000
  H   H139      1.0  0.13905  0.09336  0.48484  1.0000
  H   H140      1.0  0.12892  0.11046  0.46900  1.0000
  H   H141      1.0  0.11408  0.09682  0.48454  1.0000
  H   H142      1.0  0.12577  0.06840  0.49960  1.0000
  H   H143      1.0  0.12352  0.05169  0.44405  1.0000
  H   H144      1.0  0.11923  0.02028  0.45728  1.0000
  H   H145      1.0  0.11820  0.01259  0.49133  1.0000
  H   H146      1.0  0.04750  0.35346  0.44792  1.0000
  H   H147      1.0  0.03431  0.35811  0.53955  1.0000
  H   H148      1.0  0.00764  0.37398  0.50037  1.0000
  C   C141      1.0  0.05316  0.23738  0.63649  1.0000
  C   C142      1.0  0.14552  0.20763  0.64432  1.0000
  H   H149      1.0  0.01574  0.99831  0.54055  1.0000
  C   C143      1.0  0.99155  0.35064  0.56080  1.0000
  H   H150      1.0  0.04692  0.26601  0.59672  1.0000
  C   C144      1.0  0.00295  0.29648  0.63974  1.0000
  C   C145      1.0  0.04346  0.25813  0.60975  1.0000
  H   H151      1.0  0.99572  0.33175  0.41759  1.0000
  H   H152      1.0  0.01557  0.35684  0.46213  1.0000
  H   H153      1.0  0.01036  0.39064  0.45672  1.0000
  C   C146      1.0  0.99738  0.34281  0.57788  1.0000
  H   H154      1.0  0.20265  0.15728  0.37734  1.0000
  H   H155      1.0  0.01459  0.26745  0.61008  1.0000
  S   S48       1.0  0.23606  0.12785  0.62831  1.0000
  H   H156      1.0  0.04520  0.00545  0.53855  1.0000
  C   C147      1.0  0.20810  0.08333  0.63808  1.0000
  C   C148      1.0  0.24027  0.05843  0.37796  1.0000
  H   H157      1.0  0.06431  0.48611  0.52798  1.0000
  N   N8        1.0  0.04145  0.99815  0.51094  1.0000
  C   C149      1.0  0.03449  0.23877  0.64376  1.0000
  H   H158      1.0  0.21445  0.09677  0.63571  1.0000
  H   H159      1.0  0.13320  0.16735  0.54535  1.0000
  N   N9        1.0  0.14327  0.33903  0.55578  1.0000
  C   C150      1.0  0.13306  0.32954  0.54306  1.0000
  C   C151      1.0  0.16317  0.33747  0.54969  1.0000
  C   C152      1.0  0.14095  0.32890  0.57444  1.0000
  C   C153      1.0  0.13663  0.35884  0.55536  1.0000
  C   C154      1.0  0.13639  0.37004  0.53829  1.0000
  C   C155      1.0  0.13084  0.36773  0.57165  1.0000
  C   C156      1.0  0.13018  0.38875  0.53753  1.0000
  C   C157      1.0  0.12452  0.38643  0.57068  1.0000
  C   C158      1.0  0.12407  0.39688  0.55365  1.0000
  H   H160      1.0  0.11795  0.33140  0.54650  1.0000
  H   H161      1.0  0.13551  0.33479  0.52832  1.0000
  H   H162      1.0  0.13692  0.31441  0.54385  1.0000
  H   H163      1.0  0.16886  0.32278  0.55019  1.0000
  H   H164      1.0  0.17126  0.34480  0.55867  1.0000
  H   H165      1.0  0.16583  0.34359  0.53522  1.0000
  H   H166      1.0  0.12623  0.32977  0.57987  1.0000
  H   H167      1.0  0.14537  0.31392  0.57427  1.0000
  H   H168      1.0  0.14929  0.33431  0.58460  1.0000
  H   H169      1.0  0.14088  0.36445  0.52533  1.0000
  H   H170      1.0  0.13050  0.36045  0.58530  1.0000
  H   H171      1.0  0.12989  0.39700  0.52432  1.0000
  H   H172      1.0  0.11961  0.39277  0.58321  1.0000
  H   H173      1.0  0.11888  0.41131  0.55287  1.0000
  N   N10       1.0  0.16063  0.17707  0.54041  1.0000
  C   C159      1.0  0.15381  0.19612  0.54439  1.0000
  C   C160      1.0  0.17847  0.17273  0.54903  1.0000
  C   C161      1.0  0.16204  0.17558  0.52018  1.0000
  C   C162      1.0  0.17893  0.17052  0.51010  1.0000
  C   C163      1.0  0.14608  0.17894  0.50997  1.0000
  C   C164      1.0  0.17959  0.16875  0.49109  1.0000
  C   C165      1.0  0.14689  0.17690  0.49100  1.0000
  C   C166      1.0  0.16360  0.17168  0.48161  1.0000
  H   H174      1.0  0.13969  0.19996  0.53988  1.0000
  H   H175      1.0  0.15313  0.19774  0.55954  1.0000
  H   H176      1.0  0.16309  0.20638  0.53731  1.0000
  H   H177      1.0  0.18904  0.18221  0.54313  1.0000
  H   H178      1.0  0.19177  0.16727  0.51661  1.0000
  H   H179      1.0  0.13277  0.18286  0.51667  1.0000
  H   H180      1.0  0.19252  0.16440  0.48378  1.0000
  H   H181      1.0  0.13447  0.17912  0.48354  1.0000
  H   H182      1.0  0.16414  0.16959  0.46701  1.0000
  S   S49       1.0  0.12656  0.24054  0.65309  1.0000
  H   H183      1.0  0.99435  0.33760  0.51915  1.0000
  C   C167      1.0  0.01611  0.34059  0.58089  1.0000
  H   H184      1.0  0.05988  0.20071  0.63829  1.0000
  H   H185      1.0  0.11512  0.48460  0.46817  1.0000
  H   H186      1.0  0.14663  0.16419  0.56494  1.0000
  C   C168      1.0  0.99585  0.47769  0.49694  1.0000
  H   H187      1.0  0.21328  0.15470  0.35471  1.0000
  N   N11       1.0  0.02881  0.32559  0.39749  1.0000
  C   C169      1.0  0.02149  0.30706  0.39891  1.0000
  C   C170      1.0  0.01928  0.33772  0.38308  1.0000
  C   C171      1.0  0.02553  0.33380  0.41542  1.0000
  C   C172      1.0  0.03991  0.34022  0.42467  1.0000
  C   C173      1.0  0.00387  0.34426  0.44062  1.0000
  C   C174      1.0  0.01829  0.35044  0.44925  1.0000
  H   H188      1.0  0.23873  0.19107  0.37139  1.0000
  C   C175      1.0  0.02908  0.34624  0.56685  1.0000
  H   H189      1.0  0.02469  0.30018  0.38586  1.0000
  H   H190      1.0  0.00236  0.30481  0.62665  1.0000
  H   H191      1.0  0.02772  0.29781  0.41025  1.0000
  H   H192      1.0  0.02422  0.35187  0.38182  1.0000
  H   H193      1.0  0.02185  0.33229  0.36923  1.0000
  H   H194      1.0  0.05416  0.33911  0.41940  1.0000
  H   H195      1.0  0.04367  0.34457  0.56925  1.0000
  C   C176      1.0  0.22490  0.06133  0.36755  1.0000
  H   H196      1.0  0.16812  0.24948  0.33639  1.0000
  H   H197      1.0  0.07112  0.24772  0.61273  1.0000
  C   C177      1.0  0.04863  0.32319  0.39105  1.0000
  H   H198      1.0  0.18395  0.15826  0.54737  1.0000
  C   C178      1.0  0.02616  0.48713  0.50337  1.0000
  Fe  Fe27      1.0  0.09166  0.99034  0.41699  1.0000
  H   H199      1.0  0.04064  0.48344  0.53621  1.0000
  H   H200      1.0  0.05663  0.31393  0.40116  1.0000
  C   C179      1.0  0.99375  0.01511  0.49464  1.0000
  H   H201      1.0  0.21978  0.16654  0.40196  1.0000
  H   H202      1.0  0.22385  0.18591  0.35429  1.0000
  C   C180      1.0  0.01004  0.00283  0.52745  1.0000
  H   H203      1.0  0.15203  0.48602  0.56096  1.0000
  C   C181      1.0  0.02343  0.35403  0.54970  1.0000
  H   H204      1.0  0.05508  0.33660  0.38862  1.0000
  S   S50       1.0  0.09132  0.99855  0.55295  1.0000
  H   H205      1.0  0.21853  0.13760  0.37328  1.0000
  C   C182      1.0  0.03625  0.34848  0.44127  1.0000
  H   H206      1.0  0.00409  0.33898  0.38606  1.0000
  C   C183      1.0  0.22599  0.05588  0.34965  1.0000
  C   C184      1.0  0.05177  0.00087  0.49257  1.0000
  C   C185      1.0  0.06214  0.20695  0.65123  1.0000
  C   C186      1.0  0.99590  0.31061  0.34098  1.0000
  H   H207      1.0  0.02060  0.33451  0.59413  1.0000
  C   C187      1.0  0.15200  0.48419  0.54642  1.0000
  H   H208      1.0  0.06525  0.00629  0.52319  1.0000
  H   H209      1.0  0.02141  0.37938  0.51797  1.0000
  C   C188      1.0  0.05205  0.46298  0.50751  1.0000
  C   C189      1.0  0.02146  0.00377  0.51072  1.0000
  H   H210      1.0  0.03239  0.29803  0.64092  1.0000
  H   H211      1.0  0.01924  0.45885  0.50015  1.0000
  C   C190      1.0  0.15245  0.47759  0.50926  1.0000
  H   H212      1.0  0.04676  0.99238  0.48233  1.0000
  C   C191      1.0  0.02077  0.24923  0.63413  1.0000
  C   C192      1.0  0.11205  0.48091  0.48278  1.0000
  H   H213      1.0  0.21220  0.06803  0.37336  1.0000
  C   C193      1.0  0.02525  0.25894  0.61719  1.0000
  H   H214      1.0  0.21857  0.07238  0.63359  1.0000
  C   C194      1.0  0.00735  0.33613  0.42390  1.0000
  H   H215      1.0  0.23940  0.06303  0.39178  1.0000
  C   C195      1.0  0.01444  0.47326  0.50020  1.0000
  N   N12       1.0  0.99784  0.36431  0.52805  1.0000
  C   C196      1.0  0.08602  0.22529  0.63711  1.0000
  S   S51       1.0  0.02339  0.99806  0.40382  1.0000
  H   H216      1.0  0.09636  0.21655  0.64529  1.0000
  H   H217      1.0  0.05051  0.45715  0.49416  1.0000
  H   H218      1.0  0.00139  0.99357  0.61665  1.0000
  H   H219      1.0  0.99746  0.32420  0.33393  1.0000
  H   H220      1.0  0.14529  0.28539  0.32421  1.0000
  H   H221      1.0  0.06690  0.46028  0.51028  1.0000
  H   H222      1.0  0.23395  0.14560  0.39977  1.0000
  S   S52       1.0  0.06517  0.99501  0.43471  1.0000
  H   H223      1.0  0.19173  0.05498  0.63269  1.0000
  H   H224      1.0  0.08596  0.21927  0.62364  1.0000
  C   C197      1.0  0.23249  0.16051  0.39456  1.0000
  H   H225      1.0  0.23293  0.11178  0.35425  1.0000
  H   H226      1.0  0.04414  0.45484  0.51872  1.0000
  N   N13       1.0  0.23136  0.16293  0.37417  1.0000
  H   H227      1.0  0.21399  0.05822  0.34158  1.0000
  C   C198      1.0  0.22702  0.18294  0.36899  1.0000
  H   H228      1.0  0.13483  0.99053  0.35507  1.0000
  H   H229      1.0  0.17814  0.02591  0.64006  1.0000
  H   H230      1.0  0.05439  0.48871  0.47796  1.0000
  C   C199      1.0  0.18934  0.05048  0.64720  1.0000
  H   H231      1.0  0.03306  0.98966  0.60131  1.0000
  H   H232      1.0  0.07240  0.48923  0.49331  1.0000
  C   C200      1.0  0.18136  0.03365  0.65125  1.0000
  H   H233      1.0  0.17474  0.09381  0.65352  1.0000
  S   S53       1.0  0.99322  0.40387  0.86944  1.0000
  S   S54       1.0  0.01513  0.40274  0.90827  1.0000
  C   C201      1.0  0.06523  0.32951  0.71677  1.0000
  C   C202      1.0  0.04789  0.37013  0.92757  1.0000
  H   H234      1.0  0.99682  0.31157  0.68606  1.0000
  Fe  Fe28      1.0  0.00905  0.38296  0.88810  1.0000
  S   S55       1.0  0.03238  0.36337  0.87703  1.0000
  C   C203      1.0  0.03899  0.31873  0.73518  1.0000
  Fe  Fe29      1.0  0.17227  0.37365  0.81822  1.0000
  S   S56       1.0  0.17250  0.38721  0.78907  1.0000
  S   S57       1.0  0.19854  0.35502  0.82525  1.0000
  Fe  Fe30      1.0  0.13172  0.38819  0.82603  1.0000
  S   S58       1.0  0.12977  0.40224  0.79724  1.0000
  S   S59       1.0  0.10918  0.39585  0.84816  1.0000
  Fe  Fe31      1.0  0.14469  0.37622  0.78723  1.0000
  S   S60       1.0  0.14006  0.36623  0.75868  1.0000
  Fe  Fe32      1.0  0.15749  0.41204  0.80115  1.0000
  S   S61       1.0  0.16422  0.44107  0.78906  1.0000
  S   S62       1.0  0.14496  0.36137  0.81604  1.0000
  S   S63       1.0  0.15900  0.39926  0.83038  1.0000
  Fe  Fe33      1.0  0.10343  0.29997  0.68235  1.0000
  S   S64       1.0  0.09319  0.27181  0.68127  1.0000
  S   S65       1.0  0.10886  0.30587  0.71218  1.0000
  H   H235      1.0  0.15841  0.31173  0.79476  1.0000
  S   S66       1.0  0.04221  0.27590  0.67505  1.0000
  H   H236      1.0  0.04308  0.32402  0.93468  1.0000
  H   H237      1.0  0.00994  0.35189  0.96418  1.0000
  H   H238      1.0  0.00538  0.26619  0.68623  1.0000
  H   H239      1.0  0.22878  0.44696  0.79761  1.0000
  C   C204      1.0  0.21708  0.08057  0.66912  1.0000
  H   H240      1.0  0.15386  0.27888  0.74646  1.0000
  C   C205      1.0  0.13032  0.34970  0.74619  1.0000
  C   C206      1.0  0.13051  0.35256  0.72672  1.0000
  C   C207      1.0  0.12375  0.33959  0.71611  1.0000
  C   C208      1.0  0.11680  0.32337  0.72478  1.0000
  C   C209      1.0  0.11640  0.32061  0.74427  1.0000
  C   C210      1.0  0.12302  0.33364  0.75489  1.0000
  H   H241      1.0  0.13606  0.36488  0.71975  1.0000
  H   H242      1.0  0.12421  0.34204  0.70119  1.0000
  H   H243      1.0  0.11110  0.30817  0.75123  1.0000
  H   H244      1.0  0.12264  0.33114  0.76978  1.0000
  C   C211      1.0  0.21692  0.35534  0.84028  1.0000
  H   H245      1.0  0.17770  0.34099  0.73979  1.0000
  C   C212      1.0  0.17712  0.02702  0.66954  1.0000
  C   C213      1.0  0.21840  0.36988  0.85122  1.0000
  H   H246      1.0  0.05309  0.34507  0.68690  1.0000
  H   H247      1.0  0.20789  0.38125  0.85117  1.0000
  C   C214      1.0  0.16405  0.47880  0.78927  1.0000
  C   C215      1.0  0.16553  0.46169  0.80000  1.0000
  C   C216      1.0  0.16940  0.46141  0.81856  1.0000
  H   H248      1.0  0.16112  0.47918  0.77488  1.0000
  H   H249      1.0  0.17045  0.44843  0.82707  1.0000
  C   C217      1.0  0.05332  0.37275  0.86800  1.0000
  C   C218      1.0  0.05706  0.39062  0.87124  1.0000
  C   C219      1.0  0.07413  0.39744  0.86486  1.0000
  C   C220      1.0  0.08755  0.38671  0.85478  1.0000
  C   C221      1.0  0.08372  0.36894  0.85121  1.0000
  C   C222      1.0  0.06674  0.36193  0.85797  1.0000
  H   H250      1.0  0.04688  0.39918  0.87880  1.0000
  H   H251      1.0  0.07694  0.41119  0.86770  1.0000
  H   H252      1.0  0.09395  0.36048  0.84358  1.0000
  H   H253      1.0  0.06399  0.34810  0.85538  1.0000
  C   C223      1.0  0.02090  0.31405  0.70084  1.0000
  H   H254      1.0  0.20623  0.30827  0.77307  1.0000
  H   H255      1.0  0.16547  0.29029  0.77349  1.0000
  H   H256      1.0  0.03245  0.35266  0.66234  1.0000
  C   C224      1.0  0.17333  0.32712  0.74193  1.0000
  Fe  Fe34      1.0  0.99773  0.42297  0.89059  1.0000
  H   H257      1.0  0.04812  0.31552  0.74684  1.0000
  N   N14       1.0  0.04952  0.31771  0.71697  1.0000
  C   C225      1.0  0.05729  0.29841  0.71543  1.0000
  H   H258      1.0  0.01594  0.48806  0.88060  1.0000
  H   H259      1.0  0.16867  0.33040  0.80311  1.0000
  C   C226      1.0  0.03715  0.32327  0.70184  1.0000
  H   H260      1.0  0.20415  0.44781  0.80006  1.0000
  H   H261      1.0  0.19926  0.34184  0.76202  1.0000
  H   H262      1.0  0.06744  0.29390  0.72596  1.0000
  H   H263      1.0  0.23920  0.34961  0.96307  1.0000
  H   H264      1.0  0.18874  0.42118  0.81417  1.0000
  C   C227      1.0  0.99238  0.44470  0.98605  1.0000
  H   H265      1.0  0.00421  0.33616  0.66163  1.0000
  H   H266      1.0  0.20305  0.42393  0.78148  1.0000
  C   C228      1.0  0.01996  0.35468  0.92999  1.0000
  H   H267      1.0  0.22773  0.41994  0.77780  1.0000
  H   H268      1.0  0.22462  0.35802  0.91674  1.0000
  H   H269      1.0  0.17641  0.47748  0.84009  1.0000
  H   H270      1.0  0.22994  0.32930  0.83244  1.0000
  H   H271      1.0  0.07459  0.32848  0.70403  1.0000
  C   C229      1.0  0.00495  0.48774  0.92691  1.0000
  H   H272      1.0  0.03206  0.33281  0.73643  1.0000
  C   C230      1.0  0.12110  0.46666  0.82491  1.0000
  H   H273      1.0  0.06397  0.33574  0.93112  1.0000
  H   H274      1.0  0.99577  0.46432  0.94448  1.0000
  C   C231      1.0  0.01159  0.39583  0.97293  1.0000
  N   N15       1.0  0.03905  0.35342  0.93603  1.0000
  H   H275      1.0  0.09916  0.44740  0.86387  1.0000
  C   C232      1.0  0.99312  0.39165  0.97414  1.0000
  H   H276      1.0  0.22190  0.36370  0.93989  1.0000
  C   C233      1.0  0.23510  0.41126  0.81322  1.0000
  C   C234      1.0  0.21556  0.41627  0.78722  1.0000
  H   H277      1.0  0.03118  0.48880  0.97096  1.0000
  C   C235      1.0  0.02371  0.35140  0.96883  1.0000
  S   S67       1.0  0.00592  0.45108  0.87988  1.0000
  H   H278      1.0  0.01746  0.30261  0.71070  1.0000
  C   C236      1.0  0.02910  0.34207  0.67330  1.0000
  C   C237      1.0  0.21692  0.44116  0.80613  1.0000
  H   H279      1.0  0.01265  0.34219  0.93508  1.0000
  C   C238      1.0  0.04091  0.33751  0.68759  1.0000
  C   C239      1.0  0.10610  0.47586  0.85964  1.0000
  H   H280      1.0  0.15281  0.33485  0.78510  1.0000
  H   H281      1.0  0.12689  0.46299  0.81143  1.0000
  H   H282      1.0  0.06976  0.35201  0.95585  1.0000
  H   H283      1.0  0.11265  0.43931  0.83333  1.0000
  H   H284      1.0  0.14831  0.20592  0.65879  1.0000
  H   H285      1.0  0.21294  0.08035  0.68412  1.0000
  H   H286      1.0  0.23482  0.38141  0.87012  1.0000
  H   H287      1.0  0.18140  0.09253  0.67687  1.0000
  H   H288      1.0  0.16641  0.32862  0.71352  1.0000
  C   C240      1.0  0.00039  0.46944  0.93062  1.0000
  C   C241      1.0  0.18072  0.03726  0.68387  1.0000
  H   H289      1.0  0.19213  0.34680  0.78527  1.0000
  H   H290      1.0  0.07193  0.24910  0.66203  1.0000
  H   H291      1.0  0.18970  0.29686  0.78883  1.0000
  C   C242      1.0  0.00476  0.27470  0.67325  1.0000
  H   H292      1.0  0.20328  0.41682  0.83318  1.0000
  H   H293      1.0  0.04151  0.38276  0.93372  1.0000
  S   S68       1.0  0.07967  0.31373  0.66683  1.0000
  C   C243      1.0  0.17269  0.47795  0.82594  1.0000
  C   C244      1.0  0.02490  0.35088  0.98796  1.0000
  H   H294      1.0  0.21648  0.44574  0.82033  1.0000
  C   C245      1.0  0.01163  0.48286  0.89456  1.0000
  H   H295      1.0  0.04648  0.28837  0.71699  1.0000
  C   C246      1.0  0.23373  0.36989  0.86206  1.0000
  C   C247      1.0  0.00660  0.46472  0.89817  1.0000
  H   H296      1.0  0.01888  0.39824  0.95951  1.0000
  H   H297      1.0  0.19059  0.06186  0.69152  1.0000
  H   H298      1.0  0.07411  0.32517  0.72846  1.0000
  H   H299      1.0  0.15418  0.29784  0.71649  1.0000
  C   C248      1.0  0.03978  0.35207  0.95640  1.0000
  C   C249      1.0  0.20202  0.41412  0.81855  1.0000
  H   H300      1.0  0.00522  0.45178  0.98192  1.0000
  C   C250      1.0  0.05797  0.35136  0.98356  1.0000
  H   H301      1.0  0.02819  0.30871  0.73747  1.0000
  N   N16       1.0  0.21782  0.42068  0.80638  1.0000
  H   H302      1.0  0.03521  0.39910  0.98822  1.0000
  H   H303      1.0  0.21238  0.34323  0.93387  1.0000
  C   C251      1.0  0.23084  0.34066  0.84077  1.0000
  C   C252      1.0  0.04909  0.33693  0.92848  1.0000
  H   H304      1.0  0.06040  0.34426  0.71796  1.0000
  H   H305      1.0  0.06293  0.36935  0.92935  1.0000
  H   H306      1.0  0.17076  0.01405  0.67256  1.0000
  H   H307      1.0  0.04654  0.37223  0.91232  1.0000
  H   H308      1.0  0.01170  0.36709  0.93482  1.0000
  C   C253      1.0  0.15990  0.30282  0.72825  1.0000
  C   C254      1.0  0.15963  0.29221  0.74520  1.0000
  C   C255      1.0  0.16682  0.32017  0.72661  1.0000
  C   C256      1.0  0.16626  0.29893  0.76058  1.0000
  H   H309      1.0  0.06466  0.29691  0.70165  1.0000
  C   C257      1.0  0.18862  0.05416  0.67997  1.0000
  H   H310      1.0  0.07302  0.19802  0.65845  1.0000
  C   C258      1.0  0.19467  0.31055  0.78373  1.0000
  C   C259      1.0  0.17330  0.31663  0.75945  1.0000
  H   H311      1.0  0.17657  0.35277  0.76760  1.0000
  H   H312      1.0  0.20043  0.31588  0.79578  1.0000
  N   N17       1.0  0.17982  0.32358  0.77609  1.0000
  C   C260      1.0  0.19344  0.06120  0.66150  1.0000
  C   C261      1.0  0.10553  0.45790  0.85447  1.0000
  C   C262      1.0  0.18730  0.34202  0.77248  1.0000
  C   C263      1.0  0.16427  0.32516  0.79038  1.0000
  C   C264      1.0  0.06901  0.23435  0.66470  1.0000
  H   H313      1.0  0.01983  0.35584  0.91464  1.0000
  H   H314      1.0  0.04844  0.33748  0.91315  1.0000
  C   C265      1.0  0.05697  0.35171  0.96440  1.0000
  H   H315      1.0  0.09988  0.47844  0.87318  1.0000
  H   H316      1.0  0.99738  0.44386  0.91904  1.0000
  N   N18       1.0  0.20125  0.07941  0.65768  1.0000
  H   H317      1.0  0.03041  0.23219  0.65723  1.0000
  C   C266      1.0  0.00903  0.31897  0.68668  1.0000
  C   C267      1.0  0.00121  0.45791  0.91623  1.0000
  Fe  Fe35      1.0  0.07047  0.28548  0.66443  1.0000
  H   H318      1.0  0.21362  0.40143  0.78639  1.0000
  H   H319      1.0  0.17711  0.03221  0.69808  1.0000
  C   C268      1.0  0.22444  0.35178  0.93130  1.0000
  H   H320      1.0  0.20091  0.39900  0.81837  1.0000
  C   C269      1.0  0.18673  0.09409  0.66213  1.0000
  C   C270      1.0  0.11308  0.45329  0.83720  1.0000
  H   H321      1.0  0.08039  0.22716  0.67266  1.0000
  H   H322      1.0  0.04930  0.20610  0.66046  1.0000
  H   H323      1.0  0.22903  0.38361  0.80736  1.0000
  S   S69       1.0  0.12215  0.29636  0.65644  1.0000
  C   C271      1.0  0.01319  0.33284  0.67286  1.0000
  H   H324      1.0  0.23695  0.33743  0.89866  1.0000
  C   C272      1.0  0.23870  0.39186  0.81271  1.0000
  H   H325      1.0  0.05610  0.23401  0.67389  1.0000
  C   C273      1.0  0.02103  0.28160  0.66453  1.0000
  C   C274      1.0  0.02079  0.39635  0.98923  1.0000
  C   C275      1.0  0.12180  0.48464  0.82992  1.0000
  H   H326      1.0  0.19199  0.10810  0.65943  1.0000
  H   H327      1.0  0.22781  0.06901  0.66700  1.0000
  H   H328      1.0  0.22387  0.09373  0.66552  1.0000
  H   H329      1.0  0.99639  0.42961  0.98630  1.0000
  H   H330      1.0  0.23097  0.32731  0.96127  1.0000
  C   C276      1.0  0.24042  0.32443  0.90650  1.0000
  H   H331      1.0  0.23989  0.30975  0.88227  1.0000
  Fe  Fe36      1.0  0.02716  0.56893  0.10762  1.0000
  S   S70       1.0  0.05771  0.57365  0.10691  1.0000
  C   C277      1.0  0.23603  0.64577  0.17215  1.0000
  S   S71       1.0  0.02109  0.54519  0.09199  1.0000
  Fe  Fe37      1.0  0.16949  0.59020  0.17998  1.0000
  S   S72       1.0  0.17621  0.57320  0.20647  1.0000
  S   S73       1.0  0.18737  0.60774  0.15849  1.0000
  Fe  Fe38      1.0  0.12878  0.58121  0.18533  1.0000
  S   S74       1.0  0.13292  0.56346  0.21193  1.0000
  S   S75       1.0  0.09929  0.58835  0.17719  1.0000
  Fe  Fe39      1.0  0.14951  0.58601  0.21958  1.0000
  S   S76       1.0  0.14641  0.59173  0.25042  1.0000
  Fe  Fe40      1.0  0.15891  0.55182  0.19722  1.0000
  S   S77       1.0  0.17072  0.52155  0.20009  1.0000
  S   S78       1.0  0.14391  0.60447  0.19375  1.0000
  S   S79       1.0  0.15371  0.56806  0.16995  1.0000
  H   H332      1.0  0.15196  0.53289  0.23531  1.0000
  H   H333      1.0  0.20793  0.62538  0.12723  1.0000
  S   S80       1.0  0.11339  0.65793  0.29921  1.0000
  C   C278      1.0  0.12246  0.63916  0.28601  1.0000
  C   C279      1.0  0.12449  0.64221  0.26653  1.0000
  C   C280      1.0  0.13140  0.62790  0.25542  1.0000
  C   C281      1.0  0.13666  0.61026  0.26360  1.0000
  C   C282      1.0  0.13456  0.60719  0.28306  1.0000
  C   C283      1.0  0.12742  0.62144  0.29417  1.0000
  H   H334      1.0  0.12075  0.65581  0.25997  1.0000
  H   H335      1.0  0.13296  0.63063  0.24053  1.0000
  H   H336      1.0  0.13851  0.59366  0.28964  1.0000
  H   H337      1.0  0.12596  0.61875  0.30907  1.0000
  C   C284      1.0  0.21173  0.60806  0.15258  1.0000
  H   H338      1.0  0.07841  0.67326  0.28625  1.0000
  C   C285      1.0  0.99216  0.56639  0.03163  1.0000
  C   C286      1.0  0.22497  0.59913  0.16399  1.0000
  H   H339      1.0  0.17616  0.50912  0.23785  1.0000
  H   H340      1.0  0.17777  0.50472  0.28771  1.0000
  H   H341      1.0  0.22056  0.59125  0.17667  1.0000
  C   C287      1.0  0.06880  0.57535  0.12747  1.0000
  C   C288      1.0  0.08800  0.57131  0.12763  1.0000
  C   C289      1.0  0.09750  0.57424  0.14313  1.0000
  C   C290      1.0  0.08791  0.58182  0.15839  1.0000
  C   C291      1.0  0.06867  0.58550  0.15835  1.0000
  C   C292      1.0  0.05912  0.58208  0.14308  1.0000
  H   H342      1.0  0.09560  0.56613  0.11559  1.0000
  H   H343      1.0  0.11223  0.57101  0.14303  1.0000
  H   H344      1.0  0.06111  0.59135  0.17007  1.0000
  H   H345      1.0  0.04437  0.58538  0.14310  1.0000
  H   H346      1.0  0.06404  0.62648  0.13530  1.0000
  C   C293      1.0  0.07818  0.61757  0.11039  1.0000
  H   H347      1.0  0.16577  0.50146  0.25987  1.0000
  H   H348      1.0  0.22447  0.64361  0.16429  1.0000
  H   H349      1.0  0.99585  0.51951  0.05809  1.0000
  C   C294      1.0  0.99899  0.51415  0.04427  1.0000
  H   H350      1.0  0.02243  0.53950  0.03147  1.0000
  C   C295      1.0  0.18464  0.54185  0.24604  1.0000
  C   C296      1.0  0.07311  0.64107  0.27113  1.0000
  H   H351      1.0  0.02699  0.67386  0.28841  1.0000
  C   C297      1.0  0.03998  0.64287  0.26920  1.0000
  H   H352      1.0  0.04324  0.52607  0.03738  1.0000
  C   C298      1.0  0.23453  0.64239  0.19133  1.0000
  N   N19       1.0  0.01911  0.51059  0.04012  1.0000
  H   H353      1.0  0.03061  0.62821  0.24772  1.0000
  C   C299      1.0  0.17388  0.52232  0.30937  1.0000
  H   H354      1.0  0.06556  0.61531  0.10425  1.0000
  H   H355      1.0  0.08539  0.64429  0.27715  1.0000
  C   C300      1.0  0.02256  0.50423  0.02134  1.0000
  H   H356      1.0  0.18069  0.55692  0.24632  1.0000
  H   H357      1.0  0.09357  0.49069  0.14292  1.0000
  S   S81       1.0  0.00446  0.50729  0.12912  1.0000
  H   H358      1.0  0.05812  0.68423  0.27623  1.0000
  H   H359      1.0  0.02584  0.65318  0.30437  1.0000
  H   H360      1.0  0.19856  0.53906  0.25144  1.0000
  H   H361      1.0  0.06317  0.50339  0.13475  1.0000
  H   H362      1.0  0.08923  0.62497  0.25143  1.0000
  C   C301      1.0  0.06161  0.64894  0.31009  1.0000
  C   C302      1.0  0.02813  0.52797  0.04098  1.0000
  C   C303      1.0  0.05533  0.64781  0.27808  1.0000
  H   H363      1.0  0.02602  0.53305  0.05498  1.0000
  H   H364      1.0  0.99268  0.52474  0.03420  1.0000
  Fe  Fe41      1.0  0.99638  0.56303  0.08254  1.0000
  C   C304      1.0  0.23701  0.61966  0.13124  1.0000
  H   H365      1.0  0.02332  0.59158  0.00494  1.0000
  H   H366      1.0  0.07663  0.64522  0.30753  1.0000
  N   N20       1.0  0.12873  0.62317  0.13597  1.0000
  C   C305      1.0  0.12609  0.63142  0.15398  1.0000
  C   C306      1.0  0.13816  0.60450  0.13934  1.0000
  C   C307      1.0  0.14111  0.63479  0.12354  1.0000
  C   C308      1.0  0.11124  0.62169  0.12731  1.0000
  C   C309      1.0  0.09358  0.62584  0.13638  1.0000
  H   H367      1.0  0.11806  0.62260  0.16453  1.0000
  H   H368      1.0  0.13952  0.63269  0.15993  1.0000
  H   H369      1.0  0.11888  0.64549  0.15252  1.0000
  H   H370      1.0  0.12935  0.59549  0.14881  1.0000
  H   H371      1.0  0.15144  0.60497  0.14582  1.0000
  H   H372      1.0  0.14146  0.59754  0.12644  1.0000
  H   H373      1.0  0.14566  0.62848  0.11049  1.0000
  H   H374      1.0  0.13415  0.64869  0.11986  1.0000
  H   H375      1.0  0.15405  0.63672  0.13014  1.0000
  H   H376      1.0  0.09184  0.62999  0.15028  1.0000
  C   C310      1.0  0.16649  0.55137  0.28253  1.0000
  Fe  Fe42      1.0  0.00322  0.53688  0.11718  1.0000
  H   H377      1.0  0.09569  0.60761  0.08789  1.0000
  H   H378      1.0  0.16350  0.56309  0.27269  1.0000
  S   S82       1.0  0.00350  0.58782  0.09635  1.0000
  H   H379      1.0  0.16266  0.56861  0.30517  1.0000
  H   H380      1.0  0.02330  0.50248  0.06895  1.0000
  C   C311      1.0  0.11154  0.61518  0.10949  1.0000
  C   C312      1.0  0.16598  0.55468  0.30116  1.0000
  H   H381      1.0  0.13210  0.51251  0.20007  1.0000
  C   C313      1.0  0.07544  0.63001  0.25635  1.0000
  C   C314      1.0  0.00307  0.57651  0.99396  1.0000
  H   H382      1.0  0.12438  0.61108  0.10203  1.0000
  C   C315      1.0  0.07737  0.62388  0.12791  1.0000
  H   H383      1.0  0.06204  0.61683  0.23645  1.0000
  H   H384      1.0  0.18596  0.53913  0.23115  1.0000
  H   H385      1.0  0.17675  0.51108  0.31988  1.0000
  C   C316      1.0  0.01215  0.58270  0.00832  1.0000
  C   C317      1.0  0.09522  0.61318  0.10122  1.0000
  H   H386      1.0  0.01078  0.52975  0.00700  1.0000
  C   C318      1.0  0.06328  0.67636  0.28890  1.0000
  H   H387      1.0  0.14164  0.52818  0.25835  1.0000
  C   C319      1.0  0.17442  0.51886  0.29074  1.0000
  C   C320      1.0  0.02606  0.49706  0.05508  1.0000
  H   H388      1.0  0.02593  0.64733  0.27346  1.0000
  C   C321      1.0  0.01737  0.51605  0.00562  1.0000
  C   C322      1.0  0.03395  0.66527  0.29970  1.0000
  C   C323      1.0  0.21795  0.61835  0.13619  1.0000
  C   C324      1.0  0.06015  0.62540  0.24794  1.0000
  C   C325      1.0  0.17071  0.53338  0.27670  1.0000
  S   S83       1.0  0.01093  0.55906  0.13351  1.0000
  N   N21       1.0  0.05339  0.65940  0.29387  1.0000
  C   C326      1.0  0.00685  0.57755  0.02706  1.0000
  H   H389      1.0  0.05481  0.63591  0.31419  1.0000
  H   H390      1.0  0.14853  0.55082  0.25053  1.0000
  C   C327      1.0  0.04247  0.63183  0.25434  1.0000
  N   N22       1.0  0.17100  0.53035  0.25684  1.0000
  C   C328      1.0  0.17597  0.51084  0.25293  1.0000
  C   C329      1.0  0.15250  0.53578  0.25001  1.0000
  H   H391      1.0  0.01397  0.58239  0.03795  1.0000
  C   C330      1.0  0.16016  0.50074  0.19781  1.0000
  H   H392      1.0  0.19004  0.50600  0.25716  1.0000
  H   H393      1.0  0.03311  0.67381  0.31170  1.0000
  C   C331      1.0  0.14099  0.50000  0.19864  1.0000
  H   H394      1.0  0.06165  0.68572  0.30025  1.0000
  H   H395      1.0  0.22179  0.63779  0.19827  1.0000
  H   H396      1.0  0.04125  0.49391  0.05310  1.0000
  C   C332      1.0  0.16966  0.54018  0.31457  1.0000
  C   C333      1.0  0.99773  0.49379  0.11263  1.0000
  H   H397      1.0  0.99180  0.50131  0.04415  1.0000
  H   H398      1.0  0.06017  0.65717  0.32227  1.0000
  Fe  Fe43      1.0  0.08936  0.58383  0.49402  1.0000
  S   S84       1.0  0.11688  0.56965  0.50086  1.0000
  S   S85       1.0  0.08352  0.60995  0.47494  1.0000
  Fe  Fe44      1.0  0.06878  0.55765  0.52186  1.0000
  S   S86       1.0  0.09447  0.54186  0.53130  1.0000
  S   S87       1.0  0.04192  0.54636  0.53208  1.0000
  Fe  Fe45      1.0  0.10565  0.56981  0.53070  1.0000
  S   S88       1.0  0.12432  0.57668  0.55243  1.0000
  Fe  Fe46      1.0  0.10314  0.54292  0.50110  1.0000
  S   S89       1.0  0.11443  0.51773  0.48656  1.0000
  S   S90       1.0  0.07891  0.58557  0.52387  1.0000
  S   S91       1.0  0.07667  0.55722  0.49163  1.0000
  H   H399      1.0  0.16608  0.53672  0.55087  1.0000
  S   S92       1.0  0.05404  0.95434  0.42381  1.0000
  C   C334      1.0  0.12632  0.96745  0.38547  1.0000
  H   H400      1.0  0.11554  0.96023  0.34246  1.0000
  S   S93       1.0  0.09722  0.96101  0.42954  1.0000
  Fe  Fe47      1.0  0.08135  0.95247  0.40723  1.0000
  S   S94       1.0  0.08957  0.92655  0.39260  1.0000
  Fe  Fe48      1.0  0.06975  0.96518  0.44502  1.0000
  S   S95       1.0  0.06433  0.95390  0.47447  1.0000
  H   H401      1.0  0.01096  0.96546  0.55707  1.0000
  C   C335      1.0  0.00253  0.98696  0.40403  1.0000
  H   H402      1.0  0.07896  0.60178  0.39511  1.0000
  S   S96       1.0  0.09659  0.95541  0.56913  1.0000
  S   S97       1.0  0.04652  0.97319  0.56683  1.0000
  H   H403      1.0  0.99880  0.95002  0.65447  1.0000
  H   H404      1.0  0.06582  0.92571  0.60290  1.0000
  Fe  Fe49      1.0  0.11030  0.96521  0.59237  1.0000
  S   S98       1.0  0.12242  0.94430  0.61414  1.0000
  H   H405      1.0  0.13164  0.57417  0.63975  1.0000
  Fe  Fe50      1.0  0.17186  0.84380  0.59842  1.0000
  S   S99       1.0  0.19921  0.85073  0.58442  1.0000
  S   S100      1.0  0.14547  0.86207  0.59382  1.0000
  Fe  Fe51      1.0  0.18595  0.80409  0.61066  1.0000
  S   S101      1.0  0.21470  0.80872  0.59768  1.0000
  S   S102      1.0  0.18035  0.77548  0.62572  1.0000
  Fe  Fe52      1.0  0.21195  0.83628  0.60989  1.0000
  S   S103      1.0  0.23577  0.85240  0.61848  1.0000
  Fe  Fe53      1.0  0.20025  0.82296  0.57333  1.0000
  S   S104      1.0  0.21302  0.81870  0.54417  1.0000
  S   S105      1.0  0.18402  0.83087  0.62464  1.0000
  S   S106      1.0  0.17199  0.81683  0.58555  1.0000
  Fe  Fe54      1.0  0.17278  0.79957  0.40193  1.0000
  S   S107      1.0  0.19685  0.79448  0.42011  1.0000
  S   S108      1.0  0.16747  0.77357  0.38711  1.0000
  Fe  Fe55      1.0  0.16995  0.84151  0.40800  1.0000
  S   S109      1.0  0.19404  0.83812  0.42593  1.0000
  S   S110      1.0  0.16107  0.87236  0.40621  1.0000
  Fe  Fe56      1.0  0.20805  0.82018  0.40467  1.0000
  C   C336      1.0  0.14243  0.97659  0.35630  1.0000
  Fe  Fe57      1.0  0.18092  0.81322  0.43972  1.0000
  S   S111      1.0  0.17280  0.80906  0.47098  1.0000
  S   S112      1.0  0.18471  0.82481  0.38590  1.0000
  S   S113      1.0  0.15611  0.81703  0.42252  1.0000
  Fe  Fe58      1.0  0.10066  0.64651  0.63613  1.0000
  S   S114      1.0  0.08835  0.67579  0.63225  1.0000
  S   S115      1.0  0.09198  0.62553  0.61767  1.0000
  H   H406      1.0  0.16993  0.51276  0.55880  1.0000
  H   H407      1.0  0.13321  0.53072  0.51650  1.0000
  S   S116      1.0  0.12773  0.65526  0.64397  1.0000
  Fe  Fe59      1.0  0.10411  0.64882  0.37143  1.0000
  S   S117      1.0  0.08337  0.67158  0.37945  1.0000
  S   S118      1.0  0.11551  0.62568  0.39155  1.0000
  Fe  Fe60      1.0  0.06843  0.66587  0.35484  1.0000
  S   S119      1.0  0.03876  0.65664  0.35665  1.0000
  Fe  Fe61      1.0  0.10094  0.69030  0.35989  1.0000
  S   S120      1.0  0.10631  0.71831  0.37088  1.0000
  S   S121      1.0  0.08844  0.64173  0.34812  1.0000
  S   S122      1.0  0.12247  0.66740  0.35293  1.0000
  C   C337      1.0  0.05741  0.49267  0.49174  1.0000
  C   C338      1.0  0.01608  0.66584  0.35155  1.0000
  C   C339      1.0  0.01189  0.68455  0.34615  1.0000
  H   H408      1.0  0.02541  0.62255  0.45709  1.0000
  H   H409      1.0  0.07467  0.72773  0.62980  1.0000
  H   H410      1.0  0.15913  0.91264  0.57682  1.0000
  Fe  Fe62      1.0  0.07550  0.97935  0.57298  1.0000
  H   H411      1.0  0.07588  0.79835  0.64260  1.0000
  C   C340      1.0  0.15019  0.75817  0.38325  1.0000
  C   C341      1.0  0.13141  0.76146  0.38873  1.0000
  C   C342      1.0  0.11837  0.74918  0.38482  1.0000
  C   C343      1.0  0.12371  0.73325  0.37550  1.0000
  C   C344      1.0  0.14254  0.72975  0.37034  1.0000
  C   C345      1.0  0.15556  0.74212  0.37408  1.0000
  H   H412      1.0  0.12686  0.77364  0.39573  1.0000
  H   H413      1.0  0.10393  0.75220  0.38894  1.0000
  H   H414      1.0  0.14706  0.71769  0.36314  1.0000
  H   H415      1.0  0.16995  0.73927  0.36971  1.0000
  C   C346      1.0  0.16405  0.75828  0.62591  1.0000
  C   C347      1.0  0.16493  0.74300  0.63935  1.0000
  C   C348      1.0  0.15286  0.72869  0.63979  1.0000
  C   C349      1.0  0.13976  0.72928  0.62662  1.0000
  C   C350      1.0  0.13875  0.74465  0.61327  1.0000
  C   C351      1.0  0.15069  0.75907  0.61296  1.0000
  Fe  Fe63      1.0  0.05105  0.98384  0.41199  1.0000
  H   H416      1.0  0.00783  0.60032  0.44514  1.0000
  C   C352      1.0  0.15107  0.49963  0.53295  1.0000
  H   H417      1.0  0.14971  0.77064  0.60253  1.0000
  C   C353      1.0  0.20135  0.81739  0.52378  1.0000
  C   C354      1.0  0.21170  0.81684  0.50667  1.0000
  C   C355      1.0  0.20315  0.81493  0.49026  1.0000
  C   C356      1.0  0.18414  0.81322  0.49083  1.0000
  C   C357      1.0  0.17377  0.81392  0.50796  1.0000
  C   C358      1.0  0.18225  0.81621  0.52430  1.0000
  H   H418      1.0  0.22647  0.81775  0.50605  1.0000
  H   H419      1.0  0.21134  0.81435  0.47724  1.0000
  H   H420      1.0  0.15905  0.81262  0.50856  1.0000
  H   H421      1.0  0.17404  0.81672  0.53729  1.0000
  H   H422      1.0  0.03922  0.58294  0.51285  1.0000
  H   H423      1.0  0.08335  0.93959  0.60819  1.0000
  C   C359      1.0  0.12925  0.92160  0.60819  1.0000
  C   C360      1.0  0.11957  0.91328  0.59580  1.0000
  C   C361      1.0  0.12460  0.89496  0.59189  1.0000
  C   C362      1.0  0.13969  0.88487  0.59988  1.0000
  C   C363      1.0  0.14958  0.89319  0.61211  1.0000
  C   C364      1.0  0.14419  0.91142  0.61645  1.0000
  H   H424      1.0  0.10787  0.92074  0.58958  1.0000
  H   H425      1.0  0.11680  0.88856  0.58253  1.0000
  H   H426      1.0  0.16117  0.88550  0.61844  1.0000
  H   H427      1.0  0.15166  0.91767  0.62618  1.0000
  C   C365      1.0  0.13998  0.88604  0.40427  1.0000
  C   C366      1.0  0.13860  0.90373  0.41064  1.0000
  C   C367      1.0  0.12297  0.91602  0.40773  1.0000
  C   C368      1.0  0.10866  0.91085  0.39809  1.0000
  C   C369      1.0  0.10983  0.89301  0.39205  1.0000
  C   C370      1.0  0.12536  0.88055  0.39527  1.0000
  H   H428      1.0  0.14993  0.90810  0.41749  1.0000
  H   H429      1.0  0.12230  0.92964  0.41248  1.0000
  H   H430      1.0  0.09882  0.88890  0.38456  1.0000
  H   H431      1.0  0.12636  0.86703  0.39014  1.0000
  C   C371      1.0  0.08264  0.95710  0.48765  1.0000
  C   C372      1.0  0.08279  0.94902  0.50584  1.0000
  C   C373      1.0  0.09669  0.95248  0.51698  1.0000
  C   C374      1.0  0.11082  0.96346  0.50971  1.0000
  H   H432      1.0  0.10598  0.97772  0.35692  1.0000
  C   C375      1.0  0.09690  0.96787  0.48026  1.0000
  H   H433      1.0  0.07182  0.94058  0.51154  1.0000
  H   H434      1.0  0.09647  0.94662  0.53118  1.0000
  C   C376      1.0  0.02892  0.93906  0.60999  1.0000
  H   H435      1.0  0.01162  0.64714  0.63503  1.0000
  H   H436      1.0  0.04096  0.65642  0.64518  1.0000
  N   N23       1.0  0.05832  0.94201  0.62601  1.0000
  H   H437      1.0  0.19517  0.88902  0.50453  1.0000
  C   C377      1.0  0.11119  0.97076  0.49121  1.0000
  H   H438      1.0  0.04741  0.50495  0.52469  1.0000
  C   C378      1.0  0.00168  0.96803  0.40912  1.0000
  H   H439      1.0  0.08505  0.89107  0.48436  1.0000
  H   H440      1.0  0.03629  0.93660  0.59689  1.0000
  H   H441      1.0  0.01404  0.95968  0.41277  1.0000
  H   H442      1.0  0.13082  0.53555  0.55611  1.0000
  C   C379      1.0  0.09208  0.61360  0.45156  1.0000
  C   C380      1.0  0.08590  0.62979  0.44101  1.0000
  C   C381      1.0  0.09252  0.63337  0.42245  1.0000
  C   C382      1.0  0.10570  0.62098  0.41437  1.0000
  C   C383      1.0  0.11173  0.60469  0.42485  1.0000
  C   C384      1.0  0.10484  0.60092  0.44334  1.0000
  H   H443      1.0  0.07607  0.63971  0.44728  1.0000
  H   H444      1.0  0.08765  0.64584  0.41449  1.0000
  H   H445      1.0  0.12191  0.59501  0.41868  1.0000
  H   H446      1.0  0.10969  0.58840  0.45131  1.0000
  C   C385      1.0  0.11538  0.59112  0.56995  1.0000
  C   C386      1.0  0.12751  0.59914  0.58044  1.0000
  C   C387      1.0  0.12069  0.61026  0.59474  1.0000
  C   C388      1.0  0.10164  0.61314  0.59889  1.0000
  C   C389      1.0  0.08960  0.60496  0.58850  1.0000
  C   C390      1.0  0.09637  0.59420  0.57401  1.0000
  H   H447      1.0  0.14224  0.59684  0.57741  1.0000
  H   H448      1.0  0.13015  0.61638  0.60265  1.0000
  H   H449      1.0  0.07485  0.60698  0.59166  1.0000
  H   H450      1.0  0.08686  0.58804  0.56620  1.0000
  C   C391      1.0  0.16788  0.73439  0.55926  1.0000
  C   C392      1.0  0.01142  0.58712  0.50418  1.0000
  C   C393      1.0  0.02615  0.57697  0.51270  1.0000
  C   C394      1.0  0.02374  0.55932  0.52148  1.0000
  C   C395      1.0  0.00675  0.55176  0.52149  1.0000
  H   H451      1.0  0.22094  0.88277  0.65007  1.0000
  H   H452      1.0  0.01296  0.60104  0.49809  1.0000
  H   H453      1.0  0.13875  0.96792  0.39327  1.0000
  H   H454      1.0  0.17515  0.74215  0.64947  1.0000
  N   N24       1.0  0.18911  0.76073  0.55696  1.0000
  C   C396      1.0  0.18296  0.77710  0.56704  1.0000
  C   C397      1.0  0.20957  0.75828  0.55616  1.0000
  C   C398      1.0  0.18366  0.76478  0.53762  1.0000
  C   C399      1.0  0.18107  0.74425  0.56689  1.0000
  C   C400      1.0  0.18582  0.73807  0.58514  1.0000
  C   C401      1.0  0.06527  0.92684  0.63935  1.0000
  C   C402      1.0  0.17803  0.72290  0.59502  1.0000
  H   H455      1.0  0.13824  0.89961  0.35543  1.0000
  C   C403      1.0  0.03697  0.62501  0.40114  1.0000
  H   H456      1.0  0.18762  0.77577  0.58136  1.0000
  H   H457      1.0  0.18846  0.78989  0.55986  1.0000
  H   H458      1.0  0.16762  0.77929  0.56829  1.0000
  C   C404      1.0  0.11321  0.96362  0.35708  1.0000
  H   H459      1.0  0.21595  0.77023  0.54811  1.0000
  H   H460      1.0  0.21475  0.74552  0.54953  1.0000
  H   H461      1.0  0.16854  0.76836  0.53714  1.0000
  H   H462      1.0  0.19042  0.77691  0.53039  1.0000
  H   H463      1.0  0.18776  0.75293  0.52923  1.0000
  H   H464      1.0  0.19513  0.74529  0.59222  1.0000
  H   H465      1.0  0.02266  0.69403  0.34494  1.0000
  H   H466      1.0  0.18151  0.71875  0.60912  1.0000
  Fe  Fe64      1.0  0.11456  0.68462  0.64242  1.0000
  H   H467      1.0  0.21502  0.75732  0.57009  1.0000
  H   H468      1.0  0.02615  0.51693  0.50508  1.0000
  H   H469      1.0  0.22970  0.78357  0.39065  1.0000
  C   C405      1.0  0.01118  0.65745  0.64482  1.0000
  C   C406      1.0  0.03798  0.94217  0.62591  1.0000
  H   H470      1.0  0.02818  0.63569  0.39398  1.0000
  H   H471      1.0  0.11296  0.66217  0.48161  1.0000
  C   C407      1.0  0.13316  0.69877  0.42164  1.0000
  H   H472      1.0  0.99533  0.63332  0.59328  1.0000
  H   H473      1.0  0.07868  0.96062  0.63083  1.0000
  H   H474      1.0  0.16066  0.95339  0.54377  1.0000
  H   H475      1.0  0.21670  0.80718  0.36718  1.0000
  C   C408      1.0  0.16681  0.52241  0.54647  1.0000
  H   H476      1.0  0.05152  0.56937  0.44683  1.0000
  H   H477      1.0  0.12219  0.97916  0.48554  1.0000
  H   H478      1.0  0.18025  0.92224  0.56820  1.0000
  H   H479      1.0  0.12120  0.51580  0.54872  1.0000
  C   C409      1.0  0.06814  0.93930  0.60771  1.0000
  H   H480      1.0  0.05823  0.62540  0.37892  1.0000
  C   C410      1.0  0.11686  0.57809  0.64359  1.0000
  C   C411      1.0  0.14100  0.94402  0.36662  1.0000
  C   C412      1.0  0.15844  0.94096  0.37433  1.0000
  C   C413      1.0  0.13400  0.92859  0.35969  1.0000
  C   C414      1.0  0.16829  0.92363  0.37489  1.0000
  C   C415      1.0  0.14404  0.91135  0.36025  1.0000
  C   C416      1.0  0.16113  0.90888  0.36781  1.0000
  C   C417      1.0  0.04405  0.97826  0.51741  1.0000
  H   H481      1.0  0.12057  0.92926  0.35428  1.0000
  H   H482      1.0  0.16445  0.95187  0.38028  1.0000
  H   H483      1.0  0.18137  0.92142  0.38123  1.0000
  H   H484      1.0  0.05848  0.96212  0.64613  1.0000
  H   H485      1.0  0.16854  0.89531  0.36882  1.0000
  H   H486      1.0  0.13846  0.62297  0.44551  1.0000
  N   N25       1.0  0.03741  0.59655  0.44785  1.0000
  C   C418      1.0  0.01881  0.58945  0.44886  1.0000
  C   C419      1.0  0.05018  0.58124  0.45549  1.0000
  C   C420      1.0  0.03688  0.61190  0.45990  1.0000
  C   C421      1.0  0.04301  0.60361  0.42862  1.0000
  C   C422      1.0  0.06028  0.59811  0.41946  1.0000
  C   C423      1.0  0.03156  0.61740  0.41893  1.0000
  C   C424      1.0  0.06553  0.60583  0.40168  1.0000
  H   H487      1.0  0.00299  0.93807  0.59785  1.0000
  C   C425      1.0  0.05393  0.61925  0.39257  1.0000
  H   H488      1.0  0.04573  0.74452  0.64410  1.0000
  H   H489      1.0  0.04994  0.61895  0.45786  1.0000
  C   C426      1.0  0.99457  0.96742  0.48032  1.0000
  H   H490      1.0  0.04531  0.57590  0.46976  1.0000
  H   H491      1.0  0.06415  0.58588  0.45671  1.0000
  H   H492      1.0  0.16922  0.54281  0.32902  1.0000
  H   H493      1.0  0.99728  0.65208  0.44715  1.0000
  C   C427      1.0  0.00176  0.65380  0.35314  1.0000
  C   C428      1.0  0.99951  0.50985  0.49956  1.0000
  C   C429      1.0  0.00960  0.97250  0.46848  1.0000
  H   H494      1.0  0.01852  0.62270  0.42519  1.0000
  H   H495      1.0  0.10334  0.95412  0.36453  1.0000
  H   H496      1.0  0.06372  0.95047  0.59707  1.0000
  H   H497      1.0  0.15497  0.97825  0.36355  1.0000
  N   N26       1.0  0.14945  0.51870  0.53871  1.0000
  C   C430      1.0  0.99098  0.97453  0.57834  1.0000
  S   S123      1.0  0.23916  0.81987  0.39529  1.0000
  H   H498      1.0  0.01851  0.57833  0.43945  1.0000
  C   C431      1.0  0.99397  0.66534  0.65163  1.0000
  C   C432      1.0  0.15179  0.49575  0.51411  1.0000
  H   H499      1.0  0.01453  0.58362  0.46315  1.0000
  H   H500      1.0  0.03537  0.60693  0.47482  1.0000
  H   H501      1.0  0.13702  0.51316  0.56661  1.0000
  N   N27       1.0  0.13083  0.96251  0.36628  1.0000
  H   H502      1.0  0.00484  0.63927  0.35720  1.0000
  H   H503      1.0  0.14375  0.54725  0.52812  1.0000
  H   H504      1.0  0.23204  0.75973  0.38620  1.0000
  H   H505      1.0  0.00485  0.53813  0.52832  1.0000
  C   C433      1.0  0.17921  0.90586  0.52383  1.0000
  H   H506      1.0  0.21250  0.80067  0.34459  1.0000
  C   C434      1.0  0.13401  0.52084  0.55314  1.0000
  C   C435      1.0  0.99230  0.56163  0.51236  1.0000
  S   S124      1.0  0.07732  0.98138  0.39325  1.0000
  C   C436      1.0  0.13295  0.63696  0.44763  1.0000
  H   H507      1.0  0.07026  0.58823  0.42587  1.0000
  C   C437      1.0  0.22420  0.77316  0.38272  1.0000
  H   H508      1.0  0.19826  0.79314  0.36452  1.0000
  H   H509      1.0  0.15116  0.50648  0.50281  1.0000
  C   C438      1.0  0.10619  0.48977  0.51397  1.0000
  C   C439      1.0  0.07578  0.72126  0.64419  1.0000
  H   H510      1.0  0.17875  0.52093  0.53605  1.0000
  C   C440      1.0  0.02427  0.97732  0.57810  1.0000
  C   C441      1.0  0.16504  0.71365  0.58724  1.0000
  H   H511      1.0  0.23612  0.84241  0.56047  1.0000
  C   C442      1.0  0.00346  0.98765  0.60351  1.0000
  C   C443      1.0  0.21274  0.79576  0.35952  1.0000
  H   H512      1.0  0.20393  0.76229  0.35678  1.0000
  H   H513      1.0  0.05868  0.97413  0.52011  1.0000
  C   C444      1.0  0.10037  0.74959  0.65274  1.0000
  C   C445      1.0  0.14587  0.53311  0.52327  1.0000
  H   H514      1.0  0.14698  0.97284  0.34209  1.0000
  C   C446      1.0  0.08266  0.78468  0.64552  1.0000
  C   C447      1.0  0.16000  0.71935  0.56940  1.0000
  H   H515      1.0  0.16727  0.85923  0.55058  1.0000
  H   H516      1.0  0.03242  0.94800  0.65478  1.0000
  H   H517      1.0  0.11138  0.58659  0.63133  1.0000
  H   H518      1.0  0.13322  0.93783  0.55388  1.0000
  C   C448      1.0  0.01811  0.50560  0.50287  1.0000
  H   H519      1.0  0.15759  0.53354  0.51254  1.0000
  C   C449      1.0  0.08078  0.75132  0.65352  1.0000
  H   H520      1.0  0.11877  0.98136  0.38580  1.0000
  C   C450      1.0  0.16501  0.92387  0.56741  1.0000
  C   C451      1.0  0.16652  0.94060  0.53748  1.0000
  H   H521      1.0  0.18180  0.94067  0.53707  1.0000
  H   H522      1.0  0.10496  0.93439  0.46259  1.0000
  H   H523      1.0  0.10025  0.69969  0.40588  1.0000
  H   H524      1.0  0.12370  0.92057  0.47243  1.0000
  H   H525      1.0  0.11745  0.95728  0.39329  1.0000
  H   H526      1.0  0.14804  0.69418  0.42261  1.0000
  C   C452      1.0  0.06340  0.95984  0.63165  1.0000
  C   C453      1.0  0.12588  0.64116  0.46518  1.0000
  C   C454      1.0  0.00695  0.98564  0.45356  1.0000
  H   H527      1.0  0.12977  0.89005  0.48565  1.0000
  H   H528      1.0  0.15058  0.86229  0.48194  1.0000
  H   H529      1.0  0.05972  0.92864  0.65377  1.0000
  H   H530      1.0  0.09727  0.69739  0.43036  1.0000
  C   C455      1.0  0.09255  0.90387  0.48194  1.0000
  C   C456      1.0  0.11377  0.92127  0.46151  1.0000
  C   C457      1.0  0.12831  0.88229  0.47401  1.0000
  C   C458      1.0  0.14035  0.86650  0.47201  1.0000
  H   H531      1.0  0.10188  0.90392  0.49328  1.0000
  S   S125      1.0  0.08807  0.98809  0.59780  1.0000
  C   C459      1.0  0.13951  0.92500  0.54802  1.0000
  H   H532      1.0  0.15973  0.93697  0.57345  1.0000
  H   H533      1.0  0.16206  0.94218  0.52308  1.0000
  C   C460      1.0  0.11069  0.76496  0.64855  1.0000
  H   H534      1.0  0.13978  0.60212  0.65426  1.0000
  N   N28       1.0  0.10254  0.90508  0.46334  1.0000
  H   H535      1.0  0.08220  0.91586  0.48357  1.0000
  H   H536      1.0  0.12189  0.92233  0.44789  1.0000
  H   H537      1.0  0.12670  0.68727  0.38931  1.0000
  C   C461      1.0  0.18208  0.87232  0.52684  1.0000
  H   H538      1.0  0.12642  0.85367  0.43211  1.0000
  N   N29       1.0  0.15991  0.92368  0.54808  1.0000
  H   H539      1.0  0.13504  0.92535  0.53370  1.0000
  S   S126      1.0  0.08416  0.68619  0.33562  1.0000
  C   C462      1.0  0.11489  0.88810  0.46106  1.0000
  C   C463      1.0  0.13951  0.85615  0.45703  1.0000
  H   H540      1.0  0.14908  0.84408  0.45534  1.0000
  H   H541      1.0  0.18304  0.91830  0.51568  1.0000
  H   H542      1.0  0.08878  0.60179  0.65153  1.0000
  H   H543      1.0  0.13330  0.91324  0.55638  1.0000
  C   C464      1.0  0.18630  0.88908  0.51721  1.0000
  H   H544      1.0  0.15393  0.71705  0.65015  1.0000
  C   C465      1.0  0.11445  0.87724  0.44590  1.0000
  H   H545      1.0  0.06708  0.70928  0.64604  1.0000
  H   H546      1.0  0.12873  0.74534  0.60298  1.0000
  C   C466      1.0  0.11785  0.67263  0.45302  1.0000
  H   H547      1.0  0.05738  0.77210  0.64999  1.0000
  H   H548      1.0  0.99662  0.95706  0.49184  1.0000
  C   C467      1.0  0.08838  0.90851  0.44951  1.0000
  C   C468      1.0  0.12661  0.86151  0.44404  1.0000
  H   H549      1.0  0.07904  0.92111  0.45190  1.0000
  H   H550      1.0  0.13734  0.64589  0.41930  1.0000
  H   H551      1.0  0.10518  0.88077  0.43502  1.0000
  H   H552      1.0  0.10999  0.79427  0.64146  1.0000
  C   C469      1.0  0.21876  0.76431  0.35265  1.0000
  H   H553      1.0  0.12584  0.63046  0.47662  1.0000
  S   S127      1.0  0.12876  0.98361  0.57408  1.0000
  H   H554      1.0  0.07952  0.89675  0.45000  1.0000
  H   H555      1.0  0.09474  0.91099  0.43520  1.0000
  H   H556      1.0  0.15849  0.70235  0.59528  1.0000
  H   H557      1.0  0.10478  0.50026  0.52363  1.0000
  H   H558      1.0  0.12836  0.70560  0.43433  1.0000
  H   H559      1.0  0.18770  0.85934  0.52174  1.0000
  C   C470      1.0  0.00730  0.94670  0.64216  1.0000
  H   H560      1.0  0.03593  0.97467  0.53060  1.0000
  H   H561      1.0  0.14968  0.71222  0.56355  1.0000
  C   C471      1.0  0.16761  0.90627  0.54047  1.0000
  H   H562      1.0  0.16315  0.73817  0.54563  1.0000
  H   H563      1.0  0.09681  0.97425  0.46624  1.0000
  H   H564      1.0  0.13212  0.70969  0.40983  1.0000
  H   H565      1.0  0.02331  0.96604  0.47069  1.0000
  C   C472      1.0  0.00966  0.93985  0.61030  1.0000
  H   H566      1.0  0.15441  0.88806  0.56223  1.0000
  C   C473      1.0  0.16337  0.88892  0.54970  1.0000
  C   C474      1.0  0.02656  0.94568  0.64211  1.0000
  H   H567      1.0  0.99361  0.52402  0.49926  1.0000
  S   S128      1.0  0.12466  0.71117  0.62581  1.0000
  C   C475      1.0  0.12861  0.67626  0.40086  1.0000
  H   H568      1.0  0.22646  0.75069  0.35562  1.0000
  H   H569      1.0  0.14356  0.67166  0.40008  1.0000
  C   C476      1.0  0.17060  0.87226  0.54304  1.0000
  C   C477      1.0  0.10257  0.68982  0.41828  1.0000
  N   N30       1.0  0.12229  0.68301  0.41909  1.0000
  H   H570      1.0  0.11191  0.68625  0.45582  1.0000
  H   H571      1.0  0.10906  0.56549  0.64550  1.0000
  H   H572      1.0  0.12070  0.66459  0.39786  1.0000
  H   H573      1.0  0.09376  0.67818  0.41768  1.0000
  C   C478      1.0  0.13220  0.65040  0.43259  1.0000
  C   C479      1.0  0.12431  0.66865  0.43480  1.0000
  C   C480      1.0  0.11849  0.65901  0.46791  1.0000
  C   C481      1.0  0.11011  0.49476  0.49510  1.0000
  H   H574      1.0  0.12025  0.61337  0.64295  1.0000
  H   H575      1.0  0.22702  0.91490  0.63873  1.0000
  C   C482      1.0  0.00895  0.97189  0.56993  1.0000
  C   C483      1.0  0.99888  0.94391  0.62624  1.0000
  H   H576      1.0  0.12566  0.76323  0.64794  1.0000
  H   H577      1.0  0.09021  0.71536  0.64525  1.0000
  H   H578      1.0  0.06137  0.91323  0.63580  1.0000
  H   H579      1.0  0.03985  0.96937  0.50709  1.0000
  H   H580      1.0  0.23114  0.84752  0.36385  1.0000
  H   H581      1.0  0.05743  0.97167  0.62256  1.0000
  H   H582      1.0  0.20963  0.77153  0.38813  1.0000
  Fe  Fe65      1.0  0.11323  0.97540  0.55126  1.0000
  H   H583      1.0  0.08064  0.92606  0.63938  1.0000
  C   C484      1.0  0.99361  0.69112  0.34253  1.0000
  C   C485      1.0  0.02791  0.66269  0.65057  1.0000
  C   C486      1.0  0.23518  0.90758  0.64935  1.0000
  N   N31       1.0  0.22550  0.77898  0.36259  1.0000
  Fe  Fe66      1.0  0.10485  0.66193  0.32997  1.0000
  C   C487      1.0  0.02144  0.98537  0.59488  1.0000
  H   H584      1.0  0.22004  0.76791  0.33742  1.0000
  H   H585      1.0  0.99168  0.61147  0.60613  1.0000
  S   S129      1.0  0.12744  0.96883  0.52396  1.0000
  H   H586      1.0  0.01861  0.98929  0.44409  1.0000
  C   C488      1.0  0.99456  0.57937  0.50384  1.0000
  H   H587      1.0  0.05514  0.50797  0.49154  1.0000
  C   C489      1.0  0.07217  0.76940  0.64980  1.0000
  C   C490      1.0  0.10187  0.78245  0.64489  1.0000
  C   C491      1.0  0.23161  0.88954  0.65582  1.0000
  C   C492      1.0  0.04970  0.48966  0.52466  1.0000
  H   H588      1.0  0.10793  0.73626  0.65514  1.0000
  C   C493      1.0  0.12460  0.60546  0.65595  1.0000
  H   H589      1.0  0.19781  0.61266  0.76867  1.0000
  Fe  Fe67      1.0  0.01547  0.56299  0.90619  1.0000
  S   S130      1.0  0.03446  0.57214  0.88112  1.0000
  C   C494      1.0  0.01052  0.68390  0.67009  1.0000
  S   S131      1.0  0.02352  0.54992  0.93392  1.0000
  C   C495      1.0  0.13567  0.54980  0.69351  1.0000
  Fe  Fe68      1.0  0.17992  0.58363  0.82943  1.0000
  S   S132      1.0  0.17920  0.57003  0.80272  1.0000
  S   S133      1.0  0.20542  0.60031  0.83149  1.0000
  Fe  Fe69      1.0  0.14130  0.57007  0.84342  1.0000
  S   S134      1.0  0.13820  0.55644  0.81764  1.0000
  S   S135      1.0  0.12237  0.56496  0.86963  1.0000
  Fe  Fe70      1.0  0.16782  0.54557  0.82017  1.0000
  S   S136      1.0  0.17815  0.51498  0.82436  1.0000
  Fe  Fe71      1.0  0.14959  0.58208  0.80212  1.0000
  S   S137      1.0  0.13408  0.59898  0.77865  1.0000
  S   S138      1.0  0.17060  0.55843  0.84663  1.0000
  S   S139      1.0  0.15065  0.59647  0.82822  1.0000
  Fe  Fe72      1.0  0.11518  0.65239  0.67364  1.0000
  H   H590      1.0  0.16175  0.64779  0.80178  1.0000
  S   S140      1.0  0.13446  0.63637  0.69459  1.0000
  H   H591      1.0  0.13647  0.52767  0.85519  1.0000
  H   H592      1.0  0.20870  0.64172  0.77704  1.0000
  C   C496      1.0  0.15927  0.65829  0.73174  1.0000
  H   H593      1.0  0.15536  0.62526  0.79726  1.0000
  H   H594      1.0  0.19293  0.65803  0.78848  1.0000
  H   H595      1.0  0.14428  0.50353  0.85768  1.0000
  C   C497      1.0  0.13370  0.62548  0.71781  1.0000
  C   C498      1.0  0.11793  0.62674  0.73005  1.0000
  C   C499      1.0  0.11833  0.61843  0.74844  1.0000
  C   C500      1.0  0.13439  0.60861  0.75496  1.0000
  C   C501      1.0  0.15007  0.60705  0.74261  1.0000
  C   C502      1.0  0.14970  0.61544  0.72425  1.0000
  H   H596      1.0  0.10548  0.63433  0.72545  1.0000
  H   H597      1.0  0.10607  0.61974  0.75775  1.0000
  H   H598      1.0  0.16253  0.59950  0.74720  1.0000
  H   H599      1.0  0.16200  0.61428  0.71499  1.0000
  C   C503      1.0  0.18698  0.61396  0.78018  1.0000
  C   C504      1.0  0.12930  0.55931  0.67731  1.0000
  S   S141      1.0  0.10338  0.68224  0.67233  1.0000
  H   H600      1.0  0.19294  0.60680  0.79284  1.0000
  H   H601      1.0  0.11663  0.50221  0.88193  1.0000
  C   C505      1.0  0.21936  0.60639  0.84911  1.0000
  C   C506      1.0  0.21413  0.60388  0.86807  1.0000
  C   C507      1.0  0.16718  0.63350  0.79910  1.0000
  H   H602      1.0  0.20124  0.59797  0.87258  1.0000
  H   H603      1.0  0.17523  0.60622  0.77699  1.0000
  C   C508      1.0  0.05888  0.56865  0.87785  1.0000
  C   C509      1.0  0.06760  0.57421  0.86051  1.0000
  C   C510      1.0  0.08701  0.57270  0.85755  1.0000
  C   C511      1.0  0.09790  0.56586  0.87204  1.0000
  C   C512      1.0  0.08918  0.55997  0.88927  1.0000
  C   C513      1.0  0.06978  0.56119  0.89214  1.0000
  H   H604      1.0  0.05929  0.57995  0.84935  1.0000
  H   H605      1.0  0.09351  0.57730  0.84423  1.0000
  H   H606      1.0  0.09749  0.55465  0.90056  1.0000
  H   H607      1.0  0.06332  0.55661  0.90547  1.0000
  C   C514      1.0  0.14745  0.65614  0.74763  1.0000
  C   C515      1.0  0.18485  0.64474  0.74905  1.0000
  C   C516      1.0  0.10424  0.52195  0.84023  1.0000
  H   H608      1.0  0.13959  0.55108  0.72239  1.0000
  H   H609      1.0  0.20208  0.63711  0.80090  1.0000
  S   S142      1.0  0.99492  0.58428  0.91836  1.0000
  C   C517      1.0  0.02056  0.51050  0.98773  1.0000
  H   H610      1.0  0.01014  0.69412  0.67997  1.0000
  N   N32       1.0  0.18077  0.63347  0.78280  1.0000
  H   H611      1.0  0.19933  0.64011  0.74875  1.0000
  C   C518      1.0  0.13464  0.55846  0.70986  1.0000
  Fe  Fe73      1.0  0.00025  0.53214  0.93239  1.0000
  C   C519      1.0  0.23243  0.54459  0.88037  1.0000
  H   H612      1.0  0.08672  0.58132  0.66719  1.0000
  H   H613      1.0  0.01492  0.50832  0.90616  1.0000
  S   S143      1.0  0.00163  0.50265  0.94442  1.0000
  C   C520      1.0  0.13490  0.51396  0.85013  1.0000
  H   H614      1.0  0.08955  0.51856  0.84142  1.0000
  H   H615      1.0  0.18698  0.65390  0.71991  1.0000
  C   C521      1.0  0.17320  0.64240  0.76555  1.0000
  S   S144      1.0  0.04851  0.68302  0.67104  1.0000
  C   C522      1.0  0.22543  0.60935  0.88129  1.0000
  C   C523      1.0  0.09466  0.59374  0.66381  1.0000
  H   H616      1.0  0.17346  0.62714  0.81194  1.0000
  C   C524      1.0  0.19679  0.64305  0.78742  1.0000
  N   N33       1.0  0.11464  0.58847  0.66034  1.0000
  H   H617      1.0  0.14143  0.53560  0.69342  1.0000
  H   H618      1.0  0.07070  0.73591  0.68738  1.0000
  N   N34       1.0  0.04735  0.61051  0.91920  1.0000
  C   C525      1.0  0.04770  0.62317  0.93396  1.0000
  C   C526      1.0  0.03138  0.61706  0.90816  1.0000
  C   C527      1.0  0.04395  0.59182  0.92800  1.0000
  C   C528      1.0  0.06527  0.60968  0.90809  1.0000
  C   C529      1.0  0.06677  0.61347  0.88851  1.0000
  C   C530      1.0  0.08192  0.60438  0.91680  1.0000
  C   C531      1.0  0.08393  0.61233  0.87847  1.0000
  C   C532      1.0  0.09897  0.60313  0.90659  1.0000
  C   C533      1.0  0.09997  0.60715  0.88747  1.0000
  H   H619      1.0  0.05103  0.63723  0.92797  1.0000
  H   H620      1.0  0.03414  0.62448  0.94216  1.0000
  H   H621      1.0  0.05797  0.61818  0.94416  1.0000
  H   H622      1.0  0.03302  0.63109  0.90106  1.0000
  H   H623      1.0  0.01818  0.61788  0.91698  1.0000
  H   H624      1.0  0.02942  0.60739  0.89761  1.0000
  H   H625      1.0  0.05457  0.58627  0.93764  1.0000
  H   H626      1.0  0.03044  0.59177  0.93624  1.0000
  H   H627      1.0  0.04380  0.58190  0.91734  1.0000
  H   H628      1.0  0.05488  0.61680  0.88051  1.0000
  H   H629      1.0  0.08183  0.60075  0.93154  1.0000
  H   H630      1.0  0.08474  0.61476  0.86351  1.0000
  H   H631      1.0  0.11147  0.59859  0.91342  1.0000
  H   H632      1.0  0.11315  0.60559  0.87953  1.0000
  H   H633      1.0  0.23963  0.86574  0.67392  1.0000
  H   H634      1.0  0.22357  0.53515  0.88845  1.0000
  H   H635      1.0  0.22093  0.60762  0.89582  1.0000
  S   S145      1.0  0.00986  0.58372  0.97055  1.0000
  C   C534      1.0  0.12088  0.58631  0.69402  1.0000
  H   H636      1.0  0.21512  0.54849  0.85741  1.0000
  C   C535      1.0  0.12169  0.57794  0.67710  1.0000
  H   H637      1.0  0.14405  0.64633  0.77581  1.0000
  N   N35       1.0  0.11549  0.50891  0.85252  1.0000
  C   C536      1.0  0.17794  0.65259  0.73244  1.0000
  H   H638      1.0  0.15381  0.66378  0.71870  1.0000
  H   H639      1.0  0.09178  0.60251  0.67552  1.0000
  H   H640      1.0  0.13050  0.55178  0.66516  1.0000
  H   H641      1.0  0.10453  0.53649  0.84372  1.0000
  C   C537      1.0  0.23632  0.61410  0.84375  1.0000
  H   H642      1.0  0.11021  0.52598  0.87535  1.0000
  C   C538      1.0  0.15418  0.64824  0.76430  1.0000
  H   H643      1.0  0.10931  0.52173  0.82543  1.0000
  C   C539      1.0  0.02884  0.49300  0.98492  1.0000
  H   H644      1.0  0.11534  0.60045  0.69497  1.0000
  C   C540      1.0  0.02772  0.67594  0.66331  1.0000
  S   S146      1.0  0.99386  0.54313  0.90350  1.0000
  H   H645      1.0  0.12647  0.58342  0.72284  1.0000
  H   H646      1.0  0.16599  0.50837  0.78825  1.0000
  H   H647      1.0  0.04258  0.72577  0.66142  1.0000
  S   S147      1.0  0.08886  0.64214  0.66567  1.0000
  H   H648      1.0  0.12822  0.49445  0.81987  1.0000
  H   H649      1.0  0.01649  0.51981  0.97593  1.0000
  C   C541      1.0  0.17152  0.49502  0.81510  1.0000
  C   C542      1.0  0.22767  0.55201  0.86288  1.0000
  H   H650      1.0  0.13281  0.65996  0.74682  1.0000
  H   H651      1.0  0.14020  0.51512  0.83540  1.0000
  Fe  Fe74      1.0  0.00154  0.56961  0.94614  1.0000
  C   C543      1.0  0.10869  0.51161  0.87193  1.0000
  C   C544      1.0  0.12725  0.57667  0.71011  1.0000
  Fe  Fe75      1.0  0.07789  0.67184  0.66197  1.0000
  C   C545      1.0  0.16673  0.49540  0.79683  1.0000
  H   H652      1.0  0.09372  0.50950  0.87444  1.0000
  H   H653      1.0  0.12207  0.61511  0.66692  1.0000
  H   H654      1.0  0.06661  0.71361  0.68058  1.0000
  H   H655      1.0  0.23511  0.57000  0.83889  1.0000
  C   C546      1.0  0.99377  0.67866  0.66432  1.0000
  H   H656      1.0  0.04460  0.74823  0.66853  1.0000
  C   C547      1.0  0.07438  0.72609  0.67665  1.0000
  C   C548      1.0  0.01090  0.49436  0.90897  1.0000
  N   N36       1.0  0.07025  0.73475  0.65799  1.0000
  C   C549      1.0  0.23900  0.56412  0.85243  1.0000
  H   H657      1.0  0.08921  0.72140  0.67750  1.0000
  C   C550      1.0  0.04991  0.73867  0.65798  1.0000
  C   C551      1.0  0.11447  0.48978  0.84752  1.0000
  H   H658      1.0  0.24066  0.61614  0.82921  1.0000
  Fe  Fe76      1.0  0.40932  0.45665  0.07735  1.0000
  C   C552      1.0  0.37675  0.37903  0.13312  1.0000
  S   S148      1.0  0.40426  0.42627  0.07620  1.0000
  C   C553      1.0  0.24796  0.35274  0.13996  1.0000
  N   N37       1.0  0.34610  0.27214  0.05525  1.0000
  H   H659      1.0  0.41778  0.15346  0.03166  1.0000
  C   C554      1.0  0.32847  0.32341  0.99450  1.0000
  H   H660      1.0  0.25415  0.45474  0.13376  1.0000
  S   S149      1.0  0.41198  0.47113  0.10294  1.0000
  S   S150      1.0  0.43616  0.46619  0.06334  1.0000
  Fe  Fe77      1.0  0.42858  0.06901  0.02494  1.0000
  H   H661      1.0  0.47311  0.06608  0.01176  1.0000
  S   S151      1.0  0.43806  0.08270  0.04934  1.0000
  Fe  Fe78      1.0  0.41393  0.03741  0.00627  1.0000
  H   H662      1.0  0.29110  0.37713  0.10503  1.0000
  H   H663      1.0  0.35947  0.99634  0.30068  1.0000
  H   H664      1.0  0.38548  0.12320  0.17618  1.0000
  H   H665      1.0  0.35651  0.12448  0.19308  1.0000
  S   S152      1.0  0.44049  0.04042  0.01907  1.0000
  S   S153      1.0  0.40101  0.06524  0.01432  1.0000
  Fe  Fe79      1.0  0.32266  0.35816  0.09073  1.0000
  S   S154      1.0  0.29943  0.35608  0.07266  1.0000
  S   S155      1.0  0.32978  0.38651  0.09762  1.0000
  Fe  Fe80      1.0  0.32685  0.31577  0.10085  1.0000
  S   S156      1.0  0.30312  0.31113  0.08397  1.0000
  S   S157      1.0  0.34932  0.29619  0.11490  1.0000
  Fe  Fe81      1.0  0.31576  0.33122  0.06191  1.0000
  S   S158      1.0  0.32647  0.32548  0.03224  1.0000
  Fe  Fe82      1.0  0.28822  0.33658  0.09615  1.0000
  S   S159      1.0  0.25693  0.34215  0.10389  1.0000
  S   S160      1.0  0.33991  0.33499  0.07844  1.0000
  S   S161      1.0  0.31102  0.33956  0.11453  1.0000
  Fe  Fe83      1.0  0.40641  0.14666  0.13297  1.0000
  S   S162      1.0  0.41595  0.17454  0.12242  1.0000
  S   S163      1.0  0.39672  0.12532  0.11542  1.0000
  Fe  Fe84      1.0  0.40192  0.15603  0.17373  1.0000
  S   S164      1.0  0.41095  0.18488  0.16559  1.0000
  S   S165      1.0  0.39171  0.14849  0.20433  1.0000
  Fe  Fe85      1.0  0.39318  0.18688  0.14136  1.0000
  S   S166      1.0  0.37029  0.20868  0.13122  1.0000
  Fe  Fe86      1.0  0.43335  0.17087  0.14724  1.0000
  S   S167      1.0  0.46222  0.18195  0.14438  1.0000
  S   S168      1.0  0.38271  0.15902  0.15074  1.0000
  S   S169      1.0  0.42525  0.14198  0.15664  1.0000
  C   C555      1.0  0.43912  0.09359  0.32026  1.0000
  S   S170      1.0  0.36659  0.04645  0.30747  1.0000
  C   C556      1.0  0.36130  0.09690  0.18331  1.0000
  S   S171      1.0  0.32624  0.06490  0.29795  1.0000
  H   H666      1.0  0.45188  0.16215  0.17996  1.0000
  H   H667      1.0  0.38913  0.11439  0.02652  1.0000
  Fe  Fe87      1.0  0.35551  0.07349  0.29296  1.0000
  S   S172      1.0  0.37215  0.08093  0.26502  1.0000
  H   H668      1.0  0.42906  0.19465  0.19730  1.0000
  C   C557      1.0  0.38671  0.12942  0.22110  1.0000
  C   C558      1.0  0.37570  0.13288  0.23741  1.0000
  C   C559      1.0  0.37116  0.11838  0.25099  1.0000
  C   C560      1.0  0.37768  0.10007  0.24859  1.0000
  C   C561      1.0  0.38900  0.09666  0.23245  1.0000
  C   C562      1.0  0.39347  0.11114  0.21883  1.0000
  H   H669      1.0  0.37044  0.14690  0.23949  1.0000
  H   H670      1.0  0.36250  0.12138  0.26326  1.0000
  H   H671      1.0  0.39420  0.08262  0.23034  1.0000
  H   H672      1.0  0.40222  0.10814  0.20666  1.0000
  C   C563      1.0  0.46785  0.47444  0.99588  1.0000
  C   C564      1.0  0.34730  0.10420  0.21383  1.0000
  Fe  Fe88      1.0  0.33747  0.03921  0.31452  1.0000
  H   H673      1.0  0.37683  0.40751  0.13889  1.0000
  H   H674      1.0  0.34301  0.11433  0.22360  1.0000
  C   C565      1.0  0.35484  0.27174  0.11910  1.0000
  C   C566      1.0  0.34256  0.25862  0.11642  1.0000
  C   C567      1.0  0.34750  0.23953  0.12036  1.0000
  C   C568      1.0  0.36484  0.23313  0.12688  1.0000
  C   C569      1.0  0.37718  0.24625  0.12941  1.0000
  C   C570      1.0  0.37218  0.26536  0.12562  1.0000
  H   H675      1.0  0.32910  0.26314  0.11164  1.0000
  H   H676      1.0  0.33780  0.22960  0.11833  1.0000
  H   H677      1.0  0.39055  0.24167  0.13439  1.0000
  H   H678      1.0  0.38184  0.27526  0.12783  1.0000
  H   H679      1.0  0.35557  0.13051  0.16271  1.0000
  C   C571      1.0  0.31662  0.32441  0.01069  1.0000
  C   C572      1.0  0.29764  0.32383  0.00929  1.0000
  H   H680      1.0  0.27417  0.43792  0.11186  1.0000
  H   H681      1.0  0.28833  0.32446  0.02157  1.0000
  H   H682      1.0  0.29039  0.39082  0.12426  1.0000
  H   H683      1.0  0.41203  0.10416  0.02948  1.0000
  H   H684      1.0  0.39494  0.11585  0.15443  1.0000
  C   C573      1.0  0.42600  0.09526  0.06694  1.0000
  C   C574      1.0  0.40693  0.09505  0.07088  1.0000
  C   C575      1.0  0.39818  0.10457  0.08557  1.0000
  C   C576      1.0  0.40830  0.11466  0.09629  1.0000
  C   C577      1.0  0.42728  0.11532  0.09197  1.0000
  C   C578      1.0  0.43607  0.10557  0.07747  1.0000
  H   H685      1.0  0.39901  0.08709  0.06300  1.0000
  H   H686      1.0  0.38350  0.10391  0.08881  1.0000
  H   H687      1.0  0.43528  0.12295  0.10010  1.0000
  H   H688      1.0  0.45083  0.10582  0.07454  1.0000
  H   H689      1.0  0.39573  0.14462  0.03878  1.0000
  H   H690      1.0  0.36820  0.34660  0.15365  1.0000
  H   H691      1.0  0.43858  0.07728  0.27959  1.0000
  H   H692      1.0  0.36044  0.26716  0.02903  1.0000
  C   C579      1.0  0.35790  0.34893  0.11908  1.0000
  H   H693      1.0  0.44259  0.12017  0.03379  1.0000
  C   C580      1.0  0.38284  0.41617  0.08087  1.0000
  C   C581      1.0  0.38122  0.39836  0.07551  1.0000
  C   C582      1.0  0.36496  0.38923  0.08014  1.0000
  C   C583      1.0  0.35020  0.39774  0.09045  1.0000
  C   C584      1.0  0.35174  0.41561  0.09566  1.0000
  C   C585      1.0  0.36791  0.42484  0.09081  1.0000
  H   H694      1.0  0.39271  0.39155  0.06784  1.0000
  H   H695      1.0  0.36395  0.37560  0.07582  1.0000
  H   H696      1.0  0.34042  0.42234  0.10362  1.0000
  H   H697      1.0  0.36900  0.43848  0.09512  1.0000
  C   C586      1.0  0.41014  0.14074  0.03351  1.0000
  C   C587      1.0  0.48534  0.17361  0.14906  1.0000
  H   H698      1.0  0.37136  0.32414  0.14555  1.0000
  H   H699      1.0  0.33610  0.28237  0.08119  1.0000
  H   H700      1.0  0.34081  0.08116  0.23327  1.0000
  C   C588      1.0  0.36638  0.21982  0.08230  1.0000
  C   C589      1.0  0.41233  0.47225  0.01310  1.0000
  H   H701      1.0  0.47388  0.11515  0.02034  1.0000
  H   H702      1.0  0.32881  0.23857  0.06115  1.0000
  H   H703      1.0  0.37912  0.26318  0.07104  1.0000
  H   H704      1.0  0.43333  0.99992  0.99086  1.0000
  H   H705      1.0  0.38731  0.33789  0.09785  1.0000
  H   H706      1.0  0.27952  0.42388  0.08374  1.0000
  Fe  Fe89      1.0  0.43756  0.48239  0.08785  1.0000
  H   H707      1.0  0.42988  0.17602  0.22507  1.0000
  H   H708      1.0  0.45035  0.18503  0.23192  1.0000
  H   H709      1.0  0.45209  0.14719  0.20093  1.0000
  C   C590      1.0  0.49011  0.47282  0.07831  1.0000
  H   H710      1.0  0.26708  0.15427  0.31901  1.0000
  H   H711      1.0  0.36428  0.06701  0.18055  1.0000
  C   C591      1.0  0.43283  0.07651  0.31645  1.0000
  C   C592      1.0  0.35889  0.27774  0.03921  1.0000
  H   H712      1.0  0.26914  0.38591  0.07982  1.0000
  C   C593      1.0  0.41368  0.05726  0.30048  1.0000
  H   H713      1.0  0.40312  0.05750  0.29013  1.0000
  S   S173      1.0  0.32364  0.01183  0.31622  1.0000
  S   S174      1.0  0.43941  0.08180  0.99736  1.0000
  N   N38       1.0  0.27187  0.40120  0.10337  1.0000
  C   C594      1.0  0.28176  0.38570  0.11415  1.0000
  C   C595      1.0  0.28598  0.41184  0.09212  1.0000
  H   H714      1.0  0.41600  0.13143  0.04499  1.0000
  H   H715      1.0  0.41515  0.08403  0.27401  1.0000
  C   C596      1.0  0.26299  0.43079  0.11913  1.0000
  H   H716      1.0  0.26218  0.34873  0.14271  1.0000
  C   C597      1.0  0.34912  0.22146  0.07509  1.0000
  H   H717      1.0  0.34870  0.35766  0.12818  1.0000
  H   H718      1.0  0.47743  0.20060  0.18501  1.0000
  H   H719      1.0  0.27219  0.37622  0.12193  1.0000
  C   C598      1.0  0.48367  0.46675  0.00412  1.0000
  H   H720      1.0  0.27174  0.04674  0.31531  1.0000
  H   H721      1.0  0.29440  0.40315  0.08227  1.0000
  N   N39       1.0  0.41866  0.07617  0.30297  1.0000
  C   C599      1.0  0.40855  0.38560  0.11036  1.0000
  H   H722      1.0  0.25118  0.38328  0.09734  1.0000
  C   C600      1.0  0.44527  0.17441  0.22396  1.0000
  C   C601      1.0  0.37698  0.33803  0.14405  1.0000
  C   C602      1.0  0.35782  0.11774  0.15540  1.0000
  H   H723      1.0  0.37285  0.27979  0.04339  1.0000
  C   C603      1.0  0.47327  0.17532  0.20346  1.0000
  C   C604      1.0  0.35964  0.07790  0.18924  1.0000
  H   H724      1.0  0.44901  0.16060  0.23108  1.0000
  C   C605      1.0  0.48594  0.48266  0.09388  1.0000
  C   C606      1.0  0.40842  0.46043  0.00009  1.0000
  H   H725      1.0  0.44808  0.19551  0.18041  1.0000
  H   H726      1.0  0.34076  0.20971  0.07686  1.0000
  S   S175      1.0  0.35362  0.08874  0.31877  1.0000
  H   H727      1.0  0.37129  0.20698  0.08979  1.0000
  C   C607      1.0  0.42538  0.08460  0.28456  1.0000
  H   H728      1.0  0.27605  0.32131  0.99118  1.0000
  H   H729      1.0  0.44878  0.20606  0.20186  1.0000
  H   H730      1.0  0.33980  0.30000  0.06252  1.0000
  H   H731      1.0  0.40492  0.41327  0.11857  1.0000
  C   C608      1.0  0.34522  0.28627  0.06869  1.0000
  N   N40       1.0  0.41086  0.13172  0.01593  1.0000
  C   C609      1.0  0.39843  0.14321  0.00337  1.0000
  C   C610      1.0  0.44441  0.19392  0.19562  1.0000
  H   H732      1.0  0.39721  0.10069  0.17518  1.0000
  H   H733      1.0  0.36181  0.08162  0.14992  1.0000
  H   H734      1.0  0.36379  0.12223  0.14126  1.0000
  H   H735      1.0  0.47882  0.14744  0.16325  1.0000
  C   C611      1.0  0.25159  0.44065  0.13177  1.0000
  C   C612      1.0  0.46687  0.12264  0.99237  1.0000
  C   C613      1.0  0.35215  0.07239  0.20702  1.0000
  H   H736      1.0  0.40880  0.35820  0.10323  1.0000
  H   H737      1.0  0.41226  0.46726  0.02758  1.0000
  C   C614      1.0  0.37444  0.08832  0.15245  1.0000
  H   H738      1.0  0.48352  0.46474  0.01910  1.0000
  C   C615      1.0  0.43008  0.12917  0.00772  1.0000
  H   H739      1.0  0.38450  0.14631  0.01028  1.0000
  C   C616      1.0  0.34239  0.23824  0.06614  1.0000
  C   C617      1.0  0.25992  0.41229  0.11627  1.0000
  C   C618      1.0  0.48338  0.16008  0.21260  1.0000
  N   N41       1.0  0.45283  0.17628  0.20438  1.0000
  H   H740      1.0  0.34408  0.11267  0.15395  1.0000
  H   H741      1.0  0.29612  0.41668  0.10091  1.0000
  C   C619      1.0  0.48372  0.18902  0.19327  1.0000
  C   C620      1.0  0.38389  0.39636  0.13162  1.0000
  H   H742      1.0  0.34318  0.32370  0.99540  1.0000
  C   C621      1.0  0.40344  0.11339  0.01999  1.0000
  H   H743      1.0  0.32274  0.28617  0.04178  1.0000
  S   S176      1.0  0.39930  0.01078  0.01239  1.0000
  C   C622      1.0  0.37048  0.25178  0.07165  1.0000
  H   H744      1.0  0.38051  0.09378  0.13864  1.0000
  N   N42       1.0  0.37715  0.34633  0.12462  1.0000
  S   S177      1.0  0.39172  0.48012  0.06385  1.0000
  C   C623      1.0  0.38526  0.36443  0.12309  1.0000
  C   C624      1.0  0.26048  0.39352  0.09033  1.0000
  H   H745      1.0  0.35134  0.05783  0.21148  1.0000
  C   C625      1.0  0.35290  0.25400  0.06421  1.0000
  H   H746      1.0  0.31686  0.26906  0.05994  1.0000
  C   C626      1.0  0.32739  0.27229  0.04841  1.0000
  H   H747      1.0  0.36426  0.37730  0.14189  1.0000
  H   H748      1.0  0.39019  0.23371  0.08679  1.0000
  H   H749      1.0  0.42048  0.38856  0.10100  1.0000
  H   H750      1.0  0.35891  0.28830  0.07357  1.0000
  H   H751      1.0  0.35157  0.33551  0.11948  1.0000
  C   C627      1.0  0.44487  0.12319  0.01902  1.0000
  H   H752      1.0  0.39116  0.33635  0.14896  1.0000
  C   C628      1.0  0.34606  0.08550  0.21930  1.0000
  C   C629      1.0  0.46294  0.12008  0.01141  1.0000
  H   H753      1.0  0.43149  0.16102  0.19551  1.0000
  H   H754      1.0  0.38491  0.07763  0.15795  1.0000
  H   H755      1.0  0.40531  0.44638  0.00461  1.0000
  H   H756      1.0  0.47648  0.14877  0.22000  1.0000
  C   C630      1.0  0.39976  0.39963  0.12027  1.0000
  C   C631      1.0  0.44682  0.16099  0.19483  1.0000
  H   H757      1.0  0.35380  0.29113  0.03185  1.0000
  C   C632      1.0  0.40150  0.36822  0.11166  1.0000
  H   H758      1.0  0.35741  0.35577  0.10480  1.0000
  H   H759      1.0  0.42583  0.04840  0.29543  1.0000
  H   H760      1.0  0.32709  0.26241  0.03773  1.0000
  H   H761      1.0  0.40173  0.32948  0.11660  1.0000
  C   C633      1.0  0.37704  0.23494  0.08057  1.0000
  C   C634      1.0  0.35496  0.10986  0.19621  1.0000
  H   H762      1.0  0.38068  0.31936  0.11417  1.0000
  C   C635      1.0  0.38766  0.11110  0.16783  1.0000
  C   C636      1.0  0.38726  0.33275  0.11277  1.0000
  N   N43       1.0  0.37011  0.10324  0.16503  1.0000
  H   H763      1.0  0.39051  0.08668  0.29954  1.0000
  H   H764      1.0  0.40326  0.10631  0.00716  1.0000
  C   C637      1.0  0.29071  0.32206  0.99198  1.0000
  H   H765      1.0  0.40425  0.15658  0.99845  1.0000
  H   H766      1.0  0.24192  0.39032  0.12576  1.0000
  H   H767      1.0  0.45548  0.47826  0.00441  1.0000
  H   H768      1.0  0.40756  0.05043  0.31365  1.0000
  H   H769      1.0  0.48650  0.00104  0.01002  1.0000
  Fe  Fe90      1.0  0.44914  0.05318  0.99091  1.0000
  H   H770      1.0  0.47908  0.46794  0.07142  1.0000
  H   H771      1.0  0.25179  0.40466  0.08288  1.0000
  C   C638      1.0  0.48622  0.06924  0.00474  1.0000
  C   C639      1.0  0.24495  0.40437  0.12695  1.0000
  H   H772      1.0  0.42773  0.09943  0.28478  1.0000
  C   C640      1.0  0.40155  0.08691  0.30926  1.0000
  C   C641      1.0  0.24186  0.35055  0.12256  1.0000
  H   H773      1.0  0.29525  0.04186  0.32014  1.0000
  H   H774      1.0  0.40361  0.10167  0.31028  1.0000
  H   H775      1.0  0.43365  0.10654  0.31360  1.0000
  H   H776      1.0  0.39583  0.13592  0.99115  1.0000
  C   C642      1.0  0.48962  0.15651  0.15888  1.0000
  S   S178      1.0  0.46281  0.48706  0.10307  1.0000
  H   H777      1.0  0.35644  0.99001  0.99070  1.0000
  S   S179      1.0  0.47788  0.04119  0.42072  1.0000
  Fe  Fe91      1.0  0.47579  0.06875  0.40374  1.0000
  S   S180      1.0  0.44990  0.08473  0.39286  1.0000
  H   H778      1.0  0.45636  0.10752  0.33642  1.0000
  N   N44       1.0  0.27596  0.03617  0.34370  1.0000
  S   S181      1.0  0.46915  0.08446  0.63736  1.0000
  C   C643      1.0  0.43599  0.01855  0.64176  1.0000
  C   C644      1.0  0.46547  0.03214  0.63666  1.0000
  S   S182      1.0  0.33503  0.05260  0.34128  1.0000
  C   C645      1.0  0.25292  0.11229  0.63960  1.0000
  C   C646      1.0  0.45956  0.07816  0.34252  1.0000
  H   H779      1.0  0.29303  0.13780  0.33518  1.0000
  H   H780      1.0  0.47989  0.03088  0.63029  1.0000
  H   H781      1.0  0.46632  0.01802  0.60371  1.0000
  C   C647      1.0  0.27875  0.09636  0.34857  1.0000
  C   C648      1.0  0.28174  0.09128  0.36720  1.0000
  C   C649      1.0  0.26734  0.09403  0.38112  1.0000
  C   C650      1.0  0.45384  0.06117  0.33901  1.0000
  H   H782      1.0  0.44424  0.00855  0.60737  1.0000
  C   C651      1.0  0.26092  0.10367  0.34414  1.0000
  H   H783      1.0  0.29534  0.08585  0.37098  1.0000
  H   H784      1.0  0.27003  0.09039  0.39547  1.0000
  H   H785      1.0  0.46921  0.07882  0.35303  1.0000
  C   C652      1.0  0.44485  0.08397  0.64034  1.0000
  C   C653      1.0  0.43367  0.08813  0.62551  1.0000
  C   C654      1.0  0.41432  0.08956  0.62872  1.0000
  N   N45       1.0  0.45453  0.01721  0.63184  1.0000
  H   H786      1.0  0.41813  0.03450  0.37098  1.0000
  H   H787      1.0  0.24694  0.08786  0.62754  1.0000
  H   H788      1.0  0.43993  0.09096  0.61165  1.0000
  H   H789      1.0  0.40580  0.09339  0.61723  1.0000
  H   H790      1.0  0.29495  0.04897  0.35882  1.0000
  C   C655      1.0  0.43261  0.07527  0.38146  1.0000
  C   C656      1.0  0.43217  0.05622  0.38070  1.0000
  C   C657      1.0  0.41834  0.04927  0.37140  1.0000
  C   C658      1.0  0.40481  0.06122  0.36267  1.0000
  C   C659      1.0  0.40524  0.08029  0.36340  1.0000
  C   C660      1.0  0.41903  0.08724  0.37280  1.0000
  H   H791      1.0  0.44246  0.04684  0.38733  1.0000
  C   C661      1.0  0.33004  0.09890  0.63636  1.0000
  H   H792      1.0  0.39487  0.08966  0.35693  1.0000
  H   H793      1.0  0.41922  0.10199  0.37337  1.0000
  H   H794      1.0  0.24425  0.16747  0.39888  1.0000
  C   C662      1.0  0.27960  0.14024  0.36229  1.0000
  H   H795      1.0  0.26838  0.04916  0.37915  1.0000
  C   C663      1.0  0.26618  0.15245  0.33400  1.0000
  H   H796      1.0  0.29079  0.13239  0.36920  1.0000
  H   H797      1.0  0.26338  0.14291  0.38733  1.0000
  Fe  Fe92      1.0  0.32479  0.07857  0.32474  1.0000
  C   C664      1.0  0.42422  0.03503  0.63945  1.0000
  C   C665      1.0  0.28087  0.14325  0.34307  1.0000
  C   C666      1.0  0.26821  0.08161  0.64686  1.0000
  H   H798      1.0  0.30444  0.02835  0.34900  1.0000
  Fe  Fe93      1.0  0.36378  0.06133  0.33334  1.0000
  C   C667      1.0  0.45262  0.01932  0.61159  1.0000
  H   H799      1.0  0.34024  0.10256  0.58251  1.0000
  C   C668      1.0  0.46535  0.99933  0.63622  1.0000
  C   C669      1.0  0.25512  0.09339  0.63713  1.0000
  H   H800      1.0  0.42855  0.04684  0.63053  1.0000
  H   H801      1.0  0.45915  0.04870  0.34684  1.0000
  C   C670      1.0  0.31537  0.11728  0.57475  1.0000
  C   C671      1.0  0.25858  0.04476  0.35216  1.0000
  H   H802      1.0  0.28245  0.06182  0.32852  1.0000
  H   H803      1.0  0.33536  0.11280  0.63317  1.0000
  H   H804      1.0  0.30672  0.07374  0.63037  1.0000
  H   H805      1.0  0.47930  0.99891  0.62874  1.0000
  H   H806      1.0  0.35684  0.09739  0.60932  1.0000
  C   C672      1.0  0.29708  0.12294  0.57983  1.0000
  H   H807      1.0  0.32035  0.06406  0.61163  1.0000
  C   C673      1.0  0.47999  0.99421  0.40463  1.0000
  H   H808      1.0  0.26865  0.00853  0.35231  1.0000
  N   N46       1.0  0.32976  0.08930  0.61932  1.0000
  Fe  Fe94      1.0  0.48690  0.07691  0.61156  1.0000
  C   C674      1.0  0.32104  0.07163  0.62410  1.0000
  H   H809      1.0  0.33899  0.09098  0.64653  1.0000
  C   C675      1.0  0.25693  0.05040  0.37044  1.0000
  H   H810      1.0  0.47888  0.99452  0.55912  1.0000
  C   C676      1.0  0.24643  0.10613  0.35803  1.0000
  H   H811      1.0  0.32113  0.12125  0.56089  1.0000
  C   C677      1.0  0.31893  0.10102  0.60560  1.0000
  C   C678      1.0  0.30028  0.10708  0.61025  1.0000
  H   H812      1.0  0.35024  0.07664  0.60037  1.0000
  C   C679      1.0  0.42897  0.00375  0.65375  1.0000
  H   H813      1.0  0.28867  0.13122  0.57000  1.0000
  C   C680      1.0  0.45221  0.09433  0.33319  1.0000
  H   H814      1.0  0.35698  0.07604  0.62346  1.0000
  S   S183      1.0  0.38162  0.08958  0.65018  1.0000
  C   C681      1.0  0.34926  0.08471  0.61268  1.0000
  C   C682      1.0  0.32623  0.10648  0.58738  1.0000
  C   C683      1.0  0.28956  0.11787  0.59757  1.0000
  H   H815      1.0  0.29377  0.10343  0.62376  1.0000
  H   H816      1.0  0.44599  0.03305  0.60680  1.0000
  S   S184      1.0  0.29700  0.09567  0.33051  1.0000
  S   S185      1.0  0.38792  0.05139  0.35104  1.0000
  C   C684      1.0  0.24959  0.10159  0.37672  1.0000
  H   H817      1.0  0.26263  0.01686  0.32936  1.0000
  H   H818      1.0  0.45960  0.04612  0.63168  1.0000
  H   H819      1.0  0.46769  0.99696  0.65121  1.0000
  C   C685      1.0  0.24850  0.15619  0.36377  1.0000
  H   H820      1.0  0.27529  0.12225  0.60155  1.0000
  C   C686      1.0  0.26365  0.14645  0.37257  1.0000
  H   H821      1.0  0.32871  0.06236  0.63444  1.0000
  C   C687      1.0  0.29164  0.03497  0.35574  1.0000
  H   H822      1.0  0.47446  0.00828  0.40559  1.0000
  C   C688      1.0  0.26457  0.11923  0.65143  1.0000
  H   H823      1.0  0.26961  0.06702  0.64488  1.0000
  S   S186      1.0  0.48091  0.05699  0.59151  1.0000
  H   H824      1.0  0.25837  0.10776  0.32983  1.0000
  C   C689      1.0  0.40596  0.08632  0.64668  1.0000
  H   H825      1.0  0.31617  0.10072  0.64373  1.0000
  H   H826      1.0  0.46623  0.03184  0.65189  1.0000
  C   C690      1.0  0.48969  0.07310  0.48783  1.0000
  C   C691      1.0  0.25019  0.15881  0.34414  1.0000
  H   H827      1.0  0.28881  0.02635  0.36895  1.0000
  H   H828      1.0  0.48472  0.07999  0.47514  1.0000
  H   H829      1.0  0.47954  0.09536  0.50440  1.0000
  H   H830      1.0  0.39618  0.08114  0.32317  1.0000
  H   H831      1.0  0.26316  0.13382  0.65340  1.0000
  C   C692      1.0  0.48670  0.08174  0.50447  1.0000
  C   C693      1.0  0.44057  0.06025  0.32630  1.0000
  C   C694      1.0  0.27315  0.01712  0.33955  1.0000
  C   C695      1.0  0.24253  0.04762  0.34206  1.0000
  C   C696      1.0  0.40663  0.03661  0.64858  1.0000
  H   H832      1.0  0.39784  0.04929  0.64657  1.0000
  H   H833      1.0  0.28612  0.01011  0.33348  1.0000
  H   H834      1.0  0.24272  0.04364  0.32812  1.0000
  H   H835      1.0  0.43623  0.04669  0.32494  1.0000
  C   C697      1.0  0.28151  0.04710  0.32619  1.0000
  S   S187      1.0  0.48938  0.08476  0.54160  1.0000
  C   C698      1.0  0.48668  0.98993  0.57098  1.0000
  Fe  Fe95      1.0  0.39729  0.45412  0.89870  1.0000
  H   H836      1.0  0.38249  0.06966  0.77536  1.0000
  S   S188      1.0  0.37559  0.43945  0.88590  1.0000
  Fe  Fe96      1.0  0.43770  0.46244  0.90336  1.0000
  S   S189      1.0  0.46800  0.45403  0.89515  1.0000
  C   C699      1.0  0.37184  0.13517  0.68170  1.0000
  H   H837      1.0  0.36168  0.32963  0.86410  1.0000
  S   S190      1.0  0.41920  0.44083  0.91664  1.0000
  S   S191      1.0  0.41654  0.47402  0.88331  1.0000
  H   H838      1.0  0.28673  0.11316  0.66987  1.0000
  S   S192      1.0  0.40054  0.10199  0.96937  1.0000
  Fe  Fe97      1.0  0.32029  0.30332  0.88856  1.0000
  S   S193      1.0  0.29157  0.31001  0.90187  1.0000
  S   S194      1.0  0.32870  0.27766  0.87231  1.0000
  Fe  Fe98      1.0  0.33291  0.34062  0.89648  1.0000
  S   S195      1.0  0.30544  0.35002  0.90995  1.0000
  S   S196      1.0  0.36024  0.35394  0.89567  1.0000
  Fe  Fe99      1.0  0.30570  0.32140  0.92451  1.0000
  S   S197      1.0  0.29304  0.31819  0.95448  1.0000
  Fe  Fe100     1.0  0.29244  0.33836  0.88668  1.0000
  S   S198      1.0  0.26716  0.35661  0.87583  1.0000
  S   S199      1.0  0.33403  0.31244  0.91247  1.0000
  S   S200      1.0  0.32029  0.33128  0.87198  1.0000
  Fe  Fe101     1.0  0.40305  0.13919  0.86275  1.0000
  S   S201      1.0  0.41823  0.16336  0.86790  1.0000
  S   S202      1.0  0.39980  0.11252  0.88136  1.0000
  Fe  Fe102     1.0  0.40136  0.15106  0.82070  1.0000
  S   S203      1.0  0.41676  0.17661  0.82325  1.0000
  S   S204      1.0  0.39839  0.13719  0.79354  1.0000
  Fe  Fe103     1.0  0.43579  0.15861  0.84180  1.0000
  S   S205      1.0  0.46700  0.15059  0.84152  1.0000
  Fe  Fe104     1.0  0.39809  0.18037  0.84954  1.0000
  S   S206      1.0  0.38829  0.20771  0.86264  1.0000
  S   S207      1.0  0.42156  0.13340  0.83771  1.0000
  S   S208      1.0  0.38170  0.15588  0.84588  1.0000
  Fe  Fe105     1.0  0.32350  0.07258  0.68488  1.0000
  S   S209      1.0  0.32924  0.05831  0.71322  1.0000
  S   S210      1.0  0.29654  0.07288  0.67003  1.0000
  Fe  Fe106     1.0  0.36479  0.07751  0.67540  1.0000
  S   S211      1.0  0.37345  0.06355  0.70259  1.0000
  H   H839      1.0  0.24955  0.27934  0.89820  1.0000
  Fe  Fe107     1.0  0.35319  0.04245  0.69873  1.0000
  S   S212      1.0  0.36388  0.01177  0.70167  1.0000
  Fe  Fe108     1.0  0.34916  0.08044  0.71531  1.0000
  S   S213      1.0  0.34924  0.09675  0.74132  1.0000
  S   S214      1.0  0.34655  0.05547  0.67065  1.0000
  S   S215      1.0  0.34149  0.09561  0.68793  1.0000
  H   H840      1.0  0.35854  0.13307  0.68987  1.0000
  H   H841      1.0  0.39102  0.16608  0.75243  1.0000
  H   H842      1.0  0.32481  0.00344  0.70397  1.0000
  C   C700      1.0  0.32152  0.32195  0.97715  1.0000
  C   C701      1.0  0.38441  0.12555  0.77962  1.0000
  C   C702      1.0  0.36517  0.12565  0.78261  1.0000
  C   C703      1.0  0.35478  0.11684  0.77080  1.0000
  C   C704      1.0  0.36334  0.10754  0.75587  1.0000
  C   C705      1.0  0.38262  0.10713  0.75309  1.0000
  C   C706      1.0  0.39299  0.11614  0.76476  1.0000
  H   H843      1.0  0.35820  0.13279  0.79383  1.0000
  H   H844      1.0  0.33993  0.11724  0.77327  1.0000
  H   H845      1.0  0.38958  0.09995  0.74192  1.0000
  H   H846      1.0  0.40782  0.11589  0.76220  1.0000
  H   H847      1.0  0.25376  0.30408  0.94820  1.0000
  H   H848      1.0  0.36225  0.15280  0.74644  1.0000
  C   C707      1.0  0.35730  0.38162  0.96487  1.0000
  C   C708      1.0  0.36544  0.41897  0.97268  1.0000
  H   H849      1.0  0.38561  0.10013  0.68795  1.0000
  C   C709      1.0  0.35256  0.99114  0.70039  1.0000
  C   C710      1.0  0.44962  0.11041  0.92813  1.0000
  H   H850      1.0  0.35191  0.43434  0.94071  1.0000
  C   C711      1.0  0.33333  0.99077  0.70218  1.0000
  C   C712      1.0  0.34494  0.25773  0.87057  1.0000
  C   C713      1.0  0.34363  0.24607  0.85640  1.0000
  C   C714      1.0  0.35635  0.23052  0.85402  1.0000
  C   C715      1.0  0.37086  0.22641  0.86568  1.0000
  C   C716      1.0  0.37208  0.23797  0.87995  1.0000
  C   C717      1.0  0.35919  0.25335  0.88250  1.0000
  H   H851      1.0  0.33269  0.24913  0.84710  1.0000
  H   H852      1.0  0.35510  0.22189  0.84297  1.0000
  H   H853      1.0  0.38313  0.23500  0.88913  1.0000
  H   H854      1.0  0.36032  0.26173  0.89374  1.0000
  C   C718      1.0  0.30257  0.32112  0.97579  1.0000
  H   H855      1.0  0.45561  0.48345  0.97037  1.0000
  H   H856      1.0  0.41093  0.07859  0.67527  1.0000
  H   H857      1.0  0.33086  0.32106  0.96492  1.0000
  H   H858      1.0  0.38764  0.29522  0.89491  1.0000
  S   S216      1.0  0.40386  0.45156  0.96536  1.0000
  C   C719      1.0  0.48796  0.46460  0.90014  1.0000
  H   H859      1.0  0.40640  0.24158  0.84015  1.0000
  H   H860      1.0  0.25668  0.32927  0.85173  1.0000
  C   C720      1.0  0.40100  0.10473  0.94485  1.0000
  C   C721      1.0  0.39763  0.12251  0.93583  1.0000
  C   C722      1.0  0.39765  0.12522  0.91637  1.0000
  C   C723      1.0  0.40065  0.11007  0.90578  1.0000
  C   C724      1.0  0.40408  0.09232  0.91480  1.0000
  C   C725      1.0  0.40444  0.08966  0.93421  1.0000
  H   H861      1.0  0.39487  0.13425  0.94393  1.0000
  H   H862      1.0  0.39484  0.13894  0.90962  1.0000
  H   H863      1.0  0.40642  0.08051  0.90675  1.0000
  H   H864      1.0  0.40702  0.07591  0.94097  1.0000
  H   H865      1.0  0.25653  0.27701  0.93109  1.0000
  C   C726      1.0  0.40586  0.15722  0.72765  1.0000
  C   C727      1.0  0.37140  0.41565  0.88927  1.0000
  C   C728      1.0  0.38424  0.40228  0.89687  1.0000
  C   C729      1.0  0.38052  0.38349  0.89889  1.0000
  C   C730      1.0  0.36383  0.37788  0.89363  1.0000
  C   C731      1.0  0.35085  0.39128  0.88634  1.0000
  C   C732      1.0  0.35470  0.41004  0.88405  1.0000
  H   H866      1.0  0.39721  0.40638  0.90080  1.0000
  H   H867      1.0  0.39069  0.37322  0.90447  1.0000
  H   H868      1.0  0.33801  0.38717  0.88210  1.0000
  H   H869      1.0  0.34470  0.42028  0.87813  1.0000
  S   S217      1.0  0.42352  0.04846  0.97740  1.0000
  C   C733      1.0  0.24607  0.34058  0.85175  1.0000
  C   C734      1.0  0.41134  0.26196  0.85832  1.0000
  H   H870      1.0  0.37278  0.43145  0.97432  1.0000
  H   H871      1.0  0.37493  0.44021  0.94298  1.0000
  C   C735      1.0  0.38167  0.99068  0.97358  1.0000
  N   N47       1.0  0.37982  0.09162  0.83432  1.0000
  C   C736      1.0  0.37195  0.11070  0.83687  1.0000
  C   C737      1.0  0.37550  0.07965  0.85152  1.0000
  C   C738      1.0  0.40021  0.09209  0.83189  1.0000
  C   C739      1.0  0.37168  0.08473  0.81851  1.0000
  C   C740      1.0  0.38239  0.07961  0.80235  1.0000
  C   C741      1.0  0.35236  0.08313  0.81894  1.0000
  C   C742      1.0  0.37418  0.07309  0.78775  1.0000
  C   C743      1.0  0.34429  0.07681  0.80415  1.0000
  C   C744      1.0  0.35519  0.07179  0.78859  1.0000
  H   H872      1.0  0.35677  0.11157  0.83998  1.0000
  H   H873      1.0  0.37787  0.11628  0.84864  1.0000
  H   H874      1.0  0.37489  0.12017  0.82423  1.0000
  H   H875      1.0  0.36047  0.08010  0.85557  1.0000
  H   H876      1.0  0.38209  0.08408  0.86354  1.0000
  H   H877      1.0  0.38050  0.06501  0.84992  1.0000
  H   H878      1.0  0.40588  0.09698  0.84419  1.0000
  H   H879      1.0  0.40714  0.07814  0.83010  1.0000
  H   H880      1.0  0.40443  0.10183  0.81982  1.0000
  H   H881      1.0  0.39706  0.08091  0.80041  1.0000
  H   H882      1.0  0.34330  0.08703  0.83062  1.0000
  C   C745      1.0  0.24226  0.30861  0.89688  1.0000
  N   N48       1.0  0.36945  0.41243  0.95395  1.0000
  H   H883      1.0  0.34887  0.06740  0.77689  1.0000
  C   C746      1.0  0.26378  0.41105  0.82897  1.0000
  H   H884      1.0  0.39256  0.40029  0.93796  1.0000
  C   C747      1.0  0.34655  0.36701  0.96290  1.0000
  C   C748      1.0  0.48391  0.47257  0.96565  1.0000
  H   H885      1.0  0.37167  0.31517  0.89367  1.0000
  C   C749      1.0  0.34724  0.39703  0.93601  1.0000
  C   C750      1.0  0.38895  0.13970  0.70815  1.0000
  H   H886      1.0  0.25538  0.33050  0.96027  1.0000
  C   C751      1.0  0.40528  0.14766  0.71193  1.0000
  H   H887      1.0  0.27865  0.38452  0.83446  1.0000
  H   H888      1.0  0.48337  0.47559  0.95086  1.0000
  H   H889      1.0  0.40708  0.14349  0.67344  1.0000
  C   C752      1.0  0.48736  0.16232  0.84250  1.0000
  C   C753      1.0  0.43649  0.08052  0.65827  1.0000
  H   H890      1.0  0.41851  0.16287  0.73055  1.0000
  C   C754      1.0  0.48681  0.48160  0.90776  1.0000
  C   C755      1.0  0.37413  0.15174  0.73653  1.0000
  H   H891      1.0  0.36465  0.29329  0.88855  1.0000
  C   C756      1.0  0.36660  0.42874  0.94030  1.0000
  C   C757      1.0  0.27982  0.08854  0.65873  1.0000
  C   C758      1.0  0.40189  0.25496  0.84498  1.0000
  H   H892      1.0  0.34630  0.35529  0.97327  1.0000
  C   C759      1.0  0.38893  0.28910  0.85901  1.0000
  C   C760      1.0  0.36612  0.31636  0.85801  1.0000
  H   H893      1.0  0.32899  0.38223  0.92193  1.0000
  C   C761      1.0  0.25443  0.38248  0.81995  1.0000
  Fe  Fe109     1.0  0.41287  0.07642  0.98616  1.0000
  C   C762      1.0  0.38913  0.40550  0.95181  1.0000
  C   C763      1.0  0.38608  0.26472  0.83853  1.0000
  C   C764      1.0  0.37955  0.28148  0.84544  1.0000
  C   C765      1.0  0.41272  0.48484  0.97551  1.0000
  C   C766      1.0  0.40468  0.12908  0.67905  1.0000
  H   H894      1.0  0.43436  0.14321  0.91106  1.0000
  H   H895      1.0  0.37205  0.15016  0.67709  1.0000
  C   C767      1.0  0.35780  0.39722  0.95160  1.0000
  H   H896      1.0  0.42408  0.13458  0.97848  1.0000
  C   C768      1.0  0.25158  0.29021  0.92436  1.0000
  H   H897      1.0  0.45353  0.15436  0.91786  1.0000
  Fe  Fe110     1.0  0.40899  0.46237  0.93573  1.0000
  H   H898      1.0  0.25665  0.36759  0.81980  1.0000
  H   H899      1.0  0.37837  0.25882  0.82869  1.0000
  C   C769      1.0  0.47839  0.13930  0.89228  1.0000
  S   S218      1.0  0.47777  0.04823  0.97786  1.0000
  H   H900      1.0  0.37139  0.12754  0.66918  1.0000
  H   H901      1.0  0.39822  0.10345  0.70748  1.0000
  C   C770      1.0  0.45298  0.12189  0.88745  1.0000
  N   N49       1.0  0.46134  0.13165  0.90133  1.0000
  H   H902      1.0  0.34718  0.40796  0.92489  1.0000
  H   H903      1.0  0.36677  0.28781  0.84039  1.0000
  C   C771      1.0  0.26684  0.39201  0.82824  1.0000
  H   H904      1.0  0.45088  0.13095  0.87445  1.0000
  H   H905      1.0  0.41728  0.12259  0.68549  1.0000
  C   C772      1.0  0.45214  0.09854  0.94412  1.0000
  C   C773      1.0  0.46797  0.47738  0.97669  1.0000
  H   H906      1.0  0.32947  0.07609  0.80457  1.0000
  H   H907      1.0  0.42335  0.25403  0.86364  1.0000
  H   H908      1.0  0.25717  0.36453  0.93634  1.0000
  C   C774      1.0  0.33665  0.38226  0.93411  1.0000
  H   H909      1.0  0.35388  0.30801  0.85985  1.0000
  H   H910      1.0  0.40868  0.31426  0.87405  1.0000
  C   C775      1.0  0.37342  0.14199  0.72101  1.0000
  C   C776      1.0  0.41714  0.08138  0.66141  1.0000
  C   C777      1.0  0.24773  0.29151  0.90581  1.0000
  H   H911      1.0  0.41786  0.14644  0.70317  1.0000
  C   C778      1.0  0.40502  0.27877  0.86527  1.0000
  C   C779      1.0  0.40025  0.02195  0.66033  1.0000
  H   H912      1.0  0.37362  0.10732  0.70877  1.0000
  C   C780      1.0  0.38630  0.10903  0.69942  1.0000
  N   N50       1.0  0.38215  0.30652  0.86710  1.0000
  C   C781      1.0  0.24776  0.35532  0.86236  1.0000
  C   C782      1.0  0.45268  0.12825  0.98083  1.0000
  N   N51       1.0  0.38810  0.12855  0.69230  1.0000
  N   N52       1.0  0.24187  0.34056  0.93542  1.0000
  C   C783      1.0  0.37634  0.30235  0.88691  1.0000
  H   H913      1.0  0.49030  0.12126  0.65679  1.0000
  H   H914      1.0  0.36946  0.31980  0.84297  1.0000
  H   H915      1.0  0.37109  0.42547  0.92596  1.0000
  H   H916      1.0  0.48087  0.11980  0.98657  1.0000
  H   H917      1.0  0.36539  0.38049  0.97681  1.0000
  C   C784      1.0  0.24817  0.42064  0.82159  1.0000
  S   S219      1.0  0.42897  0.48295  0.92398  1.0000
  H   H918      1.0  0.36079  0.13558  0.71966  1.0000
  C   C785      1.0  0.39699  0.31947  0.86559  1.0000
  H   H919      1.0  0.39186  0.33308  0.87068  1.0000
  H   H920      1.0  0.41256  0.28336  0.87595  1.0000
  H   H921      1.0  0.40251  0.32210  0.85097  1.0000
  C   C786      1.0  0.46460  0.11885  0.91803  1.0000
  C   C787      1.0  0.44842  0.14747  0.90646  1.0000
  H   H922      1.0  0.43579  0.11295  0.92370  1.0000
  H   H923      1.0  0.27343  0.41836  0.83559  1.0000
  H   H924      1.0  0.37004  0.40860  0.98389  1.0000
  H   H925      1.0  0.40320  0.12113  0.66694  1.0000
  C   C788      1.0  0.40868  0.46668  0.98130  1.0000
  H   H926      1.0  0.44667  0.15811  0.89456  1.0000
  C   C789      1.0  0.46964  0.09476  0.95058  1.0000
  C   C790      1.0  0.48738  0.18159  0.84039  1.0000
  S   S220      1.0  0.38586  0.47457  0.91879  1.0000
  H   H927      1.0  0.32813  0.35585  0.94591  1.0000
  H   H928      1.0  0.38663  0.02324  0.66748  1.0000
  H   H929      1.0  0.39846  0.41658  0.95312  1.0000
  C   C791      1.0  0.39035  0.15919  0.73994  1.0000
  H   H930      1.0  0.47460  0.18995  0.83839  1.0000
  C   C792      1.0  0.24978  0.30597  0.93412  1.0000
  H   H931      1.0  0.47350  0.48806  0.91203  1.0000
  H   H932      1.0  0.48512  0.14742  0.90167  1.0000
  H   H933      1.0  0.47651  0.15904  0.79899  1.0000
  H   H934      1.0  0.44045  0.09225  0.95162  1.0000
  H   H935      1.0  0.44504  0.07722  0.66982  1.0000
  H   H936      1.0  0.47540  0.14893  0.87986  1.0000
  H   H937      1.0  0.39270  0.39405  0.96243  1.0000
  C   C793      1.0  0.33626  0.36732  0.94754  1.0000
  H   H938      1.0  0.45570  0.12984  0.96599  1.0000
  H   H939      1.0  0.43916  0.11726  0.89238  1.0000
  C   C794      1.0  0.24371  0.32356  0.92555  1.0000
  C   C795      1.0  0.27799  0.10752  0.66083  1.0000
  H   H940      1.0  0.27093  0.34365  0.93182  1.0000
  H   H941      1.0  0.48847  0.12820  0.88731  1.0000
  C   C796      1.0  0.41137  0.00556  0.66289  1.0000
  H   H942      1.0  0.25799  0.35587  0.91403  1.0000
  H   H943      1.0  0.46193  0.10948  0.88371  1.0000
  C   C797      1.0  0.48471  0.10275  0.94104  1.0000
  C   C798      1.0  0.48235  0.11463  0.92496  1.0000
  H   H944      1.0  0.24652  0.43531  0.82290  1.0000
  C   C799      1.0  0.25761  0.35170  0.92915  1.0000
  H   H945      1.0  0.47147  0.08566  0.96305  1.0000
  H   H946      1.0  0.35042  0.42268  0.97542  1.0000
  H   H947      1.0  0.40620  0.99420  0.67203  1.0000
  C   C800      1.0  0.24177  0.33674  0.95587  1.0000
  C   C801      1.0  0.43450  0.13122  0.98828  1.0000
  H   H948      1.0  0.38353  0.00492  0.97573  1.0000
  H   H949      1.0  0.48000  0.48550  0.86200  1.0000
  H   H950      1.0  0.43676  0.99061  0.65628  1.0000
  H   H951      1.0  0.40380  0.78639  0.09615  1.0000
  S   S221      1.0  0.37198  0.51224  0.10143  1.0000
  C   C802      1.0  0.32435  0.86240  0.23338  1.0000
  C   C803      1.0  0.48666  0.74367  0.13642  1.0000
  S   S222      1.0  0.45040  0.88202  0.00561  1.0000
  C   C804      1.0  0.24402  0.60064  0.15916  1.0000
  H   H952      1.0  0.26576  0.67082  0.02761  1.0000
  Fe  Fe111     1.0  0.42751  0.86488  0.01793  1.0000
  S   S223      1.0  0.43606  0.85025  0.04540  1.0000
  C   C805      1.0  0.39479  0.79257  0.26262  1.0000
  Fe  Fe112     1.0  0.29420  0.62426  0.11386  1.0000
  S   S224      1.0  0.32209  0.63168  0.12148  1.0000
  S   S225      1.0  0.27455  0.61302  0.13801  1.0000
  Fe  Fe113     1.0  0.30406  0.63433  0.07225  1.0000
  S   S226      1.0  0.33205  0.64296  0.07703  1.0000
  S   S227      1.0  0.29096  0.63344  0.04470  1.0000
  Fe  Fe114     1.0  0.33387  0.61710  0.09673  1.0000
  S   S228      1.0  0.36146  0.60007  0.09506  1.0000
  Fe  Fe115     1.0  0.31854  0.65704  0.10151  1.0000
  S   S229      1.0  0.32184  0.68716  0.10771  1.0000
  S   S230      1.0  0.30663  0.60768  0.09067  1.0000
  S   S231      1.0  0.28991  0.65045  0.09517  1.0000
  Fe  Fe116     1.0  0.38614  0.78889  0.18040  1.0000
  S   S232      1.0  0.40259  0.76127  0.17978  1.0000
  S   S233      1.0  0.36931  0.79651  0.20724  1.0000
  Fe  Fe117     1.0  0.39554  0.79774  0.13886  1.0000
  S   S234      1.0  0.41308  0.77113  0.13590  1.0000
  S   S235      1.0  0.38629  0.81758  0.11466  1.0000
  Fe  Fe118     1.0  0.38993  0.75749  0.15308  1.0000
  S   S236      1.0  0.38227  0.72901  0.14523  1.0000
  Fe  Fe119     1.0  0.42440  0.77686  0.16260  1.0000
  S   S237      1.0  0.45381  0.76861  0.17145  1.0000
  S   S238      1.0  0.37193  0.78394  0.15494  1.0000
  S   S239      1.0  0.40841  0.80467  0.16435  1.0000
  S   S240      1.0  0.33051  0.88131  0.29741  1.0000
  S   S241      1.0  0.37210  0.88031  0.31073  1.0000
  H   H953      1.0  0.39416  0.56063  0.02793  1.0000
  C   C806      1.0  0.26607  0.65007  0.19244  1.0000
  Fe  Fe120     1.0  0.35557  0.86090  0.29762  1.0000
  S   S242      1.0  0.37195  0.85123  0.27124  1.0000
  H   H954      1.0  0.31373  0.70301  0.01683  1.0000
  H   H955      1.0  0.25404  0.59384  0.16826  1.0000
  C   C807      1.0  0.28938  0.68802  0.02567  1.0000
  H   H956      1.0  0.27643  0.62339  0.01184  1.0000
  H   H957      1.0  0.43108  0.79073  0.19543  1.0000
  H   H958      1.0  0.38845  0.55220  0.05146  1.0000
  C   C808      1.0  0.36981  0.81261  0.22432  1.0000
  C   C809      1.0  0.38364  0.82489  0.22397  1.0000
  C   C810      1.0  0.38403  0.83648  0.23843  1.0000
  C   C811      1.0  0.37045  0.83629  0.25334  1.0000
  C   C812      1.0  0.35634  0.82437  0.25346  1.0000
  C   C813      1.0  0.35609  0.81260  0.23911  1.0000
  H   H959      1.0  0.39411  0.82539  0.21263  1.0000
  H   H960      1.0  0.39498  0.84566  0.23810  1.0000
  H   H961      1.0  0.34572  0.82407  0.26470  1.0000
  H   H962      1.0  0.34526  0.80326  0.23957  1.0000
  C   C814      1.0  0.34281  0.89247  0.24321  1.0000
  C   C815      1.0  0.47505  0.77925  0.16688  1.0000
  C   C816      1.0  0.47666  0.79553  0.15522  1.0000
  Fe  Fe121     1.0  0.42863  0.90243  0.99399  1.0000
  H   H963      1.0  0.46462  0.80224  0.14888  1.0000
  C   C817      1.0  0.33868  0.69834  0.11864  1.0000
  C   C818      1.0  0.35530  0.68917  0.12414  1.0000
  C   C819      1.0  0.36824  0.69873  0.13236  1.0000
  C   C820      1.0  0.36487  0.71759  0.13539  1.0000
  C   C821      1.0  0.34815  0.72672  0.13005  1.0000
  C   C822      1.0  0.33528  0.71721  0.12167  1.0000
  H   H964      1.0  0.35830  0.67473  0.12195  1.0000
  H   H965      1.0  0.38106  0.69142  0.13637  1.0000
  H   H966      1.0  0.34515  0.74113  0.13234  1.0000
  H   H967      1.0  0.32252  0.72455  0.11758  1.0000
  C   C823      1.0  0.31631  0.64333  0.01531  1.0000
  C   C824      1.0  0.29981  0.63529  0.02108  1.0000
  H   H968      1.0  0.42589  0.80908  0.21024  1.0000
  H   H969      1.0  0.32467  0.64772  0.02545  1.0000
  C   C825      1.0  0.30724  0.68127  0.05251  1.0000
  H   H970      1.0  0.38822  0.52978  0.13557  1.0000
  C   C826      1.0  0.25253  0.65123  0.16296  1.0000
  H   H971      1.0  0.35069  0.92287  0.22171  1.0000
  C   C827      1.0  0.42184  0.84068  0.06411  1.0000
  C   C828      1.0  0.40263  0.84391  0.06505  1.0000
  C   C829      1.0  0.39196  0.83672  0.08065  1.0000
  C   C830      1.0  0.40036  0.82617  0.09535  1.0000
  C   C831      1.0  0.41954  0.82261  0.09424  1.0000
  C   C832      1.0  0.43021  0.82990  0.07870  1.0000
  H   H972      1.0  0.39604  0.85224  0.05395  1.0000
  H   H973      1.0  0.37712  0.83956  0.08142  1.0000
  H   H974      1.0  0.42615  0.81448  0.10545  1.0000
  H   H975      1.0  0.44506  0.82723  0.07802  1.0000
  N   N53       1.0  0.43203  0.78233  0.22453  1.0000
  C   C833      1.0  0.24950  0.64458  0.20147  1.0000
  C   C834      1.0  0.35196  0.56477  0.04968  1.0000
  C   C835      1.0  0.42295  0.78835  0.24212  1.0000
  H   H976      1.0  0.42712  0.53929  0.09729  1.0000
  H   H977      1.0  0.44564  0.54714  0.10857  1.0000
  H   H978      1.0  0.47176  0.74565  0.13611  1.0000
  C   C836      1.0  0.36887  0.53665  0.09825  1.0000
  C   C837      1.0  0.35176  0.54556  0.10375  1.0000
  C   C838      1.0  0.34910  0.56499  0.10233  1.0000
  C   C839      1.0  0.36368  0.57567  0.09573  1.0000
  C   C840      1.0  0.38075  0.56676  0.09005  1.0000
  C   C841      1.0  0.38327  0.54733  0.09107  1.0000
  H   H979      1.0  0.34054  0.53739  0.10931  1.0000
  H   H980      1.0  0.33591  0.57169  0.10679  1.0000
  H   H981      1.0  0.39211  0.57494  0.08498  1.0000
  H   H982      1.0  0.39645  0.54064  0.08675  1.0000
  H   H983      1.0  0.40949  0.77787  0.07410  1.0000
  C   C842      1.0  0.43999  0.52825  0.14100  1.0000
  H   H984      1.0  0.36620  0.52889  0.05883  1.0000
  H   H985      1.0  0.28887  0.71281  0.06327  1.0000
  C   C843      1.0  0.40447  0.57924  0.13280  1.0000
  H   H986      1.0  0.37261  0.73515  0.10014  1.0000
  C   C844      1.0  0.42283  0.80431  0.27041  1.0000
  C   C845      1.0  0.28922  0.62962  0.00757  1.0000
  H   H987      1.0  0.44744  0.54081  0.14177  1.0000
  H   H988      1.0  0.35307  0.52205  0.04111  1.0000
  H   H989      1.0  0.30160  0.71710  0.04170  1.0000
  H   H990      1.0  0.36636  0.87924  0.22773  1.0000
  C   C846      1.0  0.38969  0.54839  0.03697  1.0000
  C   C847      1.0  0.33066  0.58812  0.03544  1.0000
  C   C848      1.0  0.41766  0.56449  0.13008  1.0000
  H   H991      1.0  0.32948  0.58833  0.00606  1.0000
  H   H992      1.0  0.27740  0.65122  0.20088  1.0000
  C   C849      1.0  0.41869  0.51288  0.12555  1.0000
  H   H993      1.0  0.36604  0.55567  0.14039  1.0000
  H   H994      1.0  0.41186  0.50779  0.13906  1.0000
  C   C850      1.0  0.39358  0.54322  0.13498  1.0000
  H   H995      1.0  0.31608  0.89937  0.25816  1.0000
  C   C851      1.0  0.31506  0.87526  0.24445  1.0000
  H   H996      1.0  0.37216  0.90912  0.22413  1.0000
  C   C852      1.0  0.40254  0.77445  0.08800  1.0000
  C   C853      1.0  0.35764  0.55783  0.03241  1.0000
  H   H997      1.0  0.45880  0.77818  0.20983  1.0000
  N   N54       1.0  0.38298  0.77073  0.08704  1.0000
  C   C854      1.0  0.37316  0.78713  0.07738  1.0000
  C   C855      1.0  0.37444  0.76856  0.10627  1.0000
  C   C856      1.0  0.38222  0.75421  0.07684  1.0000
  C   C857      1.0  0.38798  0.75469  0.05772  1.0000
  C   C858      1.0  0.37659  0.73709  0.08556  1.0000
  C   C859      1.0  0.38762  0.73916  0.04788  1.0000
  C   C860      1.0  0.37620  0.72168  0.07561  1.0000
  C   C861      1.0  0.38167  0.72271  0.05680  1.0000
  H   H998      1.0  0.38025  0.79165  0.06384  1.0000
  H   H999      1.0  0.37234  0.79940  0.08554  1.0000
  H   H1000     1.0  0.35879  0.78434  0.07506  1.0000
  H   H1001     1.0  0.37439  0.78145  0.11333  1.0000
  H   H1002     1.0  0.35982  0.76516  0.10657  1.0000
  H   H1003     1.0  0.38217  0.75767  0.11502  1.0000
  H   H1004     1.0  0.39306  0.76703  0.05031  1.0000
  H   H1005     1.0  0.39213  0.73986  0.03330  1.0000
  H   H1006     1.0  0.37178  0.70881  0.08268  1.0000
  H   H1007     1.0  0.38150  0.71065  0.04921  1.0000
  H   H1008     1.0  0.43186  0.56768  0.12722  1.0000
  C   C862      1.0  0.41256  0.54606  0.13058  1.0000
  C   C863      1.0  0.42422  0.79424  0.20896  1.0000
  S   S243      1.0  0.40532  0.88652  0.00804  1.0000
  C   C864      1.0  0.33875  0.57971  0.05113  1.0000
  H   H1009     1.0  0.37528  0.91111  0.26542  1.0000
  H   H1010     1.0  0.46538  0.85347  0.08186  1.0000
  C   C865      1.0  0.38593  0.57604  0.13649  1.0000
  H   H1011     1.0  0.33407  0.65321  0.99195  1.0000
  C   C866      1.0  0.40415  0.80185  0.27437  1.0000
  H   H1012     1.0  0.41384  0.76102  0.22096  1.0000
  C   C867      1.0  0.35188  0.87897  0.23213  1.0000
  H   H1013     1.0  0.39570  0.77993  0.23748  1.0000
  S   S244      1.0  0.42146  0.50512  0.02350  1.0000
  H   H1014     1.0  0.40845  0.51391  0.11486  1.0000
  H   H1015     1.0  0.45606  0.79811  0.22226  1.0000
  C   C868      1.0  0.27426  0.68273  0.05729  1.0000
  H   H1016     1.0  0.27684  0.71809  0.04246  1.0000
  C   C869      1.0  0.48270  0.86163  0.05766  1.0000
  H   H1017     1.0  0.27455  0.66746  0.05696  1.0000
  C   C870      1.0  0.32164  0.64639  0.99625  1.0000
  C   C871      1.0  0.28927  0.71049  0.04832  1.0000
  H   H1018     1.0  0.26616  0.66733  0.99490  1.0000
  H   H1019     1.0  0.30802  0.68239  0.06760  1.0000
  C   C872      1.0  0.41645  0.49036  0.00731  1.0000
  C   C873      1.0  0.27609  0.67564  0.99984  1.0000
  H   H1020     1.0  0.27480  0.68517  0.07210  1.0000
  H   H1021     1.0  0.24832  0.64176  0.21640  1.0000
  H   H1022     1.0  0.33486  0.58483  0.06452  1.0000
  H   H1023     1.0  0.48987  0.75821  0.18407  1.0000
  H   H1024     1.0  0.47971  0.88974  0.02984  1.0000
  H   H1025     1.0  0.31972  0.68720  0.04539  1.0000
  C   C874      1.0  0.30284  0.69555  0.01256  1.0000
  H   H1026     1.0  0.32037  0.59969  0.03664  1.0000
  C   C875      1.0  0.27603  0.67783  0.01872  1.0000
  H   H1027     1.0  0.38662  0.52422  0.01224  1.0000
  H   H1028     1.0  0.37563  0.58755  0.13789  1.0000
  C   C876      1.0  0.34640  0.95188  0.30733  1.0000
  H   H1029     1.0  0.38016  0.79103  0.26553  1.0000
  N   N55       1.0  0.42663  0.53086  0.12646  1.0000
  H   H1030     1.0  0.41049  0.76228  0.09477  1.0000
  S   S245      1.0  0.42182  0.50779  0.07530  1.0000
  C   C877      1.0  0.43681  0.53549  0.10834  1.0000
  N   N56       1.0  0.37217  0.54240  0.03132  1.0000
  H   H1031     1.0  0.45903  0.77529  0.23454  1.0000
  C   C878      1.0  0.36682  0.52623  0.04399  1.0000
  C   C879      1.0  0.37585  0.53604  0.01248  1.0000
  H   H1032     1.0  0.45070  0.51675  0.13832  1.0000
  H   H1033     1.0  0.40106  0.53722  0.03620  1.0000
  C   C880      1.0  0.34268  0.86433  0.22713  1.0000
  H   H1034     1.0  0.37697  0.51406  0.04257  1.0000
  C   C881      1.0  0.36784  0.90008  0.26031  1.0000
  H   H1035     1.0  0.39679  0.80749  0.28637  1.0000
  H   H1036     1.0  0.30090  0.87350  0.24961  1.0000
  H   H1037     1.0  0.30834  0.66631  0.05028  1.0000
  N   N57       1.0  0.28598  0.65893  0.16364  1.0000
  C   C882      1.0  0.30031  0.64353  0.16693  1.0000
  C   C883      1.0  0.28548  0.66320  0.14331  1.0000
  C   C884      1.0  0.29163  0.67562  0.17123  1.0000
  C   C885      1.0  0.26811  0.65360  0.17288  1.0000
  H   H1038     1.0  0.48643  0.71540  0.14765  1.0000
  H   H1039     1.0  0.38863  0.97369  0.02178  1.0000
  H   H1040     1.0  0.38119  0.54709  0.00236  1.0000
  H   H1041     1.0  0.36824  0.93005  0.23499  1.0000
  C   C886      1.0  0.25024  0.61087  0.14275  1.0000
  H   H1042     1.0  0.31391  0.64677  0.15983  1.0000
  H   H1043     1.0  0.30252  0.64027  0.18185  1.0000
  H   H1044     1.0  0.29636  0.63064  0.16168  1.0000
  H   H1045     1.0  0.28247  0.65089  0.13648  1.0000
  H   H1046     1.0  0.29900  0.66745  0.13679  1.0000
  H   H1047     1.0  0.27499  0.67472  0.13979  1.0000
  H   H1048     1.0  0.29462  0.67306  0.18603  1.0000
  H   H1049     1.0  0.30448  0.68060  0.16374  1.0000
  H   H1050     1.0  0.28065  0.68716  0.17002  1.0000
  S   S246      1.0  0.35507  0.92921  0.30214  1.0000
  C   C887      1.0  0.42535  0.95397  0.99676  1.0000
  H   H1051     1.0  0.35000  0.85399  0.21893  1.0000
  S   S247      1.0  0.42790  0.84857  0.99311  1.0000
  H   H1052     1.0  0.25285  0.65291  0.14805  1.0000
  H   H1053     1.0  0.33545  0.91535  0.27228  1.0000
  C   C888      1.0  0.34111  0.92157  0.25867  1.0000
  H   H1054     1.0  0.40223  0.94297  0.01315  1.0000
  H   H1055     1.0  0.35781  0.55876  0.06224  1.0000
  N   N58       1.0  0.35295  0.90778  0.24840  1.0000
  C   C889      1.0  0.34915  0.56676  0.01662  1.0000
  C   C890      1.0  0.32226  0.97394  0.31886  1.0000
  C   C891      1.0  0.40139  0.97273  0.01317  1.0000
  H   H1056     1.0  0.44657  0.80031  0.25222  1.0000
  H   H1057     1.0  0.37823  0.89068  0.25313  1.0000
  C   C892      1.0  0.33583  0.58166  0.01823  1.0000
  C   C893      1.0  0.36135  0.91786  0.23156  1.0000
  C   C894      1.0  0.43220  0.79767  0.25456  1.0000
  H   H1058     1.0  0.34901  0.93310  0.26204  1.0000
  H   H1059     1.0  0.43304  0.75356  0.23466  1.0000
  Fe  Fe122     1.0  0.34667  0.89998  0.31193  1.0000
  C   C895      1.0  0.32404  0.89015  0.24929  1.0000
  H   H1060     1.0  0.26072  0.68903  0.05278  1.0000
  C   C896      1.0  0.38055  0.55806  0.13786  1.0000
  H   H1061     1.0  0.37097  0.96410  0.29521  1.0000
  H   H1062     1.0  0.43289  0.52486  0.15487  1.0000
  C   C897      1.0  0.35738  0.96674  0.30196  1.0000
  H   H1063     1.0  0.44633  0.52368  0.10396  1.0000
  H   H1064     1.0  0.36326  0.53112  0.00743  1.0000
  H   H1065     1.0  0.40923  0.79277  0.20831  1.0000
  H   H1066     1.0  0.36212  0.89175  0.27268  1.0000
  H   H1067     1.0  0.32021  0.94433  0.32022  1.0000
  H   H1068     1.0  0.31749  0.85069  0.22993  1.0000
  C   C898      1.0  0.45236  0.78356  0.22288  1.0000
  H   H1069     1.0  0.43616  0.75771  0.20984  1.0000
  C   C899      1.0  0.40393  0.78608  0.24664  1.0000
  C   C900      1.0  0.40902  0.95530  0.00819  1.0000
  H   H1070     1.0  0.42998  0.81171  0.27956  1.0000
  H   H1071     1.0  0.32947  0.92783  0.25056  1.0000
  C   C901      1.0  0.42861  0.76284  0.22251  1.0000
  H   H1072     1.0  0.47076  0.86705  0.05034  1.0000
  C   C902      1.0  0.32886  0.95556  0.31605  1.0000
  H   H1073     1.0  0.40855  0.59329  0.13167  1.0000
  H   H1074     1.0  0.36014  0.92629  0.99277  1.0000
  N   N59       1.0  0.28989  0.69052  0.04559  1.0000
  H   H1075     1.0  0.35254  0.56255  0.00287  1.0000
  Fe  Fe123     1.0  0.39631  0.49549  0.08819  1.0000
  H   H1076     1.0  0.48030  0.85754  0.02099  1.0000
  H   H1077     1.0  0.42948  0.50183  0.12188  1.0000
  C   C903      1.0  0.47945  0.85373  0.07575  1.0000
  C   C904      1.0  0.43407  0.97018  0.99070  1.0000
  C   C905      1.0  0.30281  0.69319  0.99371  1.0000
  Fe  Fe124     1.0  0.41852  0.49074  0.05206  1.0000
  C   C906      1.0  0.42655  0.98757  0.99581  1.0000
  C   C907      1.0  0.35091  0.98508  0.30507  1.0000
  H   H1078     1.0  0.47732  0.97152  0.00289  1.0000
  H   H1079     1.0  0.24144  0.62762  0.11861  1.0000
  C   C908      1.0  0.33318  0.98884  0.31332  1.0000
  C   C909      1.0  0.41005  0.98897  0.00694  1.0000
  H   H1080     1.0  0.27163  0.80182  0.56514  1.0000
  S   S248      1.0  0.29127  0.86309  0.33261  1.0000
  S   S249      1.0  0.45995  0.86832  0.60203  1.0000
  S   S250      1.0  0.46470  0.89021  0.41856  1.0000
  H   H1081     1.0  0.45433  0.92969  0.51187  1.0000
  Fe  Fe125     1.0  0.47748  0.88185  0.39126  1.0000
  S   S251      1.0  0.46455  0.87123  0.36720  1.0000
  H   H1082     1.0  0.44107  0.91281  0.37687  1.0000
  H   H1083     1.0  0.44442  0.94558  0.38134  1.0000
  H   H1084     1.0  0.41301  0.90372  0.36535  1.0000
  S   S252      1.0  0.37830  0.86371  0.36353  1.0000
  S   S253      1.0  0.33677  0.88820  0.34026  1.0000
  C   C910      1.0  0.47583  0.96142  0.40910  1.0000
  H   H1085     1.0  0.25180  0.86362  0.33982  1.0000
  H   H1086     1.0  0.32168  0.84478  0.60156  1.0000
  C   C911      1.0  0.31027  0.84196  0.59379  1.0000
  C   C912      1.0  0.25477  0.85274  0.63283  1.0000
  C   C913      1.0  0.45449  0.95880  0.50829  1.0000
  C   C914      1.0  0.28149  0.86844  0.64073  1.0000
  C   C915      1.0  0.43004  0.92327  0.37350  1.0000
  C   C916      1.0  0.25333  0.83286  0.37830  1.0000
  C   C917      1.0  0.39908  0.93140  0.36248  1.0000
  C   C918      1.0  0.27715  0.85160  0.35082  1.0000
  C   C919      1.0  0.25776  0.85431  0.35063  1.0000
  H   H1087     1.0  0.41147  0.91731  0.61573  1.0000
  C   C920      1.0  0.27271  0.83008  0.37844  1.0000
  C   C921      1.0  0.28452  0.83944  0.36495  1.0000
  H   H1088     1.0  0.48679  0.94482  0.52374  1.0000
  H   H1089     1.0  0.45855  0.98748  0.63189  1.0000
  H   H1090     1.0  0.36952  0.92029  0.38372  1.0000
  S   S254      1.0  0.46206  0.94333  0.41685  1.0000
  C   C922      1.0  0.45727  0.93934  0.48226  1.0000
  H   H1091     1.0  0.24969  0.82776  0.65002  1.0000
  H   H1092     1.0  0.25552  0.80898  0.58346  1.0000
  C   C923      1.0  0.44047  0.86958  0.36638  1.0000
  C   C924      1.0  0.42853  0.86910  0.38240  1.0000
  C   C925      1.0  0.40960  0.86704  0.38127  1.0000
  C   C926      1.0  0.40232  0.86583  0.36413  1.0000
  C   C927      1.0  0.41421  0.86659  0.34807  1.0000
  C   C928      1.0  0.43321  0.86829  0.34924  1.0000
  H   H1093     1.0  0.43393  0.86992  0.39569  1.0000
  H   H1094     1.0  0.40054  0.86639  0.39378  1.0000
  C   C929      1.0  0.25844  0.83912  0.64728  1.0000
  H   H1095     1.0  0.40882  0.86557  0.33481  1.0000
  H   H1096     1.0  0.29934  0.83705  0.36536  1.0000
  H   H1097     1.0  0.29025  0.87976  0.63797  1.0000
  C   C930      1.0  0.27909  0.83311  0.59324  1.0000
  C   C931      1.0  0.43892  0.87738  0.61281  1.0000
  C   C932      1.0  0.43297  0.89608  0.60984  1.0000
  C   C933      1.0  0.41605  0.90286  0.61830  1.0000
  C   C934      1.0  0.40507  0.89113  0.63010  1.0000
  C   C935      1.0  0.42790  0.86557  0.62450  1.0000
  H   H1098     1.0  0.44127  0.90529  0.60081  1.0000
  C   C936      1.0  0.26743  0.83368  0.54305  1.0000
  N   N60       1.0  0.48432  0.86186  0.65192  1.0000
  C   C937      1.0  0.46903  0.97969  0.41098  1.0000
  H   H1099     1.0  0.43238  0.85108  0.62684  1.0000
  N   N61       1.0  0.38191  0.92542  0.35607  1.0000
  Fe  Fe126     1.0  0.47792  0.91668  0.41116  1.0000
  C   C938      1.0  0.28491  0.85501  0.65544  1.0000
  N   N62       1.0  0.26422  0.83109  0.56351  1.0000
  C   C939      1.0  0.45573  0.97464  0.49606  1.0000
  Fe  Fe127     1.0  0.36151  0.86760  0.33811  1.0000
  S   S255      1.0  0.48848  0.90946  0.38303  1.0000
  C   C940      1.0  0.28021  0.83485  0.57359  1.0000
  H   H1100     1.0  0.37385  0.95061  0.33960  1.0000
  H   H1101     1.0  0.45301  0.96005  0.52310  1.0000
  H   H1102     1.0  0.27868  0.82057  0.38909  1.0000
  C   C941      1.0  0.45753  0.97314  0.47707  1.0000
  C   C942      1.0  0.31189  0.84380  0.57452  1.0000
  H   H1103     1.0  0.39106  0.96120  0.36218  1.0000
  H   H1104     1.0  0.29483  0.90815  0.65348  1.0000
  H   H1105     1.0  0.36326  0.94879  0.36305  1.0000
  H   H1106     1.0  0.37351  0.91106  0.33397  1.0000
  H   H1107     1.0  0.48047  0.86073  0.49843  1.0000
  H   H1108     1.0  0.36017  0.90803  0.36665  1.0000
  S   S256      1.0  0.48114  0.90337  0.56067  1.0000
  H   H1109     1.0  0.39369  0.92349  0.32819  1.0000
  H   H1110     1.0  0.26663  0.82922  0.60117  1.0000
  C   C943      1.0  0.48192  0.84405  0.64440  1.0000
  H   H1111     1.0  0.45523  0.98265  0.41712  1.0000
  H   H1112     1.0  0.44265  0.90696  0.45701  1.0000
  H   H1113     1.0  0.42905  0.92301  0.47093  1.0000
  H   H1114     1.0  0.45958  0.95544  0.45534  1.0000
  C   C944      1.0  0.41108  0.87243  0.63323  1.0000
  C   C945      1.0  0.29714  0.84030  0.56446  1.0000
  H   H1115     1.0  0.27332  0.81515  0.33705  1.0000
  H   H1116     1.0  0.41931  0.96940  0.37385  1.0000
  H   H1117     1.0  0.39475  0.90190  0.34248  1.0000
  H   H1118     1.0  0.29935  0.84204  0.54958  1.0000
  H   H1119     1.0  0.35561  0.93591  0.34587  1.0000
  C   C946      1.0  0.25069  0.79929  0.34820  1.0000
  H   H1120     1.0  0.25143  0.85837  0.56709  1.0000
  C   C947      1.0  0.41774  0.95508  0.37178  1.0000
  H   H1121     1.0  0.47693  0.92897  0.45111  1.0000
  S   S257      1.0  0.38401  0.90068  0.64040  1.0000
  C   C948      1.0  0.45968  0.88888  0.65043  1.0000
  C   C949      1.0  0.45529  0.94135  0.50159  1.0000
  S   S258      1.0  0.34663  0.84634  0.32548  1.0000
  H   H1122     1.0  0.46916  0.90451  0.49798  1.0000
  C   C950      1.0  0.37304  0.91310  0.37096  1.0000
  S   S259      1.0  0.47943  0.95486  0.56500  1.0000
  H   H1123     1.0  0.47671  0.90481  0.45701  1.0000
  C   C951      1.0  0.25888  0.76720  0.35821  1.0000
  C   C952      1.0  0.41389  0.91818  0.36686  1.0000
  C   C953      1.0  0.44250  0.92056  0.46289  1.0000
  H   H1124     1.0  0.48755  0.87580  0.62459  1.0000
  C   C954      1.0  0.40150  0.95012  0.36510  1.0000
  H   H1125     1.0  0.27026  0.84820  0.53826  1.0000
  H   H1126     1.0  0.25558  0.75367  0.36430  1.0000
  H   H1127     1.0  0.29267  0.83525  0.61815  1.0000
  H   H1128     1.0  0.38211  0.90052  0.37484  1.0000
  C   C955      1.0  0.45824  0.95581  0.47022  1.0000
  C   C956      1.0  0.24595  0.84517  0.36429  1.0000
  H   H1129     1.0  0.26398  0.87796  0.61850  1.0000
  H   H1130     1.0  0.27905  0.82417  0.53793  1.0000
  Fe  Fe128     1.0  0.32225  0.86782  0.32608  1.0000
  H   H1131     1.0  0.24293  0.84066  0.58347  1.0000
  H   H1132     1.0  0.47623  0.83369  0.65502  1.0000
  H   H1133     1.0  0.44234  0.86855  0.33679  1.0000
  H   H1134     1.0  0.40273  0.86325  0.64223  1.0000
  H   H1135     1.0  0.45853  0.89178  0.48258  1.0000
  H   H1136     1.0  0.32467  0.84802  0.56734  1.0000
  H   H1137     1.0  0.29692  0.78906  0.34110  1.0000
  H   H1138     1.0  0.45844  0.98550  0.46755  1.0000
  C   C957      1.0  0.45744  0.90522  0.48893  1.0000
  N   N63       1.0  0.45817  0.92115  0.47460  1.0000
  H   H1139     1.0  0.25178  0.92998  0.65064  1.0000
  C   C958      1.0  0.43194  0.94169  0.37601  1.0000
  H   H1140     1.0  0.44422  0.90578  0.49767  1.0000
  H   H1141     1.0  0.48740  0.88842  0.33700  1.0000
  C   C959      1.0  0.36815  0.94094  0.35100  1.0000
  H   H1142     1.0  0.43737  0.91026  0.64979  1.0000
  C   C960      1.0  0.26652  0.86734  0.62963  1.0000
  Fe  Fe129     1.0  0.48128  0.88744  0.58869  1.0000
  C   C961      1.0  0.47565  0.91835  0.46303  1.0000
  C   C962      1.0  0.29393  0.83658  0.60312  1.0000
  H   H1143     1.0  0.44288  0.93113  0.45083  1.0000
  C   C963      1.0  0.25963  0.81171  0.56848  1.0000
  H   H1144     1.0  0.24127  0.81145  0.34640  1.0000
  C   C964      1.0  0.28254  0.78697  0.34507  1.0000
  C   C965      1.0  0.24494  0.78193  0.35623  1.0000
  H   H1145     1.0  0.47229  0.84614  0.63308  1.0000
  H   H1146     1.0  0.46764  0.89698  0.64000  1.0000
  S   S260      1.0  0.48812  0.91138  0.60333  1.0000
  H   H1147     1.0  0.28785  0.75839  0.35464  1.0000
  C   C966      1.0  0.48909  0.97105  0.57679  1.0000
  C   C967      1.0  0.26921  0.80165  0.34274  1.0000
  H   H1148     1.0  0.25507  0.83068  0.53602  1.0000
  H   H1149     1.0  0.28312  0.93069  0.64988  1.0000
  H   H1150     1.0  0.24782  0.80827  0.56094  1.0000
  C   C968      1.0  0.38626  0.91506  0.33950  1.0000
  C   C969      1.0  0.27739  0.76975  0.35273  1.0000
  Fe  Fe130     1.0  0.49057  0.92632  0.57499  1.0000
  C   C970      1.0  0.24803  0.84367  0.56883  1.0000
  S   S261      1.0  0.48942  0.86651  0.45929  1.0000
  H   H1151     1.0  0.48782  0.91860  0.47128  1.0000
  H   H1152     1.0  0.30851  0.97664  0.32522  1.0000
  H   H1153     1.0  0.45525  0.98812  0.50131  1.0000
  C   C971      1.0  0.44223  0.89679  0.65600  1.0000
  H   H1154     1.0  0.46769  0.80548  0.83066  1.0000
  H   H1155     1.0  0.25174  0.54304  0.90100  1.0000
  S   S262      1.0  0.40293  0.52468  0.89732  1.0000
  C   C972      1.0  0.48350  0.86449  0.87905  1.0000
  S   S263      1.0  0.38545  0.86683  0.96332  1.0000
  H   H1156     1.0  0.45815  0.90189  0.91321  1.0000
  H   H1157     1.0  0.34677  0.93240  0.97274  1.0000
  Fe  Fe131     1.0  0.28543  0.63049  0.89920  1.0000
  S   S264      1.0  0.31067  0.62357  0.88053  1.0000
  S   S265      1.0  0.25563  0.62446  0.89346  1.0000
  Fe  Fe132     1.0  0.30962  0.63701  0.93169  1.0000
  S   S266      1.0  0.33569  0.62906  0.91464  1.0000
  S   S267      1.0  0.31707  0.64748  0.95889  1.0000
  Fe  Fe133     1.0  0.32324  0.64766  0.89146  1.0000
  S   S268      1.0  0.34353  0.66708  0.87488  1.0000
  Fe  Fe134     1.0  0.32100  0.60616  0.90544  1.0000
  S   S269      1.0  0.32734  0.57492  0.90643  1.0000
  S   S270      1.0  0.29723  0.65593  0.90856  1.0000
  S   S271      1.0  0.29571  0.61272  0.92407  1.0000
  Fe  Fe135     1.0  0.39415  0.80588  0.83229  1.0000
  S   S272      1.0  0.40281  0.77542  0.83129  1.0000
  S   S273      1.0  0.37628  0.82378  0.81131  1.0000
  Fe  Fe136     1.0  0.40550  0.80541  0.87272  1.0000
  S   S274      1.0  0.41384  0.77495  0.87412  1.0000
  S   S275      1.0  0.41555  0.81932  0.89653  1.0000
  Fe  Fe137     1.0  0.42785  0.78149  0.84587  1.0000
  S   S276      1.0  0.45732  0.76800  0.84262  1.0000
  Fe  Fe138     1.0  0.38828  0.77121  0.85978  1.0000
  S   S277      1.0  0.36529  0.75152  0.86967  1.0000
  S   S278      1.0  0.42024  0.81207  0.84476  1.0000
  S   S279      1.0  0.37884  0.80154  0.86048  1.0000
  C   C973      1.0  0.47672  0.51536  0.86409  1.0000
  S   S280      1.0  0.36793  0.89892  0.69161  1.0000
  H   H1158     1.0  0.40570  0.92548  0.96581  1.0000
  Fe  Fe139     1.0  0.32754  0.87253  0.67674  1.0000
  S   S281      1.0  0.32879  0.88130  0.70571  1.0000
  H   H1159     1.0  0.29345  0.54378  0.87344  1.0000
  Fe  Fe140     1.0  0.33794  0.90842  0.69168  1.0000
  S   S282      1.0  0.32479  0.93614  0.70065  1.0000
  Fe  Fe141     1.0  0.35891  0.87118  0.70378  1.0000
  S   S283      1.0  0.37742  0.85592  0.72573  1.0000
  H   H1160     1.0  0.39280  0.73835  0.93624  1.0000
  S   S284      1.0  0.35743  0.86067  0.67563  1.0000
  C   C974      1.0  0.48687  0.49808  0.86210  1.0000
  C   C975      1.0  0.33588  0.95720  0.69984  1.0000
  C   C976      1.0  0.32508  0.97389  0.70210  1.0000
  C   C977      1.0  0.36335  0.97441  0.69822  1.0000
  C   C978      1.0  0.35510  0.95760  0.69775  1.0000
  H   H1161     1.0  0.31022  0.97381  0.70381  1.0000
  H   H1162     1.0  0.36364  0.94496  0.69590  1.0000
  C   C979      1.0  0.37668  0.83164  0.78720  1.0000
  C   C980      1.0  0.39245  0.82939  0.77514  1.0000
  C   C981      1.0  0.39228  0.83673  0.75643  1.0000
  C   C982      1.0  0.37633  0.84627  0.74935  1.0000
  C   C983      1.0  0.36042  0.84819  0.76132  1.0000
  C   C984      1.0  0.36064  0.84096  0.78007  1.0000
  H   H1163     1.0  0.40491  0.82227  0.78028  1.0000
  H   H1164     1.0  0.40468  0.83508  0.74736  1.0000
  H   H1165     1.0  0.34802  0.85541  0.75622  1.0000
  H   H1166     1.0  0.34832  0.84281  0.78920  1.0000
  C   C985      1.0  0.29475  0.63233  0.98852  1.0000
  C   C986      1.0  0.28944  0.68327  0.98737  1.0000
  C   C987      1.0  0.34878  0.69089  0.87272  1.0000
  C   C988      1.0  0.33667  0.70503  0.87952  1.0000
  C   C989      1.0  0.34192  0.72341  0.87826  1.0000
  C   C990      1.0  0.35932  0.72807  0.87016  1.0000
  C   C991      1.0  0.37130  0.71403  0.86302  1.0000
  C   C992      1.0  0.36603  0.69565  0.86425  1.0000
  H   H1167     1.0  0.32327  0.70179  0.88586  1.0000
  H   H1168     1.0  0.33245  0.73408  0.88380  1.0000
  H   H1169     1.0  0.38472  0.71725  0.85672  1.0000
  H   H1170     1.0  0.37554  0.68495  0.85882  1.0000
  H   H1171     1.0  0.47139  0.89881  0.89180  1.0000
  H   H1172     1.0  0.48065  0.54445  0.86716  1.0000
  H   H1173     1.0  0.28543  0.57789  0.90926  1.0000
  H   H1174     1.0  0.26061  0.62529  0.85249  1.0000
  C   C993      1.0  0.45203  0.86727  0.92308  1.0000
  Fe  Fe142     1.0  0.40656  0.49349  0.90497  1.0000
  H   H1175     1.0  0.45524  0.85266  0.92858  1.0000
  H   H1176     1.0  0.48932  0.84867  0.67916  1.0000
  H   H1177     1.0  0.44469  0.84565  0.89965  1.0000
  H   H1178     1.0  0.41672  0.89294  0.67228  1.0000
  C   C994      1.0  0.39323  0.85312  0.94492  1.0000
  C   C995      1.0  0.41148  0.84554  0.94344  1.0000
  C   C996      1.0  0.41771  0.83485  0.92881  1.0000
  C   C997      1.0  0.40594  0.83176  0.91524  1.0000
  C   C998      1.0  0.38760  0.83923  0.91667  1.0000
  C   C999      1.0  0.38127  0.84986  0.93151  1.0000
  H   H1179     1.0  0.42084  0.84782  0.95364  1.0000
  H   H1180     1.0  0.43179  0.82889  0.92803  1.0000
  H   H1181     1.0  0.37838  0.83696  0.90631  1.0000
  H   H1182     1.0  0.36710  0.85562  0.93254  1.0000
  H   H1183     1.0  0.45116  0.87557  0.93522  1.0000
  C   C1000     1.0  0.45054  0.50645  0.88402  1.0000
  H   H1184     1.0  0.28425  0.53859  0.89682  1.0000
  H   H1185     1.0  0.43338  0.50949  0.85177  1.0000
  C   C1001     1.0  0.47361  0.84076  0.86181  1.0000
  H   H1186     1.0  0.29794  0.91102  0.69502  1.0000
  H   H1187     1.0  0.27843  0.59411  0.87170  1.0000
  C   C1002     1.0  0.34870  0.56143  0.90439  1.0000
  C   C1003     1.0  0.34872  0.54210  0.90774  1.0000
  C   C1004     1.0  0.36523  0.53069  0.90590  1.0000
  C   C1005     1.0  0.38189  0.53851  0.90049  1.0000
  C   C1006     1.0  0.38189  0.55785  0.89713  1.0000
  C   C1007     1.0  0.36539  0.56929  0.89915  1.0000
  H   H1188     1.0  0.33590  0.53589  0.91180  1.0000
  H   H1189     1.0  0.36502  0.51585  0.90847  1.0000
  H   H1190     1.0  0.39470  0.56402  0.89292  1.0000
  H   H1191     1.0  0.36555  0.58412  0.89645  1.0000
  H   H1192     1.0  0.44919  0.82801  0.87312  1.0000
  N   N64       1.0  0.36255  0.67419  0.93010  1.0000
  C   C1008     1.0  0.36323  0.66064  0.94668  1.0000
  C   C1009     1.0  0.34286  0.67842  0.92636  1.0000
  C   C1010     1.0  0.37234  0.66508  0.91433  1.0000
  C   C1011     1.0  0.37095  0.69161  0.93220  1.0000
  C   C1012     1.0  0.37850  0.69527  0.94879  1.0000
  C   C1013     1.0  0.37163  0.70565  0.91730  1.0000
  C   C1014     1.0  0.38631  0.71197  0.95015  1.0000
  C   C1015     1.0  0.37938  0.72228  0.91880  1.0000
  C   C1016     1.0  0.38674  0.72543  0.93519  1.0000
  H   H1193     1.0  0.35518  0.66611  0.95888  1.0000
  H   H1194     1.0  0.35687  0.64770  0.94444  1.0000
  H   H1195     1.0  0.37766  0.65647  0.95016  1.0000
  H   H1196     1.0  0.33510  0.68559  0.93772  1.0000
  H   H1197     1.0  0.33587  0.66570  0.92502  1.0000
  H   H1198     1.0  0.34109  0.68719  0.91325  1.0000
  H   H1199     1.0  0.38733  0.66233  0.91629  1.0000
  H   H1200     1.0  0.36671  0.65172  0.91249  1.0000
  H   H1201     1.0  0.37098  0.67351  0.90091  1.0000
  H   H1202     1.0  0.37856  0.68547  0.96088  1.0000
  H   H1203     1.0  0.36615  0.70388  0.90430  1.0000
  H   H1204     1.0  0.45577  0.51253  0.89586  1.0000
  H   H1205     1.0  0.37967  0.73276  0.90711  1.0000
  Fe  Fe143     1.0  0.40784  0.87127  0.98203  1.0000
  N   N65       1.0  0.36547  0.91032  0.74815  1.0000
  C   C1017     1.0  0.38144  0.91016  0.73415  1.0000
  C   C1018     1.0  0.34988  0.90306  0.73998  1.0000
  C   C1019     1.0  0.36039  0.92991  0.75164  1.0000
  C   C1020     1.0  0.36930  0.89902  0.76567  1.0000
  C   C1021     1.0  0.38567  0.88715  0.76778  1.0000
  C   C1022     1.0  0.35602  0.89899  0.78103  1.0000
  C   C1023     1.0  0.38861  0.87635  0.78438  1.0000
  C   C1024     1.0  0.35907  0.88801  0.79752  1.0000
  C   C1025     1.0  0.28936  0.92063  0.66048  1.0000
  H   H1206     1.0  0.38493  0.89610  0.72938  1.0000
  H   H1207     1.0  0.37848  0.91948  0.72151  1.0000
  H   H1208     1.0  0.39386  0.91493  0.73966  1.0000
  H   H1209     1.0  0.35317  0.88833  0.73717  1.0000
  H   H1210     1.0  0.34656  0.91111  0.72671  1.0000
  H   H1211     1.0  0.33701  0.90367  0.74922  1.0000
  H   H1212     1.0  0.34719  0.93173  0.76020  1.0000
  H   H1213     1.0  0.37134  0.93561  0.75875  1.0000
  H   H1214     1.0  0.35830  0.93884  0.73850  1.0000
  H   H1215     1.0  0.39618  0.88545  0.75664  1.0000
  H   H1216     1.0  0.34297  0.90711  0.78025  1.0000
  H   H1217     1.0  0.45174  0.54423  0.85322  1.0000
  S   S285      1.0  0.33473  0.90029  0.66315  1.0000
  H   H1218     1.0  0.41982  0.51072  0.98405  1.0000
  N   N66       1.0  0.34708  0.76792  0.81646  1.0000
  C   C1026     1.0  0.35024  0.78292  0.82801  1.0000
  C   C1027     1.0  0.33164  0.75777  0.82590  1.0000
  C   C1028     1.0  0.36371  0.75474  0.81582  1.0000
  C   C1029     1.0  0.34364  0.77592  0.79743  1.0000
  C   C1030     1.0  0.32765  0.77289  0.78846  1.0000
  C   C1031     1.0  0.35663  0.78713  0.78724  1.0000
  C   C1032     1.0  0.32485  0.78088  0.77052  1.0000
  C   C1033     1.0  0.35366  0.79508  0.76937  1.0000
  C   C1034     1.0  0.33779  0.79200  0.76104  1.0000
  H   H1219     1.0  0.33909  0.79430  0.82700  1.0000
  H   H1220     1.0  0.35090  0.77791  0.84288  1.0000
  H   H1221     1.0  0.36349  0.78911  0.82392  1.0000
  H   H1222     1.0  0.31870  0.76696  0.82713  1.0000
  H   H1223     1.0  0.33475  0.75221  0.84026  1.0000
  H   H1224     1.0  0.32911  0.74557  0.81863  1.0000
  H   H1225     1.0  0.36710  0.74877  0.82994  1.0000
  H   H1226     1.0  0.36173  0.74307  0.80757  1.0000
  H   H1227     1.0  0.37612  0.76139  0.80946  1.0000
  H   H1228     1.0  0.31708  0.76447  0.79501  1.0000
  H   H1229     1.0  0.36917  0.79001  0.79309  1.0000
  H   H1230     1.0  0.31254  0.77849  0.76392  1.0000
  H   H1231     1.0  0.36370  0.80380  0.76200  1.0000
  H   H1232     1.0  0.33555  0.79827  0.74719  1.0000
  C   C1035     1.0  0.46067  0.89272  0.90171  1.0000
  H   H1233     1.0  0.40093  0.86699  0.78554  1.0000
  H   H1234     1.0  0.46520  0.78831  0.87993  1.0000
  H   H1235     1.0  0.37823  0.97447  0.69681  1.0000
  H   H1236     1.0  0.39170  0.90693  0.97328  1.0000
  H   H1237     1.0  0.28621  0.62827  0.97834  1.0000
  H   H1238     1.0  0.39209  0.71450  0.96286  1.0000
  H   H1239     1.0  0.26753  0.56274  0.91405  1.0000
  H   H1240     1.0  0.29205  0.57635  0.85959  1.0000
  C   C1036     1.0  0.26889  0.93273  0.68482  1.0000
  H   H1241     1.0  0.40410  0.95476  0.95313  1.0000
  C   C1037     1.0  0.28723  0.58089  0.87342  1.0000
  H   H1242     1.0  0.27756  0.89981  0.70287  1.0000
  H   H1243     1.0  0.35934  0.91033  0.97577  1.0000
  C   C1038     1.0  0.46945  0.80620  0.92062  1.0000
  H   H1244     1.0  0.34861  0.88790  0.80895  1.0000
  H   H1245     1.0  0.41266  0.48981  0.96105  1.0000
  H   H1246     1.0  0.42710  0.86175  0.68582  1.0000
  N   N67       1.0  0.27730  0.56647  0.88508  1.0000
  H   H1247     1.0  0.25837  0.92964  0.69639  1.0000
  C   C1039     1.0  0.39277  0.92199  0.97402  1.0000
  C   C1040     1.0  0.48341  0.89133  0.96978  1.0000
  H   H1248     1.0  0.44670  0.96933  0.98185  1.0000
  Fe  Fe144     1.0  0.44924  0.86705  0.98042  1.0000
  H   H1249     1.0  0.28015  0.93950  0.69051  1.0000
  H   H1250     1.0  0.40719  0.98715  0.95711  1.0000
  H   H1251     1.0  0.45772  0.84767  0.67689  1.0000
  C   C1041     1.0  0.44877  0.50781  0.85103  1.0000
  Fe  Fe145     1.0  0.36454  0.88916  0.66385  1.0000
  H   H1252     1.0  0.28979  0.68091  0.97284  1.0000
  C   C1042     1.0  0.26070  0.90655  0.66972  1.0000
  C   C1043     1.0  0.45890  0.83812  0.87488  1.0000
  C   C1044     1.0  0.43639  0.86941  0.67617  1.0000
  C   C1045     1.0  0.26020  0.56193  0.87734  1.0000
  H   H1253     1.0  0.45229  0.49263  0.85169  1.0000
  H   H1254     1.0  0.43796  0.86869  0.91788  1.0000
  H   H1255     1.0  0.30336  0.55246  0.89236  1.0000
  H   H1256     1.0  0.26241  0.94322  0.67473  1.0000
  C   C1046     1.0  0.25656  0.88819  0.67613  1.0000
  C   C1047     1.0  0.44762  0.53571  0.86615  1.0000
  H   H1257     1.0  0.29984  0.58414  0.87979  1.0000
  H   H1258     1.0  0.44692  0.79532  0.90877  1.0000
  S   S286      1.0  0.42945  0.88853  0.96764  1.0000
  C   C1048     1.0  0.28653  0.90380  0.69031  1.0000
  H   H1259     1.0  0.27571  0.82979  0.66974  1.0000
  C   C1049     1.0  0.39499  0.98063  0.96309  1.0000
  H   H1260     1.0  0.31341  0.69871  0.98396  1.0000
  C   C1050     1.0  0.37534  0.87673  0.79919  1.0000
  H   H1261     1.0  0.43532  0.50695  0.88629  1.0000
  H   H1262     1.0  0.45400  0.51399  0.83724  1.0000
  H   H1263     1.0  0.45109  0.54254  0.87834  1.0000
  H   H1264     1.0  0.37380  0.91571  0.94531  1.0000
  N   N68       1.0  0.37626  0.93307  0.96728  1.0000
  C   C1051     1.0  0.47862  0.77856  0.84114  1.0000
  C   C1052     1.0  0.47997  0.79711  0.83458  1.0000
  S   S287      1.0  0.30299  0.85604  0.67077  1.0000
  C   C1053     1.0  0.31083  0.64109  0.98271  1.0000
  C   C1054     1.0  0.45390  0.86143  0.67084  1.0000
  C   C1055     1.0  0.27294  0.57337  0.90359  1.0000
  H   H1265     1.0  0.36319  0.93892  0.94167  1.0000
  H   H1266     1.0  0.26277  0.57902  0.85080  1.0000
  H   H1267     1.0  0.44770  0.89333  0.89445  1.0000
  N   N69       1.0  0.27609  0.91563  0.67630  1.0000
  H   H1268     1.0  0.37744  0.86775  0.81175  1.0000
  C   C1056     1.0  0.29008  0.54958  0.88701  1.0000
  N   N70       1.0  0.46633  0.87348  0.90867  1.0000
  C   C1057     1.0  0.39312  0.96203  0.96102  1.0000
  H   H1269     1.0  0.43223  0.53599  0.86725  1.0000
  C   C1058     1.0  0.48710  0.53083  0.86531  1.0000
  H   H1270     1.0  0.29307  0.89103  0.68454  1.0000
  S   S288      1.0  0.47506  0.85673  0.96451  1.0000
  C   C1059     1.0  0.48798  0.81015  0.91817  1.0000
  C   C1060     1.0  0.46128  0.79843  0.90684  1.0000
  C   C1061     1.0  0.27328  0.84032  0.65849  1.0000
  C   C1062     1.0  0.36437  0.96356  0.98011  1.0000
  C   C1063     1.0  0.25497  0.56918  0.85950  1.0000
  N   N71       1.0  0.45630  0.51651  0.86618  1.0000
  C   C1064     1.0  0.37777  0.95287  0.96951  1.0000
  H   H1271     1.0  0.26252  0.58546  0.90287  1.0000
  H   H1272     1.0  0.26461  0.87959  0.68596  1.0000
  H   H1273     1.0  0.46140  0.80897  0.93337  1.0000
  C   C1065     1.0  0.46889  0.86184  0.89292  1.0000
  C   C1066     1.0  0.35985  0.92530  0.97761  1.0000
  C   C1067     1.0  0.24779  0.61924  0.85700  1.0000
  H   H1274     1.0  0.46875  0.89508  0.97017  1.0000
  H   H1275     1.0  0.38782  0.93453  0.93895  1.0000
  H   H1276     1.0  0.48200  0.88193  0.92991  1.0000
  C   C1068     1.0  0.43055  0.88703  0.66871  1.0000
  C   C1069     1.0  0.37521  0.93048  0.94743  1.0000
  C   C1070     1.0  0.45651  0.84842  0.89024  1.0000
  C   C1071     1.0  0.47161  0.79452  0.89058  1.0000
  C   C1072     1.0  0.24851  0.54933  0.88748  1.0000
  H   H1277     1.0  0.30137  0.92713  0.66503  1.0000
  C   C1073     1.0  0.46603  0.87084  0.65764  1.0000
  H   H1278     1.0  0.45548  0.49159  0.88468  1.0000
  H   H1279     1.0  0.48968  0.91780  0.97726  1.0000
  S   S289      1.0  0.43526  0.93267  0.98905  1.0000
  C   C1074     1.0  0.24236  0.61710  0.87594  1.0000
  H   H1280     1.0  0.47525  0.83273  0.84995  1.0000
  H   H1281     1.0  0.48857  0.85912  0.92335  1.0000
  C   C1075     1.0  0.48592  0.85390  0.86387  1.0000
  C   C1076     1.0  0.49011  0.79855  0.88792  1.0000
  C   C1077     1.0  0.48380  0.87339  0.91791  1.0000
  C   C1078     1.0  0.49042  0.87356  0.96600  1.0000
  C   C1079     1.0  0.41665  0.49669  0.98853  1.0000
  C   C1080     1.0  0.36642  0.98218  0.98209  1.0000
  H   H1282     1.0  0.39468  0.92431  0.98862  1.0000
  H   H1283     1.0  0.35237  0.95785  0.98733  1.0000
  C   C1081     1.0  0.24215  0.87996  0.66929  1.0000
  C   C1082     1.0  0.24943  0.91604  0.65622  1.0000
  Fe  Fe146     1.0  0.61053  0.46657  0.09516  1.0000
  C   C1083     1.0  0.68032  0.38324  0.05001  1.0000
  S   S290      1.0  0.62571  0.44430  0.11361  1.0000
  C   C1084     1.0  0.53797  0.00937  0.02237  1.0000
  C   C1085     1.0  0.65835  0.13921  0.30734  1.0000
  S   S291      1.0  0.59782  0.45907  0.07027  1.0000
  Fe  Fe147     1.0  0.58380  0.05085  0.00267  1.0000
  H   H1284     1.0  0.49322  0.08545  0.02603  1.0000
  Fe  Fe148     1.0  0.59235  0.07600  0.03227  1.0000
  S   S292      1.0  0.58202  0.10195  0.01605  1.0000
  S   S293      1.0  0.59909  0.07589  0.06230  1.0000
  C   C1086     1.0  0.67229  0.13546  0.32006  1.0000
  H   H1285     1.0  0.64144  0.07702  0.12823  1.0000
  S   S294      1.0  0.56792  0.06020  0.02820  1.0000
  S   S295      1.0  0.60933  0.06458  0.00791  1.0000
  Fe  Fe149     1.0  0.60615  0.15574  0.12934  1.0000
  S   S296      1.0  0.58590  0.18046  0.13233  1.0000
  S   S297      1.0  0.61480  0.14752  0.10030  1.0000
  Fe  Fe150     1.0  0.61338  0.15123  0.17101  1.0000
  S   S298      1.0  0.59357  0.17596  0.17653  1.0000
  S   S299      1.0  0.63296  0.13300  0.19020  1.0000
  Fe  Fe151     1.0  0.57448  0.16431  0.15805  1.0000
  S   S300      1.0  0.54475  0.15630  0.16606  1.0000
  Fe  Fe152     1.0  0.60666  0.19035  0.15008  1.0000
  S   S301      1.0  0.61359  0.22112  0.14688  1.0000
  S   S302      1.0  0.59381  0.13891  0.15392  1.0000
  S   S303      1.0  0.62738  0.16632  0.14572  1.0000
  C   C1087     1.0  0.54814  0.14718  0.11318  1.0000
  S   S304      1.0  0.63439  0.05461  0.31123  1.0000
  H   H1286     1.0  0.62894  0.10065  0.14538  1.0000
  S   S305      1.0  0.67427  0.06992  0.29563  1.0000
  H   H1287     1.0  0.53808  0.12576  0.03608  1.0000
  Fe  Fe153     1.0  0.64464  0.08137  0.29767  1.0000
  S   S306      1.0  0.62768  0.09739  0.27488  1.0000
  Fe  Fe154     1.0  0.66410  0.04382  0.31093  1.0000
  S   S307      1.0  0.67516  0.01551  0.30187  1.0000
  H   H1288     1.0  0.68373  0.11597  0.29040  1.0000
  Fe  Fe155     1.0  0.68521  0.30198  0.10507  1.0000
  S   S308      1.0  0.71490  0.30717  0.09551  1.0000
  S   S309      1.0  0.67928  0.27127  0.11244  1.0000
  Fe  Fe156     1.0  0.67301  0.34333  0.09663  1.0000
  S   S310      1.0  0.70151  0.35090  0.08665  1.0000
  S   S311      1.0  0.64761  0.36276  0.09107  1.0000
  Fe  Fe157     1.0  0.70297  0.32517  0.07154  1.0000
  S   S312      1.0  0.71504  0.32559  0.04144  1.0000
  Fe  Fe158     1.0  0.71130  0.33261  0.11137  1.0000
  C   C1088     1.0  0.52322  0.47516  0.08056  1.0000
  S   S313      1.0  0.67402  0.31857  0.08014  1.0000
  S   S314      1.0  0.68214  0.32636  0.12239  1.0000
  C   C1089     1.0  0.68609  0.32077  0.01972  1.0000
  C   C1090     1.0  0.70475  0.32374  0.02029  1.0000
  C   C1091     1.0  0.71583  0.32501  0.00354  1.0000
  H   H1289     1.0  0.67738  0.31955  0.03242  1.0000
  H   H1290     1.0  0.66159  0.01239  0.26403  1.0000
  C   C1092     1.0  0.49766  0.08014  0.01289  1.0000
  H   H1291     1.0  0.55081  0.00253  0.01611  1.0000
  C   C1093     1.0  0.73298  0.29657  0.14823  1.0000
  H   H1292     1.0  0.51018  0.14698  0.21874  1.0000
  Fe  Fe159     1.0  0.57392  0.47925  0.07787  1.0000
  H   H1293     1.0  0.67791  0.36838  0.00760  1.0000
  H   H1294     1.0  0.66091  0.08738  0.14701  1.0000
  C   C1094     1.0  0.63188  0.23471  0.13655  1.0000
  C   C1095     1.0  0.62933  0.25419  0.13575  1.0000
  C   C1096     1.0  0.64339  0.26557  0.12815  1.0000
  C   C1097     1.0  0.66047  0.25769  0.12137  1.0000
  C   C1098     1.0  0.66306  0.23823  0.12214  1.0000
  C   C1099     1.0  0.64891  0.22685  0.12954  1.0000
  H   H1295     1.0  0.61630  0.26053  0.14112  1.0000
  H   H1296     1.0  0.64103  0.28044  0.12780  1.0000
  H   H1297     1.0  0.67617  0.23183  0.11710  1.0000
  H   H1298     1.0  0.65125  0.21197  0.13005  1.0000
  C   C1100     1.0  0.62968  0.10722  0.25132  1.0000
  C   C1101     1.0  0.61417  0.11719  0.24381  1.0000
  C   C1102     1.0  0.61490  0.12525  0.22530  1.0000
  C   C1103     1.0  0.63120  0.12342  0.21389  1.0000
  C   C1104     1.0  0.64674  0.11344  0.22142  1.0000
  C   C1105     1.0  0.64603  0.10545  0.23997  1.0000
  H   H1299     1.0  0.60141  0.11872  0.25237  1.0000
  H   H1300     1.0  0.60280  0.13281  0.21984  1.0000
  H   H1301     1.0  0.65946  0.11191  0.21281  1.0000
  H   H1302     1.0  0.65812  0.09786  0.24540  1.0000
  C   C1106     1.0  0.50794  0.15128  0.16347  1.0000
  C   C1107     1.0  0.52234  0.16286  0.15808  1.0000
  C   C1108     1.0  0.51819  0.17963  0.14767  1.0000
  H   H1303     1.0  0.51094  0.13829  0.17155  1.0000
  H   H1304     1.0  0.52902  0.18875  0.14345  1.0000
  C   C1109     1.0  0.60179  0.09652  0.07251  1.0000
  C   C1110     1.0  0.59836  0.09702  0.09174  1.0000
  C   C1111     1.0  0.60146  0.11284  0.10043  1.0000
  C   C1112     1.0  0.60850  0.12812  0.08996  1.0000
  C   C1113     1.0  0.61152  0.12776  0.07069  1.0000
  C   C1114     1.0  0.60797  0.11214  0.06196  1.0000
  H   H1305     1.0  0.59348  0.08503  0.09999  1.0000
  H   H1306     1.0  0.59878  0.11301  0.11522  1.0000
  H   H1307     1.0  0.61692  0.13954  0.06248  1.0000
  H   H1308     1.0  0.61070  0.11192  0.04715  1.0000
  H   H1309     1.0  0.51020  0.11999  0.06725  1.0000
  H   H1310     1.0  0.73894  0.28257  0.14509  1.0000
  C   C1115     1.0  0.74004  0.29329  0.18002  1.0000
  C   C1116     1.0  0.49981  0.18501  0.14335  1.0000
  S   S315      1.0  0.58575  0.48536  0.10418  1.0000
  C   C1117     1.0  0.52877  0.12976  0.09685  1.0000
  C   C1118     1.0  0.63638  0.42145  0.03266  1.0000
  Fe  Fe160     1.0  0.59679  0.08965  0.99121  1.0000
  C   C1119     1.0  0.65113  0.10132  0.07924  1.0000
  C   C1120     1.0  0.65925  0.13070  0.12537  1.0000
  C   C1121     1.0  0.63373  0.42252  0.10576  1.0000
  C   C1122     1.0  0.62689  0.41622  0.09027  1.0000
  C   C1123     1.0  0.63164  0.39802  0.08571  1.0000
  C   C1124     1.0  0.64382  0.38610  0.09618  1.0000
  C   C1125     1.0  0.65146  0.39266  0.11111  1.0000
  C   C1126     1.0  0.64622  0.41072  0.11601  1.0000
  H   H1311     1.0  0.61742  0.42511  0.08219  1.0000
  H   H1312     1.0  0.62559  0.39306  0.07421  1.0000
  H   H1313     1.0  0.66078  0.38359  0.11935  1.0000
  H   H1314     1.0  0.65161  0.41545  0.12801  1.0000
  H   H1315     1.0  0.58988  0.46942  0.03238  1.0000
  H   H1316     1.0  0.68966  0.38774  0.01293  1.0000
  H   H1317     1.0  0.66799  0.10823  0.15399  1.0000
  C   C1127     1.0  0.59595  0.46678  0.01879  1.0000
  H   H1318     1.0  0.51076  0.19802  0.18459  1.0000
  C   C1128     1.0  0.54033  0.13226  0.04889  1.0000
  C   C1129     1.0  0.55518  0.10404  0.06264  1.0000
  C   C1130     1.0  0.54260  0.12811  0.08203  1.0000
  C   C1131     1.0  0.55923  0.13651  0.08354  1.0000
  C   C1132     1.0  0.53162  0.13916  0.11217  1.0000
  C   C1133     1.0  0.69560  0.28355  0.15980  1.0000
  H   H1319     1.0  0.55380  0.13850  0.04627  1.0000
  H   H1320     1.0  0.55680  0.09450  0.07541  1.0000
  H   H1321     1.0  0.56867  0.10984  0.05874  1.0000
  H   H1322     1.0  0.55282  0.09554  0.05122  1.0000
  H   H1323     1.0  0.57036  0.13592  0.07283  1.0000
  C   C1134     1.0  0.68245  0.27049  0.16251  1.0000
  H   H1324     1.0  0.70893  0.28172  0.99388  1.0000
  C   C1135     1.0  0.66581  0.10101  0.14159  1.0000
  C   C1136     1.0  0.66364  0.99470  0.30427  1.0000
  H   H1325     1.0  0.52134  0.09907  0.07840  1.0000
  C   C1137     1.0  0.66154  0.36063  0.04095  1.0000
  C   C1138     1.0  0.64458  0.08411  0.11478  1.0000
  H   H1326     1.0  0.65297  0.10818  0.06541  1.0000
  H   H1327     1.0  0.57137  0.45631  0.01047  1.0000
  C   C1139     1.0  0.64530  0.08349  0.08156  1.0000
  N   N72       1.0  0.56850  0.41872  0.10336  1.0000
  C   C1140     1.0  0.57093  0.42048  0.08283  1.0000
  C   C1141     1.0  0.54886  0.41602  0.10900  1.0000
  C   C1142     1.0  0.57269  0.43653  0.10983  1.0000
  C   C1143     1.0  0.58037  0.40267  0.11084  1.0000
  C   C1144     1.0  0.59376  0.40416  0.12373  1.0000
  C   C1145     1.0  0.57901  0.38486  0.10489  1.0000
  C   C1146     1.0  0.60548  0.38890  0.12959  1.0000
  C   C1147     1.0  0.59092  0.36975  0.11073  1.0000
  C   C1148     1.0  0.60425  0.37182  0.12292  1.0000
  H   H1328     1.0  0.56348  0.43329  0.07669  1.0000
  H   H1329     1.0  0.58575  0.42093  0.07802  1.0000
  H   H1330     1.0  0.56552  0.40892  0.07659  1.0000
  H   H1331     1.0  0.54418  0.40360  0.10358  1.0000
  H   H1332     1.0  0.53962  0.42806  0.10372  1.0000
  H   H1333     1.0  0.54649  0.41438  0.12435  1.0000
  H   H1334     1.0  0.58731  0.43944  0.10603  1.0000
  H   H1335     1.0  0.56396  0.44843  0.10355  1.0000
  H   H1336     1.0  0.57011  0.43668  0.12508  1.0000
  H   H1337     1.0  0.59602  0.41708  0.12901  1.0000
  H   H1338     1.0  0.56899  0.38260  0.09534  1.0000
  H   H1339     1.0  0.61610  0.39055  0.13882  1.0000
  H   H1340     1.0  0.59011  0.35642  0.10553  1.0000
  H   H1341     1.0  0.61391  0.36025  0.12692  1.0000
  H   H1342     1.0  0.67944  0.09849  0.13386  1.0000
  H   H1343     1.0  0.55029  0.15443  0.12509  1.0000
  H   H1344     1.0  0.63693  0.06125  0.10096  1.0000
  N   N73       1.0  0.66323  0.13921  0.28719  1.0000
  H   H1345     1.0  0.51142  0.45597  0.00054  1.0000
  H   H1346     1.0  0.65732  0.12479  0.09176  1.0000
  H   H1347     1.0  0.62404  0.12183  0.13148  1.0000
  H   H1348     1.0  0.57469  0.15227  0.09970  1.0000
  H   H1349     1.0  0.63560  0.47137  0.99140  1.0000
  H   H1350     1.0  0.63648  0.13414  0.27878  1.0000
  H   H1351     1.0  0.53513  0.03516  0.99390  1.0000
  C   C1149     1.0  0.65025  0.40825  0.03859  1.0000
  N   N74       1.0  0.65253  0.11196  0.12962  1.0000
  H   H1352     1.0  0.65327  0.26976  0.05826  1.0000
  C   C1150     1.0  0.63443  0.11409  0.14025  1.0000
  H   H1353     1.0  0.65656  0.41079  0.05096  1.0000
  C   C1151     1.0  0.65361  0.11073  0.09463  1.0000
  N   N75       1.0  0.63238  0.03963  0.25667  1.0000
  C   C1152     1.0  0.62975  0.04916  0.23802  1.0000
  C   C1153     1.0  0.61659  0.04552  0.26949  1.0000
  C   C1154     1.0  0.64931  0.04608  0.26325  1.0000
  C   C1155     1.0  0.63318  0.01934  0.25586  1.0000
  C   C1156     1.0  0.64724  0.14418  0.27570  1.0000
  H   H1354     1.0  0.63629  0.00757  0.30924  1.0000
  C   C1157     1.0  0.65047  0.10233  0.11295  1.0000
  C   C1158     1.0  0.51907  0.48520  0.09600  1.0000
  H   H1355     1.0  0.62828  0.14490  0.30651  1.0000
  H   H1356     1.0  0.61661  0.04611  0.23258  1.0000
  H   H1357     1.0  0.62931  0.06449  0.23819  1.0000
  H   H1358     1.0  0.64120  0.04489  0.22792  1.0000
  H   H1359     1.0  0.61717  0.03733  0.28319  1.0000
  H   H1360     1.0  0.60303  0.04383  0.26418  1.0000
  H   H1361     1.0  0.61648  0.06041  0.27186  1.0000
  H   H1362     1.0  0.66168  0.04303  0.25376  1.0000
  H   H1363     1.0  0.64812  0.06131  0.26422  1.0000
  H   H1364     1.0  0.65206  0.03948  0.27730  1.0000
  H   H1365     1.0  0.73028  0.32729  0.00377  1.0000
  H   H1366     1.0  0.66079  0.13748  0.13819  1.0000
  S   S316      1.0  0.62682  0.48168  0.02816  1.0000
  H   H1367     1.0  0.70065  0.24254  0.19749  1.0000
  C   C1159     1.0  0.52990  0.02162  0.99185  1.0000
  N   N76       1.0  0.68315  0.26736  0.05434  1.0000
  C   C1160     1.0  0.68410  0.24818  0.06331  1.0000
  C   C1161     1.0  0.69834  0.27684  0.06094  1.0000
  C   C1162     1.0  0.66546  0.27711  0.06077  1.0000
  C   C1163     1.0  0.68408  0.26709  0.03396  1.0000
  C   C1164     1.0  0.67025  0.25899  0.02543  1.0000
  C   C1165     1.0  0.69829  0.27501  0.02200  1.0000
  H   H1368     1.0  0.65129  0.14391  0.26063  1.0000
  H   H1369     1.0  0.51331  0.03787  0.02097  1.0000
  C   C1166     1.0  0.50267  0.15888  0.21199  1.0000
  H   H1370     1.0  0.69698  0.24020  0.05849  1.0000
  H   H1371     1.0  0.68387  0.24798  0.07869  1.0000
  H   H1372     1.0  0.67223  0.24054  0.06044  1.0000
  H   H1373     1.0  0.69808  0.29157  0.05522  1.0000
  H   H1374     1.0  0.71210  0.26988  0.05718  1.0000
  H   H1375     1.0  0.69726  0.27687  0.07627  1.0000
  C   C1167     1.0  0.59672  0.99549  0.01278  1.0000
  H   H1376     1.0  0.66463  0.27835  0.07597  1.0000
  C   C1168     1.0  0.49743  0.99074  0.00657  1.0000
  H   H1377     1.0  0.65912  0.25256  0.03360  1.0000
  H   H1378     1.0  0.70935  0.28168  0.02704  1.0000
  C   C1169     1.0  0.68431  0.25574  0.17601  1.0000
  S   S317      1.0  0.73002  0.34285  0.13222  1.0000
  C   C1170     1.0  0.69828  0.27513  0.00278  1.0000
  H   H1379     1.0  0.69551  0.36475  0.02327  1.0000
  N   N77       1.0  0.52285  0.01211  0.00957  1.0000
  C   C1171     1.0  0.56188  0.14591  0.09888  1.0000
  Fe  Fe161     1.0  0.55885  0.08551  0.01044  1.0000
  C   C1172     1.0  0.71534  0.31494  0.17036  1.0000
  C   C1173     1.0  0.65546  0.39240  0.02880  1.0000
  C   C1174     1.0  0.52233  0.10969  0.06639  1.0000
  C   C1175     1.0  0.71250  0.26714  0.18450  1.0000
  C   C1176     1.0  0.68381  0.37468  0.01892  1.0000
  C   C1177     1.0  0.69928  0.25407  0.18700  1.0000
  C   C1178     1.0  0.51646  0.99411  0.00591  1.0000
  H   H1380     1.0  0.69361  0.29456  0.14896  1.0000
  H   H1381     1.0  0.67479  0.11976  0.26797  1.0000
  S   S318      1.0  0.54627  0.46910  0.07209  1.0000
  H   H1382     1.0  0.68658  0.39664  0.04638  1.0000
  H   H1383     1.0  0.67411  0.24557  0.17786  1.0000
  C   C1179     1.0  0.67108  0.12051  0.28302  1.0000
  H   H1384     1.0  0.69060  0.14861  0.28758  1.0000
  H   H1385     1.0  0.60114  0.00603  0.02057  1.0000
  C   C1180     1.0  0.68423  0.26752  0.99487  1.0000
  S   S319      1.0  0.52947  0.09667  0.01510  1.0000
  N   N78       1.0  0.54001  0.11863  0.06539  1.0000
  H   H1386     1.0  0.64263  0.07658  0.06959  1.0000
  C   C1181     1.0  0.58541  0.45949  0.00633  1.0000
  H   H1387     1.0  0.72534  0.32583  0.16922  1.0000
  H   H1388     1.0  0.68041  0.15377  0.26608  1.0000
  H   H1389     1.0  0.64834  0.37847  0.00535  1.0000
  H   H1390     1.0  0.51562  0.12396  0.09699  1.0000
  H   H1391     1.0  0.64085  0.15828  0.27786  1.0000
  C   C1182     1.0  0.50806  0.02460  0.01802  1.0000
  H   H1392     1.0  0.52097  0.10245  0.05380  1.0000
  N   N79       1.0  0.72469  0.29644  0.16752  1.0000
  C   C1183     1.0  0.51244  0.17274  0.20223  1.0000
  H   H1393     1.0  0.65536  0.35474  0.02955  1.0000
  H   H1394     1.0  0.65038  0.36284  0.05204  1.0000
  C   C1184     1.0  0.61401  0.47121  0.01335  1.0000
  C   C1185     1.0  0.50864  0.46898  0.07181  1.0000
  H   H1395     1.0  0.52941  0.14373  0.05051  1.0000
  H   H1396     1.0  0.66377  0.29130  0.05365  1.0000
  N   N80       1.0  0.67006  0.37811  0.03464  1.0000
  C   C1186     1.0  0.64202  0.07491  0.09929  1.0000
  H   H1397     1.0  0.49675  0.19824  0.13572  1.0000
  H   H1398     1.0  0.64932  0.14009  0.11732  1.0000
  C   C1187     1.0  0.71103  0.28233  0.17072  1.0000
  H   H1399     1.0  0.63520  0.12181  0.15262  1.0000
  H   H1400     1.0  0.63275  0.43358  0.04017  1.0000
  C   C1188     1.0  0.51502  0.08364  0.00439  1.0000
  H   H1401     1.0  0.67293  0.13019  0.11744  1.0000
  H   H1402     1.0  0.60512  0.01906  0.24739  1.0000
  H   H1403     1.0  0.67082  0.27173  0.15393  1.0000
  H   H1404     1.0  0.72277  0.30130  0.13787  1.0000
  C   C1189     1.0  0.64445  0.99471  0.30740  1.0000
  H   H1405     1.0  0.72372  0.26500  0.19349  1.0000
  H   H1406     1.0  0.52742  0.17152  0.20127  1.0000
  H   H1407     1.0  0.65947  0.25333  0.99993  1.0000
  H   H1408     1.0  0.51168  0.46116  0.05989  1.0000
  C   C1190     1.0  0.67875  0.31886  0.00265  1.0000
  C   C1191     1.0  0.61757  0.01087  0.25107  1.0000
  H   H1409     1.0  0.52095  0.14034  0.12336  1.0000
  H   H1410     1.0  0.73486  0.29368  0.19479  1.0000
  H   H1411     1.0  0.70776  0.31506  0.18422  1.0000
  H   H1412     1.0  0.67186  0.34988  0.04668  1.0000
  C   C1192     1.0  0.64554  0.39039  0.01317  1.0000
  H   H1413     1.0  0.66440  0.31619  0.00243  1.0000
  H   H1414     1.0  0.67233  0.16665  0.28543  1.0000
  H   H1415     1.0  0.66093  0.11010  0.28730  1.0000
  H   H1416     1.0  0.69184  0.37275  0.05337  1.0000
  Fe  Fe162     1.0  0.61114  0.48329  0.05569  1.0000
  C   C1193     1.0  0.58646  0.00057  0.99740  1.0000
  H   H1417     1.0  0.67128  0.38413  0.06302  1.0000
  C   C1194     1.0  0.64903  0.00740  0.26013  1.0000
  H   H1418     1.0  0.70529  0.31958  0.15981  1.0000
  H   H1419     1.0  0.50190  0.01806  0.03126  1.0000
  C   C1195     1.0  0.67723  0.15264  0.28135  1.0000
  H   H1420     1.0  0.68660  0.13265  0.31538  1.0000
  C   C1196     1.0  0.61754  0.99165  0.25140  1.0000
  C   C1197     1.0  0.50299  0.18773  0.19286  1.0000
  C   C1198     1.0  0.67033  0.25930  0.00617  1.0000
  H   H1421     1.0  0.54214  0.02277  0.02624  1.0000
  C   C1199     1.0  0.62158  0.46813  0.99559  1.0000
  C   C1200     1.0  0.62716  0.41917  0.01709  1.0000
  H   H1422     1.0  0.49685  0.02859  0.00858  1.0000
  H   H1423     1.0  0.53377  0.00087  0.03529  1.0000
  C   C1201     1.0  0.63988  0.14222  0.31498  1.0000
  C   C1202     1.0  0.63169  0.40367  0.00738  1.0000
  C   C1203     1.0  0.49965  0.46171  0.99321  1.0000
  H   H1424     1.0  0.61642  0.42942  0.01256  1.0000
  H   H1425     1.0  0.62437  0.40199  0.99530  1.0000
  S   S320      1.0  0.57999  0.02399  0.99002  1.0000
  C   C1204     1.0  0.50052  0.48881  0.10268  1.0000
  C   C1205     1.0  0.72487  0.06217  0.62832  1.0000
  S   S321      1.0  0.51173  0.00844  0.38864  1.0000
  Fe  Fe163     1.0  0.51758  0.07228  0.40227  1.0000
  C   C1206     1.0  0.71582  0.03162  0.63991  1.0000
  S   S322      1.0  0.54033  0.09075  0.39126  1.0000
  C   C1207     1.0  0.72443  0.10442  0.65398  1.0000
  H   H1426     1.0  0.70494  0.02343  0.64762  1.0000
  S   S323      1.0  0.52271  0.04503  0.41856  1.0000
  H   H1427     1.0  0.55167  0.00583  0.38922  1.0000
  Fe  Fe164     1.0  0.50813  0.04239  0.59858  1.0000
  S   S324      1.0  0.51259  0.01271  0.60932  1.0000
  Fe  Fe165     1.0  0.52812  0.07735  0.59716  1.0000
  H   H1428     1.0  0.50712  0.04845  0.53376  1.0000
  S   S325      1.0  0.55583  0.08889  0.59987  1.0000
  H   H1429     1.0  0.72106  0.09693  0.39095  1.0000
  H   H1430     1.0  0.51202  0.03296  0.50460  1.0000
  S   S326      1.0  0.51301  0.06095  0.62005  1.0000
  S   S327      1.0  0.52520  0.05748  0.57593  1.0000
  S   S328      1.0  0.61987  0.05672  0.36334  1.0000
  S   S329      1.0  0.66867  0.05295  0.33878  1.0000
  C   C1208     1.0  0.71545  0.12174  0.62577  1.0000
  H   H1431     1.0  0.70482  0.12733  0.61677  1.0000
  C   C1209     1.0  0.71676  0.10114  0.34424  1.0000
  H   H1432     1.0  0.68666  0.06990  0.63276  1.0000
  H   H1433     1.0  0.55637  0.02934  0.38453  1.0000
  C   C1210     1.0  0.56784  0.12465  0.64488  1.0000
  Fe  Fe166     1.0  0.49796  0.05353  0.43721  1.0000
  H   H1434     1.0  0.58537  0.02788  0.65054  1.0000
  Fe  Fe167     1.0  0.63912  0.06521  0.33828  1.0000
  H   H1435     1.0  0.60091  0.00507  0.63488  1.0000
  C   C1211     1.0  0.56859  0.08355  0.61972  1.0000
  C   C1212     1.0  0.58648  0.08945  0.61972  1.0000
  C   C1213     1.0  0.59620  0.08691  0.63593  1.0000
  N   N81       1.0  0.51834  0.11004  0.65187  1.0000
  H   H1436     1.0  0.57474  0.01227  0.39059  1.0000
  C   C1214     1.0  0.56074  0.07462  0.63589  1.0000
  H   H1437     1.0  0.59271  0.09634  0.60723  1.0000
  H   H1438     1.0  0.60981  0.09180  0.63585  1.0000
  C   C1215     1.0  0.62084  0.03015  0.65391  1.0000
  H   H1439     1.0  0.54726  0.06959  0.63588  1.0000
  C   C1216     1.0  0.56205  0.08085  0.38289  1.0000
  C   C1217     1.0  0.56987  0.06435  0.39142  1.0000
  C   C1218     1.0  0.58769  0.05739  0.38540  1.0000
  C   C1219     1.0  0.59770  0.06653  0.37046  1.0000
  C   C1220     1.0  0.58981  0.08293  0.36176  1.0000
  C   C1221     1.0  0.57216  0.09019  0.36815  1.0000
  H   H1440     1.0  0.56240  0.05723  0.40301  1.0000
  H   H1441     1.0  0.59378  0.04482  0.39234  1.0000
  H   H1442     1.0  0.56628  0.10306  0.36160  1.0000
  H   H1443     1.0  0.62160  0.14323  0.33972  1.0000
  S   S330      1.0  0.70242  0.09603  0.32659  1.0000
  H   H1444     1.0  0.71789  0.02717  0.62564  1.0000
  C   C1222     1.0  0.73268  0.11071  0.33902  1.0000
  H   H1445     1.0  0.59741  0.09014  0.35032  1.0000
  H   H1446     1.0  0.58298  0.02555  0.34004  1.0000
  H   H1447     1.0  0.70063  0.08893  0.36753  1.0000
  H   H1448     1.0  0.73763  0.13284  0.60752  1.0000
  C   C1223     1.0  0.72443  0.10083  0.37644  1.0000
  H   H1449     1.0  0.54729  0.12219  0.62661  1.0000
  C   C1224     1.0  0.66804  0.13442  0.33916  1.0000
  H   H1450     1.0  0.50159  0.10565  0.62965  1.0000
  H   H1451     1.0  0.67895  0.13083  0.34852  1.0000
  H   H1452     1.0  0.49260  0.01746  0.57604  1.0000
  C   C1225     1.0  0.58782  0.07893  0.65238  1.0000
  C   C1226     1.0  0.50219  0.05536  0.52106  1.0000
  H   H1453     1.0  0.55215  0.01379  0.33797  1.0000
  C   C1227     1.0  0.60594  0.99462  0.64523  1.0000
  C   C1228     1.0  0.69199  0.05513  0.63232  1.0000
  C   C1229     1.0  0.57939  0.02640  0.35508  1.0000
  C   C1230     1.0  0.49876  0.05543  0.48779  1.0000
  H   H1454     1.0  0.73602  0.11465  0.32452  1.0000
  H   H1455     1.0  0.55284  0.06837  0.51187  1.0000
  C   C1231     1.0  0.71276  0.09623  0.36314  1.0000
  S   S331      1.0  0.68650  0.10730  0.64800  1.0000
  C   C1232     1.0  0.64983  0.13732  0.34621  1.0000
  C   C1233     1.0  0.49296  0.07297  0.52116  1.0000
  C   C1234     1.0  0.54948  0.01582  0.35292  1.0000
  C   C1235     1.0  0.51558  0.10971  0.63190  1.0000
  S   S332      1.0  0.50240  0.04351  0.46746  1.0000
  H   H1456     1.0  0.51680  0.12349  0.62411  1.0000
  C   C1236     1.0  0.55014  0.12078  0.64104  1.0000
  N   N82       1.0  0.71062  0.05177  0.63949  1.0000
  H   H1457     1.0  0.59239  0.02512  0.36237  1.0000
  H   H1458     1.0  0.51326  0.11504  0.50840  1.0000
  Fe  Fe168     1.0  0.50249  0.03495  0.40111  1.0000
  H   H1459     1.0  0.52574  0.09958  0.62540  1.0000
  H   H1460     1.0  0.53866  0.00656  0.35862  1.0000
  N   N83       1.0  0.54055  0.09446  0.45247  1.0000
  C   C1237     1.0  0.52884  0.10934  0.44263  1.0000
  C   C1238     1.0  0.56006  0.09717  0.44618  1.0000
  C   C1239     1.0  0.53580  0.07667  0.44657  1.0000
  C   C1240     1.0  0.53803  0.09405  0.47291  1.0000
  C   C1241     1.0  0.54801  0.08033  0.48420  1.0000
  C   C1242     1.0  0.52558  0.10679  0.48218  1.0000
  C   C1243     1.0  0.54550  0.07928  0.50351  1.0000
  C   C1244     1.0  0.52329  0.10567  0.50152  1.0000
  C   C1245     1.0  0.53315  0.09191  0.51214  1.0000
  H   H1461     1.0  0.53208  0.12328  0.44582  1.0000
  H   H1462     1.0  0.53095  0.10908  0.42729  1.0000
  H   H1463     1.0  0.51388  0.10768  0.44616  1.0000
  H   H1464     1.0  0.56441  0.11013  0.45086  1.0000
  H   H1465     1.0  0.56223  0.09802  0.43077  1.0000
  H   H1466     1.0  0.56967  0.08557  0.45149  1.0000
  H   H1467     1.0  0.52134  0.07395  0.45140  1.0000
  H   H1468     1.0  0.53720  0.07666  0.43123  1.0000
  H   H1469     1.0  0.54474  0.06464  0.45209  1.0000
  H   H1470     1.0  0.55756  0.07005  0.47818  1.0000
  H   H1471     1.0  0.51711  0.11749  0.47487  1.0000
  C   C1246     1.0  0.71040  0.11137  0.64250  1.0000
  H   H1472     1.0  0.70694  0.07809  0.60855  1.0000
  C   C1247     1.0  0.56223  0.01499  0.38262  1.0000
  H   H1473     1.0  0.53077  0.09073  0.52710  1.0000
  S   S333      1.0  0.49923  0.06153  0.38311  1.0000
  H   H1474     1.0  0.64657  0.13614  0.36104  1.0000
  H   H1475     1.0  0.69202  0.05130  0.61790  1.0000
  N   N84       1.0  0.56667  0.01223  0.36278  1.0000
  C   C1248     1.0  0.73411  0.12493  0.62046  1.0000
  S   S334      1.0  0.50243  0.09520  0.59004  1.0000
  C   C1249     1.0  0.72079  0.07481  0.61277  1.0000
  H   H1476     1.0  0.57308  0.04070  0.35659  1.0000
  H   H1477     1.0  0.57775  0.12871  0.63364  1.0000
  S   S335      1.0  0.49402  0.08185  0.42190  1.0000
  Fe  Fe169     1.0  0.49839  0.07393  0.57027  1.0000
  H   H1478     1.0  0.60144  0.99897  0.34703  1.0000
  S   S336      1.0  0.64718  0.09294  0.32509  1.0000
  H   H1479     1.0  0.54318  0.03016  0.35417  1.0000
  C   C1250     1.0  0.49441  0.00288  0.58054  1.0000
  C   C1251     1.0  0.50499  0.04663  0.50448  1.0000
  H   H1480     1.0  0.63560  0.02496  0.65487  1.0000
  H   H1481     1.0  0.68172  0.04682  0.64083  1.0000
  C   C1252     1.0  0.74038  0.11035  0.37121  1.0000
  C   C1253     1.0  0.63580  0.14130  0.33415  1.0000
  C   C1254     1.0  0.73464  0.08430  0.60251  1.0000
  H   H1482     1.0  0.73115  0.09433  0.59109  1.0000
  C   C1255     1.0  0.57008  0.07276  0.65223  1.0000
  H   H1483     1.0  0.49991  0.00200  0.47304  1.0000
  H   H1484     1.0  0.72868  0.02756  0.64699  1.0000
  C   C1256     1.0  0.49777  0.99047  0.39651  1.0000
  Fe  Fe170     1.0  0.67662  0.08000  0.32388  1.0000
  H   H1485     1.0  0.61747  0.03003  0.63930  1.0000
  C   C1257     1.0  0.57437  0.99297  0.36090  1.0000
  C   C1258     1.0  0.50424  0.99691  0.59605  1.0000
  H   H1486     1.0  0.50716  0.13817  0.65271  1.0000
  C   C1259     1.0  0.53715  0.11450  0.65540  1.0000
  S   S337      1.0  0.57661  0.45203  0.91871  1.0000
  H   H1487     1.0  0.53511  0.45803  0.89394  1.0000
  Fe  Fe171     1.0  0.60486  0.45746  0.90530  1.0000
  S   S338      1.0  0.62444  0.43933  0.88745  1.0000
  H   H1488     1.0  0.55292  0.18177  0.79763  1.0000
  H   H1489     1.0  0.56342  0.06668  0.66489  1.0000
  S   S339      1.0  0.61369  0.10740  0.96989  1.0000
  Fe  Fe172     1.0  0.59849  0.15034  0.86505  1.0000
  S   S340      1.0  0.58776  0.17949  0.87031  1.0000
  S   S341      1.0  0.59637  0.12476  0.88547  1.0000
  Fe  Fe173     1.0  0.60424  0.15893  0.82276  1.0000
  S   S342      1.0  0.59380  0.18861  0.82573  1.0000
  S   S343      1.0  0.60949  0.15215  0.79218  1.0000
  Fe  Fe174     1.0  0.61136  0.18818  0.85007  1.0000
  S   S344      1.0  0.62900  0.21360  0.84844  1.0000
  Fe  Fe175     1.0  0.57119  0.17787  0.84563  1.0000
  S   S345      1.0  0.54165  0.19092  0.84274  1.0000
  S   S346      1.0  0.62309  0.15882  0.84603  1.0000
  S   S347      1.0  0.58059  0.14844  0.84144  1.0000
  Fe  Fe176     1.0  0.62846  0.07958  0.67885  1.0000
  S   S348      1.0  0.63631  0.06066  0.70375  1.0000
  H   H1490     1.0  0.57947  0.01723  0.67335  1.0000
  Fe  Fe177     1.0  0.66852  0.09141  0.67083  1.0000
  S   S349      1.0  0.67836  0.07310  0.69537  1.0000
  Fe  Fe178     1.0  0.58739  0.46169  0.94384  1.0000
  Fe  Fe179     1.0  0.66144  0.05135  0.68620  1.0000
  S   S350      1.0  0.67166  0.02276  0.67678  1.0000
  Fe  Fe180     1.0  0.65199  0.08419  0.71097  1.0000
  S   S351      1.0  0.65114  0.09118  0.74147  1.0000
  H   H1491     1.0  0.67141  0.35235  0.85401  1.0000
  S   S352      1.0  0.64294  0.10361  0.68676  1.0000
  Fe  Fe181     1.0  0.67065  0.33509  0.89857  1.0000
  S   S353      1.0  0.69499  0.34131  0.91358  1.0000
  S   S354      1.0  0.64683  0.35367  0.88691  1.0000
  Fe  Fe182     1.0  0.68022  0.29269  0.90166  1.0000
  S   S355      1.0  0.70545  0.29602  0.91704  1.0000
  S   S356      1.0  0.66832  0.26436  0.89968  1.0000
  Fe  Fe183     1.0  0.68809  0.31671  0.93364  1.0000
  S   S357      1.0  0.68001  0.31615  0.96501  1.0000
  Fe  Fe184     1.0  0.71098  0.32048  0.89592  1.0000
  H   H1492     1.0  0.57295  0.99041  0.97549  1.0000
  S   S358      1.0  0.66284  0.31199  0.91935  1.0000
  S   S359      1.0  0.68675  0.31569  0.87975  1.0000
  H   H1493     1.0  0.69871  0.18235  0.74973  1.0000
  H   H1494     1.0  0.62974  0.05331  0.96113  1.0000
  H   H1495     1.0  0.50397  0.20500  0.83881  1.0000
  H   H1496     1.0  0.68405  0.26822  0.97992  1.0000
  H   H1497     1.0  0.66270  0.13931  0.76618  1.0000
  H   H1498     1.0  0.62291  0.30388  0.96082  1.0000
  S   S360      1.0  0.57915  0.44929  0.97238  1.0000
  H   H1499     1.0  0.71728  0.32389  0.97378  1.0000
  C   C1260     1.0  0.50107  0.14083  0.80189  1.0000
  H   H1500     1.0  0.50436  0.13681  0.84668  1.0000
  C   C1261     1.0  0.66568  0.00008  0.68511  1.0000
  H   H1501     1.0  0.49832  0.09960  0.94617  1.0000
  H   H1502     1.0  0.65584  0.00664  0.71252  1.0000
  C   C1262     1.0  0.62074  0.13462  0.77854  1.0000
  C   C1263     1.0  0.63150  0.11937  0.78615  1.0000
  C   C1264     1.0  0.64053  0.10627  0.77463  1.0000
  C   C1265     1.0  0.63887  0.10801  0.75533  1.0000
  C   C1266     1.0  0.62797  0.12320  0.74776  1.0000
  C   C1267     1.0  0.61908  0.13639  0.75926  1.0000
  H   H1503     1.0  0.63303  0.11769  0.80089  1.0000
  H   H1504     1.0  0.64891  0.09466  0.78072  1.0000
  H   H1505     1.0  0.62658  0.12490  0.73300  1.0000
  H   H1506     1.0  0.61095  0.14813  0.75308  1.0000
  C   C1268     1.0  0.63927  0.22778  0.86320  1.0000
  C   C1269     1.0  0.64073  0.22295  0.88216  1.0000
  C   C1270     1.0  0.64968  0.23424  0.89294  1.0000
  C   C1271     1.0  0.65716  0.25070  0.88512  1.0000
  C   C1272     1.0  0.65539  0.25573  0.86623  1.0000
  C   C1273     1.0  0.64666  0.24431  0.85539  1.0000
  H   H1507     1.0  0.63525  0.21033  0.88850  1.0000
  H   H1508     1.0  0.65089  0.23009  0.90750  1.0000
  H   H1509     1.0  0.66107  0.26823  0.85987  1.0000
  H   H1510     1.0  0.64570  0.24829  0.84078  1.0000
  C   C1274     1.0  0.52093  0.17948  0.84301  1.0000
  C   C1275     1.0  0.52084  0.16021  0.84533  1.0000
  C   C1276     1.0  0.50408  0.19008  0.84059  1.0000
  H   H1511     1.0  0.53362  0.15184  0.84734  1.0000
  H   H1512     1.0  0.70592  0.35307  0.87150  1.0000
  H   H1513     1.0  0.68644  0.19920  0.77575  1.0000
  H   H1514     1.0  0.61173  0.02544  0.92728  1.0000
  N   N85       1.0  0.69224  0.37203  0.85137  1.0000
  C   C1277     1.0  0.60689  0.11429  0.94719  1.0000
  C   C1278     1.0  0.59258  0.10626  0.93998  1.0000
  C   C1279     1.0  0.58909  0.11013  0.92119  1.0000
  C   C1280     1.0  0.59932  0.12269  0.90957  1.0000
  C   C1281     1.0  0.61297  0.13153  0.91703  1.0000
  C   C1282     1.0  0.61689  0.12714  0.93570  1.0000
  H   H1515     1.0  0.58455  0.09671  0.94876  1.0000
  H   H1516     1.0  0.57858  0.10316  0.91553  1.0000
  H   H1517     1.0  0.62109  0.14106  0.90821  1.0000
  H   H1518     1.0  0.62797  0.13347  0.94116  1.0000
  C   C1283     1.0  0.62881  0.41509  0.89242  1.0000
  C   C1284     1.0  0.64614  0.40772  0.89813  1.0000
  C   C1285     1.0  0.65152  0.38866  0.89772  1.0000
  C   C1286     1.0  0.63979  0.37693  0.89106  1.0000
  C   C1287     1.0  0.62233  0.38423  0.88585  1.0000
  C   C1288     1.0  0.61684  0.40313  0.88661  1.0000
  H   H1519     1.0  0.65573  0.41691  0.90211  1.0000
  H   H1520     1.0  0.66503  0.38329  0.90176  1.0000
  H   H1521     1.0  0.61320  0.37537  0.88056  1.0000
  H   H1522     1.0  0.60372  0.40867  0.88163  1.0000
  H   H1523     1.0  0.56511  0.11445  0.69135  1.0000
  C   C1289     1.0  0.50418  0.15172  0.84505  1.0000
  H   H1524     1.0  0.68701  0.15248  0.74461  1.0000
  C   C1290     1.0  0.52172  0.46462  0.89792  1.0000
  H   H1525     1.0  0.63535  0.40708  0.84641  1.0000
  C   C1291     1.0  0.69714  0.36636  0.87055  1.0000
  H   H1526     1.0  0.64841  0.43549  0.85340  1.0000
  H   H1527     1.0  0.50305  0.45657  0.93663  1.0000
  H   H1528     1.0  0.61688  0.45881  0.96939  1.0000
  C   C1292     1.0  0.61082  0.99942  0.66257  1.0000
  C   C1293     1.0  0.61618  0.03061  0.93997  1.0000
  H   H1529     1.0  0.60457  0.01368  0.69665  1.0000
  C   C1294     1.0  0.50552  0.45606  0.89550  1.0000
  C   C1295     1.0  0.53127  0.44751  0.97168  1.0000
  H   H1530     1.0  0.49344  0.12930  0.80792  1.0000
  H   H1531     1.0  0.61578  0.35184  0.92243  1.0000
  C   C1296     1.0  0.70909  0.05712  0.65872  1.0000
  H   H1532     1.0  0.61092  0.02124  0.95192  1.0000
  C   C1297     1.0  0.70945  0.37482  0.83944  1.0000
  H   H1533     1.0  0.63291  0.07917  0.94131  1.0000
  C   C1298     1.0  0.67578  0.42245  0.85608  1.0000
  H   H1534     1.0  0.61108  0.03638  0.68892  1.0000
  H   H1535     1.0  0.60954  0.06940  0.96251  1.0000
  H   H1536     1.0  0.63327  0.09575  0.88371  1.0000
  H   H1537     1.0  0.60848  0.04585  0.97173  1.0000
  H   H1538     1.0  0.68120  0.43487  0.85984  1.0000
  H   H1539     1.0  0.73752  0.36286  0.86965  1.0000
  C   C1299     1.0  0.68707  0.40600  0.85557  1.0000
  H   H1540     1.0  0.63154  0.02897  0.93932  1.0000
  H   H1541     1.0  0.51379  0.06011  0.96630  1.0000
  H   H1542     1.0  0.71832  0.36166  0.83850  1.0000
  C   C1300     1.0  0.61331  0.02158  0.68600  1.0000
  H   H1543     1.0  0.60336  0.04959  0.90513  1.0000
  H   H1544     1.0  0.58721  0.12450  0.66573  1.0000
  C   C1301     1.0  0.63477  0.08798  0.91282  1.0000
  C   C1302     1.0  0.54285  0.11294  0.67375  1.0000
  C   C1303     1.0  0.62928  0.08604  0.89527  1.0000
  H   H1545     1.0  0.72094  0.09682  0.66710  1.0000
  C   C1304     1.0  0.50465  0.12411  0.65933  1.0000
  N   N86       1.0  0.51681  0.45901  0.96157  1.0000
  H   H1546     1.0  0.64994  0.15541  0.79270  1.0000
  H   H1547     1.0  0.68067  0.20595  0.80590  1.0000
  C   C1305     1.0  0.51194  0.44828  0.94652  1.0000
  H   H1548     1.0  0.50521  0.12448  0.67451  1.0000
  H   H1549     1.0  0.70115  0.40628  0.85910  1.0000
  H   H1550     1.0  0.61369  0.07081  0.87904  1.0000
  N   N87       1.0  0.60934  0.05011  0.94188  1.0000
  H   H1551     1.0  0.54159  0.01335  0.98508  1.0000
  C   C1306     1.0  0.61454  0.05493  0.96005  1.0000
  C   C1307     1.0  0.68350  0.35646  0.84466  1.0000
  C   C1308     1.0  0.61688  0.06214  0.92601  1.0000
  C   C1309     1.0  0.61212  0.06013  0.90779  1.0000
  C   C1310     1.0  0.62870  0.07628  0.92803  1.0000
  C   C1311     1.0  0.61811  0.07205  0.89272  1.0000
  H   H1552     1.0  0.62097  0.33783  0.95411  1.0000
  C   C1312     1.0  0.58886  0.05157  0.94234  1.0000
  H   H1553     1.0  0.58322  0.06621  0.94240  1.0000
  H   H1554     1.0  0.58361  0.04587  0.93034  1.0000
  C   C1313     1.0  0.50014  0.46416  0.97355  1.0000
  H   H1555     1.0  0.64308  0.09919  0.91482  1.0000
  H   H1556     1.0  0.53744  0.45531  0.98178  1.0000
  H   H1557     1.0  0.71825  0.38451  0.84483  1.0000
  C   C1314     1.0  0.68013  0.38941  0.85124  1.0000
  H   H1558     1.0  0.54311  0.44291  0.96212  1.0000
  H   H1559     1.0  0.53741  0.47287  0.94373  1.0000
  H   H1560     1.0  0.51310  0.09128  0.67643  1.0000
  H   H1561     1.0  0.70455  0.07203  0.65905  1.0000
  C   C1315     1.0  0.56070  0.11656  0.67737  1.0000
  C   C1316     1.0  0.51436  0.09158  0.66112  1.0000
  H   H1562     1.0  0.65426  0.37823  0.84547  1.0000
  N   N88       1.0  0.55108  0.15331  0.79173  1.0000
  C   C1317     1.0  0.55976  0.13506  0.79875  1.0000
  C   C1318     1.0  0.55800  0.15705  0.77214  1.0000
  C   C1319     1.0  0.53063  0.15435  0.79318  1.0000
  C   C1320     1.0  0.52037  0.13910  0.80015  1.0000
  C   C1321     1.0  0.52034  0.17118  0.78784  1.0000
  H   H1563     1.0  0.69316  0.34379  0.84428  1.0000
  H   H1564     1.0  0.52577  0.43482  0.97904  1.0000
  H   H1565     1.0  0.62810  0.01746  0.68803  1.0000
  H   H1566     1.0  0.55560  0.13166  0.81366  1.0000
  H   H1567     1.0  0.57512  0.13484  0.79771  1.0000
  H   H1568     1.0  0.55628  0.12379  0.79065  1.0000
  H   H1569     1.0  0.55351  0.17122  0.76634  1.0000
  H   H1570     1.0  0.57341  0.15587  0.77061  1.0000
  H   H1571     1.0  0.55305  0.14706  0.76335  1.0000
  H   H1572     1.0  0.52688  0.12581  0.80479  1.0000
  H   H1573     1.0  0.52715  0.18339  0.78254  1.0000
  H   H1574     1.0  0.52438  0.44338  0.93791  1.0000
  H   H1575     1.0  0.53369  0.10862  0.68542  1.0000
  C   C1322     1.0  0.65831  0.99585  0.70319  1.0000
  N   N89       1.0  0.61502  0.29457  0.89891  1.0000
  C   C1323     1.0  0.59716  0.29888  0.89036  1.0000
  C   C1324     1.0  0.63023  0.29858  0.88470  1.0000
  C   C1325     1.0  0.61675  0.27438  0.90452  1.0000
  C   C1326     1.0  0.61585  0.30612  0.91446  1.0000
  C   C1327     1.0  0.61855  0.29853  0.93290  1.0000
  C   C1328     1.0  0.61444  0.32570  0.91127  1.0000
  C   C1329     1.0  0.62020  0.30993  0.94701  1.0000
  C   C1330     1.0  0.61616  0.33695  0.92546  1.0000
  C   C1331     1.0  0.61912  0.32908  0.94327  1.0000
  H   H1576     1.0  0.59559  0.31337  0.88404  1.0000
  H   H1577     1.0  0.59574  0.28985  0.87912  1.0000
  H   H1578     1.0  0.58536  0.29689  0.90084  1.0000
  H   H1579     1.0  0.64385  0.29594  0.89075  1.0000
  H   H1580     1.0  0.62932  0.31320  0.87867  1.0000
  H   H1581     1.0  0.63049  0.28973  0.87302  1.0000
  H   H1582     1.0  0.60532  0.27017  0.91466  1.0000
  H   H1583     1.0  0.61649  0.26603  0.89249  1.0000
  H   H1584     1.0  0.63013  0.27008  0.91067  1.0000
  H   H1585     1.0  0.62001  0.28384  0.93671  1.0000
  H   H1586     1.0  0.61269  0.33254  0.89761  1.0000
  H   H1587     1.0  0.61956  0.04494  0.65691  1.0000
  S   S361      1.0  0.65274  0.06928  0.66105  1.0000
  C   C1332     1.0  0.66110  0.39026  0.84787  1.0000
  N   N90       1.0  0.65847  0.18885  0.80295  1.0000
  C   C1333     1.0  0.63820  0.19189  0.80176  1.0000
  C   C1334     1.0  0.66230  0.17743  0.82041  1.0000
  C   C1335     1.0  0.66560  0.20719  0.80405  1.0000
  C   C1336     1.0  0.66671  0.17907  0.78699  1.0000
  C   C1337     1.0  0.66056  0.16178  0.78367  1.0000
  C   C1338     1.0  0.68080  0.18623  0.77435  1.0000
  C   C1339     1.0  0.66781  0.15240  0.76854  1.0000
  C   C1340     1.0  0.68802  0.17666  0.75928  1.0000
  C   C1341     1.0  0.68150  0.15982  0.75636  1.0000
  H   H1588     1.0  0.63468  0.19889  0.78808  1.0000
  H   H1589     1.0  0.63130  0.17878  0.80374  1.0000
  H   H1590     1.0  0.63162  0.20055  0.81261  1.0000
  H   H1591     1.0  0.65652  0.16373  0.82117  1.0000
  H   H1592     1.0  0.65613  0.18429  0.83276  1.0000
  H   H1593     1.0  0.67741  0.17485  0.82185  1.0000
  H   H1594     1.0  0.66272  0.21671  0.79154  1.0000
  H   H1595     1.0  0.65890  0.21410  0.81619  1.0000
  Fe  Fe185     1.0  0.56924  0.48226  0.91139  1.0000
  S   S362      1.0  0.61602  0.46475  0.93118  1.0000
  H   H1596     1.0  0.58262  0.04382  0.95487  1.0000
  C   C1342     1.0  0.55751  0.16738  0.80262  1.0000
  H   H1597     1.0  0.57282  0.16678  0.80224  1.0000
  H   H1598     1.0  0.55221  0.16524  0.81732  1.0000
  S   S363      1.0  0.74012  0.32267  0.88082  1.0000
  H   H1599     1.0  0.52936  0.48427  0.96400  1.0000
  C   C1343     1.0  0.50933  0.06561  0.97935  1.0000
  H   H1600     1.0  0.67892  0.36005  0.83044  1.0000
  H   H1601     1.0  0.70626  0.38034  0.82516  1.0000
  C   C1344     1.0  0.61093  0.46118  0.98305  1.0000
  C   C1345     1.0  0.65730  0.42286  0.85241  1.0000
  C   C1346     1.0  0.52050  0.48215  0.90443  1.0000
  C   C1347     1.0  0.68990  0.31987  0.98591  1.0000
  S   S364      1.0  0.57257  0.07531  0.98441  1.0000
  C   C1348     1.0  0.64997  0.40682  0.84837  1.0000
  S   S365      1.0  0.59831  0.07720  0.67371  1.0000
  C   C1349     1.0  0.49202  0.06201  0.98794  1.0000
  H   H1602     1.0  0.50660  0.44285  0.88969  1.0000
  H   H1603     1.0  0.68448  0.36449  0.87989  1.0000
  C   C1350     1.0  0.50105  0.17277  0.78981  1.0000
  H   H1604     1.0  0.51886  0.02427  0.98194  1.0000
  H   H1605     1.0  0.70480  0.37682  0.87627  1.0000
  S   S366      1.0  0.59678  0.48735  0.89562  1.0000
  H   H1606     1.0  0.49350  0.18593  0.78631  1.0000
  H   H1607     1.0  0.72230  0.05470  0.66548  1.0000
  C   C1351     1.0  0.52501  0.47605  0.95320  1.0000
  H   H1608     1.0  0.51355  0.48294  0.86040  1.0000
  H   H1609     1.0  0.51513  0.48517  0.94494  1.0000
  H   H1610     1.0  0.50109  0.08706  0.65720  1.0000
  C   C1352     1.0  0.59281  0.45698  0.98835  1.0000
  C   C1353     1.0  0.70849  0.32312  0.98647  1.0000
  H   H1611     1.0  0.50454  0.43600  0.95222  1.0000
  H   H1612     1.0  0.53408  0.07936  0.98079  1.0000
  C   C1354     1.0  0.57319  0.12233  0.66295  1.0000
  H   H1613     1.0  0.49464  0.12026  0.91823  1.0000
  H   H1614     1.0  0.69878  0.04926  0.66762  1.0000
  N   N91       1.0  0.60864  0.01895  0.66696  1.0000
  H   H1615     1.0  0.52537  0.08087  0.65728  1.0000
  C   C1355     1.0  0.49145  0.15763  0.79685  1.0000
  C   C1356     1.0  0.52085  0.07638  0.98760  1.0000
  H   H1616     1.0  0.58662  0.04034  0.67013  1.0000
  C   C1357     1.0  0.58920  0.02634  0.66513  1.0000
  H   H1617     1.0  0.69248  0.86673  0.23511  1.0000
  S   S367      1.0  0.58650  0.50293  0.06076  1.0000
  H   H1618     1.0  0.61373  0.80529  0.06687  1.0000
  Fe  Fe186     1.0  0.60014  0.50796  0.08641  1.0000
  S   S368      1.0  0.60008  0.53877  0.08979  1.0000
  H   H1619     1.0  0.64562  0.79108  0.06755  1.0000
  S   S369      1.0  0.56290  0.90655  0.01866  1.0000
  C   C1358     1.0  0.54682  0.87270  0.09382  1.0000
  Fe  Fe187     1.0  0.57550  0.87736  0.01939  1.0000
  S   S370      1.0  0.56815  0.85430  0.04140  1.0000
  H   H1620     1.0  0.54203  0.74498  0.16868  1.0000
  S   S371      1.0  0.61918  0.89290  0.30006  1.0000
  C   C1359     1.0  0.52552  0.73905  0.13871  1.0000
  S   S372      1.0  0.66231  0.89383  0.28469  1.0000
  C   C1360     1.0  0.61703  0.81655  0.03840  1.0000
  Fe  Fe188     1.0  0.64287  0.90994  0.30409  1.0000
  C   C1361     1.0  0.52369  0.96271  0.99638  1.0000
  Fe  Fe189     1.0  0.63909  0.87548  0.28243  1.0000
  S   S373      1.0  0.63155  0.86901  0.25345  1.0000
  H   H1621     1.0  0.69257  0.55492  0.15422  1.0000
  Fe  Fe190     1.0  0.59754  0.80898  0.13814  1.0000
  S   S374      1.0  0.57930  0.78696  0.13338  1.0000
  S   S375      1.0  0.60796  0.83022  0.11556  1.0000
  Fe  Fe191     1.0  0.59680  0.79893  0.18016  1.0000
  S   S376      1.0  0.57795  0.77597  0.17810  1.0000
  S   S377      1.0  0.60659  0.80379  0.20882  1.0000
  Fe  Fe192     1.0  0.59658  0.76828  0.15303  1.0000
  S   S378      1.0  0.60150  0.73767  0.14653  1.0000
  Fe  Fe193     1.0  0.56200  0.79591  0.15841  1.0000
  S   S379      1.0  0.53142  0.80429  0.15367  1.0000
  S   S380      1.0  0.61622  0.78996  0.15621  1.0000
  S   S381      1.0  0.57954  0.81920  0.16215  1.0000
  Fe  Fe194     1.0  0.67266  0.61052  0.10713  1.0000
  S   S382      1.0  0.69649  0.60757  0.08594  1.0000
  S   S383      1.0  0.66341  0.58210  0.11817  1.0000
  Fe  Fe195     1.0  0.67610  0.65259  0.10761  1.0000
  S   S384      1.0  0.70075  0.65142  0.08657  1.0000
  S   S385      1.0  0.66874  0.68161  0.11789  1.0000
  Fe  Fe196     1.0  0.68424  0.63373  0.07129  1.0000
  S   S386      1.0  0.67542  0.63790  0.04138  1.0000
  Fe  Fe197     1.0  0.71103  0.62516  0.10332  1.0000
  H   H1622     1.0  0.56042  0.86632  0.09039  1.0000
  S   S387      1.0  0.65925  0.63575  0.09166  1.0000
  S   S388      1.0  0.68751  0.62736  0.12506  1.0000
  C   C1362     1.0  0.52937  0.97961  0.00046  1.0000
  H   H1623     1.0  0.54771  0.71297  0.16001  1.0000
  C   C1363     1.0  0.70380  0.62791  0.01527  1.0000
  C   C1364     1.0  0.68513  0.63344  0.01887  1.0000
  C   C1365     1.0  0.67351  0.63554  0.00412  1.0000
  C   C1366     1.0  0.72760  0.56501  0.15638  1.0000
  C   C1367     1.0  0.62908  0.81889  0.02213  1.0000
  H   H1624     1.0  0.71292  0.62624  0.02645  1.0000
  H   H1625     1.0  0.65904  0.63977  0.00673  1.0000
  H   H1626     1.0  0.70405  0.57153  0.17570  1.0000
  H   H1627     1.0  0.51959  0.71083  0.14966  1.0000
  S   S389      1.0  0.60320  0.88569  0.00729  1.0000
  H   H1628     1.0  0.55047  0.70862  0.13574  1.0000
  C   C1368     1.0  0.49531  0.85852  0.01735  1.0000
  C   C1369     1.0  0.62044  0.72248  0.13826  1.0000
  C   C1370     1.0  0.61708  0.70440  0.13472  1.0000
  C   C1371     1.0  0.63152  0.69179  0.12835  1.0000
  C   C1372     1.0  0.64967  0.69699  0.12552  1.0000
  C   C1373     1.0  0.65299  0.71509  0.12902  1.0000
  C   C1374     1.0  0.63855  0.72775  0.13526  1.0000
  H   H1629     1.0  0.60323  0.70003  0.13701  1.0000
  H   H1630     1.0  0.62863  0.67798  0.12583  1.0000
  H   H1631     1.0  0.66692  0.71935  0.12696  1.0000
  H   H1632     1.0  0.64149  0.74150  0.13792  1.0000
  C   C1375     1.0  0.50990  0.79440  0.15943  1.0000
  C   C1376     1.0  0.50821  0.77832  0.17138  1.0000
  C   C1377     1.0  0.64534  0.53498  0.05559  1.0000
  H   H1633     1.0  0.52018  0.77170  0.17786  1.0000
  C   C1378     1.0  0.63311  0.98034  0.25620  1.0000
  H   H1634     1.0  0.63292  0.96541  0.25703  1.0000
  H   H1635     1.0  0.56549  0.87697  0.13034  1.0000
  C   C1379     1.0  0.61253  0.82242  0.22123  1.0000
  C   C1380     1.0  0.61288  0.84068  0.21328  1.0000
  C   C1381     1.0  0.61843  0.85467  0.22344  1.0000
  C   C1382     1.0  0.62366  0.85077  0.24177  1.0000
  C   C1383     1.0  0.62305  0.83256  0.24982  1.0000
  C   C1384     1.0  0.61759  0.81856  0.23962  1.0000
  H   H1636     1.0  0.60910  0.84400  0.19921  1.0000
  H   H1637     1.0  0.61882  0.86863  0.21697  1.0000
  H   H1638     1.0  0.62696  0.82918  0.26383  1.0000
  H   H1639     1.0  0.61742  0.80455  0.24599  1.0000
  H   H1640     1.0  0.65075  0.81128  0.19927  1.0000
  C   C1385     1.0  0.64604  0.96123  0.30482  1.0000
  C   C1386     1.0  0.66526  0.96114  0.30213  1.0000
  H   H1641     1.0  0.59989  0.84504  0.99297  1.0000
  H   H1642     1.0  0.65693  0.59425  0.01478  1.0000
  H   H1643     1.0  0.49747  0.49638  0.11476  1.0000
  C   C1387     1.0  0.58052  0.84712  0.06111  1.0000
  C   C1388     1.0  0.59429  0.85731  0.06646  1.0000
  C   C1389     1.0  0.60296  0.85167  0.08293  1.0000
  C   C1390     1.0  0.59802  0.83577  0.09410  1.0000
  C   C1391     1.0  0.58480  0.82519  0.08832  1.0000
  C   C1392     1.0  0.57595  0.83095  0.07199  1.0000
  H   H1644     1.0  0.59797  0.86977  0.05817  1.0000
  H   H1645     1.0  0.61330  0.85986  0.08723  1.0000
  H   H1646     1.0  0.58109  0.81278  0.09665  1.0000
  H   H1647     1.0  0.56543  0.82289  0.06785  1.0000
  H   H1648     1.0  0.63648  0.59432  0.03040  1.0000
  C   C1393     1.0  0.67343  0.81455  0.23782  1.0000
  C   C1394     1.0  0.60212  0.53784  0.99748  1.0000
  H   H1649     1.0  0.67680  0.67919  0.02813  1.0000
  C   C1395     1.0  0.65599  0.59043  0.06153  1.0000
  C   C1396     1.0  0.52087  0.89267  0.08323  1.0000
  C   C1397     1.0  0.61783  0.55044  0.09789  1.0000
  C   C1398     1.0  0.61663  0.56989  0.09592  1.0000
  C   C1399     1.0  0.63056  0.57977  0.10186  1.0000
  C   C1400     1.0  0.64579  0.57029  0.10998  1.0000
  C   C1401     1.0  0.64691  0.55085  0.11212  1.0000
  C   C1402     1.0  0.63309  0.54095  0.10597  1.0000
  H   H1650     1.0  0.60479  0.57734  0.08985  1.0000
  H   H1651     1.0  0.62933  0.59473  0.10048  1.0000
  H   H1652     1.0  0.65851  0.54338  0.11858  1.0000
  H   H1653     1.0  0.63414  0.52600  0.10767  1.0000
  H   H1654     1.0  0.64498  0.51343  0.03747  1.0000
  H   H1655     1.0  0.50029  0.89802  0.03713  1.0000
  H   H1656     1.0  0.66535  0.56392  0.01245  1.0000
  H   H1657     1.0  0.68921  0.57475  0.04917  1.0000
  C   C1403     1.0  0.55571  0.74387  0.12303  1.0000
  H   H1658     1.0  0.53503  0.87049  0.14959  1.0000
  C   C1404     1.0  0.69223  0.68289  0.00178  1.0000
  H   H1659     1.0  0.54579  0.76397  0.15161  1.0000
  C   C1405     1.0  0.51656  0.75617  0.13204  1.0000
  H   H1660     1.0  0.57524  0.85969  0.11562  1.0000
  H   H1661     1.0  0.73528  0.62090  0.14857  1.0000
  H   H1662     1.0  0.53090  0.85694  0.02276  1.0000
  C   C1406     1.0  0.55328  0.71822  0.14600  1.0000
  C   C1407     1.0  0.70338  0.83407  0.25228  1.0000
  C   C1408     1.0  0.60445  0.54316  0.03007  1.0000
  C   C1409     1.0  0.66803  0.84465  0.22110  1.0000
  C   C1410     1.0  0.54967  0.74906  0.15527  1.0000
  H   H1663     1.0  0.68880  0.97763  0.29918  1.0000
  H   H1664     1.0  0.55294  0.75891  0.11928  1.0000
  N   N92       1.0  0.66129  0.58358  0.04311  1.0000
  C   C1411     1.0  0.64957  0.55306  0.05727  1.0000
  H   H1665     1.0  0.57285  0.85437  0.28913  1.0000
  N   N93       1.0  0.54678  0.85664  0.12601  1.0000
  C   C1412     1.0  0.53678  0.85644  0.14462  1.0000
  C   C1413     1.0  0.54806  0.83756  0.12039  1.0000
  H   H1666     1.0  0.57242  0.85393  0.13962  1.0000
  H   H1667     1.0  0.54433  0.84718  0.15510  1.0000
  H   H1668     1.0  0.52304  0.85078  0.14479  1.0000
  H   H1669     1.0  0.55453  0.83673  0.10623  1.0000
  H   H1670     1.0  0.55644  0.82784  0.12975  1.0000
  H   H1671     1.0  0.53418  0.83219  0.12061  1.0000
  H   H1672     1.0  0.51140  0.87562  0.12744  1.0000
  C   C1414     1.0  0.53857  0.88435  0.07992  1.0000
  H   H1673     1.0  0.70934  0.53838  0.14451  1.0000
  H   H1674     1.0  0.57097  0.74168  0.12381  1.0000
  C   C1415     1.0  0.71075  0.62485  0.99706  1.0000
  C   C1416     1.0  0.67615  0.68105  0.01321  1.0000
  H   H1675     1.0  0.60069  0.58410  0.00381  1.0000
  H   H1676     1.0  0.66306  0.79183  0.22580  1.0000
  C   C1417     1.0  0.60149  0.97663  0.01797  1.0000
  H   H1677     1.0  0.65923  0.60506  0.06195  1.0000
  C   C1418     1.0  0.49397  0.80301  0.15152  1.0000
  H   H1678     1.0  0.60036  0.84631  0.01723  1.0000
  H   H1679     1.0  0.67437  0.82280  0.27384  1.0000
  C   C1419     1.0  0.53770  0.86921  0.11164  1.0000
  C   C1420     1.0  0.64829  0.52749  0.03863  1.0000
  H   H1680     1.0  0.68632  0.58172  0.02511  1.0000
  C   C1421     1.0  0.64104  0.79863  0.05494  1.0000
  C   C1422     1.0  0.59579  0.96269  0.00808  1.0000
  C   C1423     1.0  0.60317  0.56218  0.02560  1.0000
  C   C1424     1.0  0.52354  0.87093  0.02311  1.0000
  C   C1425     1.0  0.65797  0.81745  0.20934  1.0000
  H   H1681     1.0  0.61951  0.80639  0.99097  1.0000
  H   H1682     1.0  0.69108  0.86819  0.25960  1.0000
  H   H1683     1.0  0.52968  0.85306  0.05407  1.0000
  H   H1684     1.0  0.69439  0.55337  0.12996  1.0000
  C   C1426     1.0  0.67388  0.83783  0.26946  1.0000
  C   C1427     1.0  0.65152  0.59623  0.02920  1.0000
  C   C1428     1.0  0.65966  0.55627  0.02473  1.0000
  H   H1685     1.0  0.67962  0.84450  0.28069  1.0000
  H   H1686     1.0  0.71942  0.56509  0.11026  1.0000
  C   C1429     1.0  0.60122  0.55736  0.99332  1.0000
  H   H1687     1.0  0.65905  0.84284  0.26892  1.0000
  C   C1430     1.0  0.51955  0.87770  0.11449  1.0000
  C   C1431     1.0  0.65542  0.53812  0.02320  1.0000
  H   H1688     1.0  0.71135  0.83649  0.23870  1.0000
  H   H1689     1.0  0.67836  0.80549  0.24930  1.0000
  H   H1690     1.0  0.63964  0.52676  0.06758  1.0000
  H   H1691     1.0  0.65740  0.81208  0.01142  1.0000
  C   C1432     1.0  0.64736  0.81059  0.02308  1.0000
  H   H1692     1.0  0.60325  0.57136  0.03645  1.0000
  C   C1433     1.0  0.50500  0.95978  0.99736  1.0000
  H   H1693     1.0  0.60294  0.82247  0.03918  1.0000
  H   H1694     1.0  0.64090  0.59004  0.06510  1.0000
  H   H1695     1.0  0.60563  0.53769  0.04439  1.0000
  Fe  Fe198     1.0  0.66963  0.87511  0.31025  1.0000
  H   H1696     1.0  0.54597  0.88679  0.06647  1.0000
  H   H1697     1.0  0.55200  0.73634  0.11142  1.0000
  C   C1434     1.0  0.51412  0.72428  0.14417  1.0000
  H   H1698     1.0  0.64687  0.67947  0.01452  1.0000
  Fe  Fe199     1.0  0.58981  0.91490  0.00446  1.0000
  H   H1699     1.0  0.65768  0.53219  0.01004  1.0000
  C   C1435     1.0  0.67396  0.97781  0.30169  1.0000
  H   H1700     1.0  0.60560  0.51649  0.02046  1.0000
  C   C1436     1.0  0.49746  0.75831  0.13074  1.0000
  N   N94       1.0  0.54567  0.73740  0.14071  1.0000
  H   H1701     1.0  0.53087  0.87911  0.03199  1.0000
  H   H1702     1.0  0.65377  0.84490  0.19618  1.0000
  H   H1703     1.0  0.67339  0.94833  0.29999  1.0000
  C   C1437     1.0  0.72885  0.56767  0.18966  1.0000
  H   H1704     1.0  0.72526  0.62078  0.99442  1.0000
  H   H1705     1.0  0.69589  0.58758  0.14865  1.0000
  C   C1438     1.0  0.70272  0.55266  0.14228  1.0000
  C   C1439     1.0  0.68452  0.86248  0.24827  1.0000
  C   C1440     1.0  0.60169  0.56927  0.00725  1.0000
  C   C1441     1.0  0.49497  0.88917  0.02744  1.0000
  N   N95       1.0  0.71670  0.56651  0.13989  1.0000
  C   C1442     1.0  0.70702  0.58520  0.13762  1.0000
  C   C1443     1.0  0.49190  0.97377  0.00240  1.0000
  H   H1706     1.0  0.62085  0.97840  0.30937  1.0000
  C   C1444     1.0  0.65928  0.68113  0.00546  1.0000
  C   C1445     1.0  0.50082  0.86203  0.04900  1.0000
  H   H1707     1.0  0.51502  0.86640  0.30041  1.0000
  S   S390      1.0  0.64764  0.85593  0.30670  1.0000
  H   H1708     1.0  0.60965  0.97281  0.02974  1.0000
  C   C1446     1.0  0.67520  0.83390  0.23667  1.0000
  H   H1709     1.0  0.70422  0.81892  0.25614  1.0000
  C   C1447     1.0  0.62303  0.80661  0.05451  1.0000
  C   C1448     1.0  0.51135  0.88927  0.10043  1.0000
  H   H1710     1.0  0.66362  0.58235  0.07270  1.0000
  C   C1449     1.0  0.56152  0.85982  0.29812  1.0000
  H   H1711     1.0  0.53385  0.95185  0.99222  1.0000
  H   H1712     1.0  0.70024  0.58755  0.12436  1.0000
  H   H1713     1.0  0.63288  0.85477  0.01425  1.0000
  C   C1450     1.0  0.65968  0.83642  0.20764  1.0000
  H   H1714     1.0  0.73731  0.84760  0.31511  1.0000
  C   C1451     1.0  0.65317  0.80056  0.03924  1.0000
  H   H1715     1.0  0.64710  0.55783  0.07085  1.0000
  S   S391      1.0  0.60251  0.93915  0.01484  1.0000
  H   H1716     1.0  0.56857  0.71743  0.14674  1.0000
  C   C1452     1.0  0.66484  0.80653  0.22439  1.0000
  C   C1453     1.0  0.65672  0.56435  0.04182  1.0000
  N   N96       1.0  0.62354  0.83016  0.00514  1.0000
  H   H1717     1.0  0.49673  0.86428  0.00266  1.0000
  H   H1718     1.0  0.49699  0.88989  0.31364  1.0000
  H   H1719     1.0  0.52416  0.76828  0.12845  1.0000
  H   H1720     1.0  0.67034  0.86946  0.24800  1.0000
  H   H1721     1.0  0.56461  0.74779  0.15770  1.0000
  C   C1454     1.0  0.60373  0.83694  0.00606  1.0000
  H   H1722     1.0  0.73839  0.57413  0.11941  1.0000
  H   H1723     1.0  0.65305  0.61099  0.03107  1.0000
  H   H1724     1.0  0.68563  0.59873  0.04126  1.0000
  H   H1725     1.0  0.70534  0.68260  0.00793  1.0000
  C   C1455     1.0  0.56569  0.86211  0.12794  1.0000
  C   C1456     1.0  0.68147  0.58470  0.03945  1.0000
  H   H1726     1.0  0.49150  0.83957  0.09972  1.0000
  C   C1457     1.0  0.63572  0.97812  0.30747  1.0000
  H   H1727     1.0  0.66723  0.79446  0.03971  1.0000
  H   H1728     1.0  0.71058  0.84026  0.26288  1.0000
  H   H1729     1.0  0.49770  0.89583  0.01315  1.0000
  N   N97       1.0  0.68405  0.84206  0.25130  1.0000
  H   H1730     1.0  0.66811  0.85951  0.21927  1.0000
  C   C1458     1.0  0.71878  0.56821  0.17400  1.0000
  C   C1459     1.0  0.60418  0.53113  0.01625  1.0000
  H   H1731     1.0  0.66091  0.97934  0.26416  1.0000
  H   H1732     1.0  0.52521  0.87770  0.00876  1.0000
  H   H1733     1.0  0.71679  0.59612  0.13761  1.0000
  H   H1734     1.0  0.59073  0.50242  0.00161  1.0000
  C   C1460     1.0  0.49497  0.72668  0.14305  1.0000
  C   C1461     1.0  0.58530  0.96781  0.99286  1.0000
  C   C1462     1.0  0.56513  0.86683  0.31448  1.0000
  H   H1735     1.0  0.59457  0.82535  0.00843  1.0000
  H   H1736     1.0  0.52045  0.91027  0.32222  1.0000
  S   S392      1.0  0.69972  0.86297  0.31285  1.0000
  C   C1463     1.0  0.51547  0.85372  0.05952  1.0000
  H   H1737     1.0  0.62414  0.50698  0.99385  1.0000
  H   H1738     1.0  0.52347  0.83951  0.08531  1.0000
  C   C1464     1.0  0.51207  0.84580  0.07762  1.0000
  H   H1739     1.0  0.60530  0.98542  0.24822  1.0000
  C   C1465     1.0  0.49411  0.84585  0.08575  1.0000
  H   H1740     1.0  0.64957  0.84262  0.99949  1.0000
  C   C1466     1.0  0.54337  0.85979  0.29336  1.0000
  C   C1467     1.0  0.64888  0.98822  0.26025  1.0000
  S   S393      1.0  0.56566  0.87268  0.99184  1.0000
  H   H1741     1.0  0.57354  0.51860  0.99175  1.0000
  H   H1742     1.0  0.72188  0.57059  0.20289  1.0000
  C   C1468     1.0  0.63460  0.84649  0.00205  1.0000
  H   H1743     1.0  0.50070  0.94669  0.99397  1.0000
  H   H1744     1.0  0.54066  0.85421  0.28064  1.0000
  Fe  Fe200     1.0  0.55583  0.90265  0.98999  1.0000
  H   H1745     1.0  0.73527  0.54955  0.12279  1.0000
  H   H1746     1.0  0.50185  0.84415  0.01819  1.0000
  C   C1469     1.0  0.52872  0.86692  0.30488  1.0000
  H   H1747     1.0  0.49504  0.81551  0.14234  1.0000
  N   N98       1.0  0.50377  0.87002  0.02961  1.0000
  S   S394      1.0  0.63408  0.94100  0.30406  1.0000
  H   H1748     1.0  0.49088  0.77164  0.12602  1.0000
  C   C1470     1.0  0.53197  0.87440  0.32158  1.0000
  H   H1749     1.0  0.49750  0.89567  0.10287  1.0000
  H   H1750     1.0  0.51449  0.90169  0.07242  1.0000
  H   H1751     1.0  0.54400  0.98127  0.99901  1.0000
  S   S395      1.0  0.62571  0.48970  0.07992  1.0000
  H   H1752     1.0  0.53013  0.48999  0.10292  1.0000
  H   H1753     1.0  0.57927  0.86677  0.31825  1.0000
  C   C1471     1.0  0.72804  0.56362  0.12238  1.0000
  H   H1754     1.0  0.63043  0.85580  0.98977  1.0000
  H   H1755     1.0  0.71584  0.90258  0.32125  1.0000
  C   C1472     1.0  0.49092  0.77080  0.17502  1.0000
  Fe  Fe201     1.0  0.51794  0.90080  0.59796  1.0000
  H   H1756     1.0  0.49456  0.86759  0.32677  1.0000
  S   S396      1.0  0.53403  0.89786  0.62417  1.0000
  Fe  Fe202     1.0  0.51132  0.89464  0.55738  1.0000
  S   S397      1.0  0.52533  0.89287  0.52844  1.0000
  C   C1473     1.0  0.51056  0.95989  0.49704  1.0000
  C   C1474     1.0  0.69256  0.85394  0.59205  1.0000
  S   S398      1.0  0.52084  0.91841  0.57090  1.0000
  S   S399      1.0  0.51095  0.87610  0.58421  1.0000
  H   H1757     1.0  0.63695  0.82868  0.35782  1.0000
  Fe  Fe203     1.0  0.51428  0.89788  0.39629  1.0000
  N   N99       1.0  0.65281  0.83881  0.37821  1.0000
  S   S400      1.0  0.54003  0.90802  0.38013  1.0000
  S   S401      1.0  0.61022  0.86106  0.34692  1.0000
  C   C1475     1.0  0.69199  0.81872  0.34667  1.0000
  S   S402      1.0  0.50447  0.90781  0.42402  1.0000
  S   S403      1.0  0.50406  0.86951  0.40310  1.0000
  C   C1476     1.0  0.65611  0.86959  0.60173  1.0000
  H   H1758     1.0  0.53340  0.89973  0.48929  1.0000
  H   H1759     1.0  0.68314  0.82508  0.39888  1.0000
  H   H1760     1.0  0.50127  0.95056  0.59648  1.0000
  H   H1761     1.0  0.64223  0.85488  0.63313  1.0000
  C   C1477     1.0  0.72151  0.87716  0.63497  1.0000
  C   C1478     1.0  0.72204  0.86609  0.65177  1.0000
  H   H1762     1.0  0.70999  0.88721  0.63269  1.0000
  H   H1763     1.0  0.73523  0.83162  0.59613  1.0000
  C   C1479     1.0  0.70724  0.86054  0.35031  1.0000
  C   C1480     1.0  0.71869  0.85554  0.36512  1.0000
  N   N100      1.0  0.66742  0.86160  0.61711  1.0000
  S   S404      1.0  0.62013  0.89340  0.63836  1.0000
  C   C1481     1.0  0.55972  0.89465  0.37176  1.0000
  C   C1482     1.0  0.56283  0.87576  0.37712  1.0000
  C   C1483     1.0  0.57845  0.86562  0.36952  1.0000
  C   C1484     1.0  0.59099  0.87426  0.35651  1.0000
  C   C1485     1.0  0.58789  0.89314  0.35121  1.0000
  C   C1486     1.0  0.57234  0.90326  0.35884  1.0000
  H   H1764     1.0  0.55323  0.86899  0.38709  1.0000
  H   H1765     1.0  0.58074  0.85101  0.37366  1.0000
  H   H1766     1.0  0.59741  0.89993  0.34116  1.0000
  H   H1767     1.0  0.56992  0.91780  0.35448  1.0000
  H   H1768     1.0  0.59335  0.94155  0.35579  1.0000
  H   H1769     1.0  0.63784  0.86555  0.37365  1.0000
  C   C1487     1.0  0.50082  0.93772  0.52213  1.0000
  C   C1488     1.0  0.51079  0.94901  0.48182  1.0000
  H   H1770     1.0  0.69507  0.81752  0.33200  1.0000
  C   C1489     1.0  0.55807  0.89684  0.62766  1.0000
  H   H1771     1.0  0.66517  0.83162  0.34279  1.0000
  C   C1490     1.0  0.59609  0.89480  0.63477  1.0000
  C   C1491     1.0  0.59054  0.89619  0.61654  1.0000
  C   C1492     1.0  0.57168  0.89722  0.61298  1.0000
  H   H1772     1.0  0.60088  0.89649  0.60505  1.0000
  H   H1773     1.0  0.56766  0.89827  0.59890  1.0000
  N   N101      1.0  0.51698  0.88244  0.33401  1.0000
  C   C1493     1.0  0.49927  0.96512  0.59202  1.0000
  H   H1774     1.0  0.51763  0.95727  0.54369  1.0000
  C   C1494     1.0  0.71375  0.85759  0.33214  1.0000
  C   C1495     1.0  0.51435  0.88641  0.50941  1.0000
  H   H1775     1.0  0.55010  0.98016  0.37428  1.0000
  C   C1496     1.0  0.51369  0.88611  0.47585  1.0000
  C   C1497     1.0  0.52149  0.89167  0.49134  1.0000
  H   H1776     1.0  0.51953  0.88998  0.46204  1.0000
  H   H1777     1.0  0.51439  0.97341  0.61367  1.0000
  H   H1778     1.0  0.63663  0.84702  0.40264  1.0000
  C   C1498     1.0  0.50672  0.97805  0.60172  1.0000
  H   H1779     1.0  0.72332  0.82797  0.62884  1.0000
  N   N102      1.0  0.51471  0.95105  0.51562  1.0000
  H   H1780     1.0  0.71261  0.81130  0.38717  1.0000
  C   C1499     1.0  0.71453  0.83489  0.61853  1.0000
  C   C1500     1.0  0.65102  0.85787  0.36904  1.0000
  H   H1781     1.0  0.50578  0.98873  0.50400  1.0000
  H   H1782     1.0  0.50768  0.94851  0.45257  1.0000
  C   C1501     1.0  0.60723  0.97622  0.64097  1.0000
  C   C1502     1.0  0.70182  0.81526  0.37775  1.0000
  H   H1783     1.0  0.52969  0.87365  0.35966  1.0000
  C   C1503     1.0  0.67493  0.82690  0.35300  1.0000
  H   H1784     1.0  0.63884  0.81383  0.37889  1.0000
  C   C1504     1.0  0.56379  0.97790  0.36759  1.0000
  C   C1505     1.0  0.72127  0.83693  0.60009  1.0000
  C   C1506     1.0  0.50637  0.97926  0.49339  1.0000
  H   H1785     1.0  0.60321  0.97285  0.62772  1.0000
  H   H1786     1.0  0.69333  0.86651  0.35299  1.0000
  H   H1787     1.0  0.54406  0.95016  0.50900  1.0000
  H   H1788     1.0  0.65128  0.82626  0.40630  1.0000
  Fe  Fe204     1.0  0.49208  0.88056  0.43001  1.0000
  C   C1507     1.0  0.58249  0.89446  0.64944  1.0000
  H   H1789     1.0  0.50889  0.90863  0.34507  1.0000
  H   H1790     1.0  0.64240  0.87579  0.60701  1.0000
  C   C1508     1.0  0.73202  0.84990  0.32906  1.0000
  H   H1791     1.0  0.68495  0.86128  0.58113  1.0000
  H   H1792     1.0  0.50523  0.87698  0.36193  1.0000
  C   C1509     1.0  0.70542  0.81295  0.35901  1.0000
  C   C1510     1.0  0.67079  0.82955  0.37200  1.0000
  C   C1511     1.0  0.65039  0.84017  0.39851  1.0000
  H   H1793     1.0  0.51389  0.93421  0.48354  1.0000
  C   C1512     1.0  0.73595  0.87517  0.62094  1.0000
  H   H1794     1.0  0.50867  0.86617  0.63338  1.0000
  H   H1795     1.0  0.49788  0.88664  0.64218  1.0000
  C   C1513     1.0  0.58809  0.95575  0.35724  1.0000
  C   C1514     1.0  0.51704  0.87207  0.35256  1.0000
  C   C1515     1.0  0.65615  0.84837  0.62892  1.0000
  H   H1796     1.0  0.51823  0.96919  0.38825  1.0000
  C   C1516     1.0  0.51998  0.90204  0.33590  1.0000
  C   C1517     1.0  0.51459  0.96438  0.52987  1.0000
  H   H1797     1.0  0.66243  0.84336  0.64208  1.0000
  H   H1798     1.0  0.71333  0.85765  0.37910  1.0000
  H   H1799     1.0  0.52514  0.97455  0.52624  1.0000
  H   H1800     1.0  0.53309  0.90357  0.34223  1.0000
  C   C1518     1.0  0.68479  0.82342  0.38426  1.0000
  H   H1801     1.0  0.65784  0.88456  0.63272  1.0000
  H   H1802     1.0  0.53704  0.93465  0.52862  1.0000
  H   H1803     1.0  0.56224  0.94830  0.37103  1.0000
  H   H1804     1.0  0.67810  0.87176  0.64073  1.0000
  H   H1805     1.0  0.71440  0.90236  0.35525  1.0000
  C   C1519     1.0  0.72767  0.90025  0.34762  1.0000
  H   H1806     1.0  0.65087  0.85798  0.35379  1.0000
  C   C1520     1.0  0.63752  0.82852  0.37306  1.0000
  C   C1521     1.0  0.68540  0.85238  0.61084  1.0000
  H   H1807     1.0  0.71889  0.80726  0.35397  1.0000
  H   H1808     1.0  0.50070  0.98226  0.44713  1.0000
  H   H1809     1.0  0.65335  0.85885  0.59263  1.0000
  C   C1522     1.0  0.57060  0.95959  0.36578  1.0000
  H   H1810     1.0  0.53391  0.92906  0.50604  1.0000
  C   C1523     1.0  0.69696  0.84261  0.62391  1.0000
  H   H1811     1.0  0.66261  0.86593  0.37193  1.0000
  H   H1812     1.0  0.66085  0.84865  0.40322  1.0000
  H   H1813     1.0  0.66280  0.88104  0.59325  1.0000
  C   C1524     1.0  0.50335  0.97606  0.46094  1.0000
  C   C1525     1.0  0.67091  0.87686  0.62809  1.0000
  C   C1526     1.0  0.53323  0.94089  0.51470  1.0000
  H   H1814     1.0  0.61251  0.96704  0.34394  1.0000
  H   H1815     1.0  0.67963  0.88693  0.61985  1.0000
  H   H1816     1.0  0.62377  0.83478  0.37807  1.0000
  C   C1527     1.0  0.71027  0.84633  0.58687  1.0000
  H   H1817     1.0  0.51595  0.85704  0.35168  1.0000
  H   H1818     1.0  0.69290  0.84153  0.63857  1.0000
  C   C1528     1.0  0.50725  0.95703  0.46406  1.0000
  H   H1819     1.0  0.71572  0.84804  0.57256  1.0000
  H   H1820     1.0  0.65413  0.83611  0.62152  1.0000
  H   H1821     1.0  0.55411  0.87921  0.33856  1.0000
  C   C1529     1.0  0.73756  0.85348  0.65446  1.0000
  C   C1530     1.0  0.56364  0.89546  0.64588  1.0000
  H   H1822     1.0  0.49892  0.94357  0.39937  1.0000
  C   C1531     1.0  0.50289  0.98714  0.47557  1.0000
  C   C1532     1.0  0.59888  0.97017  0.35057  1.0000
  Fe  Fe205     1.0  0.62912  0.87462  0.32431  1.0000
  H   H1823     1.0  0.73517  0.88360  0.60792  1.0000
  S   S405      1.0  0.65161  0.89240  0.32968  1.0000
  H   H1824     1.0  0.50377  0.93058  0.53590  1.0000
  H   H1825     1.0  0.50078  0.97195  0.53199  1.0000
  C   C1533     1.0  0.50452  0.97218  0.39458  1.0000
  C   C1534     1.0  0.49358  0.95765  0.40093  1.0000
  C   C1535     1.0  0.49897  0.87477  0.47831  1.0000
  H   H1826     1.0  0.50050  0.92662  0.51275  1.0000
  C   C1536     1.0  0.55061  0.87397  0.32605  1.0000
  C   C1537     1.0  0.72845  0.90042  0.32843  1.0000
  C   C1538     1.0  0.49825  0.88202  0.32740  1.0000
  C   C1539     1.0  0.49920  0.87566  0.51185  1.0000
  H   H1827     1.0  0.49368  0.87137  0.52569  1.0000
  C   C1540     1.0  0.73686  0.84758  0.36209  1.0000
  H   H1828     1.0  0.49520  0.83764  0.63847  1.0000
  C   C1541     1.0  0.49497  0.87317  0.63744  1.0000
  C   C1542     1.0  0.49177  0.86960  0.49638  1.0000
  C   C1543     1.0  0.59225  0.98854  0.35239  1.0000
  H   H1829     1.0  0.61437  0.94781  0.65049  1.0000
  C   C1544     1.0  0.61350  0.96209  0.65377  1.0000
  H   H1830     1.0  0.49724  0.79501  0.87505  1.0000
  H   H1831     1.0  0.64036  0.51098  0.86510  1.0000
  H   H1832     1.0  0.58628  0.50167  0.97823  1.0000
  S   S406      1.0  0.62696  0.51417  0.93001  1.0000
  H   H1833     1.0  0.58829  0.85928  0.79651  1.0000
  C   C1545     1.0  0.70508  0.55474  0.87643  1.0000
  H   H1834     1.0  0.65352  0.69612  0.83791  1.0000
  C   C1546     1.0  0.50614  0.49640  0.86132  1.0000
  H   H1835     1.0  0.57163  0.86701  0.73143  1.0000
  S   S407      1.0  0.58190  0.91265  0.97556  1.0000
  H   H1836     1.0  0.58090  0.95726  0.98506  1.0000
  S   S408      1.0  0.60969  0.86610  0.95821  1.0000
  H   H1837     1.0  0.58339  0.82688  0.80298  1.0000
  C   C1547     1.0  0.65009  0.52141  0.86534  1.0000
  H   H1838     1.0  0.53080  0.51016  0.86306  1.0000
  N   N103      1.0  0.60147  0.52479  0.98317  1.0000
  C   C1548     1.0  0.61976  0.51447  0.98069  1.0000
  S   S409      1.0  0.62467  0.89962  0.69365  1.0000
  H   H1839     1.0  0.56486  0.85227  0.81623  1.0000
  Fe  Fe206     1.0  0.67453  0.88066  0.67662  1.0000
  S   S410      1.0  0.66687  0.88760  0.70602  1.0000
  S   S411      1.0  0.70399  0.86751  0.66996  1.0000
  Fe  Fe207     1.0  0.64071  0.87351  0.70484  1.0000
  S   S412      1.0  0.62731  0.85176  0.72580  1.0000
  Fe  Fe208     1.0  0.65150  0.91326  0.69312  1.0000
  S   S413      1.0  0.65290  0.94035  0.70643  1.0000
  S   S414      1.0  0.64936  0.86479  0.67619  1.0000
  H   H1840     1.0  0.56387  0.81340  0.80716  1.0000
  Fe  Fe209     1.0  0.60322  0.80803  0.83386  1.0000
  S   S415      1.0  0.58939  0.78291  0.82832  1.0000
  S   S416      1.0  0.62237  0.82461  0.81291  1.0000
  Fe  Fe210     1.0  0.58560  0.80717  0.87433  1.0000
  S   S417      1.0  0.57121  0.78159  0.87106  1.0000
  S   S418      1.0  0.57433  0.82139  0.90004  1.0000
  Fe  Fe211     1.0  0.59812  0.77096  0.85663  1.0000
  S   S419      1.0  0.60863  0.74006  0.86007  1.0000
  Fe  Fe212     1.0  0.56375  0.79541  0.84347  1.0000
  S   S420      1.0  0.53497  0.80406  0.83338  1.0000
  S   S421      1.0  0.61302  0.79576  0.86168  1.0000
  S   S422      1.0  0.57724  0.82132  0.84718  1.0000
  Fe  Fe213     1.0  0.70654  0.61912  0.89218  1.0000
  S   S423      1.0  0.67880  0.63028  0.88218  1.0000
  H   H1841     1.0  0.54484  0.86282  0.80523  1.0000
  Fe  Fe214     1.0  0.69414  0.62664  0.93257  1.0000
  S   S424      1.0  0.66549  0.63787  0.92562  1.0000
  S   S425      1.0  0.70874  0.62345  0.95955  1.0000
  Fe  Fe215     1.0  0.66652  0.61416  0.90759  1.0000
  S   S426      1.0  0.64186  0.59804  0.90351  1.0000
  Fe  Fe216     1.0  0.67936  0.65340  0.90070  1.0000
  S   S427      1.0  0.67363  0.68508  0.89480  1.0000
  S   S428      1.0  0.69393  0.60181  0.91650  1.0000
  S   S429      1.0  0.70825  0.64335  0.90875  1.0000
  H   H1842     1.0  0.65764  0.77678  0.83794  1.0000
  C   C1549     1.0  0.62641  0.72515  0.87079  1.0000
  C   C1550     1.0  0.62561  0.70584  0.87135  1.0000
  C   C1551     1.0  0.63963  0.69340  0.87891  1.0000
  C   C1552     1.0  0.65489  0.70006  0.88592  1.0000
  C   C1553     1.0  0.65565  0.71938  0.88549  1.0000
  C   C1554     1.0  0.64154  0.73183  0.87807  1.0000
  H   H1843     1.0  0.61405  0.70042  0.86577  1.0000
  H   H1844     1.0  0.63872  0.67865  0.87905  1.0000
  H   H1845     1.0  0.66737  0.72481  0.89075  1.0000
  H   H1846     1.0  0.64252  0.74657  0.87775  1.0000
  C   C1555     1.0  0.51352  0.79378  0.83696  1.0000
  H   H1847     1.0  0.50968  0.85196  0.66421  1.0000
  S   S430      1.0  0.54027  0.49467  0.90525  1.0000
  C   C1556     1.0  0.73767  0.90571  0.67339  1.0000
  C   C1557     1.0  0.51215  0.77537  0.84397  1.0000
  H   H1848     1.0  0.61970  0.50396  0.97052  1.0000
  H   H1849     1.0  0.59736  0.88290  0.74104  1.0000
  H   H1850     1.0  0.52445  0.76681  0.84751  1.0000
  C   C1558     1.0  0.62692  0.84405  0.74999  1.0000
  C   C1559     1.0  0.63616  0.85253  0.76266  1.0000
  C   C1560     1.0  0.63468  0.84634  0.78174  1.0000
  C   C1561     1.0  0.62398  0.83158  0.78853  1.0000
  C   C1562     1.0  0.61523  0.82273  0.77578  1.0000
  C   C1563     1.0  0.61654  0.82903  0.75675  1.0000
  H   H1851     1.0  0.64426  0.86402  0.75780  1.0000
  H   H1852     1.0  0.64176  0.85319  0.79134  1.0000
  H   H1853     1.0  0.60767  0.81086  0.78050  1.0000
  H   H1854     1.0  0.60948  0.82219  0.74713  1.0000
  C   C1564     1.0  0.65779  0.96321  0.69760  1.0000
  C   C1565     1.0  0.66500  0.96744  0.67945  1.0000
  C   C1566     1.0  0.50640  0.52892  0.86472  1.0000
  H   H1855     1.0  0.68340  0.57952  0.84155  1.0000
  H   H1856     1.0  0.64906  0.97441  0.72351  1.0000
  C   C1567     1.0  0.59970  0.85406  0.94182  1.0000
  C   C1568     1.0  0.58064  0.85265  0.94227  1.0000
  C   C1569     1.0  0.57322  0.84262  0.92935  1.0000
  C   C1570     1.0  0.58468  0.83400  0.91571  1.0000
  C   C1571     1.0  0.60374  0.83544  0.91519  1.0000
  C   C1572     1.0  0.61119  0.84535  0.92824  1.0000
  H   H1857     1.0  0.57160  0.85928  0.95256  1.0000
  H   H1858     1.0  0.55847  0.84161  0.92993  1.0000
  H   H1859     1.0  0.61274  0.82889  0.90480  1.0000
  H   H1860     1.0  0.62594  0.84638  0.92773  1.0000
  H   H1861     1.0  0.66980  0.71562  0.95179  1.0000
  H   H1862     1.0  0.55348  0.84775  0.75368  1.0000
  C   C1573     1.0  0.50295  0.49055  0.90938  1.0000
  H   H1863     1.0  0.54421  0.84092  0.81894  1.0000
  H   H1864     1.0  0.57537  0.81575  0.78449  1.0000
  C   C1574     1.0  0.68042  0.63238  0.98596  1.0000
  C   C1575     1.0  0.51421  0.89946  0.97386  1.0000
  H   H1865     1.0  0.60515  0.87925  0.77365  1.0000
  H   H1866     1.0  0.62211  0.82729  0.97602  1.0000
  H   H1867     1.0  0.67241  0.54153  0.89608  1.0000
  C   C1576     1.0  0.63065  0.53755  0.92246  1.0000
  C   C1577     1.0  0.61959  0.54816  0.90996  1.0000
  C   C1578     1.0  0.62321  0.56665  0.90435  1.0000
  C   C1579     1.0  0.63795  0.57469  0.91108  1.0000
  C   C1580     1.0  0.64904  0.56405  0.92357  1.0000
  C   C1581     1.0  0.64534  0.54560  0.92927  1.0000
  H   H1868     1.0  0.60827  0.54215  0.90457  1.0000
  H   H1869     1.0  0.61454  0.57478  0.89469  1.0000
  H   H1870     1.0  0.66034  0.57007  0.92896  1.0000
  H   H1871     1.0  0.65398  0.53748  0.93894  1.0000
  H   H1872     1.0  0.67598  0.57300  0.89273  1.0000
  H   H1873     1.0  0.70437  0.68626  0.97432  1.0000
  C   C1582     1.0  0.61859  0.96633  0.67082  1.0000
  Fe  Fe217     1.0  0.63486  0.89169  0.66527  1.0000
  C   C1583     1.0  0.51589  0.51174  0.86282  1.0000
  C   C1584     1.0  0.65618  0.52521  0.88212  1.0000
  H   H1874     1.0  0.49299  0.87499  0.87965  1.0000
  C   C1585     1.0  0.64489  0.77259  0.83264  1.0000
  H   H1875     1.0  0.69858  0.72741  0.84688  1.0000
  C   C1586     1.0  0.65999  0.70910  0.83615  1.0000
  H   H1876     1.0  0.66744  0.95666  0.67013  1.0000
  H   H1877     1.0  0.62167  0.98692  0.68864  1.0000
  H   H1878     1.0  0.66654  0.58409  0.87221  1.0000
  H   H1879     1.0  0.65631  0.68390  0.93179  1.0000
  Fe  Fe218     1.0  0.59249  0.88263  0.97949  1.0000
  H   H1880     1.0  0.70018  0.93382  0.66839  1.0000
  H   H1881     1.0  0.73830  0.84491  0.66741  1.0000
  C   C1587     1.0  0.69501  0.57194  0.84884  1.0000
  H   H1882     1.0  0.52422  0.79779  0.92677  1.0000
  C   C1588     1.0  0.70945  0.94032  0.70238  1.0000
  H   H1883     1.0  0.60007  0.56376  0.97941  1.0000
  H   H1884     1.0  0.59554  0.52369  0.95467  1.0000
  C   C1589     1.0  0.66886  0.54469  0.84929  1.0000
  N   N104      1.0  0.55842  0.83982  0.79181  1.0000
  C   C1590     1.0  0.54143  0.83342  0.78526  1.0000
  C   C1591     1.0  0.57081  0.82327  0.79685  1.0000
  C   C1592     1.0  0.55286  0.84944  0.80871  1.0000
  C   C1593     1.0  0.56843  0.85214  0.77781  1.0000
  C   C1594     1.0  0.58352  0.86133  0.78271  1.0000
  C   C1595     1.0  0.56429  0.85458  0.75890  1.0000
  C   C1596     1.0  0.59343  0.87270  0.76967  1.0000
  C   C1597     1.0  0.57456  0.86572  0.74590  1.0000
  C   C1598     1.0  0.58904  0.87479  0.75128  1.0000
  H   H1885     1.0  0.54466  0.82436  0.77378  1.0000
  H   H1886     1.0  0.53381  0.82487  0.79640  1.0000
  H   H1887     1.0  0.53177  0.84530  0.78063  1.0000
  H   H1888     1.0  0.67341  0.77300  0.80744  1.0000
  H   H1889     1.0  0.49827  0.81875  0.82664  1.0000
  H   H1890     1.0  0.65113  0.51767  0.89484  1.0000
  H   H1891     1.0  0.52755  0.78246  0.90869  1.0000
  S   S431      1.0  0.66068  0.90718  0.66395  1.0000
  H   H1892     1.0  0.51409  0.54074  0.86617  1.0000
  H   H1893     1.0  0.66452  0.75877  0.79189  1.0000
  H   H1894     1.0  0.65326  0.78112  0.79603  1.0000
  H   H1895     1.0  0.49396  0.75337  0.85078  1.0000
  H   H1896     1.0  0.70229  0.67413  0.94793  1.0000
  C   C1599     1.0  0.62693  0.81924  0.98883  1.0000
  C   C1600     1.0  0.52142  0.88206  0.96889  1.0000
  C   C1601     1.0  0.65640  0.53114  0.84897  1.0000
  C   C1602     1.0  0.66054  0.76843  0.80273  1.0000
  N   N105      1.0  0.67429  0.68600  0.95370  1.0000
  C   C1603     1.0  0.67944  0.70459  0.94604  1.0000
  C   C1604     1.0  0.68776  0.67194  0.94578  1.0000
  H   H1897     1.0  0.51917  0.81836  0.87013  1.0000
  H   H1898     1.0  0.69363  0.70716  0.94920  1.0000
  H   H1899     1.0  0.68510  0.65782  0.95205  1.0000
  H   H1900     1.0  0.65124  0.66951  0.95253  1.0000
  N   N106      1.0  0.71347  0.92305  0.69297  1.0000
  H   H1901     1.0  0.52779  0.79477  0.87625  1.0000
  S   S432      1.0  0.72843  0.60137  0.87564  1.0000
  H   H1902     1.0  0.62426  0.76985  0.80438  1.0000
  H   H1903     1.0  0.68280  0.75546  0.83260  1.0000
  C   C1605     1.0  0.65596  0.68328  0.94719  1.0000
  H   H1904     1.0  0.64531  0.69428  0.95126  1.0000
  H   H1905     1.0  0.67906  0.70633  0.93065  1.0000
  C   C1606     1.0  0.50948  0.86907  0.96487  1.0000
  H   H1906     1.0  0.68709  0.67214  0.93055  1.0000
  H   H1907     1.0  0.69544  0.94087  0.70982  1.0000
  H   H1908     1.0  0.50182  0.50412  0.91441  1.0000
  C   C1607     1.0  0.52700  0.80916  0.88038  1.0000
  H   H1909     1.0  0.71211  0.89375  0.70119  1.0000
  N   N107      1.0  0.64882  0.75959  0.81813  1.0000
  C   C1608     1.0  0.63098  0.75669  0.81067  1.0000
  H   H1910     1.0  0.63290  0.74691  0.79971  1.0000
  H   H1911     1.0  0.63707  0.78559  0.82738  1.0000
  C   C1609     1.0  0.65455  0.97752  0.70941  1.0000
  H   H1912     1.0  0.49739  0.87137  0.67427  1.0000
  C   C1610     1.0  0.67960  0.57800  0.87811  1.0000
  H   H1913     1.0  0.60773  0.54282  0.95847  1.0000
  H   H1914     1.0  0.70219  0.56159  0.83993  1.0000
  H   H1915     1.0  0.53611  0.87853  0.96840  1.0000
  C   C1611     1.0  0.69151  0.68475  0.98254  1.0000
  N   N108      1.0  0.51860  0.81047  0.89952  1.0000
  H   H1916     1.0  0.53557  0.83305  0.90161  1.0000
  H   H1917     1.0  0.69997  0.90923  0.67337  1.0000
  C   C1612     1.0  0.67614  0.74271  0.83310  1.0000
  H   H1918     1.0  0.74030  0.62506  0.92842  1.0000
  H   H1919     1.0  0.70942  0.95282  0.69230  1.0000
  H   H1920     1.0  0.67125  0.63404  0.97484  1.0000
  C   C1613     1.0  0.65851  0.74234  0.82615  1.0000
  H   H1921     1.0  0.62092  0.75130  0.82179  1.0000
  C   C1614     1.0  0.66849  0.53883  0.88264  1.0000
  H   H1922     1.0  0.63660  0.76612  0.84469  1.0000
  C   C1615     1.0  0.59678  0.53396  0.96482  1.0000
  H   H1923     1.0  0.71568  0.56488  0.87659  1.0000
  H   H1924     1.0  0.54406  0.79898  0.91070  1.0000
  C   C1616     1.0  0.68530  0.72675  0.84133  1.0000
  H   H1925     1.0  0.69854  0.90850  0.71593  1.0000
  C   C1617     1.0  0.65064  0.72499  0.82801  1.0000
  H   H1926     1.0  0.68407  0.69773  0.84977  1.0000
  C   C1618     1.0  0.52102  0.82936  0.90454  1.0000
  H   H1927     1.0  0.63700  0.72337  0.82388  1.0000
  H   H1928     1.0  0.54150  0.81319  0.87889  1.0000
  C   C1619     1.0  0.67722  0.70999  0.84287  1.0000
  C   C1620     1.0  0.52903  0.79685  0.91199  1.0000
  H   H1929     1.0  0.65149  0.52820  0.83596  1.0000
  H   H1930     1.0  0.49514  0.87931  0.90880  1.0000
  C   C1621     1.0  0.73189  0.92158  0.68284  1.0000
  C   C1622     1.0  0.49562  0.85826  0.66813  1.0000
  H   H1931     1.0  0.51210  0.83986  0.89660  1.0000
  H   H1932     1.0  0.58648  0.89339  0.66353  1.0000
  H   H1933     1.0  0.67309  0.55173  0.83612  1.0000
  H   H1934     1.0  0.64488  0.68252  0.98123  1.0000
  H   H1935     1.0  0.63062  0.52389  0.97546  1.0000
  H   H1936     1.0  0.51496  0.85537  0.96177  1.0000
  H   H1937     1.0  0.51797  0.83084  0.91953  1.0000
  C   C1623     1.0  0.58084  0.98665  0.98745  1.0000
  H   H1938     1.0  0.72898  0.89440  0.67372  1.0000
  H   H1939     1.0  0.68876  0.58941  0.87846  1.0000
  C   C1624     1.0  0.69907  0.92255  0.67978  1.0000
  H   H1940     1.0  0.68499  0.92427  0.68678  1.0000
  C   C1625     1.0  0.67536  0.54890  0.86623  1.0000
  S   S433      1.0  0.52814  0.91489  0.98189  1.0000
  H   H1941     1.0  0.71163  0.54283  0.86919  1.0000
  N   N109      1.0  0.68853  0.56314  0.86721  1.0000
  H   H1942     1.0  0.58334  0.54239  0.96576  1.0000
  H   H1943     1.0  0.70180  0.54975  0.89112  1.0000
  H   H1944     1.0  0.70510  0.58238  0.85017  1.0000
  H   H1945     1.0  0.62351  0.95529  0.68074  1.0000
  H   H1946     1.0  0.49720  0.85606  0.85347  1.0000
  C   C1626     1.0  0.69915  0.62715  0.98229  1.0000
  C   C1627     1.0  0.71183  0.90722  0.70729  1.0000
  H   H1947     1.0  0.71948  0.94143  0.71291  1.0000
  H   H1948     1.0  0.72325  0.90625  0.71671  1.0000
  C   C1628     1.0  0.66905  0.98574  0.67332  1.0000
  C   C1629     1.0  0.67461  0.68443  0.97413  1.0000
  S   S434      1.0  0.57848  0.49153  0.93759  1.0000
  C   C1630     1.0  0.49529  0.90427  0.97367  1.0000
  H   H1949     1.0  0.64180  0.81529  0.98570  1.0000
  C   C1631     1.0  0.49482  0.76778  0.84583  1.0000
  C   C1632     1.0  0.58739  0.51138  0.98896  1.0000
  H   H1950     1.0  0.72977  0.59529  0.93359  1.0000
  C   C1633     1.0  0.49735  0.80457  0.83229  1.0000
  C   C1634     1.0  0.49884  0.80668  0.90161  1.0000
  H   H1951     1.0  0.55327  0.89517  0.65735  1.0000
  H   H1952     1.0  0.67472  0.98881  0.65929  1.0000
  H   H1953     1.0  0.49377  0.81561  0.92954  1.0000
  C   C1635     1.0  0.65840  0.68278  0.98623  1.0000
  Fe  Fe219     1.0  0.60642  0.49427  0.92266  1.0000
  C   C1636     1.0  0.61738  0.98469  0.67522  1.0000
  H   H1954     1.0  0.73985  0.58786  0.91188  1.0000
  Fe  Fe220     1.0  0.97610  0.39269  0.08415  1.0000
  H   H1955     1.0  0.92078  0.46472  0.09472  1.0000
  S   S435      1.0  0.94671  0.38393  0.08856  1.0000
  C   C1637     1.0  0.94221  0.29798  0.30693  1.0000
  H   H1956     1.0  0.92988  0.34463  0.08486  1.0000
  C   C1638     1.0  0.96917  0.47674  0.02074  1.0000
  Fe  Fe221     1.0  0.87066  0.37838  0.17460  1.0000
  S   S436      1.0  0.86596  0.39654  0.19804  1.0000
  S   S437      1.0  0.90061  0.37024  0.16566  1.0000
  Fe  Fe222     1.0  0.82905  0.37328  0.17269  1.0000
  S   S438      1.0  0.82162  0.39117  0.19638  1.0000
  S   S439      1.0  0.81176  0.35854  0.15354  1.0000
  Fe  Fe223     1.0  0.84237  0.41051  0.18262  1.0000
  S   S440      1.0  0.83561  0.44185  0.17670  1.0000
  Fe  Fe224     1.0  0.84600  0.37596  0.21057  1.0000
  S   S441      1.0  0.84380  0.36845  0.24223  1.0000
  S   S442      1.0  0.84850  0.39361  0.15812  1.0000
  S   S443      1.0  0.85206  0.35689  0.18793  1.0000
  C   C1639     1.0  0.78879  0.35458  0.14786  1.0000
  C   C1640     1.0  0.77278  0.36018  0.15849  1.0000
  C   C1641     1.0  0.75510  0.35648  0.15348  1.0000
  C   C1642     1.0  0.78663  0.34523  0.13212  1.0000
  H   H1957     1.0  0.77400  0.36736  0.17062  1.0000
  H   H1958     1.0  0.76770  0.33464  0.11481  1.0000
  C   C1643     1.0  0.89796  0.34126  0.12147  1.0000
  H   H1959     1.0  0.96649  0.46768  0.03312  1.0000
  C   C1644     1.0  0.84195  0.46272  0.18474  1.0000
  C   C1645     1.0  0.85404  0.46282  0.19875  1.0000
  H   H1960     1.0  0.74812  0.27987  0.17815  1.0000
  H   H1961     1.0  0.95195  0.29820  0.27090  1.0000
  H   H1962     1.0  0.86052  0.44994  0.20458  1.0000
  C   C1646     1.0  0.87796  0.32682  0.28150  1.0000
  C   C1647     1.0  0.86376  0.33897  0.28848  1.0000
  C   C1648     1.0  0.85356  0.35155  0.27631  1.0000
  C   C1649     1.0  0.85740  0.35235  0.25695  1.0000
  C   C1650     1.0  0.87172  0.34032  0.24998  1.0000
  C   C1651     1.0  0.88182  0.32767  0.26214  1.0000
  H   H1963     1.0  0.86049  0.33856  0.30326  1.0000
  H   H1964     1.0  0.84253  0.36066  0.28196  1.0000
  H   H1965     1.0  0.87491  0.34064  0.23520  1.0000
  H   H1966     1.0  0.89269  0.31838  0.25647  1.0000
  H   H1967     1.0  0.92702  0.29785  0.30635  1.0000
  C   C1652     1.0  0.91919  0.44342  0.12848  1.0000
  C   C1653     1.0  0.91330  0.37632  0.14453  1.0000
  C   C1654     1.0  0.90472  0.38413  0.12879  1.0000
  C   C1655     1.0  0.91517  0.38677  0.11176  1.0000
  C   C1656     1.0  0.93434  0.38224  0.11049  1.0000
  C   C1657     1.0  0.94305  0.37552  0.12647  1.0000
  C   C1658     1.0  0.93252  0.37231  0.14335  1.0000
  H   H1968     1.0  0.89000  0.38756  0.12963  1.0000
  H   H1969     1.0  0.90833  0.39199  0.09944  1.0000
  H   H1970     1.0  0.95779  0.37196  0.12567  1.0000
  H   H1971     1.0  0.93928  0.36634  0.15549  1.0000
  C   C1659     1.0  0.88912  0.43688  0.15497  1.0000
  C   C1660     1.0  0.90044  0.34839  0.08299  1.0000
  C   C1661     1.0  0.98388  0.38852  0.99169  1.0000
  C   C1662     1.0  0.97229  0.28283  0.29971  1.0000
  C   C1663     1.0  0.98269  0.26857  0.31002  1.0000
  C   C1664     1.0  0.94839  0.28461  0.27788  1.0000
  H   H1972     1.0  0.92769  0.33797  0.11880  1.0000
  C   C1665     1.0  0.90385  0.45670  0.13053  1.0000
  C   C1666     1.0  0.88908  0.45336  0.14360  1.0000
  C   C1667     1.0  0.82194  0.47670  0.25337  1.0000
  C   C1668     1.0  0.81159  0.47467  0.22305  1.0000
  C   C1669     1.0  0.98187  0.29820  0.29181  1.0000
  H   H1973     1.0  0.79875  0.34077  0.12370  1.0000
  H   H1974     1.0  0.90154  0.35141  0.06809  1.0000
  C   C1670     1.0  0.91517  0.34063  0.11152  1.0000
  C   C1671     1.0  0.81561  0.48531  0.23689  1.0000
  C   C1672     1.0  0.83400  0.47979  0.17713  1.0000
  H   H1975     1.0  0.97478  0.30979  0.28424  1.0000
  H   H1976     1.0  0.94212  0.41780  0.10983  1.0000
  H   H1977     1.0  0.86645  0.47947  0.21670  1.0000
  H   H1978     1.0  0.87756  0.43433  0.16497  1.0000
  H   H1979     1.0  0.94560  0.26329  0.32136  1.0000
  C   C1673     1.0  0.91643  0.34439  0.09237  1.0000
  C   C1674     1.0  0.75293  0.34732  0.13764  1.0000
  C   C1675     1.0  0.88313  0.34890  0.09277  1.0000
  H   H1980     1.0  0.80708  0.48143  0.21007  1.0000
  H   H1981     1.0  0.90392  0.41083  0.16230  1.0000
  C   C1676     1.0  0.94450  0.26511  0.30608  1.0000
  H   H1982     1.0  0.95624  0.27360  0.27026  1.0000
  N   N110      1.0  0.86291  0.34722  0.12244  1.0000
  C   C1677     1.0  0.85371  0.36591  0.11802  1.0000
  C   C1678     1.0  0.85128  0.33328  0.11680  1.0000
  C   C1679     1.0  0.86359  0.34430  0.14285  1.0000
  C   C1680     1.0  0.88136  0.34567  0.11236  1.0000
  H   H1983     1.0  0.86241  0.37685  0.12122  1.0000
  H   H1984     1.0  0.85066  0.36856  0.10326  1.0000
  H   H1985     1.0  0.84021  0.36791  0.12615  1.0000
  H   H1986     1.0  0.85787  0.31904  0.11957  1.0000
  H   H1987     1.0  0.84878  0.33540  0.10186  1.0000
  H   H1988     1.0  0.83741  0.33389  0.12451  1.0000
  H   H1989     1.0  0.87164  0.35475  0.14814  1.0000
  H   H1990     1.0  0.84955  0.34556  0.15003  1.0000
  H   H1991     1.0  0.86970  0.33026  0.14737  1.0000
  H   H1992     1.0  0.87114  0.35217  0.08490  1.0000
  H   H1993     1.0  0.89818  0.33889  0.13634  1.0000
  N   N111      1.0  0.82503  0.42584  0.24354  1.0000
  C   C1681     1.0  0.84084  0.42131  0.23032  1.0000
  C   C1682     1.0  0.82999  0.41796  0.26227  1.0000
  C   C1683     1.0  0.80893  0.41638  0.23895  1.0000
  C   C1684     1.0  0.82087  0.44614  0.24198  1.0000
  C   C1685     1.0  0.81430  0.45541  0.22543  1.0000
  C   C1686     1.0  0.82453  0.45740  0.25600  1.0000
  C   C1687     1.0  0.90397  0.42368  0.15342  1.0000
  H   H1994     1.0  0.85311  0.42857  0.23288  1.0000
  H   H1995     1.0  0.84498  0.40625  0.23146  1.0000
  H   H1996     1.0  0.83759  0.42531  0.21572  1.0000
  H   H1997     1.0  0.84312  0.42295  0.26600  1.0000
  H   H1998     1.0  0.83239  0.40257  0.26304  1.0000
  H   H1999     1.0  0.81880  0.42126  0.27301  1.0000
  H   H2000     1.0  0.80562  0.41958  0.22429  1.0000
  H   H2001     1.0  0.81156  0.40102  0.24079  1.0000
  H   H2002     1.0  0.79640  0.42030  0.24787  1.0000
  H   H2003     1.0  0.81199  0.44793  0.21379  1.0000
  H   H2004     1.0  0.82977  0.45168  0.26896  1.0000
  C   C1688     1.0  0.76893  0.34171  0.12701  1.0000
  N   N112      1.0  0.93509  0.44638  0.11483  1.0000
  C   C1689     1.0  0.95215  0.44643  0.12470  1.0000
  C   C1690     1.0  0.93749  0.43120  0.10244  1.0000
  C   C1691     1.0  0.93312  0.46407  0.10292  1.0000
  S   S444      1.0  0.98086  0.45955  0.06878  1.0000
  H   H2005     1.0  0.93340  0.28389  0.27608  1.0000
  S   S445      1.0  0.89119  0.31021  0.29608  1.0000
  C   C1692     1.0  0.97813  0.46978  0.00452  1.0000
  H   H2006     1.0  0.95079  0.45726  0.13460  1.0000
  H   H2007     1.0  0.92438  0.42922  0.09626  1.0000
  H   H2008     1.0  0.82467  0.47995  0.16625  1.0000
  N   N113      1.0  0.95225  0.28247  0.29773  1.0000
  H   H2009     1.0  0.95560  0.43294  0.13266  1.0000
  S   S446      1.0  0.98543  0.41348  0.10132  1.0000
  H   H2010     1.0  0.82521  0.48510  0.26400  1.0000
  H   H2011     1.0  0.96435  0.44907  0.11488  1.0000
  C   C1693     1.0  0.91878  0.42682  0.14039  1.0000
  H   H2012     1.0  0.94527  0.46572  0.09275  1.0000
  H   H2013     1.0  0.92986  0.41601  0.13962  1.0000
  H   H2014     1.0  0.87740  0.46355  0.14494  1.0000
  H   H2015     1.0  0.92952  0.26510  0.30394  1.0000
  H   H2016     1.0  0.74999  0.30421  0.17716  1.0000
  H   H2017     1.0  0.93220  0.47621  0.11121  1.0000
  S   S447      1.0  0.98018  0.41037  0.05732  1.0000
  H   H2018     1.0  0.94819  0.43375  0.09088  1.0000
  C   C1694     1.0  0.96769  0.43880  0.00897  1.0000
  H   H2019     1.0  0.90283  0.46974  0.12216  1.0000
  H   H2020     1.0  0.96174  0.44004  0.02336  1.0000
  C   C1695     1.0  0.85747  0.47966  0.20553  1.0000
  H   H2021     1.0  0.94591  0.31171  0.30044  1.0000
  H   H2022     1.0  0.95151  0.25279  0.29987  1.0000
  H   H2023     1.0  0.96962  0.38520  0.99275  1.0000
  H   H2024     1.0  0.98572  0.38656  0.02133  1.0000
  H   H2025     1.0  0.74416  0.30623  0.14556  1.0000
  H   H2026     1.0  0.95660  0.44314  0.99941  1.0000
  H   H2027     1.0  0.94520  0.29716  0.32175  1.0000
  H   H2028     1.0  0.97655  0.25668  0.31718  1.0000
  C   C1696     1.0  0.98726  0.47247  0.08583  1.0000
  H   H2029     1.0  0.97138  0.42377  0.00796  1.0000
  N   N114      1.0  0.98391  0.44982  0.00427  1.0000
  H   H2030     1.0  0.74296  0.36099  0.16188  1.0000
  Fe  Fe225     1.0  0.90974  0.41116  0.49564  1.0000
  S   S448      1.0  0.93774  0.40327  0.50591  1.0000
  S   S449      1.0  0.89541  0.43907  0.50238  1.0000
  Fe  Fe226     1.0  0.90826  0.37363  0.47966  1.0000
  S   S450      1.0  0.93623  0.36372  0.48913  1.0000
  S   S451      1.0  0.89604  0.35074  0.46648  1.0000
  Fe  Fe227     1.0  0.92698  0.37584  0.51573  1.0000
  S   S452      1.0  0.93715  0.36221  0.54284  1.0000
  Fe  Fe228     1.0  0.94412  0.39187  0.47837  1.0000
  S   S453      1.0  0.97063  0.39278  0.46039  1.0000
  S   S454      1.0  0.89827  0.38408  0.50727  1.0000
  S   S455      1.0  0.91677  0.40139  0.46720  1.0000
  H   H2031     1.0  0.88057  0.11367  0.64035  1.0000
  H   H2032     1.0  0.76067  0.05301  0.39328  1.0000
  S   S456      1.0  0.86831  0.01913  0.38269  1.0000
  H   H2033     1.0  0.93917  0.01746  0.44171  1.0000
  S   S457      1.0  0.89044  0.03120  0.56562  1.0000
  H   H2034     1.0  0.85045  0.34961  0.44039  1.0000
  H   H2035     1.0  0.99015  0.26174  0.36534  1.0000
  H   H2036     1.0  0.86213  0.28258  0.45806  1.0000
  C   C1697     1.0  0.95701  0.31450  0.41315  1.0000
  Fe  Fe229     1.0  0.89891  0.30736  0.63205  1.0000
  S   S458      1.0  0.91822  0.28376  0.62373  1.0000
  S   S459      1.0  0.88586  0.32607  0.60898  1.0000
  C   C1698     1.0  0.89697  0.39342  0.61472  1.0000
  H   H2037     1.0  0.84405  0.14913  0.64666  1.0000
  C   C1699     1.0  0.81200  0.04599  0.42009  1.0000
  S   S460      1.0  0.89589  0.23825  0.63385  1.0000
  H   H2038     1.0  0.79995  0.21026  0.40145  1.0000
  H   H2039     1.0  0.83952  0.02599  0.63338  1.0000
  Fe  Fe230     1.0  0.83668  0.11989  0.60044  1.0000
  S   S461      1.0  0.81227  0.11483  0.58523  1.0000
  S   S462      1.0  0.85759  0.09774  0.61221  1.0000
  Fe  Fe231     1.0  0.82525  0.16166  0.60245  1.0000
  S   S463      1.0  0.79949  0.15940  0.58731  1.0000
  S   S464      1.0  0.83153  0.18827  0.61542  1.0000
  Fe  Fe232     1.0  0.79525  0.13251  0.60527  1.0000
  S   S465      1.0  0.77220  0.12014  0.62533  1.0000
  Fe  Fe233     1.0  0.81800  0.14166  0.56823  1.0000
  S   S466      1.0  0.82471  0.14368  0.53667  1.0000
  S   S467      1.0  0.81974  0.13610  0.62127  1.0000
  S   S468      1.0  0.84374  0.14552  0.58255  1.0000
  Fe  Fe234     1.0  0.82020  0.11660  0.41004  1.0000
  S   S469      1.0  0.79176  0.11359  0.42342  1.0000
  S   S470      1.0  0.84145  0.09365  0.41912  1.0000
  Fe  Fe235     1.0  0.81075  0.15677  0.39512  1.0000
  S   S471      1.0  0.78132  0.15593  0.40758  1.0000
  S   S472      1.0  0.81976  0.18345  0.37804  1.0000
  Fe  Fe236     1.0  0.79397  0.14157  0.43298  1.0000
  S   S473      1.0  0.78266  0.14760  0.46219  1.0000
  Fe  Fe237     1.0  0.78115  0.12781  0.39692  1.0000
  H   H2040     1.0  0.83043  0.02133  0.42256  1.0000
  S   S474      1.0  0.82310  0.14395  0.42120  1.0000
  S   S475      1.0  0.80994  0.12922  0.38281  1.0000
  Fe  Fe238     1.0  0.89279  0.31607  0.36646  1.0000
  S   S476      1.0  0.90442  0.28860  0.37859  1.0000
  S   S477      1.0  0.88573  0.34170  0.38202  1.0000
  Fe  Fe239     1.0  0.88420  0.27590  0.36233  1.0000
  S   S478      1.0  0.86970  0.25236  0.38027  1.0000
  Fe  Fe240     1.0  0.92407  0.28885  0.35321  1.0000
  H   H2041     1.0  0.85283  0.32874  0.41635  1.0000
  S   S479      1.0  0.87126  0.30388  0.35153  1.0000
  S   S480      1.0  0.91369  0.31730  0.34201  1.0000
  C   C1700     1.0  0.97813  0.30409  0.34417  1.0000
  C   C1701     1.0  0.97591  0.28639  0.35290  1.0000
  S   S481      1.0  0.90479  0.27444  0.33756  1.0000
  C   C1702     1.0  0.83448  0.20197  0.37877  1.0000
  C   C1703     1.0  0.84350  0.20468  0.39451  1.0000
  C   C1704     1.0  0.85414  0.22007  0.39464  1.0000
  C   C1705     1.0  0.85637  0.23288  0.37895  1.0000
  C   C1706     1.0  0.84750  0.23008  0.36316  1.0000
  C   C1707     1.0  0.83657  0.21488  0.36316  1.0000
  H   H2042     1.0  0.84224  0.19495  0.40662  1.0000
  H   H2043     1.0  0.86091  0.22194  0.40695  1.0000
  H   H2044     1.0  0.84891  0.23971  0.35096  1.0000
  H   H2045     1.0  0.82972  0.21306  0.35087  1.0000
  N   N115      1.0  0.78455  0.06481  0.37906  1.0000
  H   H2046     1.0  0.80569  0.17425  0.44245  1.0000
  H   H2047     1.0  0.88217  0.47624  0.50970  1.0000
  C   C1708     1.0  0.81255  0.14474  0.51625  1.0000
  C   C1709     1.0  0.82269  0.14575  0.49893  1.0000
  C   C1710     1.0  0.81381  0.14647  0.48228  1.0000
  C   C1711     1.0  0.79462  0.14623  0.48275  1.0000
  C   C1712     1.0  0.78446  0.14538  0.50003  1.0000
  C   C1713     1.0  0.79335  0.14452  0.51669  1.0000
  H   H2048     1.0  0.83754  0.14606  0.49842  1.0000
  H   H2049     1.0  0.82181  0.14742  0.46912  1.0000
  H   H2050     1.0  0.76959  0.14533  0.50057  1.0000
  H   H2051     1.0  0.78535  0.14381  0.52986  1.0000
  C   C1714     1.0  0.87755  0.22508  0.62830  1.0000
  C   C1715     1.0  0.85903  0.22898  0.63437  1.0000
  C   C1716     1.0  0.84530  0.21759  0.63029  1.0000
  C   C1717     1.0  0.84971  0.20213  0.62005  1.0000
  C   C1718     1.0  0.86820  0.19842  0.61375  1.0000
  C   C1719     1.0  0.88193  0.20975  0.61788  1.0000
  C   C1720     1.0  0.95367  0.01180  0.44365  1.0000
  H   H2052     1.0  0.83656  0.00004  0.57764  1.0000
  H   H2053     1.0  0.87197  0.18697  0.60550  1.0000
  H   H2054     1.0  0.77150  0.18230  0.43910  1.0000
  C   C1721     1.0  0.80099  0.25300  0.42892  1.0000
  C   C1722     1.0  0.90549  0.41039  0.57862  1.0000
  C   C1723     1.0  0.79682  0.23611  0.43853  1.0000
  C   C1724     1.0  0.88183  0.04965  0.57892  1.0000
  C   C1725     1.0  0.87016  0.06395  0.57077  1.0000
  C   C1726     1.0  0.86279  0.07882  0.58074  1.0000
  C   C1727     1.0  0.86691  0.07944  0.59909  1.0000
  C   C1728     1.0  0.87863  0.06517  0.60728  1.0000
  C   C1729     1.0  0.88612  0.05036  0.59723  1.0000
  H   H2055     1.0  0.86667  0.06348  0.55669  1.0000
  H   H2056     1.0  0.85382  0.08972  0.57427  1.0000
  H   H2057     1.0  0.88197  0.06560  0.62144  1.0000
  H   H2058     1.0  0.89531  0.03961  0.60361  1.0000
  H   H2059     1.0  0.90329  0.41298  0.53204  1.0000
  Fe  Fe241     1.0  0.90173  0.26601  0.64484  1.0000
  C   C1730     1.0  0.90170  0.43781  0.55574  1.0000
  C   C1731     1.0  0.86123  0.04009  0.39254  1.0000
  C   C1732     1.0  0.85084  0.05422  0.38249  1.0000
  C   C1733     1.0  0.84454  0.07073  0.39041  1.0000
  C   C1734     1.0  0.84879  0.07327  0.40836  1.0000
  C   C1735     1.0  0.85934  0.05923  0.41829  1.0000
  C   C1736     1.0  0.86542  0.04268  0.41049  1.0000
  H   H2060     1.0  0.84757  0.05231  0.36860  1.0000
  H   H2061     1.0  0.83664  0.08155  0.38258  1.0000
  H   H2062     1.0  0.86289  0.06113  0.43209  1.0000
  H   H2063     1.0  0.87340  0.03193  0.41836  1.0000
  H   H2064     1.0  0.80236  0.20546  0.46514  1.0000
  H   H2065     1.0  0.87510  0.01387  0.60226  1.0000
  C   C1737     1.0  0.79645  0.21994  0.42911  1.0000
  H   H2066     1.0  0.90842  0.15516  0.63480  1.0000
  C   C1738     1.0  0.89554  0.34920  0.44240  1.0000
  C   C1739     1.0  0.90119  0.33233  0.43500  1.0000
  C   C1740     1.0  0.89904  0.33005  0.41629  1.0000
  C   C1741     1.0  0.89054  0.34440  0.40503  1.0000
  C   C1742     1.0  0.88512  0.36133  0.41237  1.0000
  C   C1743     1.0  0.88785  0.36382  0.43089  1.0000
  H   H2067     1.0  0.90695  0.32089  0.44387  1.0000
  H   H2068     1.0  0.90353  0.31710  0.41070  1.0000
  H   H2069     1.0  0.87852  0.37250  0.40376  1.0000
  H   H2070     1.0  0.88317  0.37677  0.43649  1.0000
  C   C1744     1.0  0.92266  0.35095  0.56030  1.0000
  C   C1745     1.0  0.90344  0.35247  0.55975  1.0000
  C   C1746     1.0  0.89230  0.34470  0.57471  1.0000
  C   C1747     1.0  0.90028  0.33511  0.59017  1.0000
  C   C1748     1.0  0.91950  0.33325  0.59051  1.0000
  C   C1749     1.0  0.93061  0.34128  0.57571  1.0000
  H   H2071     1.0  0.89712  0.35989  0.54799  1.0000
  H   H2072     1.0  0.87744  0.34624  0.57436  1.0000
  H   H2073     1.0  0.92581  0.32592  0.60235  1.0000
  H   H2074     1.0  0.94545  0.34008  0.57633  1.0000
  N   N116      1.0  0.79231  0.20176  0.43871  1.0000
  H   H2075     1.0  0.83420  0.99600  0.62928  1.0000
  C   C1750     1.0  0.98069  0.41561  0.48486  1.0000
  C   C1751     1.0  0.80502  0.25424  0.40981  1.0000
  H   H2076     1.0  0.96630  0.42020  0.48675  1.0000
  C   C1752     1.0  0.90662  0.46007  0.50025  1.0000
  C   C1753     1.0  0.92525  0.46070  0.49413  1.0000
  H   H2077     1.0  0.80904  0.18509  0.41962  1.0000
  S   S482      1.0  0.75504  0.11502  0.38878  1.0000
  H   H2078     1.0  0.93318  0.44822  0.49041  1.0000
  H   H2079     1.0  0.93147  0.35680  0.44171  1.0000
  H   H2080     1.0  0.80795  0.23955  0.38535  1.0000
  N   N117      1.0  0.94934  0.36644  0.41828  1.0000
  C   C1754     1.0  0.96498  0.37845  0.41538  1.0000
  C   C1755     1.0  0.93344  0.37586  0.40873  1.0000
  C   C1756     1.0  0.94391  0.36465  0.43843  1.0000
  C   C1757     1.0  0.95455  0.34849  0.41059  1.0000
  C   C1758     1.0  0.96059  0.34795  0.39161  1.0000
  Fe  Fe242     1.0  0.88294  0.99654  0.40107  1.0000
  H   H2081     1.0  0.96905  0.38197  0.40054  1.0000
  H   H2082     1.0  0.96147  0.39189  0.42148  1.0000
  H   H2083     1.0  0.96873  0.33115  0.36910  1.0000
  H   H2084     1.0  0.93699  0.37986  0.39384  1.0000
  H   H2085     1.0  0.92796  0.38872  0.41507  1.0000
  H   H2086     1.0  0.92195  0.36665  0.40941  1.0000
  H   H2087     1.0  0.95532  0.35797  0.44660  1.0000
  H   H2088     1.0  0.94031  0.37838  0.44375  1.0000
  H   H2089     1.0  0.85459  0.33811  0.47289  1.0000
  H   H2090     1.0  0.86512  0.00820  0.62515  1.0000
  C   C1759     1.0  0.88648  0.12644  0.64385  1.0000
  C   C1760     1.0  0.89384  0.41979  0.59189  1.0000
  H   H2091     1.0  0.96164  0.36052  0.38256  1.0000
  H   H2092     1.0  0.79580  0.05681  0.35244  1.0000
  H   H2093     1.0  0.92161  0.38423  0.57502  1.0000
  S   S483      1.0  0.96583  0.29414  0.63705  1.0000
  N   N118      1.0  0.90938  0.41837  0.55936  1.0000
  H   H2094     1.0  0.96620  0.31270  0.33970  1.0000
  C   C1761     1.0  0.96276  0.31450  0.39445  1.0000
  H   H2095     1.0  0.77630  0.19453  0.41702  1.0000
  C   C1762     1.0  0.82083  0.02976  0.41401  1.0000
  H   H2096     1.0  0.80512  0.03135  0.37152  1.0000
  H   H2097     1.0  0.76575  0.07454  0.40126  1.0000
  H   H2098     1.0  0.98179  0.35659  0.50666  1.0000
  H   H2099     1.0  0.96154  0.02340  0.44682  1.0000
  C   C1763     1.0  0.84990  0.99983  0.58412  1.0000
  H   H2100     1.0  0.90731  0.44709  0.56484  1.0000
  H   H2101     1.0  0.86047  0.15836  0.61805  1.0000
  C   C1764     1.0  0.82845  0.05182  0.62132  1.0000
  C   C1765     1.0  0.82364  0.06242  0.60524  1.0000
  H   H2102     1.0  0.77772  0.21106  0.46355  1.0000
  C   C1766     1.0  0.87109  0.14675  0.62082  1.0000
  H   H2103     1.0  0.90517  0.44342  0.54117  1.0000
  H   H2104     1.0  0.79391  0.23608  0.45330  1.0000
  H   H2105     1.0  0.89612  0.00926  0.50351  1.0000
  C   C1767     1.0  0.89906  0.16367  0.64324  1.0000
  C   C1768     1.0  0.83900  0.02546  0.60346  1.0000
  H   H2106     1.0  0.77647  0.04420  0.36254  1.0000
  H   H2107     1.0  0.82556  0.01248  0.39162  1.0000
  H   H2108     1.0  0.82114  0.19232  0.43788  1.0000
  H   H2109     1.0  0.76324  0.20618  0.43492  1.0000
  C   C1769     1.0  0.76593  0.06674  0.38882  1.0000
  C   C1770     1.0  0.80769  0.18781  0.43446  1.0000
  H   H2110     1.0  0.88606  0.40664  0.54991  1.0000
  H   H2111     1.0  0.80837  0.26726  0.40234  1.0000
  C   C1771     1.0  0.80026  0.05726  0.40871  1.0000
  H   H2112     1.0  0.77282  0.06742  0.35248  1.0000
  C   C1772     1.0  0.81801  0.02476  0.39652  1.0000
  C   C1773     1.0  0.80022  0.22186  0.40962  1.0000
  H   H2113     1.0  0.88635  0.43901  0.55749  1.0000
  Fe  Fe243     1.0  0.93545  0.29008  0.64635  1.0000
  H   H2114     1.0  0.93293  0.42509  0.54076  1.0000
  H   H2115     1.0  0.75572  0.07456  0.37986  1.0000
  H   H2116     1.0  0.81473  0.05014  0.43343  1.0000
  H   H2117     1.0  0.94799  0.47790  0.48760  1.0000
  H   H2118     1.0  0.80605  0.08240  0.36871  1.0000
  C   C1774     1.0  0.78239  0.05790  0.36086  1.0000
  C   C1775     1.0  0.80465  0.23869  0.40021  1.0000
  S   S484      1.0  0.93667  0.99675  0.56405  1.0000
  C   C1776     1.0  0.96463  0.33120  0.38373  1.0000
  H   H2119     1.0  0.97395  0.37964  0.54019  1.0000
  C   C1777     1.0  0.98668  0.28953  0.64840  1.0000
  S   S485      1.0  0.91150  0.99142  0.60375  1.0000
  C   C1778     1.0  0.86565  0.00460  0.61064  1.0000
  H   H2120     1.0  0.93653  0.42490  0.56496  1.0000
  H   H2121     1.0  0.86657  0.13448  0.61494  1.0000
  H   H2122     1.0  0.90740  0.39268  0.54731  1.0000
  H   H2123     1.0  0.78295  0.09283  0.36622  1.0000
  N   N119      1.0  0.84727  0.00621  0.60301  1.0000
  H   H2124     1.0  0.83111  0.22076  0.63520  1.0000
  H   H2125     1.0  0.85530  0.24054  0.64251  1.0000
  H   H2126     1.0  0.97685  0.35220  0.55920  1.0000
  H   H2127     1.0  0.86015  0.30461  0.48156  1.0000
  H   H2128     1.0  0.82301  0.06340  0.57577  1.0000
  C   C1779     1.0  0.90233  0.99543  0.50196  1.0000
  N   N120      1.0  0.86783  0.27642  0.59220  1.0000
  C   C1780     1.0  0.88825  0.27603  0.58918  1.0000
  C   C1781     1.0  0.85998  0.29259  0.58059  1.0000
  C   C1782     1.0  0.86299  0.27931  0.61193  1.0000
  C   C1783     1.0  0.86012  0.25936  0.58770  1.0000
  C   C1784     1.0  0.84080  0.25755  0.59014  1.0000
  C   C1785     1.0  0.87128  0.24414  0.58096  1.0000
  C   C1786     1.0  0.83320  0.24146  0.58635  1.0000
  C   C1787     1.0  0.86347  0.22823  0.57693  1.0000
  C   C1788     1.0  0.84451  0.22684  0.57974  1.0000
  H   H2129     1.0  0.89299  0.27444  0.57449  1.0000
  H   H2130     1.0  0.89353  0.28912  0.59263  1.0000
  H   H2131     1.0  0.89512  0.26466  0.59819  1.0000
  H   H2132     1.0  0.86286  0.29073  0.56562  1.0000
  H   H2133     1.0  0.86597  0.30559  0.58331  1.0000
  H   H2134     1.0  0.84482  0.29501  0.58334  1.0000
  H   H2135     1.0  0.86864  0.26744  0.62113  1.0000
  H   H2136     1.0  0.86866  0.29201  0.61574  1.0000
  H   H2137     1.0  0.84789  0.28103  0.61536  1.0000
  H   H2138     1.0  0.83146  0.26845  0.59536  1.0000
  H   H2139     1.0  0.88613  0.24395  0.57913  1.0000
  H   H2140     1.0  0.81851  0.24007  0.58894  1.0000
  H   H2141     1.0  0.87225  0.21658  0.57227  1.0000
  H   H2142     1.0  0.83862  0.21415  0.57736  1.0000
  N   N121      1.0  0.82970  0.09020  0.47683  1.0000
  C   C1789     1.0  0.82399  0.07819  0.46325  1.0000
  C   C1790     1.0  0.81260  0.09753  0.48701  1.0000
  C   C1791     1.0  0.83869  0.10583  0.46628  1.0000
  C   C1792     1.0  0.84262  0.08051  0.48995  1.0000
  C   C1793     1.0  0.85068  0.06224  0.48807  1.0000
  C   C1794     1.0  0.84808  0.08962  0.50482  1.0000
  C   C1795     1.0  0.86312  0.05365  0.50051  1.0000
  C   C1796     1.0  0.86047  0.08086  0.51722  1.0000
  C   C1797     1.0  0.86796  0.06290  0.51509  1.0000
  H   H2143     1.0  0.81711  0.06610  0.47025  1.0000
  H   H2144     1.0  0.81418  0.08585  0.45370  1.0000
  H   H2145     1.0  0.83597  0.07317  0.45412  1.0000
  H   H2146     1.0  0.81520  0.10808  0.49633  1.0000
  H   H2147     1.0  0.80576  0.08629  0.49565  1.0000
  H   H2148     1.0  0.80246  0.10455  0.47740  1.0000
  H   H2149     1.0  0.84255  0.11602  0.47544  1.0000
  H   H2150     1.0  0.85150  0.10086  0.45826  1.0000
  H   H2151     1.0  0.82950  0.11346  0.45611  1.0000
  H   H2152     1.0  0.84779  0.05429  0.47700  1.0000
  H   H2153     1.0  0.84298  0.10370  0.50691  1.0000
  H   H2154     1.0  0.86919  0.03975  0.49873  1.0000
  H   H2155     1.0  0.86439  0.08813  0.52848  1.0000
  H   H2156     1.0  0.87766  0.05617  0.52467  1.0000
  C   C1798     1.0  0.75278  0.08176  0.60751  1.0000
  H   H2157     1.0  0.89356  0.38679  0.62840  1.0000
  Fe  Fe244     1.0  0.89306  0.30329  0.32762  1.0000
  C   C1799     1.0  0.90848  0.38391  0.60208  1.0000
  C   C1800     1.0  0.80633  0.03593  0.38500  1.0000
  H   H2158     1.0  0.93084  0.00981  0.47282  1.0000
  H   H2159     1.0  0.89614  0.20653  0.61304  1.0000
  C   C1801     1.0  0.98293  0.01377  0.51131  1.0000
  N   N122      1.0  0.86005  0.28982  0.42050  1.0000
  C   C1802     1.0  0.87835  0.27932  0.42144  1.0000
  C   C1803     1.0  0.84551  0.27660  0.42387  1.0000
  C   C1804     1.0  0.85884  0.29866  0.40134  1.0000
  C   C1805     1.0  0.85775  0.30323  0.43472  1.0000
  C   C1806     1.0  0.85406  0.32258  0.43035  1.0000
  C   C1807     1.0  0.85945  0.29706  0.45367  1.0000
  C   C1808     1.0  0.85262  0.33486  0.44410  1.0000
  C   C1809     1.0  0.85819  0.30952  0.46726  1.0000
  C   C1810     1.0  0.85491  0.32839  0.46245  1.0000
  H   H2160     1.0  0.87972  0.27048  0.43462  1.0000
  H   H2161     1.0  0.88099  0.26979  0.41027  1.0000
  H   H2162     1.0  0.88965  0.28882  0.41996  1.0000
  H   H2163     1.0  0.84671  0.26653  0.41310  1.0000
  H   H2164     1.0  0.83154  0.28400  0.42363  1.0000
  H   H2165     1.0  0.84638  0.26825  0.43740  1.0000
  H   H2166     1.0  0.86976  0.30844  0.39768  1.0000
  H   H2167     1.0  0.86073  0.28830  0.39095  1.0000
  H   H2168     1.0  0.84516  0.30622  0.39929  1.0000
  C   C1811     1.0  0.88974  0.41135  0.60968  1.0000
  C   C1812     1.0  0.94491  0.00330  0.47545  1.0000
  H   H2169     1.0  0.79395  0.06988  0.41391  1.0000
  C   C1813     1.0  0.93363  0.47759  0.49255  1.0000
  H   H2170     1.0  0.81837  0.07672  0.60588  1.0000
  H   H2171     1.0  0.88073  0.41866  0.61958  1.0000
  C   C1814     1.0  0.95292  0.33118  0.42120  1.0000
  C   C1815     1.0  0.74816  0.11765  0.63176  1.0000
  S   S486      1.0  0.91689  0.31516  0.65334  1.0000
  H   H2172     1.0  0.96540  0.30153  0.38816  1.0000
  H   H2173     1.0  0.79217  0.09034  0.38824  1.0000
  H   H2174     1.0  0.92000  0.18250  0.64534  1.0000
  C   C1816     1.0  0.90119  0.40716  0.54665  1.0000
  H   H2175     1.0  0.87214  0.99023  0.61066  1.0000
  H   H2176     1.0  0.94805  0.33012  0.43564  1.0000
  Fe  Fe245     1.0  0.90761  0.00485  0.57508  1.0000
  H   H2177     1.0  0.78691  0.18763  0.46586  1.0000
  H   H2178     1.0  0.75656  0.12248  0.34791  1.0000
  C   C1817     1.0  0.77512  0.19597  0.43215  1.0000
  S   S487      1.0  0.95396  0.27707  0.35677  1.0000
  C   C1818     1.0  0.78975  0.20165  0.45919  1.0000
  C   C1819     1.0  0.79705  0.05258  0.39080  1.0000
  C   C1820     1.0  0.83396  0.03670  0.58728  1.0000
  C   C1821     1.0  0.83587  0.03357  0.62053  1.0000
  H   H2179     1.0  0.97732  0.37182  0.42217  1.0000
  C   C1822     1.0  0.82627  0.05485  0.58829  1.0000
  H   H2180     1.0  0.88758  0.43358  0.58883  1.0000
  H   H2181     1.0  0.88411  0.15047  0.61290  1.0000
  H   H2182     1.0  0.95525  0.30145  0.42136  1.0000
  C   C1823     1.0  0.79178  0.08333  0.37540  1.0000
  S   S488      1.0  0.90789  0.00112  0.41594  1.0000
  H   H2183     1.0  0.83629  0.03201  0.57361  1.0000
  C   C1824     1.0  0.91278  0.39226  0.58435  1.0000
  S   S489      1.0  0.88144  0.28965  0.65249  1.0000
  H   H2184     1.0  0.80104  0.26519  0.43633  1.0000
  C   C1825     1.0  0.92961  0.41796  0.55473  1.0000
  C   C1826     1.0  0.89658  0.47653  0.50497  1.0000
  H   H2185     1.0  0.85941  0.00847  0.57495  1.0000
  C   C1827     1.0  0.75721  0.06968  0.62278  1.0000
  C   C1828     1.0  0.88045  0.15949  0.64763  1.0000
  H   H2186     1.0  0.93616  0.40365  0.55432  1.0000
  H   H2187     1.0  0.91391  0.36985  0.60595  1.0000
  H   H2188     1.0  0.91324  0.99243  0.52881  1.0000
  H   H2189     1.0  0.95699  0.99765  0.39578  1.0000
  C   C1829     1.0  0.74310  0.10744  0.64858  1.0000
  N   N123      1.0  0.87339  0.14306  0.64089  1.0000
  S   S490      1.0  0.89003  0.99997  0.46736  1.0000
  H   H2190     1.0  0.89942  0.12727  0.63480  1.0000
  H   H2191     1.0  0.77122  0.06843  0.62703  1.0000
  H   H2192     1.0  0.96821  0.01756  0.51163  1.0000
  H   H2193     1.0  0.95272  0.01386  0.48080  1.0000
  H   H2194     1.0  0.82117  0.99458  0.60955  1.0000
  N   N124      1.0  0.95454  0.99630  0.45847  1.0000
  H   H2195     1.0  0.97366  0.34868  0.52938  1.0000
  H   H2196     1.0  0.95907  0.00725  0.43000  1.0000
  H   H2197     1.0  0.76328  0.08985  0.60005  1.0000
  C   C1830     1.0  0.83534  0.99337  0.61444  1.0000
  H   H2198     1.0  0.98852  0.42998  0.50721  1.0000
  C   C1831     1.0  0.98927  0.99374  0.45032  1.0000
  C   C1832     1.0  0.98625  0.99755  0.39932  1.0000
  H   H2199     1.0  0.82680  0.05800  0.63438  1.0000
  C   C1833     1.0  0.74442  0.11520  0.35232  1.0000
  H   H2200     1.0  0.85084  0.12530  0.64578  1.0000
  C   C1834     1.0  0.85529  0.13837  0.65022  1.0000
  H   H2201     1.0  0.98124  0.38822  0.51726  1.0000
  H   H2202     1.0  0.98715  0.46689  0.49459  1.0000
  C   C1835     1.0  0.90584  0.17937  0.64910  1.0000
  C   C1836     1.0  0.98670  0.40372  0.47130  1.0000
  C   C1837     1.0  0.74353  0.05995  0.63303  1.0000
  H   H2203     1.0  0.94272  0.99218  0.48674  1.0000
  H   H2204     1.0  0.98266  0.00658  0.54069  1.0000
  H   H2205     1.0  0.98730  0.33842  0.58886  1.0000
  C   C1838     1.0  0.98637  0.38179  0.53059  1.0000
  H   H2206     1.0  0.98827  0.00351  0.43825  1.0000
  H   H2207     1.0  0.98743  0.02002  0.48191  1.0000
  H   H2208     1.0  0.74759  0.05105  0.64497  1.0000
  H   H2209     1.0  0.98675  0.01218  0.39525  1.0000
  C   C1839     1.0  0.98647  0.35121  0.52051  1.0000
  H   H2210     1.0  0.98993  0.34591  0.44692  1.0000
  C   C1840     1.0  0.96933  0.98936  0.39968  1.0000
  Fe  Fe246     1.0  0.96785  0.39687  0.88753  1.0000
  S   S491      1.0  0.93855  0.40177  0.87822  1.0000
  C   C1841     1.0  0.83059  0.48163  0.76911  1.0000
  S   S492      1.0  0.97153  0.41769  0.90755  1.0000
  Fe  Fe247     1.0  0.90116  0.29557  0.67338  1.0000
  H   H2211     1.0  0.96840  0.43185  0.84308  1.0000
  S   S493      1.0  0.89437  0.30069  0.70419  1.0000
  Fe  Fe248     1.0  0.86514  0.36950  0.82053  1.0000
  S   S494      1.0  0.87310  0.38519  0.79349  1.0000
  S   S495      1.0  0.88687  0.35436  0.83825  1.0000
  Fe  Fe249     1.0  0.82393  0.37778  0.81701  1.0000
  S   S496      1.0  0.82897  0.39455  0.78941  1.0000
  S   S497      1.0  0.79457  0.37645  0.83156  1.0000
  Fe  Fe250     1.0  0.85048  0.37162  0.78201  1.0000
  S   S498      1.0  0.85192  0.36317  0.75210  1.0000
  Fe  Fe251     1.0  0.85144  0.40715  0.80244  1.0000
  S   S499      1.0  0.86215  0.43603  0.79628  1.0000
  S   S500      1.0  0.84379  0.35409  0.80863  1.0000
  S   S501      1.0  0.84513  0.39210  0.83045  1.0000
  H   H2212     1.0  0.97528  0.27325  0.67210  1.0000
  C   C1842     1.0  0.83710  0.46115  0.81357  1.0000
  C   C1843     1.0  0.85440  0.45792  0.80422  1.0000
  C   C1844     1.0  0.86575  0.47272  0.80025  1.0000
  H   H2213     1.0  0.93398  0.39991  0.80738  1.0000
  H   H2214     1.0  0.82819  0.44996  0.81669  1.0000
  H   H2215     1.0  0.87911  0.47043  0.79295  1.0000
  H   H2216     1.0  0.81262  0.31976  0.74072  1.0000
  C   C1845     1.0  0.77215  0.33063  0.85940  1.0000
  C   C1846     1.0  0.78445  0.34208  0.84859  1.0000
  C   C1847     1.0  0.77973  0.36106  0.84510  1.0000
  C   C1848     1.0  0.76252  0.36829  0.85263  1.0000
  H   H2217     1.0  0.77603  0.31602  0.86200  1.0000
  H   H2218     1.0  0.79751  0.33617  0.84290  1.0000
  H   H2219     1.0  0.75873  0.38295  0.85021  1.0000
  H   H2220     1.0  0.91295  0.46060  0.81309  1.0000
  C   C1849     1.0  0.93680  0.45587  0.87944  1.0000
  C   C1850     1.0  0.88368  0.31929  0.71668  1.0000
  C   C1851     1.0  0.88711  0.31972  0.73544  1.0000
  C   C1852     1.0  0.87824  0.33348  0.74624  1.0000
  C   C1853     1.0  0.86531  0.34677  0.73861  1.0000
  C   C1854     1.0  0.86194  0.34641  0.71984  1.0000
  C   C1855     1.0  0.87113  0.33290  0.70891  1.0000
  H   H2221     1.0  0.89679  0.30933  0.74164  1.0000
  H   H2222     1.0  0.88121  0.33357  0.76055  1.0000
  H   H2223     1.0  0.85202  0.35658  0.71369  1.0000
  H   H2224     1.0  0.86821  0.33280  0.69458  1.0000
  H   H2225     1.0  0.84062  0.45510  0.76023  1.0000
  H   H2226     1.0  0.89022  0.43945  0.82318  1.0000
  C   C1856     1.0  0.79735  0.31026  0.78843  1.0000
  C   C1857     1.0  0.87582  0.18814  0.66328  1.0000
  C   C1858     1.0  0.92431  0.38728  0.86858  1.0000
  C   C1859     1.0  0.93088  0.37020  0.86240  1.0000
  C   C1860     1.0  0.91920  0.36004  0.85338  1.0000
  C   C1861     1.0  0.90109  0.36711  0.85006  1.0000
  C   C1862     1.0  0.89449  0.38406  0.85648  1.0000
  C   C1863     1.0  0.90595  0.39389  0.86600  1.0000
  H   H2227     1.0  0.94499  0.36495  0.86437  1.0000
  H   H2228     1.0  0.92437  0.34685  0.84859  1.0000
  H   H2229     1.0  0.88055  0.38960  0.85418  1.0000
  H   H2230     1.0  0.90071  0.40694  0.87105  1.0000
  C   C1864     1.0  0.84397  0.31398  0.77345  1.0000
  C   C1865     1.0  0.86889  0.17247  0.65752  1.0000
  H   H2231     1.0  0.90188  0.41931  0.78918  1.0000
  H   H2232     1.0  0.97180  0.48064  0.88805  1.0000
  C   C1866     1.0  0.92514  0.45385  0.81910  1.0000
  Fe  Fe252     1.0  0.98835  0.39530  0.92345  1.0000
  S   S502      1.0  0.98100  0.38946  0.95439  1.0000
  C   C1867     1.0  0.92069  0.40269  0.81561  1.0000
  C   C1868     1.0  0.82593  0.32096  0.74683  1.0000
  C   C1869     1.0  0.95765  0.47769  0.88704  1.0000
  H   H2233     1.0  0.82585  0.28376  0.77845  1.0000
  C   C1870     1.0  0.92185  0.46845  0.88328  1.0000
  C   C1871     1.0  0.95642  0.43799  0.83611  1.0000
  C   C1872     1.0  0.81097  0.32052  0.77792  1.0000
  C   C1873     1.0  0.83104  0.47910  0.81833  1.0000
  H   H2234     1.0  0.86563  0.46761  0.73904  1.0000
  H   H2235     1.0  0.79695  0.29555  0.78803  1.0000
  C   C1874     1.0  0.95465  0.46057  0.88116  1.0000
  C   C1875     1.0  0.78327  0.33783  0.80155  1.0000
  C   C1876     1.0  0.91137  0.42840  0.79462  1.0000
  C   C1877     1.0  0.81006  0.33979  0.77987  1.0000
  C   C1878     1.0  0.94412  0.42665  0.82986  1.0000
  N   N125      1.0  0.91467  0.42274  0.81431  1.0000
  C   C1879     1.0  0.92820  0.43428  0.82084  1.0000
  H   H2236     1.0  0.89009  0.12422  0.65852  1.0000
  C   C1880     1.0  0.79641  0.34825  0.79151  1.0000
  H   H2237     1.0  0.83730  0.31493  0.73754  1.0000
  H   H2238     1.0  0.82008  0.34849  0.77261  1.0000
  C   C1881     1.0  0.95325  0.45714  0.83375  1.0000
  S   S503      1.0  0.92069  0.27044  0.66718  1.0000
  N   N126      1.0  0.83840  0.34761  0.87643  1.0000
  C   C1882     1.0  0.84435  0.36625  0.87854  1.0000
  C   C1883     1.0  0.85368  0.33392  0.88205  1.0000
  C   C1884     1.0  0.83603  0.34612  0.85662  1.0000
  C   C1885     1.0  0.82058  0.34479  0.88713  1.0000
  C   C1886     1.0  0.81767  0.32887  0.89960  1.0000
  C   C1887     1.0  0.80509  0.35766  0.88435  1.0000
  C   C1888     1.0  0.80027  0.32608  0.90852  1.0000
  C   C1889     1.0  0.78786  0.35483  0.89352  1.0000
  C   C1890     1.0  0.78539  0.33898  0.90541  1.0000
  H   H2239     1.0  0.84515  0.36836  0.89339  1.0000
  H   H2240     1.0  0.85821  0.36829  0.87137  1.0000
  H   H2241     1.0  0.83492  0.37756  0.87241  1.0000
  H   H2242     1.0  0.85604  0.33414  0.89695  1.0000
  H   H2243     1.0  0.86700  0.33686  0.87407  1.0000
  H   H2244     1.0  0.85103  0.31966  0.87928  1.0000
  H   H2245     1.0  0.82587  0.35701  0.85090  1.0000
  H   H2246     1.0  0.84926  0.34752  0.84810  1.0000
  H   H2247     1.0  0.83102  0.33254  0.85446  1.0000
  H   H2248     1.0  0.82851  0.31821  0.90249  1.0000
  H   H2249     1.0  0.80597  0.36973  0.87453  1.0000
  H   H2250     1.0  0.79820  0.31370  0.91770  1.0000
  H   H2251     1.0  0.77616  0.36468  0.89088  1.0000
  H   H2252     1.0  0.77181  0.33654  0.91195  1.0000
  H   H2253     1.0  0.86667  0.19812  0.67035  1.0000
  C   C1891     1.0  0.85648  0.47691  0.74696  1.0000
  C   C1892     1.0  0.98766  0.27872  0.66530  1.0000
  H   H2254     1.0  0.94731  0.41194  0.83260  1.0000
  N   N127      1.0  0.82600  0.31185  0.76597  1.0000
  H   H2255     1.0  0.90453  0.44256  0.79253  1.0000
  H   H2256     1.0  0.96629  0.45081  0.87802  1.0000
  H   H2257     1.0  0.96284  0.46582  0.83872  1.0000
  H   H2258     1.0  0.98259  0.44792  0.97497  1.0000
  C   C1893     1.0  0.75496  0.33789  0.86699  1.0000
  H   H2259     1.0  0.83595  0.28591  0.75530  1.0000
  H   H2260     1.0  0.82805  0.33591  0.74615  1.0000
  C   C1894     1.0  0.78375  0.31889  0.80006  1.0000
  C   C1895     1.0  0.89698  0.42526  0.82561  1.0000
  S   S504      1.0  0.98310  0.37385  0.90448  1.0000
  H   H2261     1.0  0.79615  0.36296  0.79293  1.0000
  C   C1896     1.0  0.75032  0.35688  0.86356  1.0000
  H   H2262     1.0  0.92238  0.39708  0.83013  1.0000
  H   H2263     1.0  0.81141  0.28916  0.75912  1.0000
  C   C1897     1.0  0.84230  0.46983  0.75876  1.0000
  H   H2264     1.0  0.91036  0.39434  0.81048  1.0000
  C   C1898     1.0  0.82462  0.29179  0.76474  1.0000
  H   H2265     1.0  0.77357  0.31085  0.80810  1.0000
  C   C1899     1.0  0.92467  0.48564  0.88923  1.0000
  H   H2266     1.0  0.92452  0.42785  0.78576  1.0000
  C   C1900     1.0  0.93756  0.46506  0.82539  1.0000
  H   H2267     1.0  0.77282  0.34448  0.81066  1.0000
  H   H2268     1.0  0.88684  0.41560  0.82243  1.0000
  H   H2269     1.0  0.89914  0.42291  0.84060  1.0000
  H   H2270     1.0  0.81982  0.47598  0.77859  1.0000
  H   H2271     1.0  0.84441  0.30780  0.78800  1.0000
  C   C1901     1.0  0.89427  0.19152  0.65919  1.0000
  H   H2272     1.0  0.84679  0.32873  0.77340  1.0000
  H   H2273     1.0  0.85570  0.30731  0.76512  1.0000
  H   H2274     1.0  0.85588  0.13655  0.66552  1.0000
  H   H2275     1.0  0.81745  0.48154  0.82516  1.0000
  H   H2276     1.0  0.93459  0.44245  0.87508  1.0000
  H   H2277     1.0  0.90799  0.46475  0.88175  1.0000
  H   H2278     1.0  0.85429  0.17118  0.66050  1.0000
  H   H2279     1.0  0.93494  0.47997  0.82392  1.0000
  H   H2280     1.0  0.75374  0.10183  0.65754  1.0000
  H   H2281     1.0  0.98791  0.47900  0.97603  1.0000
  H   H2282     1.0  0.89939  0.20403  0.66312  1.0000
  C   C1902     1.0  0.98114  0.48283  0.98898  1.0000
  H   H2283     1.0  0.97616  0.51104  0.16252  1.0000
  H   H2284     1.0  0.95422  0.54973  0.16729  1.0000
  C   C1903     1.0  0.89159  0.52919  0.17258  1.0000
  C   C1904     1.0  0.75433  0.60804  0.12869  1.0000
  C   C1905     1.0  0.96132  0.51178  0.16779  1.0000
  S   S505      1.0  0.96739  0.58976  0.14301  1.0000
  H   H2285     1.0  0.93088  0.50600  0.18632  1.0000
  C   C1906     1.0  0.95181  0.51765  0.13684  1.0000
  Fe  Fe253     1.0  0.84686  0.54843  0.19976  1.0000
  S   S506      1.0  0.84015  0.56172  0.17162  1.0000
  S   S507      1.0  0.85313  0.51734  0.20823  1.0000
  Fe  Fe254     1.0  0.84843  0.58644  0.21602  1.0000
  S   S508      1.0  0.84177  0.60209  0.18867  1.0000
  S   S509      1.0  0.84923  0.59991  0.24376  1.0000
  Fe  Fe255     1.0  0.82036  0.58193  0.18626  1.0000
  S   S510      1.0  0.79080  0.59298  0.17868  1.0000
  Fe  Fe256     1.0  0.86187  0.58104  0.17561  1.0000
  S   S511      1.0  0.87990  0.58842  0.14940  1.0000
  S   S512      1.0  0.82565  0.56734  0.21453  1.0000
  S   S513      1.0  0.86996  0.56662  0.20284  1.0000
  S   S514      1.0  0.89805  0.64436  0.29255  1.0000
  C   C1907     1.0  0.77702  0.59830  0.15911  1.0000
  C   C1908     1.0  0.75965  0.60821  0.16145  1.0000
  C   C1909     1.0  0.96670  0.50792  0.00587  1.0000
  C   C1910     1.0  0.78268  0.59282  0.14148  1.0000
  H   H2286     1.0  0.75490  0.61236  0.17500  1.0000
  H   H2287     1.0  0.79554  0.58457  0.13947  1.0000
  C   C1911     1.0  0.86311  0.61236  0.25697  1.0000
  C   C1912     1.0  0.88073  0.61752  0.25054  1.0000
  C   C1913     1.0  0.89109  0.62723  0.26160  1.0000
  C   C1914     1.0  0.88412  0.63199  0.27930  1.0000
  C   C1915     1.0  0.86648  0.62687  0.28573  1.0000
  C   C1916     1.0  0.85613  0.61717  0.27467  1.0000
  H   H2288     1.0  0.88641  0.61402  0.23704  1.0000
  H   H2289     1.0  0.90466  0.63108  0.25635  1.0000
  H   H2290     1.0  0.86070  0.63041  0.29917  1.0000
  H   H2291     1.0  0.84255  0.61333  0.27987  1.0000
  N   N128      1.0  0.94977  0.52455  0.15546  1.0000
  C   C1917     1.0  0.86314  0.67294  0.26024  1.0000
  H   H2292     1.0  0.83113  0.50957  0.17793  1.0000
  H   H2293     1.0  0.97259  0.54211  0.15116  1.0000
  C   C1918     1.0  0.94313  0.58870  0.14466  1.0000
  C   C1919     1.0  0.93332  0.58943  0.16202  1.0000
  C   C1920     1.0  0.91400  0.58870  0.16382  1.0000
  C   C1921     1.0  0.90429  0.58780  0.14815  1.0000
  C   C1922     1.0  0.91410  0.58698  0.13081  1.0000
  C   C1923     1.0  0.93347  0.58713  0.12909  1.0000
  H   H2294     1.0  0.94070  0.59061  0.17413  1.0000
  H   H2295     1.0  0.90660  0.58937  0.17724  1.0000
  H   H2296     1.0  0.90670  0.58633  0.11860  1.0000
  H   H2297     1.0  0.94087  0.58662  0.11565  1.0000
  H   H2298     1.0  0.83708  0.64619  0.23852  1.0000
  H   H2299     1.0  0.87719  0.67681  0.25873  1.0000
  H   H2300     1.0  0.87077  0.56894  0.27054  1.0000
  H   H2301     1.0  0.96654  0.51614  0.13161  1.0000
  C   C1924     1.0  0.74839  0.61301  0.14644  1.0000
  H   H2302     1.0  0.88917  0.54930  0.14922  1.0000
  C   C1925     1.0  0.77155  0.59783  0.12641  1.0000
  N   N129      1.0  0.83337  0.62182  0.13123  1.0000
  C   C1926     1.0  0.84793  0.62043  0.11584  1.0000
  C   C1927     1.0  0.84075  0.63196  0.14545  1.0000
  C   C1928     1.0  0.83021  0.60282  0.13925  1.0000
  C   C1929     1.0  0.81560  0.63107  0.12544  1.0000
  C   C1930     1.0  0.80088  0.63483  0.13886  1.0000
  C   C1931     1.0  0.81191  0.63550  0.10655  1.0000
  C   C1932     1.0  0.78365  0.64260  0.13372  1.0000
  C   C1933     1.0  0.79450  0.64306  0.10157  1.0000
  C   C1934     1.0  0.78039  0.64652  0.11512  1.0000
  H   H2303     1.0  0.85075  0.63430  0.10896  1.0000
  H   H2304     1.0  0.86126  0.61395  0.12088  1.0000
  H   H2305     1.0  0.84418  0.61150  0.10536  1.0000
  H   H2306     1.0  0.84240  0.64663  0.14028  1.0000
  H   H2307     1.0  0.85448  0.62558  0.14952  1.0000
  H   H2308     1.0  0.83174  0.63184  0.15848  1.0000
  H   H2309     1.0  0.82459  0.59477  0.12904  1.0000
  H   H2310     1.0  0.84316  0.59514  0.14363  1.0000
  H   H2311     1.0  0.82037  0.60270  0.15171  1.0000
  H   H2312     1.0  0.80229  0.63107  0.15346  1.0000
  H   H2313     1.0  0.82209  0.63294  0.09534  1.0000
  H   H2314     1.0  0.77249  0.64489  0.14421  1.0000
  H   H2315     1.0  0.79177  0.64594  0.08711  1.0000
  H   H2316     1.0  0.76675  0.65183  0.11121  1.0000
  H   H2317     1.0  0.85908  0.68545  0.31901  1.0000
  H   H2318     1.0  0.84079  0.67348  0.31213  1.0000
  C   C1935     1.0  0.89849  0.53978  0.15707  1.0000
  H   H2319     1.0  0.95166  0.55247  0.14290  1.0000
  C   C1936     1.0  0.89989  0.58767  0.29664  1.0000
  C   C1937     1.0  0.91736  0.53839  0.15177  1.0000
  C   C1938     1.0  0.84221  0.70565  0.29124  1.0000
  C   C1939     1.0  0.89323  0.58093  0.28128  1.0000
  H   H2320     1.0  0.86424  0.66498  0.30694  1.0000
  H   H2321     1.0  0.86814  0.65767  0.23614  1.0000
  H   H2322     1.0  0.91288  0.59392  0.29427  1.0000
  H   H2323     1.0  0.87695  0.53043  0.17671  1.0000
  H   H2324     1.0  0.84604  0.71453  0.30181  1.0000
  H   H2325     1.0  0.91516  0.61289  0.31684  1.0000
  C   C1940     1.0  0.82792  0.66006  0.26279  1.0000
  H   H2326     1.0  0.87576  0.70454  0.27300  1.0000
  C   C1941     1.0  0.98737  0.50203  0.09824  1.0000
  H   H2327     1.0  0.82252  0.67415  0.28711  1.0000
  H   H2328     1.0  0.85222  0.56716  0.30042  1.0000
  H   H2329     1.0  0.81422  0.50028  0.23463  1.0000
  H   H2330     1.0  0.94611  0.50396  0.13706  1.0000
  C   C1942     1.0  0.92245  0.51554  0.17767  1.0000
  C   C1943     1.0  0.87616  0.57347  0.28270  1.0000
  C   C1944     1.0  0.86568  0.57260  0.29955  1.0000
  H   H2331     1.0  0.97333  0.49765  0.07431  1.0000
  H   H2332     1.0  0.87736  0.70459  0.29740  1.0000
  Fe  Fe257     1.0  0.90022  0.65674  0.32046  1.0000
  C   C1945     1.0  0.92994  0.52617  0.16184  1.0000
  Fe  Fe258     1.0  0.98663  0.57586  0.12147  1.0000
  C   C1946     1.0  0.74537  0.89723  0.31856  1.0000
  N   N130      1.0  0.85548  0.68917  0.28974  1.0000
  H   H2333     1.0  0.82797  0.70195  0.29567  1.0000
  H   H2334     1.0  0.90102  0.58213  0.26795  1.0000
  C   C1947     1.0  0.85050  0.67803  0.27513  1.0000
  S   S515      1.0  0.98496  0.55902  0.05487  1.0000
  C   C1948     1.0  0.84919  0.49669  0.19820  1.0000
  H   H2335     1.0  0.96076  0.51652  0.18193  1.0000
  H   H2336     1.0  0.77633  0.59375  0.11285  1.0000
  C   C1949     1.0  0.85484  0.67777  0.30772  1.0000
  H   H2337     1.0  0.94475  0.52727  0.12636  1.0000
  C   C1950     1.0  0.87425  0.69589  0.28640  1.0000
  H   H2338     1.0  0.98352  0.51666  0.09725  1.0000
  H   H2339     1.0  0.81442  0.65466  0.26392  1.0000
  H   H2340     1.0  0.89791  0.50910  0.19506  1.0000
  C   C1951     1.0  0.83764  0.49665  0.18373  1.0000
  H   H2341     1.0  0.88514  0.68420  0.28647  1.0000
  S   S516      1.0  0.97781  0.55273  0.10701  1.0000
  C   C1952     1.0  0.95734  0.54293  0.15421  1.0000
  C   C1953     1.0  0.85813  0.66186  0.24707  1.0000
  H   H2342     1.0  0.92202  0.54709  0.13973  1.0000
  H   H2343     1.0  0.97154  0.55185  0.02063  1.0000
  C   C1954     1.0  0.83272  0.67123  0.27598  1.0000
  H   H2344     1.0  0.75508  0.55851  0.14273  1.0000
  C   C1955     1.0  0.84061  0.65537  0.24838  1.0000
  C   C1956     1.0  0.98305  0.56028  0.01726  1.0000
  H   H2345     1.0  0.74583  0.89708  0.30365  1.0000
  H   H2346     1.0  0.84175  0.71425  0.27778  1.0000
  H   H2347     1.0  0.96239  0.52248  0.00634  1.0000
  C   C1957     1.0  0.87226  0.57915  0.31505  1.0000
  C   C1958     1.0  0.90351  0.51714  0.18288  1.0000
  C   C1959     1.0  0.98858  0.56513  0.99855  1.0000
  C   C1960     1.0  0.88960  0.58687  0.31410  1.0000
  H   H2348     1.0  0.95707  0.49741  0.16869  1.0000
  H   H2349     1.0  0.77184  0.55747  0.17028  1.0000
  C   C1961     1.0  0.74791  0.56375  0.18828  1.0000
  H   H2350     1.0  0.77434  0.89134  0.31957  1.0000
  C   C1962     1.0  0.75693  0.56012  0.17131  1.0000
  S   S517      1.0  0.90632  0.68643  0.32194  1.0000
  C   C1963     1.0  0.98177  0.49129  0.08512  1.0000
  H   H2351     1.0  0.95668  0.50045  0.03390  1.0000
  C   C1964     1.0  0.96351  0.49550  0.02134  1.0000
  H   H2352     1.0  0.75581  0.56382  0.20029  1.0000
  C   C1965     1.0  0.74705  0.56081  0.15550  1.0000
  S   S518      1.0  0.74119  0.61436  0.10881  1.0000
  C   C1966     1.0  0.97546  0.50158  0.98974  1.0000
  Fe  Fe259     1.0  0.92710  0.54538  0.49935  1.0000
  S   S519      1.0  0.93590  0.56688  0.47651  1.0000
  S   S520      1.0  0.93506  0.51497  0.49446  1.0000
  Fe  Fe260     1.0  0.91662  0.57505  0.52690  1.0000
  S   S521      1.0  0.92486  0.59817  0.50622  1.0000
  S   S522      1.0  0.90653  0.57824  0.55703  1.0000
  Fe  Fe261     1.0  0.91057  0.58419  0.48575  1.0000
  S   S523      1.0  0.89192  0.60401  0.46799  1.0000
  Fe  Fe262     1.0  0.94937  0.57920  0.49854  1.0000
  S   S524      1.0  0.97654  0.59200  0.49257  1.0000
  S   S525      1.0  0.90042  0.56189  0.50706  1.0000
  S   S526      1.0  0.94239  0.55696  0.52085  1.0000
  Fe  Fe263     1.0  0.88008  0.95681  0.41832  1.0000
  S   S527      1.0  0.89456  0.96875  0.39198  1.0000
  S   S528      1.0  0.86690  0.92961  0.42643  1.0000
  C   C1967     1.0  0.87920  0.69630  0.57225  1.0000
  C   C1968     1.0  0.95507  0.59205  0.56496  1.0000
  Fe  Fe264     1.0  0.91832  0.97245  0.40919  1.0000
  S   S529      1.0  0.94770  0.95930  0.40488  1.0000
  H   H2353     1.0  0.78938  0.88706  0.38394  1.0000
  S   S530      1.0  0.90442  0.95882  0.43486  1.0000
  C   C1969     1.0  0.98815  0.98222  0.59530  1.0000
  S   S531      1.0  0.93066  0.95450  0.58508  1.0000
  S   S532      1.0  0.93237  0.95618  0.53196  1.0000
  Fe  Fe265     1.0  0.90187  0.96565  0.59367  1.0000
  S   S533      1.0  0.87653  0.95104  0.60571  1.0000
  H   H2354     1.0  0.88234  0.62102  0.32473  1.0000
  Fe  Fe266     1.0  0.90826  0.69473  0.64517  1.0000
  H   H2355     1.0  0.97272  0.65090  0.35054  1.0000
  S   S534      1.0  0.90271  0.72553  0.63481  1.0000
  Fe  Fe267     1.0  0.90874  0.65698  0.62893  1.0000
  S   S535      1.0  0.90314  0.65095  0.59964  1.0000
  S   S536      1.0  0.92786  0.67970  0.62531  1.0000
  Fe  Fe268     1.0  0.83862  0.85150  0.59281  1.0000
  S   S537      1.0  0.81518  0.85856  0.57446  1.0000
  S   S538      1.0  0.86436  0.86727  0.59406  1.0000
  Fe  Fe269     1.0  0.82683  0.81202  0.60428  1.0000
  S   S539      1.0  0.80219  0.81654  0.58675  1.0000
  S   S540      1.0  0.83314  0.78467  0.62231  1.0000
  Fe  Fe270     1.0  0.82130  0.83018  0.56454  1.0000
  S   S541      1.0  0.82942  0.82353  0.53458  1.0000
  Fe  Fe271     1.0  0.79732  0.84469  0.59800  1.0000
  S   S542      1.0  0.76868  0.85992  0.60478  1.0000
  S   S543      1.0  0.84595  0.82387  0.58159  1.0000
  S   S544      1.0  0.82073  0.83932  0.61691  1.0000
  Fe  Fe272     1.0  0.81678  0.84818  0.39302  1.0000
  S   S545      1.0  0.78920  0.85205  0.40858  1.0000
  S   S546      1.0  0.83116  0.87344  0.38012  1.0000
  Fe  Fe273     1.0  0.81586  0.80566  0.39568  1.0000
  S   S547      1.0  0.78754  0.80754  0.41087  1.0000
  S   S548      1.0  0.83362  0.77763  0.39574  1.0000
  Fe  Fe274     1.0  0.77984  0.83185  0.39037  1.0000
  S   S549      1.0  0.75015  0.84046  0.38164  1.0000
  Fe  Fe275     1.0  0.79884  0.82779  0.42779  1.0000
  S   S550      1.0  0.78985  0.82603  0.45883  1.0000
  S   S551      1.0  0.80741  0.82862  0.37389  1.0000
  S   S552      1.0  0.82729  0.82537  0.41344  1.0000
  Fe  Fe276     1.0  0.88645  0.68649  0.34738  1.0000
  S   S553      1.0  0.87941  0.65701  0.34499  1.0000
  S   S554      1.0  0.86342  0.71042  0.34668  1.0000
  Fe  Fe277     1.0  0.92841  0.67593  0.34131  1.0000
  S   S555      1.0  0.92397  0.64656  0.33777  1.0000
  H   H2356     1.0  0.85978  0.57565  0.52042  1.0000
  C   C1970     1.0  0.88315  0.60976  0.33618  1.0000
  Fe  Fe278     1.0  0.90351  0.64849  0.36246  1.0000
  S   S556      1.0  0.90839  0.62181  0.38102  1.0000
  H   H2357     1.0  0.86211  0.83476  0.61806  1.0000
  S   S557      1.0  0.90898  0.67773  0.36685  1.0000
  C   C1971     1.0  0.85263  0.73177  0.59365  1.0000
  C   C1972     1.0  0.94426  0.98136  0.45278  1.0000
  H   H2358     1.0  0.76693  0.87899  0.38356  1.0000
  C   C1973     1.0  0.86037  0.63062  0.54831  1.0000
  C   C1974     1.0  0.84207  0.75944  0.38147  1.0000
  C   C1975     1.0  0.83562  0.75784  0.36410  1.0000
  C   C1976     1.0  0.84236  0.74287  0.35374  1.0000
  C   C1977     1.0  0.85583  0.72931  0.36037  1.0000
  C   C1978     1.0  0.86241  0.73101  0.37766  1.0000
  C   C1979     1.0  0.85551  0.74586  0.38812  1.0000
  H   H2359     1.0  0.82529  0.76803  0.35872  1.0000
  S   S558      1.0  0.86674  0.98425  0.42605  1.0000
  H   H2360     1.0  0.87271  0.72080  0.38307  1.0000
  H   H2361     1.0  0.86069  0.74684  0.40148  1.0000
  C   C1980     1.0  0.81800  0.82674  0.51358  1.0000
  C   C1981     1.0  0.79876  0.82801  0.51332  1.0000
  C   C1982     1.0  0.79044  0.82824  0.49639  1.0000
  C   C1983     1.0  0.80117  0.82756  0.47947  1.0000
  C   C1984     1.0  0.82039  0.82711  0.47967  1.0000
  C   C1985     1.0  0.82871  0.82641  0.49663  1.0000
  H   H2362     1.0  0.79030  0.82818  0.52620  1.0000
  H   H2363     1.0  0.77557  0.82867  0.49643  1.0000
  H   H2364     1.0  0.82889  0.82704  0.46685  1.0000
  H   H2365     1.0  0.84359  0.82547  0.49664  1.0000
  C   C1986     1.0  0.88279  0.74106  0.63059  1.0000
  C   C1987     1.0  0.86551  0.73860  0.63990  1.0000
  C   C1988     1.0  0.85059  0.75206  0.63714  1.0000
  C   C1989     1.0  0.85254  0.76802  0.62480  1.0000
  C   C1990     1.0  0.86967  0.77014  0.61501  1.0000
  C   C1991     1.0  0.88468  0.75689  0.61806  1.0000
  C   C1992     1.0  0.96633  0.61645  0.58128  1.0000
  H   H2366     1.0  0.92976  0.98630  0.45007  1.0000
  H   H2367     1.0  0.87143  0.78201  0.60512  1.0000
  C   C1993     1.0  0.74351  0.84499  0.34386  1.0000
  H   H2368     1.0  0.89794  0.75902  0.61076  1.0000
  H   H2369     1.0  0.90869  0.92515  0.52672  1.0000
  H   H2370     1.0  0.86201  0.63551  0.59418  1.0000
  C   C1994     1.0  0.90499  0.49345  0.50340  1.0000
  H   H2371     1.0  0.87792  0.62134  0.51510  1.0000
  C   C1995     1.0  0.86029  0.60089  0.56629  1.0000
  C   C1996     1.0  0.95319  0.63362  0.39192  1.0000
  C   C1997     1.0  0.86697  0.89095  0.59635  1.0000
  C   C1998     1.0  0.88466  0.89747  0.59291  1.0000
  C   C1999     1.0  0.88767  0.91594  0.59519  1.0000
  C   C2000     1.0  0.87307  0.92804  0.60135  1.0000
  C   C2001     1.0  0.85533  0.92159  0.60464  1.0000
  C   C2002     1.0  0.85225  0.90319  0.60198  1.0000
  H   H2372     1.0  0.89616  0.88811  0.58861  1.0000
  H   H2373     1.0  0.90141  0.92065  0.59272  1.0000
  H   H2374     1.0  0.84394  0.93081  0.60943  1.0000
  H   H2375     1.0  0.83858  0.89837  0.60471  1.0000
  H   H2376     1.0  0.84819  0.72385  0.60627  1.0000
  H   H2377     1.0  0.87220  0.57525  0.54056  1.0000
  C   C2003     1.0  0.85572  0.91519  0.41320  1.0000
  C   C2004     1.0  0.84727  0.89992  0.42244  1.0000
  C   C2005     1.0  0.83938  0.88724  0.41253  1.0000
  C   C2006     1.0  0.84009  0.88957  0.39321  1.0000
  C   C2007     1.0  0.84845  0.90490  0.38395  1.0000
  C   C2008     1.0  0.85620  0.91770  0.39388  1.0000
  H   H2378     1.0  0.84692  0.89778  0.43737  1.0000
  H   H2379     1.0  0.83299  0.87553  0.41985  1.0000
  H   H2380     1.0  0.84911  0.90680  0.36900  1.0000
  H   H2381     1.0  0.86276  0.92931  0.38657  1.0000
  C   C2009     1.0  0.96854  0.97042  0.40467  1.0000
  H   H2382     1.0  0.94580  0.64760  0.58874  1.0000
  H   H2383     1.0  0.83013  0.75244  0.59813  1.0000
  C   C2010     1.0  0.98608  0.64485  0.44300  1.0000
  C   C2011     1.0  0.92032  0.96817  0.51419  1.0000
  C   C2012     1.0  0.91886  0.95990  0.49790  1.0000
  C   C2013     1.0  0.90911  0.96941  0.48364  1.0000
  H   H2384     1.0  0.92512  0.94609  0.49635  1.0000
  H   H2385     1.0  0.90778  0.96284  0.47127  1.0000
  C   C2014     1.0  0.89728  0.60938  0.44397  1.0000
  C   C2015     1.0  0.88811  0.62492  0.43470  1.0000
  C   C2016     1.0  0.89155  0.62917  0.41548  1.0000
  C   C2017     1.0  0.90397  0.61768  0.40530  1.0000
  C   C2018     1.0  0.91317  0.60220  0.41458  1.0000
  C   C2019     1.0  0.91002  0.59818  0.43383  1.0000
  H   H2386     1.0  0.87818  0.63363  0.44242  1.0000
  H   H2387     1.0  0.88430  0.64108  0.40852  1.0000
  H   H2388     1.0  0.92271  0.59315  0.40683  1.0000
  H   H2389     1.0  0.91704  0.58610  0.44073  1.0000
  C   C2020     1.0  0.90773  0.59832  0.56880  1.0000
  C   C2021     1.0  0.90527  0.59699  0.58824  1.0000
  C   C2022     1.0  0.90484  0.61283  0.59804  1.0000
  C   C2023     1.0  0.90652  0.63023  0.58842  1.0000
  C   C2024     1.0  0.90933  0.63150  0.56901  1.0000
  C   C2025     1.0  0.91017  0.61562  0.55926  1.0000
  H   H2390     1.0  0.90336  0.58367  0.59574  1.0000
  H   H2391     1.0  0.90242  0.61166  0.61294  1.0000
  H   H2392     1.0  0.91060  0.64488  0.56143  1.0000
  H   H2393     1.0  0.91221  0.61687  0.54434  1.0000
  H   H2394     1.0  0.84529  0.83508  0.64815  1.0000
  H   H2395     1.0  0.97955  0.55537  0.51176  1.0000
  H   H2396     1.0  0.98394  0.94535  0.62609  1.0000
  H   H2397     1.0  0.77004  0.90356  0.38131  1.0000
  H   H2398     1.0  0.89707  0.50600  0.50693  1.0000
  H   H2399     1.0  0.88497  0.73490  0.55711  1.0000
  H   H2400     1.0  0.84418  0.62470  0.51663  1.0000
  C   C2026     1.0  0.86866  0.72630  0.58244  1.0000
  C   C2027     1.0  0.86101  0.62885  0.58163  1.0000
  C   C2028     1.0  0.95488  0.61962  0.61399  1.0000
  C   C2029     1.0  0.87312  0.73822  0.56639  1.0000
  N   N131      1.0  0.92481  0.90819  0.39958  1.0000
  C   C2030     1.0  0.92303  0.91168  0.41945  1.0000
  C   C2031     1.0  0.94467  0.90850  0.39321  1.0000
  C   C2032     1.0  0.91460  0.92360  0.38898  1.0000
  C   C2033     1.0  0.91685  0.89065  0.39697  1.0000
  C   C2034     1.0  0.89842  0.88774  0.40360  1.0000
  C   C2035     1.0  0.92662  0.87648  0.38714  1.0000
  C   C2036     1.0  0.89019  0.87178  0.40050  1.0000
  C   C2037     1.0  0.91827  0.86049  0.38419  1.0000
  C   C2038     1.0  0.90008  0.85819  0.39079  1.0000
  H   H2401     1.0  0.92926  0.89976  0.42815  1.0000
  H   H2402     1.0  0.92995  0.92422  0.42188  1.0000
  H   H2403     1.0  0.90841  0.91434  0.42479  1.0000
  H   H2404     1.0  0.95314  0.89711  0.40057  1.0000
  H   H2405     1.0  0.95036  0.92165  0.39587  1.0000
  H   H2406     1.0  0.94692  0.90763  0.37801  1.0000
  H   H2407     1.0  0.89988  0.92555  0.39432  1.0000
  H   H2408     1.0  0.92080  0.93694  0.38972  1.0000
  H   H2409     1.0  0.91472  0.92116  0.37411  1.0000
  H   H2410     1.0  0.89008  0.89798  0.41096  1.0000
  H   H2411     1.0  0.94065  0.87745  0.38142  1.0000
  H   H2412     1.0  0.87594  0.87007  0.40545  1.0000
  H   H2413     1.0  0.92588  0.84989  0.37655  1.0000
  H   H2414     1.0  0.89353  0.84594  0.38827  1.0000
  H   H2415     1.0  0.86058  0.69430  0.60514  1.0000
  H   H2416     1.0  0.83908  0.77287  0.57048  1.0000
  C   C2039     1.0  0.89652  0.57946  0.34626  1.0000
  C   C2040     1.0  0.78706  0.87098  0.35301  1.0000
  H   H2417     1.0  0.88439  0.70228  0.55840  1.0000
  Fe  Fe279     1.0  0.94001  0.98156  0.59213  1.0000
  H   H2418     1.0  0.86542  0.96895  0.48326  1.0000
  C   C2041     1.0  0.98839  0.49593  0.49667  1.0000
  H   H2419     1.0  0.84721  0.57769  0.54235  1.0000
  H   H2420     1.0  0.95089  0.97588  0.43992  1.0000
  S   S559      1.0  0.97336  0.65797  0.64376  1.0000
  N   N132      1.0  0.87148  0.81958  0.64286  1.0000
  H   H2421     1.0  0.83706  0.74181  0.34045  1.0000
  N   N133      1.0  0.89603  0.59411  0.33063  1.0000
  Fe  Fe280     1.0  0.89229  0.98708  0.44033  1.0000
  H   H2422     1.0  0.94581  0.62161  0.39831  1.0000
  C   C2042     1.0  0.97981  0.62979  0.45430  1.0000
  C   C2043     1.0  0.86086  0.63928  0.56459  1.0000
  C   C2044     1.0  0.86254  0.75479  0.56214  1.0000
  H   H2423     1.0  0.86063  0.63926  0.53540  1.0000
  S   S560      1.0  0.89653  0.97975  0.56583  1.0000
  H   H2424     1.0  0.94538  0.59743  0.59217  1.0000
  C   C2045     1.0  0.86063  0.60973  0.58247  1.0000
  H   H2425     1.0  0.84098  0.97868  0.61391  1.0000
  H   H2426     1.0  0.92620  0.64267  0.41816  1.0000
  H   H2427     1.0  0.88402  0.68630  0.60790  1.0000
  H   H2428     1.0  0.95902  0.60490  0.61829  1.0000
  N   N134      1.0  0.86022  0.60229  0.53113  1.0000
  C   C2046     1.0  0.97793  0.61119  0.54939  1.0000
  S   S561      1.0  0.92400  0.64163  0.65228  1.0000
  C   C2047     1.0  0.74376  0.89671  0.35707  1.0000
  H   H2429     1.0  0.98692  0.61471  0.53719  1.0000
  H   H2430     1.0  0.86839  0.91213  0.55944  1.0000
  H   H2431     1.0  0.90867  0.70079  0.59256  1.0000
  H   H2432     1.0  0.96045  0.60886  0.45800  1.0000
  C   C2048     1.0  0.79190  0.90347  0.35002  1.0000
  H   H2433     1.0  0.83744  0.75014  0.64475  1.0000
  N   N135      1.0  0.96670  0.62683  0.59779  1.0000
  H   H2434     1.0  0.90101  0.72413  0.59675  1.0000
  H   H2435     1.0  0.76368  0.84158  0.64275  1.0000
  H   H2436     1.0  0.88965  0.60171  0.52704  1.0000
  H   H2437     1.0  0.94626  0.63835  0.37898  1.0000
  H   H2438     1.0  0.95279  0.66928  0.38092  1.0000
  H   H2439     1.0  0.96553  0.97038  0.48635  1.0000
  C   C2049     1.0  0.93325  0.65413  0.41019  1.0000
  H   H2440     1.0  0.94366  0.96947  0.46350  1.0000
  S   S562      1.0  0.95642  0.68841  0.33981  1.0000
  C   C2050     1.0  0.96538  0.62053  0.44909  1.0000
  N   N136      1.0  0.82223  0.77399  0.45611  1.0000
  C   C2051     1.0  0.83309  0.75630  0.45292  1.0000
  C   C2052     1.0  0.80497  0.77432  0.44645  1.0000
  C   C2053     1.0  0.83272  0.78942  0.44727  1.0000
  C   C2054     1.0  0.81901  0.77597  0.47621  1.0000
  C   C2055     1.0  0.83418  0.77544  0.48743  1.0000
  C   C2056     1.0  0.80110  0.77926  0.48506  1.0000
  C   C2057     1.0  0.83158  0.77826  0.50622  1.0000
  C   C2058     1.0  0.79867  0.78185  0.50392  1.0000
  C   C2059     1.0  0.81386  0.78146  0.51444  1.0000
  H   H2441     1.0  0.82602  0.74436  0.46003  1.0000
  H   H2442     1.0  0.83504  0.75424  0.43785  1.0000
  H   H2443     1.0  0.84716  0.75573  0.45785  1.0000
  H   H2444     1.0  0.79639  0.76293  0.45221  1.0000
  H   H2445     1.0  0.80791  0.77275  0.43137  1.0000
  H   H2446     1.0  0.79658  0.78774  0.44736  1.0000
  H   H2447     1.0  0.84625  0.78996  0.45313  1.0000
  H   H2448     1.0  0.83567  0.78831  0.43216  1.0000
  H   H2449     1.0  0.82474  0.80289  0.44903  1.0000
  H   H2450     1.0  0.84821  0.77354  0.48159  1.0000
  H   H2451     1.0  0.78874  0.78067  0.47762  1.0000
  H   H2452     1.0  0.84335  0.77877  0.51434  1.0000
  H   H2453     1.0  0.78495  0.78511  0.51021  1.0000
  H   H2454     1.0  0.81195  0.78447  0.52881  1.0000
  H   H2455     1.0  0.97936  0.97014  0.57195  1.0000
  C   C2060     1.0  0.90104  0.98726  0.48554  1.0000
  H   H2456     1.0  0.87545  0.70766  0.61649  1.0000
  C   C2061     1.0  0.91069  0.78171  0.64635  1.0000
  C   C2062     1.0  0.84396  0.60967  0.52090  1.0000
  H   H2457     1.0  0.95972  0.67708  0.40157  1.0000
  H   H2458     1.0  0.89831  0.90351  0.52802  1.0000
  H   H2459     1.0  0.84345  0.60286  0.50789  1.0000
  H   H2460     1.0  0.86135  0.60161  0.59572  1.0000
  H   H2461     1.0  0.86244  0.81016  0.61829  1.0000
  H   H2462     1.0  0.86470  0.69301  0.57124  1.0000
  C   C2063     1.0  0.85977  0.58185  0.53383  1.0000
  N   N137      1.0  0.88031  0.70900  0.58679  1.0000
  H   H2463     1.0  0.90624  0.71792  0.57361  1.0000
  H   H2464     1.0  0.88764  0.61568  0.34850  1.0000
  H   H2465     1.0  0.77969  0.91695  0.65420  1.0000
  H   H2466     1.0  0.74201  0.89622  0.37197  1.0000
  H   H2467     1.0  0.90244  0.91325  0.54879  1.0000
  H   H2468     1.0  0.79073  0.86981  0.33807  1.0000
  H   H2469     1.0  0.90751  0.80867  0.63247  1.0000
  C   C2064     1.0  0.97928  0.67912  0.34417  1.0000
  C   C2065     1.0  0.97358  0.98878  0.46204  1.0000
  C   C2066     1.0  0.96051  0.66482  0.39346  1.0000
  H   H2470     1.0  0.79619  0.90291  0.33510  1.0000
  H   H2471     1.0  0.98647  0.63276  0.61668  1.0000
  C   C2067     1.0  0.86012  0.61113  0.54864  1.0000
  H   H2472     1.0  0.90199  0.58437  0.35869  1.0000
  C   C2068     1.0  0.76129  0.89348  0.34740  1.0000
  H   H2473     1.0  0.98441  0.94513  0.41309  1.0000
  H   H2474     1.0  0.86187  0.94379  0.46368  1.0000
  H   H2475     1.0  0.86158  0.65410  0.56399  1.0000
  H   H2476     1.0  0.98677  0.63212  0.56435  1.0000
  H   H2477     1.0  0.80005  0.86751  0.36010  1.0000
  H   H2478     1.0  0.90544  0.56708  0.34237  1.0000
  H   H2479     1.0  0.75735  0.83882  0.34119  1.0000
  H   H2480     1.0  0.86646  0.91125  0.47631  1.0000
  H   H2481     1.0  0.86084  0.58599  0.56796  1.0000
  H   H2482     1.0  0.87827  0.59934  0.50643  1.0000
  C   C2069     1.0  0.96017  0.64643  0.59323  1.0000
  H   H2483     1.0  0.87341  0.84878  0.64460  1.0000
  C   C2070     1.0  0.84707  0.75983  0.57354  1.0000
  C   C2071     1.0  0.98351  0.66035  0.34939  1.0000
  H   H2484     1.0  0.95594  0.62745  0.62626  1.0000
  C   C2072     1.0  0.75205  0.85155  0.64047  1.0000
  C   C2073     1.0  0.91478  0.60091  0.32758  1.0000
  H   H2485     1.0  0.92487  0.77930  0.64090  1.0000
  H   H2486     1.0  0.84373  0.81093  0.64750  1.0000
  H   H2487     1.0  0.94556  0.61896  0.42955  1.0000
  H   H2488     1.0  0.87453  0.90344  0.50830  1.0000
  H   H2489     1.0  0.96904  0.65333  0.58200  1.0000
  H   H2490     1.0  0.86892  0.60563  0.33990  1.0000
  C   C2074     1.0  0.87474  0.69897  0.60485  1.0000
  H   H2491     1.0  0.87360  0.96227  0.51493  1.0000
  H   H2492     1.0  0.86644  0.76394  0.55009  1.0000
  H   H2493     1.0  0.88762  0.68299  0.57526  1.0000
  C   C2075     1.0  0.89985  0.71315  0.58738  1.0000
  Fe  Fe281     1.0  0.92571  0.97039  0.55783  1.0000
  N   N138      1.0  0.95274  0.64862  0.40441  1.0000
  H   H2494     1.0  0.83089  0.60746  0.52951  1.0000
  C   C2076     1.0  0.98585  0.62603  0.60364  1.0000
  C   C2077     1.0  0.92359  0.49411  0.49708  1.0000
  C   C2078     1.0  0.96270  0.64198  0.42105  1.0000
  S   S563      1.0  0.88829  0.67258  0.64793  1.0000
  C   C2079     1.0  0.95695  0.62645  0.43274  1.0000
  H   H2495     1.0  0.91934  0.60584  0.34040  1.0000
  H   H2496     1.0  0.77748  0.86012  0.35788  1.0000
  C   C2080     1.0  0.91199  0.98589  0.51629  1.0000
  C   C2081     1.0  0.87720  0.60639  0.51944  1.0000
  C   C2082     1.0  0.76158  0.89388  0.32783  1.0000
  C   C2083     1.0  0.84202  0.74825  0.58911  1.0000
  H   H2497     1.0  0.86588  0.90146  0.53897  1.0000
  C   C2084     1.0  0.88187  0.80176  0.64819  1.0000
  H   H2498     1.0  0.96015  0.65462  0.60543  1.0000
  H   H2499     1.0  0.80487  0.90121  0.35743  1.0000
  H   H2500     1.0  0.92500  0.65839  0.39809  1.0000
  H   H2501     1.0  0.94618  0.58086  0.56479  1.0000
  C   C2085     1.0  0.95481  0.60173  0.58070  1.0000
  N   N139      1.0  0.77864  0.88956  0.35688  1.0000
  H   H2502     1.0  0.88350  0.82148  0.61461  1.0000
  H   H2503     1.0  0.97512  0.66161  0.38837  1.0000
  C   C2086     1.0  0.75129  0.86226  0.62347  1.0000
  N   N140      1.0  0.87956  0.92702  0.53449  1.0000
  C   C2087     1.0  0.88035  0.94330  0.54514  1.0000
  C   C2088     1.0  0.86577  0.91514  0.54454  1.0000
  C   C2089     1.0  0.89801  0.91675  0.53447  1.0000
  C   C2090     1.0  0.87462  0.93196  0.51516  1.0000
  C   C2091     1.0  0.87191  0.95057  0.50735  1.0000
  C   C2092     1.0  0.87256  0.91789  0.50342  1.0000
  C   C2093     1.0  0.86724  0.95467  0.48903  1.0000
  C   C2094     1.0  0.86797  0.92217  0.48509  1.0000
  C   C2095     1.0  0.86532  0.94052  0.47793  1.0000
  H   H2504     1.0  0.86685  0.95162  0.54597  1.0000
  H   H2505     1.0  0.88391  0.93916  0.55965  1.0000
  H   H2506     1.0  0.89123  0.95231  0.53892  1.0000
  H   H2507     1.0  0.85154  0.92192  0.54385  1.0000
  C   C2096     1.0  0.77602  0.88985  0.37730  1.0000
  H   H2508     1.0  0.78582  0.91772  0.35205  1.0000
  H   H2509     1.0  0.96763  0.62857  0.38787  1.0000
  C   C2097     1.0  0.88133  0.83523  0.64784  1.0000
  C   C2098     1.0  0.90061  0.79845  0.64162  1.0000
  H   H2510     1.0  0.94002  0.62103  0.61111  1.0000
  H   H2511     1.0  0.86377  0.72662  0.64968  1.0000
  H   H2512     1.0  0.88261  0.57492  0.35091  1.0000
  H   H2513     1.0  0.92524  0.58983  0.32333  1.0000
  H   H2514     1.0  0.93223  0.66580  0.41910  1.0000
  H   H2515     1.0  0.89492  0.83635  0.63995  1.0000
  C   C2099     1.0  0.96661  0.59675  0.54936  1.0000
  Fe  Fe282     1.0  0.94227  0.66548  0.64942  1.0000
  H   H2516     1.0  0.86346  0.57846  0.32770  1.0000
  C   C2100     1.0  0.97680  0.97529  0.47712  1.0000
  C   C2101     1.0  0.85250  0.82131  0.65192  1.0000
  C   C2102     1.0  0.97775  0.65091  0.42657  1.0000
  H   H2517     1.0  0.96676  0.58919  0.53720  1.0000
  C   C2103     1.0  0.97778  0.62099  0.56505  1.0000
  C   C2104     1.0  0.86989  0.82154  0.62260  1.0000
  H   H2518     1.0  0.97395  0.49931  0.49421  1.0000
  H   H2519     1.0  0.98599  0.62530  0.46724  1.0000
  S   S564      1.0  0.96591  0.98411  0.60709  1.0000
  H   H2520     1.0  0.98316  0.66276  0.41857  1.0000
  C   C2105     1.0  0.98481  0.95981  0.40931  1.0000
  H   H2521     1.0  0.85628  0.98536  0.58435  1.0000
  H   H2522     1.0  0.99053  0.70567  0.33852  1.0000
  H   H2523     1.0  0.75853  0.89192  0.65583  1.0000
  H   H2524     1.0  0.91009  0.75459  0.66087  1.0000
  H   H2525     1.0  0.87039  0.50059  0.73641  1.0000
  H   H2526     1.0  0.90778  0.64591  0.78424  1.0000
  C   C2106     1.0  0.84767  0.50816  0.75629  1.0000
  Fe  Fe283     1.0  0.97387  0.56346  0.91728  1.0000
  S   S565      1.0  0.94362  0.56866  0.91046  1.0000
  Fe  Fe284     1.0  0.83398  0.58406  0.82700  1.0000
  S   S566      1.0  0.82939  0.56918  0.80218  1.0000
  S   S567      1.0  0.81239  0.60426  0.84111  1.0000
  Fe  Fe285     1.0  0.87495  0.56903  0.82705  1.0000
  S   S568      1.0  0.87233  0.55273  0.80271  1.0000
  S   S569      1.0  0.90512  0.56822  0.83434  1.0000
  Fe  Fe286     1.0  0.85702  0.57830  0.78975  1.0000
  S   S570      1.0  0.86543  0.58354  0.75839  1.0000
  Fe  Fe287     1.0  0.84534  0.54479  0.81669  1.0000
  S   S571      1.0  0.83319  0.51654  0.81920  1.0000
  S   S572      1.0  0.86068  0.59496  0.81356  1.0000
  S   S573      1.0  0.84877  0.55930  0.84217  1.0000
  C   C2107     1.0  0.91302  0.63981  0.77176  1.0000
  C   C2108     1.0  0.90164  0.59369  0.78420  1.0000
  H   H2527     1.0  0.85265  0.81967  0.66726  1.0000
  Fe  Fe288     1.0  0.90509  0.65887  0.67131  1.0000
  S   S574      1.0  0.89215  0.65076  0.70083  1.0000
  H   H2528     1.0  0.80144  0.55065  0.91550  1.0000
  H   H2529     1.0  0.75389  0.63131  0.86966  1.0000
  H   H2530     1.0  0.91139  0.66665  0.75633  1.0000
  C   C2109     1.0  0.93284  0.59672  0.79154  1.0000
  C   C2110     1.0  0.92386  0.61420  0.75384  1.0000
  C   C2111     1.0  0.87310  0.60247  0.74280  1.0000
  C   C2112     1.0  0.88038  0.59901  0.72481  1.0000
  C   C2113     1.0  0.88633  0.61345  0.71185  1.0000
  C   C2114     1.0  0.88493  0.63173  0.71657  1.0000
  C   C2115     1.0  0.87765  0.63517  0.73457  1.0000
  C   C2116     1.0  0.87190  0.62071  0.74760  1.0000
  H   H2531     1.0  0.88140  0.58504  0.72081  1.0000
  H   H2532     1.0  0.89187  0.61047  0.69814  1.0000
  H   H2533     1.0  0.87643  0.64919  0.73847  1.0000
  H   H2534     1.0  0.86621  0.62379  0.76123  1.0000
  H   H2535     1.0  0.93024  0.62141  0.72470  1.0000
  N   N141      1.0  0.94631  0.50841  0.89849  1.0000
  C   C2117     1.0  0.78883  0.60321  0.85008  1.0000
  C   C2118     1.0  0.77931  0.61913  0.85686  1.0000
  C   C2119     1.0  0.76094  0.61888  0.86474  1.0000
  H   H2536     1.0  0.86867  0.50179  0.80221  1.0000
  C   C2120     1.0  0.76122  0.58677  0.85915  1.0000
  C   C2121     1.0  0.77960  0.58700  0.85132  1.0000
  H   H2537     1.0  0.78624  0.63177  0.85599  1.0000
  S   S575      1.0  0.97876  0.55084  0.94624  1.0000
  H   H2538     1.0  0.78667  0.57461  0.84630  1.0000
  H   H2539     1.0  0.85941  0.78792  0.66444  1.0000
  C   C2122     1.0  0.93325  0.56858  0.88908  1.0000
  C   C2123     1.0  0.94368  0.56722  0.87224  1.0000
  C   C2124     1.0  0.93481  0.56702  0.85571  1.0000
  C   C2125     1.0  0.91542  0.56817  0.85575  1.0000
  C   C2126     1.0  0.90498  0.56941  0.87261  1.0000
  C   C2127     1.0  0.91386  0.56964  0.88914  1.0000
  H   H2540     1.0  0.95859  0.56653  0.87191  1.0000
  H   H2541     1.0  0.94305  0.56609  0.84276  1.0000
  H   H2542     1.0  0.89007  0.57036  0.87290  1.0000
  H   H2543     1.0  0.90564  0.57075  0.90208  1.0000
  C   C2128     1.0  0.95721  0.50491  0.91504  1.0000
  H   H2544     1.0  0.97116  0.49818  0.91184  1.0000
  H   H2545     1.0  0.77456  0.56466  0.93267  1.0000
  C   C2129     1.0  0.83817  0.53894  0.76730  1.0000
  H   H2546     1.0  0.83625  0.53502  0.73098  1.0000
  C   C2130     1.0  0.92583  0.62650  0.73798  1.0000
  H   H2547     1.0  0.87315  0.54434  0.76098  1.0000
  C   C2131     1.0  0.78149  0.57320  0.92179  1.0000
  H   H2548     1.0  0.84115  0.55376  0.76605  1.0000
  H   H2549     1.0  0.76376  0.62893  0.92171  1.0000
  C   C2132     1.0  0.77507  0.59193  0.91739  1.0000
  H   H2550     1.0  0.82368  0.53863  0.76362  1.0000
  C   C2133     1.0  0.75287  0.61940  0.92049  1.0000
  C   C2134     1.0  0.92146  0.64535  0.73896  1.0000
  C   C2135     1.0  0.91510  0.65199  0.75580  1.0000
  C   C2136     1.0  0.76143  0.93395  0.67147  1.0000
  N   N142      1.0  0.91493  0.60704  0.78772  1.0000
  H   H2551     1.0  0.93826  0.58823  0.78015  1.0000
  H   H2552     1.0  0.98132  0.56044  0.98769  1.0000
  H   H2553     1.0  0.93239  0.53267  0.90969  1.0000
  H   H2554     1.0  0.97797  0.51127  0.97770  1.0000
  H   H2555     1.0  0.80864  0.60184  0.88279  1.0000
  C   C2137     1.0  0.75465  0.90414  0.66314  1.0000
  H   H2556     1.0  0.92249  0.65475  0.72649  1.0000
  S   S576      1.0  0.92426  0.68218  0.66942  1.0000
  C   C2138     1.0  0.78546  0.60212  0.90316  1.0000
  N   N143      1.0  0.75852  0.60015  0.92766  1.0000
  H   H2557     1.0  0.92106  0.52451  0.89168  1.0000
  H   H2558     1.0  0.77430  0.60840  0.94879  1.0000
  H   H2559     1.0  0.92714  0.59969  0.75226  1.0000
  H   H2560     1.0  0.90614  0.60527  0.81688  1.0000
  H   H2561     1.0  0.91742  0.62556  0.80870  1.0000
  H   H2562     1.0  0.75012  0.60688  0.95548  1.0000
  H   H2563     1.0  0.87749  0.75929  0.67241  1.0000
  H   H2564     1.0  0.76512  0.58629  0.95422  1.0000
  H   H2565     1.0  0.93157  0.58696  0.80429  1.0000
  C   C2139     1.0  0.85911  0.49579  0.74562  1.0000
  H   H2566     1.0  0.74950  0.62008  0.90573  1.0000
  C   C2140     1.0  0.90781  0.61575  0.80479  1.0000
  C   C2141     1.0  0.83320  0.50049  0.76806  1.0000
  H   H2567     1.0  0.90626  0.58559  0.77231  1.0000
  H   H2568     1.0  0.89392  0.62307  0.80320  1.0000
  H   H2569     1.0  0.78176  0.61641  0.89870  1.0000
  H   H2570     1.0  0.94950  0.52212  0.87103  1.0000
  H   H2571     1.0  0.92042  0.51230  0.91470  1.0000
  H   H2572     1.0  0.94345  0.60633  0.79358  1.0000
  C   C2142     1.0  0.95700  0.51945  0.88389  1.0000
  C   C2143     1.0  0.91732  0.62045  0.77124  1.0000
  C   C2144     1.0  0.84225  0.49398  0.81411  1.0000
  H   H2573     1.0  0.85220  0.55155  0.73496  1.0000
  N   N144      1.0  0.85131  0.52794  0.75523  1.0000
  H   H2574     1.0  0.87175  0.52293  0.77520  1.0000
  C   C2145     1.0  0.75173  0.60267  0.86597  1.0000
  C   C2146     1.0  0.87014  0.52962  0.76097  1.0000
  H   H2575     1.0  0.88806  0.60099  0.78110  1.0000
  C   C2147     1.0  0.85006  0.53648  0.73599  1.0000
  H   H2576     1.0  0.82403  0.50860  0.77710  1.0000
  H   H2577     1.0  0.86065  0.53022  0.72617  1.0000
  C   C2148     1.0  0.80664  0.57538  0.89810  1.0000
  C   C2149     1.0  0.79695  0.56506  0.91215  1.0000
  H   H2578     1.0  0.81849  0.56906  0.89043  1.0000
  H   H2579     1.0  0.75434  0.57412  0.85994  1.0000
  H   H2580     1.0  0.89934  0.58345  0.79635  1.0000
  H   H2581     1.0  0.83903  0.53388  0.78215  1.0000
  C   C2150     1.0  0.92922  0.51984  0.90382  1.0000
  C   C2151     1.0  0.80103  0.59390  0.89379  1.0000
  H   H2582     1.0  0.88107  0.52319  0.75162  1.0000
  C   C2152     1.0  0.76220  0.60041  0.94739  1.0000
  H   H2583     1.0  0.74469  0.57478  0.93336  1.0000
  H   H2584     1.0  0.98071  0.68487  0.66973  1.0000
  H   H2585     1.0  0.95954  0.51799  0.92102  1.0000
  H   H2586     1.0  0.95950  0.53313  0.88843  1.0000
  H   H2587     1.0  0.97081  0.51252  0.88023  1.0000
  H   H2588     1.0  0.88368  0.83380  0.66286  1.0000
  C   C2153     1.0  0.90243  0.76778  0.65767  1.0000
  C   C2154     1.0  0.88403  0.77048  0.66420  1.0000
  C   C2155     1.0  0.87378  0.78712  0.65948  1.0000
  H   H2589     1.0  0.95018  0.49580  0.92606  1.0000
  H   H2590     1.0  0.91247  0.49471  0.89190  1.0000
  C   C2156     1.0  0.74258  0.58899  0.92656  1.0000
  H   H2591     1.0  0.77076  0.94486  0.67070  1.0000
  C   C2157     1.0  0.74435  0.93572  0.68165  1.0000
  C   C2158     1.0  0.85981  0.49059  0.80533  1.0000
  C   C2159     1.0  0.76653  0.91824  0.66218  1.0000
  C   C2160     1.0  0.94274  0.49064  0.89163  1.0000
  H   H2592     1.0  0.74122  0.94827  0.68839  1.0000
