data_image0
_chemical_formula_structural       FeS2FeS2FeSFeS3FeS2H2NHCHFeHSHC2SHC2HCHC9H4CHCHFeC6H9NHCHC6H2CHCHCH3CH3CH3CH3CH2CHCH3CH2NHC5H4NC4SH13CHC2HC2NC2HFeS2FeS2FeSFeS3FeS2FeS2FeSFeS3Fe2S3HFeSCSFeS2CFeS2FeS2FeS2FeSFeS3HSC3H3CHC6H4C6H5CNHC4H2C6H4C6H3C6H4C6H4NC2H2C2H2CHCH3CH2C2NC9H14NC8H16C2HCSC2NHCS2CH4C2HCHSH3C5SCH3C2H2CH2SHCH4NHCHC4H2CHCH3CH2C2H2CHCNC2HCHCH3CHCHC2HFeC2H2SCFeHCH5CH4C2H2NHC2H4CHSHC2H2CHCSH3CH2C3FeCHNHCHCHCHC2H2CH5CHC2HCHC2HCSCHCH3C2H5C3H5FeS2FeS2FeSFeS3FeS2FeS2HCHC2SHC2FeCHCH4SC6H4C6H4C2HCH4C4H2NC6H13CFeCH5C2H4CH4C2HCH2NCH3NH2C2HCH2NC3HCHCH2CH2SH4C2H2C5HCHCSCH4CSFeCH4CHFeS2CHCH3FeS2FeS2FeSFeS3FeS2C2FeHC7H5C3HCH2CH2C6H4CSCFeH5CS2CH2CHFeHCHCHC2HCHCSH4NHCHSH6C3H2NCH3CH3NC9H8CHCHFeCHCH2CFeCHSCFeS2FeS2FeS2FeSFeS3FeS2FeS2FeSFeS3FeS2FeS2FeSFeS3FeS2HSH3CFeS2CFeCHC2HCHC3H2CH2NH2C6H4CFeHC6H4C6H4C2H2C3H2C6H3C6H4C8HCHC6H4CH2CH6CH3C2H2CH3CH5C2H7CH2C2HCH2SH2C2H2C2H6CH2CH3CH4CH3C3HC5HCNH2NC6NCH5C3H2C2HSHCH2NC3H2SNHCH5C2HC6H3C2H2SH5C2NSC3NHC3H3C2HCSH3C2H2NCH4C2H2CNH4CH2CH2NH4C3H2SC2H2C2H2CH2FeCH5CHCH4NCHC3SCFeS2FeS2FeS2FeSFeS3C2SC3HSCH4C2HCNHC6H4CSHCHC6H4C2H2CHCHCH2CHC2HCH6C2HFeHCNC7HCH9CHNH4CSH4CH2C2HCH2CNCH5C2HFeH2CSHC2H6FeSFeS2FeS2FeSFeS3FeS2HFeS2FeS2FeSFeS3H2CFeS2HNCHC2HCSCH2CHC2HC6H5C2H3C6H4C3H2C6H4C6H4C2HC2H2SHSC3H5CH3CHSH2CHC3HCH2CHCHC2HCH3FeH2CHCH2CHCHCH3CH2CH2C2HC2HCNC9H14NHC2HFeC2HC3NCNHCH4CSC2HCHCH2SCHCHCHCH2C2H3FeH3SH2FeCSCSHCFeSCH2SHSC4HCHSH2CHC7H4FeHFeC2HCH2FeC7H5CH3CHCHSH2SCH3CSHSCHCHCNHCSH2CHSH3CNC5SCFeHC2H3CH3CH3CHCHC6FeHFeSHSFeSFeSHFeS2FeS2FeSFeS3HCHC3FeS2FeS2FeS2FeSFeS3FeS2H2C2H4C7H4C2H2C2H2C6H4CH4C6H4SHC6H4CH2CH2CH2NCHC2H2CHCH5CHCH4CH4C4SHCHCHSH4C3HFeNC2H4CH3C2H2CH2C2HCHFeN2C3HC3HCHSH5C2H3CHCFeH5C2HC3H8C2H2CH2NCH3CNC2HCH2SHC2HSH2SC2HCHC3N2CH2C2HC2HFeSFeS2FeS2FeSFeS3FeS2CHCH2FeS2FeS2FeSFeS3HCNFeS2C3H2C2H2C3H2C6H9C6H4C6H6C6H6C3HCHC3H4NC6HSH4NH3FeH2NC11H7SCHSHCH2NC9H13SH3NH3CH3CNHC4HCHCH2CHCH2C2H4CHCH2SH2C3H3CSH4CH2CHCH3CH2CH4CHFeHN2C2HCH2C2H2CHCH5C4H2CH3CH4SCHSHSHS2NSH2SCHSHFeSH2C6H5CFeCFeC4SHC2HC3FeC7H2C2H3FeHCFeSC2HC2H2CH4C2HFeCH2SCHC2H3C4H2C2HC2HFeCSHFeCFeHCHCH3NHCSCSNCH3CH2SCH2CSCSH2CHCH4CHCHCH2SFe2SCH2SCSHFeS2FeS2FeSFeS3FeS2FeS2FeS2FeSFeS3C2SH6C3H3C4HC6H8C2HC6H4C2H3C6H5C7H4CNCH2NC9H10CH5CHC3HCHSHC2HC3HC2HC2HCH5CH2C3H2NH3NHCHCHCH4CNHCH2SCH2CH3C2H5C2HCNC4H4C2HC2HCHCH2CH3NHCHCH3C2HCH2SFeSCH4CHC3SFeSFeS2FeS2FeSFeS3FeS2FeS2FeS2FeSFeS3CHNHC2HSH4CH6C3NH2C6H4SH2CH2C7H4C6H4C3H2C6H4CNC9H16C7SHCHCHC3H2CHC2HC3HNCHCH4CSC2HC2HNC5H12CHFeHCHC2H3C2H4CH2CH2CHCH2NCH5C2H5CNC2HNCH6CHCH2C2HCHCSC2H3CH3FeH2C2HC2HCHCFeH4C3SCSHFeCHCH4C3HCHS2HFeSFeS2NH3FeSFeS2C2S2NHFeS2FeS2CH3NH4CHC7H4SC3HCH4C2HFeC9H2FeH4SC5H2CH3CH8FeHCH4CH2CSHCHNC5H2C2HCH3CH2CSCHC5HCH6CHCH3FeCSFeS3FeS2FeS2FeSFeS3FeS2HSH3CFeS2FeS2FeSFeS3NC2H3FeS2H2FeH3C6H6CSC2HC6H4C6H5C2H3CHC6H4CHCH2C2H7CFeHC4H2CH4CHC2H7C3H12CHCH3C2NHCH2CFeCH2C2NCH5CH2CSCHC4HCHNH4SH3NC3H2CHNCH3CHC5HC5H4CH2CH2CHC2NCH2CH2CH2CH2CHC4H3CHC2H2CHSH2CH2SFeSFeS2FeS2FeSFeS3HCHC3FeS2FeS2FeS2FeSFeS3FeS2H4CHCHSHC3H2C6H4CH4C2FeC6H4C3HCHNC7H4C6H5C2NC4HNH8CH3CHCHSH7NC3SC2H3C2H3CHC2HCHCHC3H3C2HC3H2CH2CH2C2HC2HNH2NC9H13CNCFeC7HCSHCHSCH10C3H2CH2CHC2H4C2SFeHCHC2H2CHCH2CSCHC3H3SHSH2FeS2HCFeC3FeSFeSCHSHSCHCH3SH3CHC6H5NH2C3HSCHCHC2H3C2FeH3C6HNH2NH4SCHCHCNH2CHSCHNCHSC5HCH4CH2C2H4CHCH2CFeCHCH5FeCH4CH4C2FeHSHSCSFeS2FeS2FeSFeS3FeS2FeS2FeS2FeSFeS3FeS2CHC3HC6H6CHCHC2H2C6H4C6H4C3H3C8H4CH6S2CHNC5H3C2HC3NC6H2SH2NH4CH4CH2C2H8CSHCHC3H2C2H4CHFeHCHC3H4CH4C3H3C3H3CNCH4NH6NC2H2CH4C3FeH7CHC4HC2H5C3SCH2C2HC2HFeS2FeS2FeSFeS3H2SH3FeS2HCSCHC2HSC2HC6H4CHCH2C6H5C7HNC6H11NC4HC2H13CH2CH2C2HC2FeSH2C2HFeCHNC3HCNHCHCSCHCH4CHCH4CHSFeS2FeS2FeSFeS3FeS2FeS2FeSFeS3CH2C2FeS2HCSH2CH2FeCSFeS2CS2FeS2FeS2FeSFeS3HC7H6C6H5CH2CHC6H4C6H4C13H4C7H4C2H3C4HC2HC2NCHC2H5CH2CH3C2H3C2NC9H15NFeSHC3H2CH4C7H2C2FeH2SH2CH2CHC2HNC2H2CH2CNC2H3CHCHCH4C6H3C2HCH2CH2CH2CHC3HCHCHCNHCH9NC2HCH10CNH2FeHNHCSHNH3C4H2C2SHC2H3CH2CH2CHC5H2CH5CH5CH4CH3CH3CNH6CH2CH2CHCH5CHFeCFeS2FeS2FeSFeS3FeS2FeS2C2FeC2SC3HCHCH3C7H5C2H2C6H4C3H2CH2NC3HCHC2H7CH3CHFeNCHC2HSC2HCSHNH3CH2CNHCH2CH2CH7CHCH4CHCHC2HCHCH2FeCSCSC2H2CSFeCH3FeS2FeS2FeS2FeSFeS3NH2FeS2CHC7H5CH3C4HC6H4CHCHC2HCSH4SCHNH2NHCH3C2H3C2H7SHC2HC3HCHC2H3C2HC2H2CHCH4C3HCHC2NCH2FeCH4C2H2CHCH4C2SHCH6CFeCHC2H2CHS2H2FeS2FeS2FeS2FeSFeS3FeS2FeS2FeSFeS3FeS2FeS2FeSFeS3FeS2FeS2H2CH3C6H4C2HCH3C6H4C6H4C2NFeH2C2H5C7H3C6H4C6H3C6H5C3HFeHCHCH2SHCFeCH3CSCHCHCSHCH2CH3C2H3CH2CSCHNH2CHCH2C4HC3H3FeHNC7HCHCH5NC9H13CNC2H3C3HCH4SC3HC2HCFeHC2H3CH3CH4CNC2HCH3NH7CHSCHCHC2H2CH2C5H5CH2CHSH2CFeH2SHCH2C2H3CH2CH2CHC3HCHC2H3CNH3C2HNCHC2H2CSH3C2FeS2FeS2FeS2FeSFeS3H4S2H2C6H5CH2CFeH2C2H2C7H5CH3CH4CH6CNH2C4H4CFeCS2CSH2CHC2HNHCH3CNHC2HCHCHCHC2H2CHNH2CHCHC2H3CHC2HC2
_chemical_formula_sum              "Fe288 S576 H2592 N144 C2160"
_cell_length_a       70.4176
_cell_length_b       70.3228
_cell_length_c       70.3045
_cell_angle_alpha    84.1155
_cell_angle_beta     84.224
_cell_angle_gamma    84.2157

_space_group_name_H-M_alt    "P 1"
_space_group_IT_number       1

loop_
  _space_group_symop_operation_xyz
  'x, y, z'

loop_
  _atom_site_type_symbol
  _atom_site_label
  _atom_site_symmetry_multiplicity
  _atom_site_fract_x
  _atom_site_fract_y
  _atom_site_fract_z
  _atom_site_occupancy
  Fe  Fe1       1.0  0.18850  0.39596  0.16541  1.0000
  S   S1        1.0  0.15977  0.38523  0.17563  1.0000
  S   S2        1.0  0.21678  0.37722  0.16590  1.0000
  Fe  Fe2       1.0  0.17220  0.43815  0.16269  1.0000
  S   S3        1.0  0.14227  0.43088  0.17290  1.0000
  S   S4        1.0  0.18297  0.46706  0.15143  1.0000
  Fe  Fe3       1.0  0.15569  0.40922  0.19492  1.0000
  S   S5        1.0  0.14609  0.40742  0.22726  1.0000
  Fe  Fe4       1.0  0.14837  0.40739  0.15300  1.0000
  S   S6        1.0  0.12524  0.40050  0.13519  1.0000
  S   S7        1.0  0.18529  0.41862  0.18609  1.0000
  S   S8        1.0  0.17740  0.41598  0.14124  1.0000
  Fe  Fe5       1.0  0.10695  0.41448  0.02346  1.0000
  S   S9        1.0  0.07700  0.42900  0.02424  1.0000
  S   S10       1.0  0.12957  0.41546  0.04430  1.0000
  H   H1        1.0  0.00216  0.38690  0.03003  1.0000
  H   H2        1.0  0.14093  0.49162  0.07277  1.0000
  N   N1        1.0  0.01770  0.47073  0.00323  1.0000
  H   H3        1.0  0.22932  0.32513  0.13108  1.0000
  C   C1        1.0  0.13583  0.48155  0.08435  1.0000
  H   H4        1.0  0.18920  0.36528  0.20095  1.0000
  Fe  Fe6       1.0  0.09776  0.34292  0.32092  1.0000
  H   H5        1.0  0.22942  0.32656  0.09589  1.0000
  S   S11       1.0  0.10934  0.34432  0.28900  1.0000
  H   H6        1.0  0.99798  0.43863  0.00931  1.0000
  C   C2        1.0  0.23203  0.37141  0.14521  1.0000
  C   C3        1.0  0.00270  0.39444  0.01580  1.0000
  S   S12       1.0  0.09951  0.38896  0.00974  1.0000
  H   H7        1.0  0.20771  0.33601  0.22977  1.0000
  C   C4        1.0  0.16537  0.33836  0.27289  1.0000
  C   C5        1.0  0.02895  0.45763  0.01679  1.0000
  H   H8        1.0  0.23334  0.37228  0.09653  1.0000
  C   C6        1.0  0.17097  0.37147  0.08339  1.0000
  H   H9        1.0  0.20101  0.33971  0.08002  1.0000
  C   C7        1.0  0.14481  0.47978  0.10141  1.0000
  C   C8        1.0  0.10359  0.49196  0.05924  1.0000
  C   C9        1.0  0.22608  0.37535  0.12671  1.0000
  C   C10       1.0  0.13455  0.39012  0.24380  1.0000
  C   C11       1.0  0.12946  0.39438  0.26291  1.0000
  C   C12       1.0  0.12122  0.38085  0.27680  1.0000
  C   C13       1.0  0.11814  0.36271  0.27182  1.0000
  C   C14       1.0  0.12298  0.35856  0.25264  1.0000
  C   C15       1.0  0.13097  0.37217  0.23870  1.0000
  H   H10       1.0  0.13206  0.40821  0.26707  1.0000
  H   H11       1.0  0.11761  0.38433  0.29144  1.0000
  H   H12       1.0  0.12057  0.34464  0.24856  1.0000
  H   H13       1.0  0.13439  0.36870  0.22406  1.0000
  C   C16       1.0  0.12421  0.45553  0.11497  1.0000
  H   H14       1.0  0.16483  0.38118  0.29115  1.0000
  C   C17       1.0  0.11520  0.45709  0.09793  1.0000
  H   H15       1.0  0.15801  0.47583  0.18588  1.0000
  Fe  Fe7       1.0  0.06994  0.40489  0.00815  1.0000
  C   C18       1.0  0.12616  0.40566  0.11002  1.0000
  C   C19       1.0  0.11084  0.40150  0.10025  1.0000
  C   C20       1.0  0.11153  0.40451  0.08009  1.0000
  C   C21       1.0  0.12760  0.41171  0.06960  1.0000
  C   C22       1.0  0.14280  0.41611  0.07939  1.0000
  C   C23       1.0  0.14213  0.41305  0.09951  1.0000
  H   H16       1.0  0.09845  0.39572  0.10831  1.0000
  H   H17       1.0  0.09974  0.40109  0.07268  1.0000
  H   H18       1.0  0.15523  0.42180  0.07134  1.0000
  H   H19       1.0  0.15396  0.41640  0.10686  1.0000
  H   H20       1.0  0.02761  0.44219  0.01544  1.0000
  H   H21       1.0  0.17811  0.33125  0.24557  1.0000
  H   H22       1.0  0.13537  0.45320  0.05193  1.0000
  H   H23       1.0  0.21189  0.38224  0.12473  1.0000
  H   H24       1.0  0.09012  0.46091  0.04938  1.0000
  N   N2        1.0  0.16616  0.35434  0.09644  1.0000
  H   H25       1.0  0.15948  0.32463  0.27635  1.0000
  C   C24       1.0  0.16002  0.33988  0.08492  1.0000
  H   H26       1.0  0.02711  0.34828  0.31697  1.0000
  C   C25       1.0  0.18323  0.34623  0.10629  1.0000
  C   C26       1.0  0.18379  0.34539  0.12656  1.0000
  C   C27       1.0  0.20013  0.33912  0.09550  1.0000
  C   C28       1.0  0.20019  0.33763  0.13532  1.0000
  C   C29       1.0  0.21644  0.33140  0.10443  1.0000
  C   C30       1.0  0.21643  0.33057  0.12430  1.0000
  H   H27       1.0  0.17715  0.34742  0.21604  1.0000
  H   H28       1.0  0.14619  0.46521  0.12980  1.0000
  C   C31       1.0  0.16468  0.48863  0.18002  1.0000
  H   H29       1.0  0.17092  0.33611  0.07302  1.0000
  C   C32       1.0  0.10898  0.48423  0.99837  1.0000
  H   H30       1.0  0.15720  0.32639  0.09408  1.0000
  C   C33       1.0  0.16838  0.37023  0.28125  1.0000
  H   H31       1.0  0.23131  0.45973  0.14994  1.0000
  H   H32       1.0  0.21303  0.43585  0.14340  1.0000
  H   H33       1.0  0.17187  0.35083  0.13599  1.0000
  C   C34       1.0  0.16169  0.35222  0.28589  1.0000
  H   H34       1.0  0.10423  0.44749  0.09747  1.0000
  H   H35       1.0  0.11996  0.44514  0.12677  1.0000
  H   H36       1.0  0.13724  0.47820  0.04451  1.0000
  C   C35       1.0  0.02047  0.39907  0.00643  1.0000
  H   H37       1.0  0.04459  0.45929  0.01408  1.0000
  H   H38       1.0  0.10343  0.19947  0.32157  1.0000
  H   H39       1.0  0.14665  0.34524  0.07805  1.0000
  C   C36       1.0  0.14944  0.36033  0.10982  1.0000
  H   H40       1.0  0.17563  0.38272  0.09150  1.0000
  H   H41       1.0  0.13679  0.36621  0.10204  1.0000
  H   H42       1.0  0.15265  0.37197  0.11830  1.0000
  C   C37       1.0  0.12077  0.47020  0.08205  1.0000
  H   H43       1.0  0.15293  0.34924  0.29927  1.0000
  H   H44       1.0  0.08453  0.46220  0.07464  1.0000
  C   C38       1.0  0.09646  0.45915  0.06343  1.0000
  H   H45       1.0  0.23003  0.42824  0.17148  1.0000
  C   C39       1.0  0.13902  0.46678  0.11668  1.0000
  H   H46       1.0  0.21988  0.35418  0.21534  1.0000
  H   H47       1.0  0.18265  0.36807  0.07208  1.0000
  H   H48       1.0  0.16819  0.37211  0.21637  1.0000
  C   C40       1.0  0.17586  0.34243  0.25521  1.0000
  H   H49       1.0  0.15841  0.37799  0.07575  1.0000
  H   H50       1.0  0.12071  0.46541  0.03437  1.0000
  N   N3        1.0  0.11199  0.47195  0.06358  1.0000
  H   H51       1.0  0.14476  0.34811  0.11994  1.0000
  C   C41       1.0  0.22561  0.42878  0.13507  1.0000
  C   C42       1.0  0.12696  0.46707  0.04798  1.0000
  C   C43       1.0  0.01318  0.34545  0.32408  1.0000
  C   C44       1.0  0.17865  0.37457  0.26350  1.0000
  C   C45       1.0  0.17750  0.48813  0.16351  1.0000
  H   H52       1.0  0.20055  0.33759  0.15071  1.0000
  H   H53       1.0  0.18264  0.38908  0.26059  1.0000
  H   H54       1.0  0.22324  0.41331  0.13611  1.0000
  H   H55       1.0  0.10195  0.44378  0.06556  1.0000
  N   N4        1.0  0.19358  0.36472  0.23095  1.0000
  C   C46       1.0  0.19967  0.38451  0.22755  1.0000
  C   C47       1.0  0.21110  0.35116  0.22924  1.0000
  C   C48       1.0  0.18154  0.36221  0.21543  1.0000
  C   C49       1.0  0.18276  0.36071  0.24990  1.0000
  S   S13       1.0  0.04162  0.39245  0.01814  1.0000
  H   H56       1.0  0.20765  0.38705  0.21313  1.0000
  H   H57       1.0  0.18706  0.39546  0.22792  1.0000
  H   H58       1.0  0.20929  0.38733  0.23836  1.0000
  H   H59       1.0  0.22024  0.35213  0.24109  1.0000
  H   H60       1.0  0.02049  0.49583  0.01768  1.0000
  H   H61       1.0  0.02087  0.30346  0.31880  1.0000
  H   H62       1.0  0.99947  0.34729  0.29771  1.0000
  H   H63       1.0  0.02443  0.46046  0.03193  1.0000
  H   H64       1.0  0.03970  0.49042  0.99991  1.0000
  H   H65       1.0  0.99854  0.34996  0.00580  1.0000
  H   H66       1.0  0.22510  0.43497  0.11989  1.0000
  H   H67       1.0  0.13477  0.49358  0.00718  1.0000
  H   H68       1.0  0.15652  0.48830  0.10275  1.0000
  C   C50       1.0  0.23825  0.36963  0.11074  1.0000
  H   H69       1.0  0.09599  0.49352  0.04593  1.0000
  C   C51       1.0  0.99748  0.34497  0.31322  1.0000
  C   C52       1.0  0.02395  0.49029  0.00334  1.0000
  H   H70       1.0  0.24339  0.40700  0.16332  1.0000
  C   C53       1.0  0.24465  0.45279  0.14262  1.0000
  C   C54       1.0  0.24325  0.42292  0.16279  1.0000
  N   N5        1.0  0.24391  0.43175  0.14268  1.0000
  C   C55       1.0  0.08943  0.48892  0.99642  1.0000
  C   C56       1.0  0.99690  0.46979  0.00853  1.0000
  H   H71       1.0  0.24627  0.45975  0.12766  1.0000
  Fe  Fe8       1.0  0.13932  0.15886  0.40570  1.0000
  S   S14       1.0  0.13876  0.18232  0.42521  1.0000
  S   S15       1.0  0.10935  0.15717  0.39671  1.0000
  Fe  Fe9       1.0  0.18370  0.15056  0.40496  1.0000
  S   S16       1.0  0.18551  0.17377  0.42444  1.0000
  S   S17       1.0  0.20988  0.12869  0.39930  1.0000
  Fe  Fe10      1.0  0.15962  0.16243  0.44163  1.0000
  S   S18       1.0  0.15361  0.15308  0.47351  1.0000
  Fe  Fe11      1.0  0.16430  0.19160  0.40619  1.0000
  S   S19       1.0  0.16802  0.22270  0.39494  1.0000
  S   S20       1.0  0.15859  0.13832  0.42323  1.0000
  S   S21       1.0  0.16410  0.16915  0.38557  1.0000
  Fe  Fe12      1.0  0.14875  0.16088  0.60169  1.0000
  S   S22       1.0  0.15458  0.18735  0.58221  1.0000
  S   S23       1.0  0.11689  0.15782  0.60056  1.0000
  Fe  Fe13      1.0  0.18960  0.15770  0.61499  1.0000
  S   S24       1.0  0.19726  0.18452  0.59659  1.0000
  S   S25       1.0  0.20876  0.14035  0.63668  1.0000
  Fe  Fe14      1.0  0.16776  0.19763  0.60658  1.0000
  S   S26       1.0  0.15848  0.22959  0.60892  1.0000
  Fe  Fe15      1.0  0.18308  0.17230  0.57375  1.0000
  S   S27       1.0  0.19564  0.17589  0.54262  1.0000
  S   S28       1.0  0.16080  0.17178  0.62662  1.0000
  S   S29       1.0  0.17672  0.14474  0.59144  1.0000
  Fe  Fe16      1.0  0.08507  0.34694  0.64989  1.0000
  Fe  Fe17      1.0  0.02399  0.08902  0.41101  1.0000
  S   S30       1.0  0.05656  0.08772  0.40686  1.0000
  S   S31       1.0  0.01398  0.06168  0.42667  1.0000
  S   S32       1.0  0.03320  0.08292  0.56737  1.0000
  H   H72       1.0  0.12165  0.32202  0.44340  1.0000
  Fe  Fe18      1.0  0.03495  0.09291  0.59631  1.0000
  S   S33       1.0  0.06457  0.08806  0.60720  1.0000
  C   C57       1.0  0.00599  0.11847  0.49818  1.0000
  S   S34       1.0  0.07220  0.36310  0.62381  1.0000
  Fe  Fe19      1.0  0.09765  0.35461  0.36161  1.0000
  S   S35       1.0  0.07774  0.33292  0.37410  1.0000
  S   S36       1.0  0.10967  0.37432  0.38022  1.0000
  C   C58       1.0  0.04017  0.40806  0.43017  1.0000
  Fe  Fe20      1.0  0.09545  0.31229  0.35575  1.0000
  S   S37       1.0  0.09794  0.28141  0.36964  1.0000
  S   S38       1.0  0.11696  0.33337  0.34474  1.0000
  Fe  Fe21      1.0  0.08896  0.44946  0.49500  1.0000
  S   S39       1.0  0.10633  0.42082  0.49243  1.0000
  S   S40       1.0  0.09669  0.47877  0.48164  1.0000
  Fe  Fe22      1.0  0.05497  0.43159  0.51630  1.0000
  S   S41       1.0  0.06890  0.40158  0.51588  1.0000
  S   S42       1.0  0.02502  0.44082  0.52788  1.0000
  Fe  Fe23      1.0  0.09488  0.41407  0.52333  1.0000
  S   S43       1.0  0.11360  0.39896  0.54573  1.0000
  Fe  Fe24      1.0  0.07908  0.41017  0.48506  1.0000
  S   S44       1.0  0.07328  0.38842  0.46491  1.0000
  S   S45       1.0  0.08000  0.44360  0.52637  1.0000
  S   S46       1.0  0.06270  0.43930  0.48506  1.0000
  H   H73       1.0  0.08746  0.18725  0.33925  1.0000
  S   S47       1.0  0.07989  0.36565  0.33715  1.0000
  C   C59       1.0  0.11714  0.23295  0.34019  1.0000
  C   C60       1.0  0.02093  0.35998  0.58859  1.0000
  C   C61       1.0  0.01618  0.40424  0.52551  1.0000
  H   H74       1.0  0.12110  0.43827  0.54985  1.0000
  H   H75       1.0  0.11198  0.19403  0.65081  1.0000
  H   H76       1.0  0.02966  0.39952  0.53136  1.0000
  C   C62       1.0  0.12943  0.24744  0.33520  1.0000
  H   H77       1.0  0.12732  0.28935  0.63288  1.0000
  C   C63       1.0  0.09943  0.37824  0.40373  1.0000
  C   C64       1.0  0.10649  0.39194  0.41375  1.0000
  C   C65       1.0  0.09872  0.39528  0.43254  1.0000
  C   C66       1.0  0.08399  0.38471  0.44153  1.0000
  C   C67       1.0  0.07714  0.37082  0.43161  1.0000
  C   C68       1.0  0.08466  0.36775  0.41275  1.0000
  H   H78       1.0  0.11794  0.40010  0.40691  1.0000
  H   H79       1.0  0.10414  0.40598  0.44004  1.0000
  H   H80       1.0  0.06562  0.36271  0.43839  1.0000
  H   H81       1.0  0.07887  0.35741  0.40515  1.0000
  C   C69       1.0  0.08428  0.37228  0.60207  1.0000
  C   C70       1.0  0.10424  0.36994  0.59845  1.0000
  C   C71       1.0  0.11310  0.37773  0.58090  1.0000
  C   C72       1.0  0.10208  0.38787  0.56690  1.0000
  C   C73       1.0  0.08214  0.39008  0.57052  1.0000
  C   C74       1.0  0.07332  0.38242  0.58806  1.0000
  H   H82       1.0  0.11280  0.36211  0.60913  1.0000
  H   H83       1.0  0.12855  0.37595  0.57818  1.0000
  H   H84       1.0  0.07351  0.39795  0.55992  1.0000
  H   H85       1.0  0.05790  0.38447  0.59084  1.0000
  H   H86       1.0  0.04072  0.47871  0.52149  1.0000
  C   C75       1.0  0.11596  0.19811  0.63537  1.0000
  N   N6        1.0  0.22027  0.13146  0.45746  1.0000
  H   H87       1.0  0.12269  0.31043  0.38482  1.0000
  C   C76       1.0  0.14779  0.24359  0.62758  1.0000
  C   C77       1.0  0.14110  0.26285  0.62273  1.0000
  C   C78       1.0  0.13238  0.27459  0.63688  1.0000
  C   C79       1.0  0.14583  0.23622  0.64686  1.0000
  H   H88       1.0  0.19794  0.13062  0.43877  1.0000
  H   H89       1.0  0.01788  0.42526  0.46026  1.0000
  C   C80       1.0  0.07928  0.10737  0.60499  1.0000
  C   C81       1.0  0.09887  0.10378  0.60782  1.0000
  C   C82       1.0  0.11076  0.11897  0.60642  1.0000
  C   C83       1.0  0.10301  0.13791  0.60249  1.0000
  C   C84       1.0  0.08343  0.14147  0.59975  1.0000
  C   C85       1.0  0.07168  0.12630  0.60078  1.0000
  H   H90       1.0  0.10488  0.08918  0.61115  1.0000
  H   H91       1.0  0.12580  0.11604  0.60861  1.0000
  H   H92       1.0  0.07722  0.15606  0.59687  1.0000
  H   H93       1.0  0.05662  0.12930  0.59872  1.0000
  C   C86       1.0  0.14850  0.23905  0.38801  1.0000
  C   C87       1.0  0.15197  0.25740  0.37912  1.0000
  C   C88       1.0  0.13671  0.27072  0.37354  1.0000
  C   C89       1.0  0.11782  0.26580  0.37696  1.0000
  C   C90       1.0  0.11437  0.24761  0.38617  1.0000
  C   C91       1.0  0.12961  0.23429  0.39162  1.0000
  H   H94       1.0  0.16655  0.26125  0.37642  1.0000
  H   H95       1.0  0.13962  0.28459  0.36633  1.0000
  H   H96       1.0  0.12676  0.22042  0.39884  1.0000
  C   C92       1.0  0.16640  0.15902  0.49212  1.0000
  C   C93       1.0  0.17852  0.17381  0.48940  1.0000
  C   C94       1.0  0.18732  0.17891  0.50504  1.0000
  C   C95       1.0  0.18389  0.16945  0.52349  1.0000
  C   C96       1.0  0.17205  0.15442  0.52610  1.0000
  C   C97       1.0  0.16353  0.14910  0.51042  1.0000
  H   H97       1.0  0.18089  0.18152  0.47537  1.0000
  H   H98       1.0  0.19670  0.19038  0.50289  1.0000
  H   H99       1.0  0.16984  0.14666  0.54012  1.0000
  H   H100      1.0  0.15451  0.13736  0.51248  1.0000
  C   C98       1.0  0.09491  0.13766  0.40076  1.0000
  C   C99       1.0  0.10281  0.11864  0.40339  1.0000
  C   C100      1.0  0.09087  0.10351  0.40504  1.0000
  C   C101      1.0  0.07091  0.10727  0.40452  1.0000
  C   C102      1.0  0.06296  0.12631  0.40238  1.0000
  C   C103      1.0  0.07495  0.14141  0.40027  1.0000
  H   H101      1.0  0.11816  0.11555  0.40360  1.0000
  H   H102      1.0  0.09715  0.08881  0.40664  1.0000
  H   H103      1.0  0.04763  0.12939  0.40194  1.0000
  H   H104      1.0  0.06872  0.15609  0.39816  1.0000
  N   N7        1.0  0.01596  0.39537  0.45676  1.0000
  C   C104      1.0  0.23144  0.12810  0.38340  1.0000
  C   C105      1.0  0.02251  0.38155  0.42479  1.0000
  H   H105      1.0  0.12579  0.41755  0.57605  1.0000
  H   H106      1.0  0.09070  0.32372  0.41502  1.0000
  C   C106      1.0  0.09987  0.31007  0.41782  1.0000
  C   C107      1.0  0.15353  0.29612  0.41776  1.0000
  H   H107      1.0  0.08561  0.02054  0.60406  1.0000
  H   H108      1.0  0.15990  0.30945  0.41366  1.0000
  C   C108      1.0  0.15862  0.26190  0.42636  1.0000
  H   H109      1.0  0.22341  0.10035  0.45993  1.0000
  C   C109      1.0  0.23527  0.14284  0.36899  1.0000
  H   H110      1.0  0.13339  0.24677  0.43133  1.0000
  H   H111      1.0  0.09547  0.48107  0.52290  1.0000
  H   H112      1.0  0.09980  0.24377  0.38906  1.0000
  C   C110      1.0  0.05196  0.03766  0.59272  1.0000
  H   H113      1.0  0.11457  0.45153  0.61374  1.0000
  H   H114      1.0  0.08753  0.18486  0.61860  1.0000
  C   C111      1.0  0.00589  0.01397  0.39800  1.0000
  C   C112      1.0  0.13891  0.26069  0.42795  1.0000
  N   N8        1.0  0.06069  0.09329  0.46949  1.0000
  C   C113      1.0  0.06912  0.07765  0.45774  1.0000
  C   C114      1.0  0.05189  0.08429  0.48792  1.0000
  C   C115      1.0  0.04503  0.10441  0.45943  1.0000
  C   C116      1.0  0.07571  0.10594  0.47192  1.0000
  C   C117      1.0  0.08455  0.11652  0.45572  1.0000
  C   C118      1.0  0.08235  0.10781  0.49005  1.0000
  C   C119      1.0  0.09918  0.12810  0.45744  1.0000
  C   C120      1.0  0.09708  0.11937  0.49160  1.0000
  C   C121      1.0  0.10547  0.12948  0.47535  1.0000
  H   H115      1.0  0.08104  0.06890  0.46466  1.0000
  H   H116      1.0  0.05821  0.06790  0.45535  1.0000
  H   H117      1.0  0.07501  0.08324  0.44318  1.0000
  H   H118      1.0  0.06255  0.07460  0.49579  1.0000
  H   H119      1.0  0.04029  0.07531  0.48559  1.0000
  H   H120      1.0  0.04513  0.09535  0.49739  1.0000
  H   H121      1.0  0.04967  0.10942  0.44431  1.0000
  H   H122      1.0  0.03300  0.09550  0.45859  1.0000
  H   H123      1.0  0.03920  0.11721  0.46698  1.0000
  H   H124      1.0  0.08033  0.11578  0.44150  1.0000
  H   H125      1.0  0.07644  0.10049  0.50324  1.0000
  H   H126      1.0  0.10201  0.12058  0.50552  1.0000
  H   H127      1.0  0.11691  0.13838  0.47659  1.0000
  H   H128      1.0  0.05525  0.05292  0.59187  1.0000
  N   N9        1.0  0.11115  0.16767  0.54053  1.0000
  C   C122      1.0  0.10415  0.18038  0.55582  1.0000
  C   C123      1.0  0.12381  0.17860  0.52611  1.0000
  C   C124      1.0  0.09454  0.16109  0.53247  1.0000
  C   C125      1.0  0.08150  0.14985  0.54434  1.0000
  C   C126      1.0  0.09050  0.16589  0.51303  1.0000
  C   C127      1.0  0.06542  0.14391  0.53725  1.0000
  C   C128      1.0  0.07434  0.15989  0.50612  1.0000
  C   C129      1.0  0.06182  0.14896  0.51820  1.0000
  H   H129      1.0  0.09563  0.17282  0.56792  1.0000
  H   H130      1.0  0.11627  0.18567  0.56220  1.0000
  H   H131      1.0  0.09491  0.19304  0.55015  1.0000
  H   H132      1.0  0.11627  0.19227  0.52021  1.0000
  H   H133      1.0  0.13664  0.18257  0.53241  1.0000
  H   H134      1.0  0.12934  0.17003  0.51396  1.0000
  H   H135      1.0  0.08353  0.14570  0.55928  1.0000
  H   H136      1.0  0.09956  0.17430  0.50284  1.0000
  H   H137      1.0  0.05553  0.13548  0.54662  1.0000
  H   H138      1.0  0.07151  0.16368  0.49125  1.0000
  H   H139      1.0  0.04924  0.14442  0.51285  1.0000
  H   H140      1.0  0.03656  0.40883  0.47040  1.0000
  H   H141      1.0  0.11543  0.33429  0.39136  1.0000
  H   H142      1.0  0.07899  0.19249  0.64150  1.0000
  H   H143      1.0  0.09617  0.30015  0.40762  1.0000
  H   H144      1.0  0.00928  0.37552  0.52279  1.0000
  C   C130      1.0  0.00124  0.47479  0.48427  1.0000
  C   C131      1.0  0.23434  0.07851  0.62506  1.0000
  H   H145      1.0  0.22499  0.15525  0.36726  1.0000
  C   C132      1.0  0.03224  0.38086  0.40645  1.0000
  S   S48       1.0  0.01006  0.07681  0.60984  1.0000
  C   C133      1.0  0.10202  0.44742  0.60715  1.0000
  C   C134      1.0  0.04500  0.99809  0.59826  1.0000
  N   N10       1.0  0.11105  0.19853  0.35056  1.0000
  H   H146      1.0  0.06076  0.41683  0.40691  1.0000
  C   C135      1.0  0.99925  0.01853  0.58369  1.0000
  S   S49       1.0  0.00239  0.04060  0.56983  1.0000
  S   S50       1.0  0.07385  0.31836  0.66017  1.0000
  C   C136      1.0  0.13185  0.48430  0.54662  1.0000
  H   H147      1.0  0.14154  0.48200  0.46513  1.0000
  H   H148      1.0  0.13757  0.49517  0.53614  1.0000
  H   H149      1.0  0.02550  0.35224  0.61771  1.0000
  H   H150      1.0  0.07134  0.20629  0.62021  1.0000
  C   C137      1.0  0.08380  0.19786  0.62655  1.0000
  C   C138      1.0  0.12433  0.21367  0.34524  1.0000
  H   H151      1.0  0.19185  0.14562  0.45811  1.0000
  C   C139      1.0  0.00459  0.39067  0.52083  1.0000
  H   H152      1.0  0.10080  0.24865  0.61118  1.0000
  S   S51       1.0  0.07736  0.32011  0.33096  1.0000
  H   H153      1.0  0.07949  0.02267  0.62921  1.0000
  H   H154      1.0  0.06112  0.03111  0.58083  1.0000
  H   H155      1.0  0.01299  0.36762  0.55984  1.0000
  C   C140      1.0  0.02619  0.39517  0.43727  1.0000
  C   C141      1.0  0.12307  0.15092  0.54902  1.0000
  C   C142      1.0  0.22173  0.13359  0.47800  1.0000
  C   C143      1.0  0.12229  0.45217  0.55472  1.0000
  C   C144      1.0  0.22873  0.14685  0.44415  1.0000
  S   S52       1.0  0.00632  0.10833  0.43085  1.0000
  C   C145      1.0  0.22246  0.13776  0.51768  1.0000
  H   H156      1.0  0.12958  0.17613  0.33752  1.0000
  H   H157      1.0  0.03890  0.29524  0.34732  1.0000
  H   H158      1.0  0.11349  0.47946  0.59287  1.0000
  C   C146      1.0  0.12381  0.32772  0.42804  1.0000
  C   C147      1.0  0.16593  0.27957  0.42128  1.0000
  H   H159      1.0  0.11528  0.14296  0.56137  1.0000
  H   H160      1.0  0.19246  0.12012  0.46256  1.0000
  C   C148      1.0  0.19979  0.13193  0.45409  1.0000
  H   H161      1.0  0.18131  0.28036  0.41978  1.0000
  H   H162      1.0  0.99783  0.11209  0.47095  1.0000
  S   S53       1.0  0.01687  0.12072  0.59034  1.0000
  H   H163      1.0  0.10578  0.13592  0.44474  1.0000
  C   C149      1.0  0.15663  0.22474  0.34124  1.0000
  H   H164      1.0  0.12807  0.14063  0.53819  1.0000
  H   H165      1.0  0.13594  0.15539  0.55483  1.0000
  H   H166      1.0  0.09555  0.30429  0.43278  1.0000
  H   H167      1.0  0.16826  0.24898  0.42852  1.0000
  N   N11       1.0  0.12058  0.31314  0.41513  1.0000
  H   H168      1.0  0.11384  0.34096  0.42596  1.0000
  C   C150      1.0  0.14450  0.21007  0.34598  1.0000
  H   H169      1.0  0.11135  0.27493  0.42509  1.0000
  C   C151      1.0  0.13335  0.29541  0.41917  1.0000
  C   C152      1.0  0.12637  0.27710  0.42427  1.0000
  C   C153      1.0  0.12487  0.32101  0.39496  1.0000
  C   C154      1.0  0.14914  0.24333  0.33566  1.0000
  H   H170      1.0  0.13845  0.33259  0.42540  1.0000
  H   H171      1.0  0.03622  0.37386  0.46915  1.0000
  C   C155      1.0  0.13025  0.26716  0.65612  1.0000
  H   H172      1.0  0.03609  0.36111  0.58453  1.0000
  C   C156      1.0  0.00038  0.08018  0.51051  1.0000
  H   H173      1.0  0.04554  0.05325  0.62511  1.0000
  H   H174      1.0  0.03666  0.03793  0.58987  1.0000
  H   H175      1.0  0.13980  0.32503  0.39189  1.0000
  C   C157      1.0  0.01017  0.42382  0.52293  1.0000
  H   H176      1.0  0.22217  0.13975  0.53282  1.0000
  H   H177      1.0  0.07940  0.44793  0.57815  1.0000
  C   C158      1.0  0.04965  0.40735  0.41175  1.0000
  C   C159      1.0  0.09511  0.24604  0.62596  1.0000
  H   H178      1.0  0.01496  0.02565  0.39688  1.0000
  H   H179      1.0  0.12025  0.18446  0.62871  1.0000
  C   C160      1.0  0.11797  0.47496  0.57876  1.0000
  H   H180      1.0  0.11156  0.19989  0.38087  1.0000
  C   C161      1.0  0.21461  0.11978  0.49243  1.0000
  N   N12       1.0  0.10765  0.44117  0.58766  1.0000
  C   C162      1.0  0.05139  0.00693  0.61349  1.0000
  C   C163      1.0  0.02049  0.37675  0.46807  1.0000
  H   H181      1.0  0.01311  0.41065  0.48219  1.0000
  C   C164      1.0  0.08722  0.22587  0.65516  1.0000
  H   H182      1.0  0.09607  0.22151  0.59669  1.0000
  C   C165      1.0  0.07594  0.02858  0.61460  1.0000
  H   H183      1.0  0.02973  0.37000  0.39730  1.0000
  H   H184      1.0  0.09072  0.19049  0.37434  1.0000
  H   H185      1.0  0.01234  0.37111  0.42931  1.0000
  C   C166      1.0  0.99690  0.01703  0.60376  1.0000
  H   H186      1.0  0.05361  0.39289  0.38593  1.0000
  C   C167      1.0  0.00033  0.10644  0.48542  1.0000
  H   H187      1.0  0.23489  0.07833  0.60962  1.0000
  C   C168      1.0  0.10733  0.21350  0.60514  1.0000
  C   C169      1.0  0.24511  0.11209  0.38533  1.0000
  H   H188      1.0  0.11057  0.16759  0.35428  1.0000
  Fe  Fe25      1.0  0.01334  0.10939  0.56230  1.0000
  C   C170      1.0  0.22936  0.14959  0.48435  1.0000
  C   C171      1.0  0.12175  0.42410  0.58978  1.0000
  H   H189      1.0  0.02862  0.47221  0.49501  1.0000
  H   H190      1.0  0.99728  0.36200  0.39563  1.0000
  S   S54       1.0  0.02916  0.34515  0.35864  1.0000
  C   C172      1.0  0.10113  0.20138  0.36978  1.0000
  Fe  Fe26      1.0  0.06102  0.34220  0.34869  1.0000
  H   H191      1.0  0.09322  0.21585  0.37026  1.0000
  C   C173      1.0  0.09021  0.43543  0.58038  1.0000
  H   H192      1.0  0.24128  0.14435  0.60694  1.0000
  H   H193      1.0  0.08337  0.42424  0.59041  1.0000
  H   H194      1.0  0.00800  0.13333  0.49348  1.0000
  H   H195      1.0  0.11596  0.41249  0.60007  1.0000
  H   H196      1.0  0.15126  0.22159  0.65092  1.0000
  C   C174      1.0  0.13710  0.24795  0.66102  1.0000
  H   H197      1.0  0.09015  0.27654  0.62826  1.0000
  H   H198      1.0  0.01565  0.36447  0.46171  1.0000
  H   H199      1.0  0.20688  0.09820  0.66167  1.0000
  H   H200      1.0  0.20822  0.09730  0.62670  1.0000
  C   C175      1.0  0.13009  0.46605  0.54136  1.0000
  C   C176      1.0  0.01065  0.34270  0.34413  1.0000
  H   H201      1.0  0.08621  0.21261  0.33720  1.0000
  H   H202      1.0  0.23489  0.16414  0.50858  1.0000
  N   N13       1.0  0.10027  0.20962  0.62568  1.0000
  H   H203      1.0  0.24236  0.10054  0.39634  1.0000
  C   C177      1.0  0.09433  0.22724  0.63547  1.0000
  C   C178      1.0  0.23020  0.11285  0.45217  1.0000
  H   H204      1.0  0.09595  0.43569  0.61710  1.0000
  H   H205      1.0  0.14268  0.26876  0.60788  1.0000
  H   H206      1.0  0.20825  0.10746  0.48872  1.0000
  H   H207      1.0  0.02786  0.03638  0.62531  1.0000
  C   C179      1.0  0.21921  0.08905  0.63464  1.0000
  H   H208      1.0  0.04461  0.41837  0.43881  1.0000
  S   S55       1.0  0.01586  0.12598  0.53329  1.0000
  H   H209      1.0  0.13449  0.46268  0.52675  1.0000
  C   C180      1.0  0.02114  0.41077  0.46775  1.0000
  C   C181      1.0  0.23423  0.13524  0.63673  1.0000
  H   H210      1.0  0.09074  0.45971  0.60683  1.0000
  H   H211      1.0  0.12891  0.20613  0.63433  1.0000
  C   C182      1.0  0.04331  0.03766  0.62652  1.0000
  H   H212      1.0  0.13522  0.42786  0.59491  1.0000
  C   C183      1.0  0.99867  0.00211  0.57406  1.0000
  S   S56       1.0  0.00161  0.09114  0.38968  1.0000
  H   H213      1.0  0.04642  0.03215  0.64135  1.0000
  H   H214      1.0  0.09341  0.42918  0.56642  1.0000
  H   H215      1.0  0.10195  0.23721  0.34067  1.0000
  C   C184      1.0  0.11601  0.45615  0.57387  1.0000
  H   H216      1.0  0.12018  0.22180  0.60349  1.0000
  H   H217      1.0  0.02299  0.28057  0.37740  1.0000
  C   C185      1.0  0.04570  0.39380  0.39993  1.0000
  C   C186      1.0  0.12091  0.17878  0.35127  1.0000
  C   C187      1.0  0.22966  0.15153  0.50393  1.0000
  Fe  Fe27      1.0  0.00692  0.06911  0.58026  1.0000
  C   C188      1.0  0.21497  0.12190  0.51195  1.0000
  H   H218      1.0  0.22989  0.11129  0.43655  1.0000
  N   N14       1.0  0.05553  0.02732  0.61171  1.0000
  H   H219      1.0  0.22119  0.16123  0.44648  1.0000
  C   C189      1.0  0.24193  0.12722  0.65384  1.0000
  H   H220      1.0  0.07961  0.04379  0.61284  1.0000
  C   C190      1.0  0.01495  0.28413  0.36495  1.0000
  H   H221      1.0  0.01345  0.33280  0.64377  1.0000
  C   C191      1.0  0.01457  0.35480  0.60775  1.0000
  H   H222      1.0  0.22749  0.14473  0.42883  1.0000
  C   C192      1.0  0.00795  0.36361  0.57466  1.0000
  C   C193      1.0  0.00603  0.09213  0.52316  1.0000
  H   H223      1.0  0.11194  0.19996  0.59834  1.0000
  H   H224      1.0  0.00994  0.35812  0.64738  1.0000
  C   C194      1.0  0.08232  0.26043  0.65498  1.0000
  H   H225      1.0  0.23478  0.16104  0.47456  1.0000
  H   H226      1.0  0.13035  0.17595  0.36319  1.0000
  H   H227      1.0  0.01337  0.37654  0.48297  1.0000
  H   H228      1.0  0.12354  0.26213  0.33183  1.0000
  H   H229      1.0  0.04254  0.00576  0.58448  1.0000
  C   C195      1.0  0.02400  0.29226  0.34797  1.0000
  H   H230      1.0  0.15855  0.25475  0.33250  1.0000
  C   C196      1.0  0.01563  0.48159  0.49335  1.0000
  C   C197      1.0  0.01380  0.29689  0.33191  1.0000
  H   H231      1.0  0.00829  0.08633  0.53761  1.0000
  C   C198      1.0  0.12578  0.48876  0.56525  1.0000
  H   H232      1.0  0.20901  0.11146  0.52274  1.0000
  C   C199      1.0  0.21848  0.08952  0.65444  1.0000
  C   C200      1.0  0.00881  0.11128  0.51711  1.0000
  H   H233      1.0  0.02108  0.48924  0.53629  1.0000
  C   C201      1.0  0.08901  0.26232  0.63563  1.0000
  S   S57       1.0  0.11468  0.33870  0.65966  1.0000
  C   C202      1.0  0.09646  0.19958  0.33651  1.0000
  H   H234      1.0  0.05205  0.49482  0.49122  1.0000
  C   C203      1.0  0.00256  0.34487  0.64722  1.0000
  H   H235      1.0  0.00023  0.00327  0.55855  1.0000
  H   H236      1.0  0.00327  0.46047  0.47952  1.0000
  H   H237      1.0  0.05856  0.00090  0.64317  1.0000
  C   C204      1.0  0.09508  0.49544  0.51580  1.0000
  C   C205      1.0  0.03393  0.49256  0.52637  1.0000
  H   H238      1.0  0.15128  0.19616  0.35062  1.0000
  H   H239      1.0  0.17190  0.22180  0.34253  1.0000
  H   H240      1.0  0.00548  0.00874  0.44864  1.0000
  H   H241      1.0  0.99826  0.06537  0.51539  1.0000
  H   H242      1.0  0.00743  0.01606  0.51311  1.0000
  C   C206      1.0  0.99763  0.08725  0.49162  1.0000
  C   C207      1.0  0.00455  0.00041  0.48885  1.0000
  C   C208      1.0  0.00903  0.00210  0.50752  1.0000
  H   H243      1.0  0.99967  0.01358  0.48073  1.0000
  H   H244      1.0  0.99720  0.02960  0.61131  1.0000
  H   H245      1.0  0.24427  0.14713  0.44567  1.0000
  H   H246      1.0  0.24549  0.11155  0.45529  1.0000
  H   H247      1.0  0.07828  0.27310  0.66256  1.0000
  Fe  Fe28      1.0  0.18363  0.39970  0.83538  1.0000
  S   S58       1.0  0.16240  0.37767  0.83634  1.0000
  S   S59       1.0  0.21135  0.39771  0.85002  1.0000
  Fe  Fe29      1.0  0.15551  0.43231  0.81980  1.0000
  S   S60       1.0  0.13243  0.41249  0.81900  1.0000
  S   S61       1.0  0.14631  0.46430  0.81407  1.0000
  Fe  Fe30      1.0  0.14064  0.40011  0.84799  1.0000
  S   S62       1.0  0.11615  0.39540  0.87086  1.0000
  Fe  Fe31      1.0  0.15555  0.39150  0.80688  1.0000
  S   S63       1.0  0.14923  0.36969  0.78643  1.0000
  S   S64       1.0  0.16212  0.42102  0.84949  1.0000
  S   S65       1.0  0.17843  0.41240  0.80520  1.0000
  Fe  Fe32      1.0  0.10681  0.40588  0.98136  1.0000
  S   S66       1.0  0.07677  0.41953  0.97863  1.0000
  S   S67       1.0  0.12965  0.39613  0.95845  1.0000
  Fe  Fe33      1.0  0.10289  0.34953  0.68818  1.0000
  S   S68       1.0  0.09240  0.32148  0.70070  1.0000
  S   S69       1.0  0.11735  0.37044  0.70391  1.0000
  H   H248      1.0  0.05233  0.37161  0.71492  1.0000
  C   C209      1.0  0.09682  0.39007  0.78142  1.0000
  H   H249      1.0  0.17245  0.33256  0.67859  1.0000
  C   C210      1.0  0.11843  0.48132  0.92728  1.0000
  C   C211      1.0  0.00324  0.29978  0.68010  1.0000
  S   S70       1.0  0.03546  0.33390  0.70462  1.0000
  H   H250      1.0  0.12163  0.48102  0.85030  1.0000
  C   C212      1.0  0.01600  0.32359  0.69684  1.0000
  C   C213      1.0  0.24377  0.33596  0.90644  1.0000
  Fe  Fe34      1.0  0.06474  0.33145  0.68780  1.0000
  C   C214      1.0  0.08915  0.37260  0.78657  1.0000
  H   H251      1.0  0.10181  0.43746  0.93755  1.0000
  C   C215      1.0  0.17499  0.35097  0.73094  1.0000
  H   H252      1.0  0.00452  0.42107  0.96477  1.0000
  H   H253      1.0  0.10653  0.46625  0.95330  1.0000
  H   H254      1.0  0.23189  0.08139  0.67995  1.0000
  H   H255      1.0  0.17475  0.29566  0.73714  1.0000
  S   S71       1.0  0.07458  0.36020  0.67712  1.0000
  C   C216      1.0  0.13944  0.37067  0.76384  1.0000
  C   C217      1.0  0.13254  0.35401  0.75853  1.0000
  C   C218      1.0  0.12550  0.35369  0.74045  1.0000
  C   C219      1.0  0.12536  0.37005  0.72730  1.0000
  C   C220      1.0  0.13223  0.38671  0.73261  1.0000
  C   C221      1.0  0.13915  0.38707  0.75076  1.0000
  H   H256      1.0  0.13288  0.34118  0.76843  1.0000
  H   H257      1.0  0.12060  0.34065  0.73663  1.0000
  H   H258      1.0  0.13230  0.39944  0.72258  1.0000
  H   H259      1.0  0.14453  0.39994  0.75450  1.0000
  C   C222      1.0  0.12517  0.39760  0.93413  1.0000
  C   C223      1.0  0.14056  0.39951  0.91996  1.0000
  C   C224      1.0  0.13788  0.39905  0.90048  1.0000
  C   C225      1.0  0.11981  0.39652  0.89510  1.0000
  C   C226      1.0  0.10430  0.39509  0.90922  1.0000
  C   C227      1.0  0.10694  0.39574  0.92870  1.0000
  H   H260      1.0  0.15462  0.40121  0.92413  1.0000
  H   H261      1.0  0.14978  0.40043  0.88962  1.0000
  H   H262      1.0  0.09026  0.39323  0.90509  1.0000
  H   H263      1.0  0.09503  0.39416  0.93956  1.0000
  C   C228      1.0  0.17396  0.31696  0.68337  1.0000
  C   C229      1.0  0.15822  0.48256  0.82219  1.0000
  H   H264      1.0  0.07505  0.38041  0.71605  1.0000
  C   C230      1.0  0.06093  0.37845  0.72438  1.0000
  H   H265      1.0  0.19104  0.49570  0.78851  1.0000
  H   H266      1.0  0.16501  0.48536  0.77210  1.0000
  H   H267      1.0  0.18377  0.34772  0.75959  1.0000
  H   H268      1.0  0.15447  0.45040  0.88254  1.0000
  C   C231      1.0  0.16899  0.32149  0.71739  1.0000
  C   C232      1.0  0.18009  0.32049  0.74958  1.0000
  C   C233      1.0  0.18016  0.34039  0.74776  1.0000
  C   C234      1.0  0.16301  0.29092  0.70502  1.0000
  H   H269      1.0  0.18397  0.31240  0.76282  1.0000
  H   H270      1.0  0.09219  0.36463  0.80014  1.0000
  N   N15       1.0  0.19503  0.36539  0.90461  1.0000
  C   C235      1.0  0.17933  0.36123  0.91976  1.0000
  C   C236      1.0  0.19580  0.38647  0.90106  1.0000
  C   C237      1.0  0.19003  0.35834  0.88669  1.0000
  C   C238      1.0  0.21363  0.35656  0.91097  1.0000
  C   C239      1.0  0.22611  0.34363  0.90016  1.0000
  C   C240      1.0  0.24481  0.34696  0.84660  1.0000
  H   H271      1.0  0.15299  0.46214  0.85877  1.0000
  H   H272      1.0  0.24489  0.33387  0.83973  1.0000
  H   H273      1.0  0.00569  0.28774  0.67146  1.0000
  H   H274      1.0  0.18021  0.36851  0.93291  1.0000
  H   H275      1.0  0.16496  0.36618  0.91482  1.0000
  H   H276      1.0  0.17948  0.34554  0.92405  1.0000
  H   H277      1.0  0.18289  0.39365  0.89452  1.0000
  H   H278      1.0  0.20844  0.39001  0.89093  1.0000
  H   H279      1.0  0.19688  0.39333  0.91441  1.0000
  H   H280      1.0  0.18920  0.34254  0.88832  1.0000
  H   H281      1.0  0.17589  0.36510  0.88240  1.0000
  H   H282      1.0  0.20056  0.36203  0.87434  1.0000
  H   H283      1.0  0.22287  0.33954  0.88653  1.0000
  C   C241      1.0  0.24454  0.38077  0.86413  1.0000
  Fe  Fe35      1.0  0.10269  0.31087  0.67179  1.0000
  C   C242      1.0  0.12036  0.44751  0.86881  1.0000
  H   H284      1.0  0.10270  0.48395  0.86925  1.0000
  H   H285      1.0  0.03342  0.30315  0.68025  1.0000
  H   H286      1.0  0.18406  0.46464  0.82775  1.0000
  H   H287      1.0  0.07649  0.24091  0.67988  1.0000
  H   H288      1.0  0.17459  0.36651  0.72980  1.0000
  C   C243      1.0  0.17677  0.47894  0.82795  1.0000
  C   C244      1.0  0.01898  0.30851  0.68505  1.0000
  H   H289      1.0  0.17790  0.28440  0.70658  1.0000
  H   H290      1.0  0.24248  0.35763  0.94749  1.0000
  H   H291      1.0  0.04415  0.35322  0.76524  1.0000
  H   H292      1.0  0.09997  0.41352  0.75968  1.0000
  C   C245      1.0  0.07286  0.34760  0.73811  1.0000
  H   H293      1.0  0.07440  0.33721  0.75097  1.0000
  H   H294      1.0  0.06463  0.34076  0.72837  1.0000
  H   H295      1.0  0.08744  0.34924  0.73080  1.0000
  H   H296      1.0  0.07262  0.35148  0.77875  1.0000
  C   C246      1.0  0.12362  0.48073  0.90758  1.0000
  C   C247      1.0  0.22990  0.37882  0.85244  1.0000
  H   H297      1.0  0.14027  0.33509  0.69504  1.0000
  C   C248      1.0  0.22000  0.36132  0.92829  1.0000
  H   H298      1.0  0.18943  0.31261  0.68480  1.0000
  H   H299      1.0  0.05335  0.39279  0.72671  1.0000
  N   N16       1.0  0.06327  0.36649  0.74284  1.0000
  C   C249      1.0  0.23006  0.36180  0.84372  1.0000
  H   H300      1.0  0.21142  0.37128  0.93709  1.0000
  H   H301      1.0  0.03477  0.35780  0.74246  1.0000
  H   H302      1.0  0.15356  0.47613  0.87845  1.0000
  N   N17       1.0  0.12661  0.46419  0.87713  1.0000
  H   H303      1.0  0.10585  0.39550  0.79087  1.0000
  H   H304      1.0  0.12433  0.44792  0.85301  1.0000
  C   C250      1.0  0.17466  0.31106  0.73465  1.0000
  C   C251      1.0  0.16939  0.34175  0.71600  1.0000
  H   H305      1.0  0.15781  0.28447  0.69284  1.0000
  C   C252      1.0  0.09349  0.40018  0.76380  1.0000
  H   H306      1.0  0.10455  0.44698  0.87110  1.0000
  H   H307      1.0  0.13613  0.31229  0.68807  1.0000
  N   N18       1.0  0.16221  0.31220  0.70166  1.0000
  C   C253      1.0  0.11854  0.48180  0.86610  1.0000
  C   C254      1.0  0.08269  0.39277  0.75111  1.0000
  C   C255      1.0  0.11045  0.46582  0.93800  1.0000
  H   H308      1.0  0.16473  0.35074  0.70360  1.0000
  C   C256      1.0  0.04381  0.36364  0.75226  1.0000
  H   H309      1.0  0.16960  0.30956  0.67141  1.0000
  C   C257      1.0  0.07810  0.36517  0.77414  1.0000
  H   H310      1.0  0.13280  0.31667  0.71296  1.0000
  H   H311      1.0  0.21889  0.36009  0.83470  1.0000
  C   C258      1.0  0.07460  0.37496  0.75594  1.0000
  H   H312      1.0  0.03634  0.37743  0.75667  1.0000
  H   H313      1.0  0.08132  0.40105  0.73744  1.0000
  S   S72       1.0  0.11946  0.28128  0.67461  1.0000
  H   H314      1.0  0.03460  0.41212  0.98053  1.0000
  H   H315      1.0  0.11013  0.43599  0.90347  1.0000
  H   H316      1.0  0.12733  0.43371  0.87502  1.0000
  H   H317      1.0  0.12476  0.49495  0.86914  1.0000
  C   C259      1.0  0.23314  0.07987  0.66475  1.0000
  C   C260      1.0  0.00395  0.41368  0.97906  1.0000
  H   H318      1.0  0.13565  0.24210  0.67588  1.0000
  H   H319      1.0  0.15354  0.28626  0.71796  1.0000
  C   C261      1.0  0.14781  0.46321  0.87414  1.0000
  C   C262      1.0  0.14201  0.31940  0.69933  1.0000
  C   C263      1.0  0.11260  0.44901  0.90935  1.0000
  C   C264      1.0  0.12062  0.46465  0.89792  1.0000
  C   C265      1.0  0.10767  0.44967  0.92907  1.0000
  H   H320      1.0  0.01427  0.47395  0.97297  1.0000
  C   C266      1.0  0.18620  0.49400  0.83337  1.0000
  H   H321      1.0  0.01941  0.44965  0.98270  1.0000
  C   C267      1.0  0.02101  0.40869  0.98799  1.0000
  S   S73       1.0  0.07584  0.47326  0.98695  1.0000
  C   C268      1.0  0.23775  0.35363  0.93436  1.0000
  H   H322      1.0  0.13020  0.49290  0.90000  1.0000
  H   H323      1.0  0.24453  0.39387  0.87098  1.0000
  H   H324      1.0  0.23240  0.12504  0.66677  1.0000
  H   H325      1.0  0.20076  0.49116  0.83729  1.0000
  C   C269      1.0  0.08144  0.24225  0.66474  1.0000
  S   S74       1.0  0.11598  0.43032  0.99516  1.0000
  Fe  Fe36      1.0  0.08562  0.44247  0.99483  1.0000
  C   C270      1.0  0.02257  0.46467  0.98361  1.0000
  H   H326      1.0  0.00983  0.36955  0.97653  1.0000
  H   H327      1.0  0.03811  0.46532  0.97892  1.0000
  H   H328      1.0  0.11606  0.47103  0.99353  1.0000
  H   H329      1.0  0.12073  0.49378  0.93436  1.0000
  C   C271      1.0  0.99713  0.33026  0.70310  1.0000
  H   H330      1.0  0.08629  0.21210  0.66339  1.0000
  Fe  Fe37      1.0  0.10870  0.66454  0.31877  1.0000
  S   S75       1.0  0.09495  0.69444  0.31134  1.0000
  S   S76       1.0  0.13056  0.64673  0.29940  1.0000
  C   C272      1.0  0.99941  0.69104  0.32325  1.0000
  H   H331      1.0  0.13743  0.52652  0.15898  1.0000
  C   C273      1.0  0.01318  0.57896  0.01199  1.0000
  H   H332      1.0  0.08801  0.62490  0.26254  1.0000
  H   H333      1.0  0.13003  0.57106  0.20882  1.0000
  H   H334      1.0  0.08365  0.53173  0.01553  1.0000
  Fe  Fe38      1.0  0.16687  0.60418  0.14730  1.0000
  S   S77       1.0  0.19018  0.58091  0.15370  1.0000
  S   S78       1.0  0.16321  0.60672  0.11539  1.0000
  Fe  Fe39      1.0  0.16231  0.61495  0.18929  1.0000
  S   S79       1.0  0.18584  0.59255  0.19786  1.0000
  S   S80       1.0  0.14191  0.63314  0.20956  1.0000
  Fe  Fe40      1.0  0.20203  0.60253  0.16966  1.0000
  S   S81       1.0  0.23454  0.60313  0.16399  1.0000
  Fe  Fe41      1.0  0.17203  0.57314  0.18076  1.0000
  S   S82       1.0  0.16235  0.54402  0.19278  1.0000
  S   S83       1.0  0.17950  0.62632  0.16206  1.0000
  S   S84       1.0  0.14777  0.59497  0.17334  1.0000
  Fe  Fe42      1.0  0.09047  0.59290  0.04193  1.0000
  S   S85       1.0  0.08001  0.56371  0.04230  1.0000
  S   S86       1.0  0.08908  0.60437  0.07117  1.0000
  C   C274      1.0  0.12286  0.58028  0.21992  1.0000
  C   C275      1.0  0.10716  0.60232  0.25064  1.0000
  Fe  Fe43      1.0  0.10516  0.55831  0.02092  1.0000
  H   H335      1.0  0.15044  0.50603  0.20172  1.0000
  C   C276      1.0  0.12947  0.55495  0.24449  1.0000
  C   C277      1.0  0.14229  0.60511  0.10390  1.0000
  C   C278      1.0  0.12390  0.60843  0.11315  1.0000
  C   C279      1.0  0.10770  0.60814  0.10296  1.0000
  C   C280      1.0  0.10976  0.60430  0.08358  1.0000
  C   C281      1.0  0.12816  0.60059  0.07450  1.0000
  C   C282      1.0  0.14433  0.60112  0.08459  1.0000
  H   H336      1.0  0.12216  0.61183  0.12792  1.0000
  H   H337      1.0  0.09350  0.61114  0.11004  1.0000
  H   H338      1.0  0.12993  0.59764  0.05961  1.0000
  H   H339      1.0  0.15850  0.59858  0.07731  1.0000
  H   H340      1.0  0.15940  0.56962  0.22421  1.0000
  C   C283      1.0  0.16895  0.52256  0.18157  1.0000
  C   C284      1.0  0.18188  0.52201  0.16513  1.0000
  C   C285      1.0  0.12802  0.58421  0.27274  1.0000
  H   H341      1.0  0.18875  0.53473  0.15943  1.0000
  C   C286      1.0  0.20330  0.62944  0.08304  1.0000
  H   H342      1.0  0.14892  0.51675  0.13800  1.0000
  H   H343      1.0  0.24483  0.67018  0.13987  1.0000
  C   C287      1.0  0.15187  0.57871  0.23523  1.0000
  H   H344      1.0  0.21166  0.61885  0.07407  1.0000
  H   H345      1.0  0.22512  0.64452  0.15557  1.0000
  C   C288      1.0  0.13398  0.64418  0.27413  1.0000
  C   C289      1.0  0.12112  0.65296  0.26122  1.0000
  C   C290      1.0  0.12394  0.64956  0.24159  1.0000
  C   C291      1.0  0.13970  0.63749  0.23444  1.0000
  C   C292      1.0  0.15282  0.62912  0.24727  1.0000
  C   C293      1.0  0.14987  0.63232  0.26694  1.0000
  H   H346      1.0  0.10886  0.66216  0.26641  1.0000
  H   H347      1.0  0.11374  0.65628  0.23187  1.0000
  H   H348      1.0  0.16532  0.62026  0.24209  1.0000
  H   H349      1.0  0.16001  0.62555  0.27669  1.0000
  C   C294      1.0  0.09883  0.61314  0.26545  1.0000
  S   S87       1.0  0.12340  0.53026  0.02194  1.0000
  C   C295      1.0  0.19974  0.64497  0.11218  1.0000
  Fe  Fe44      1.0  0.09836  0.59681  0.99805  1.0000
  H   H350      1.0  0.18912  0.62380  0.08738  1.0000
  H   H351      1.0  0.22495  0.66875  0.10567  1.0000
  H   H352      1.0  0.99893  0.55424  0.00767  1.0000
  H   H353      1.0  0.18628  0.63812  0.11711  1.0000
  H   H354      1.0  0.15590  0.52590  0.07247  1.0000
  C   C296      1.0  0.09093  0.51875  0.01037  1.0000
  S   S88       1.0  0.03809  0.69439  0.31846  1.0000
  S   S89       1.0  0.03572  0.56543  0.01251  1.0000
  C   C297      1.0  0.10514  0.60968  0.28373  1.0000
  H   H355      1.0  0.10213  0.60641  0.23667  1.0000
  H   H356      1.0  0.22529  0.60294  0.10285  1.0000
  C   C298      1.0  0.12200  0.58737  0.25389  1.0000
  H   H357      1.0  0.10735  0.57808  0.22126  1.0000
  Fe  Fe45      1.0  0.06421  0.57606  0.01699  1.0000
  H   H358      1.0  0.10691  0.55342  0.14345  1.0000
  C   C299      1.0  0.18605  0.50489  0.15610  1.0000
  H   H359      1.0  0.15961  0.52648  0.10668  1.0000
  C   C300      1.0  0.23142  0.64106  0.09331  1.0000
  H   H360      1.0  0.12822  0.54411  0.05794  1.0000
  C   C301      1.0  0.21711  0.61395  0.11140  1.0000
  C   C302      1.0  0.11975  0.59530  0.28736  1.0000
  H   H361      1.0  0.10405  0.56311  0.07782  1.0000
  C   C303      1.0  0.11052  0.51430  0.01202  1.0000
  H   H362      1.0  0.10711  0.56478  0.11146  1.0000
  C   C304      1.0  0.01778  0.68113  0.32180  1.0000
  S   S90       1.0  0.07258  0.60591  0.01803  1.0000
  H   H363      1.0  0.06541  0.51006  0.00078  1.0000
  H   H364      1.0  0.11418  0.55215  0.24807  1.0000
  H   H365      1.0  0.20365  0.60772  0.11752  1.0000
  H   H366      1.0  0.22544  0.61562  0.12366  1.0000
  N   N19       1.0  0.13125  0.57562  0.23859  1.0000
  H   H367      1.0  0.12321  0.51985  0.14130  1.0000
  C   C305      1.0  0.16044  0.50578  0.18899  1.0000
  H   H368      1.0  0.09928  0.61874  0.29491  1.0000
  S   S91       1.0  0.11694  0.58655  0.02209  1.0000
  H   H369      1.0  0.12472  0.59541  0.21406  1.0000
  H   H370      1.0  0.24429  0.61641  0.07854  1.0000
  H   H371      1.0  0.20619  0.64762  0.12539  1.0000
  H   H372      1.0  0.02304  0.60614  0.01604  1.0000
  H   H373      1.0  0.15954  0.57524  0.24837  1.0000
  H   H374      1.0  0.19525  0.65894  0.10424  1.0000
  C   C306      1.0  0.08048  0.50627  0.00227  1.0000
  C   C307      1.0  0.01950  0.66109  0.32258  1.0000
  C   C308      1.0  0.99721  0.56950  0.00918  1.0000
  H   H375      1.0  0.00477  0.67051  0.28159  1.0000
  H   H376      1.0  0.13559  0.54581  0.23286  1.0000
  N   N20       1.0  0.21318  0.63263  0.09995  1.0000
  C   C309      1.0  0.01083  0.59872  0.01384  1.0000
  H   H377      1.0  0.15408  0.74918  0.32650  1.0000
  H   H378      1.0  0.03357  0.65335  0.32116  1.0000
  H   H379      1.0  0.13953  0.57346  0.27621  1.0000
  C   C310      1.0  0.00295  0.65109  0.32480  1.0000
  H   H380      1.0  0.13733  0.54967  0.25720  1.0000
  H   H381      1.0  0.12506  0.59322  0.30145  1.0000
  H   H382      1.0  0.15375  0.59395  0.23005  1.0000
  N   N21       1.0  0.13646  0.54614  0.13329  1.0000
  C   C311      1.0  0.15508  0.55369  0.13503  1.0000
  C   C312      1.0  0.12133  0.55856  0.14360  1.0000
  C   C313      1.0  0.13650  0.52648  0.14326  1.0000
  C   C314      1.0  0.13375  0.54554  0.11275  1.0000
  C   C315      1.0  0.11797  0.55572  0.10386  1.0000
  C   C316      1.0  0.14724  0.53453  0.10092  1.0000
  C   C317      1.0  0.11600  0.55491  0.08438  1.0000
  C   C318      1.0  0.14522  0.53401  0.08138  1.0000
  C   C319      1.0  0.12964  0.54422  0.07314  1.0000
  H   H383      1.0  0.15600  0.56798  0.12674  1.0000
  H   H384      1.0  0.15713  0.55542  0.15023  1.0000
  H   H385      1.0  0.16754  0.54410  0.12967  1.0000
  H   H386      1.0  0.12100  0.57374  0.13720  1.0000
  H   H387      1.0  0.12391  0.55877  0.15896  1.0000
  H   H388      1.0  0.00439  0.63559  0.32521  1.0000
  H   H389      1.0  0.20070  0.64307  0.07374  1.0000
  H   H390      1.0  0.19606  0.50461  0.14339  1.0000
  C   C320      1.0  0.23505  0.65976  0.09717  1.0000
  H   H391      1.0  0.11459  0.50244  0.05672  1.0000
  C   C321      1.0  0.23977  0.64092  0.14996  1.0000
  H   H392      1.0  0.99796  0.70657  0.32251  1.0000
  Fe  Fe46      1.0  0.06796  0.68343  0.32677  1.0000
  C   C322      1.0  0.24610  0.63062  0.08220  1.0000
  H   H393      1.0  0.18552  0.73050  0.32897  1.0000
  C   C323      1.0  0.11958  0.49702  0.00604  1.0000
  H   H394      1.0  0.09308  0.49658  0.07116  1.0000
  H   H395      1.0  0.21415  0.80116  0.32941  1.0000
  C   C324      1.0  0.13578  0.73376  0.65750  1.0000
  Fe  Fe47      1.0  0.10312  0.65337  0.66190  1.0000
  C   C325      1.0  0.20542  0.74662  0.54364  1.0000
  H   H396      1.0  0.10892  0.82163  0.63037  1.0000
  S   S92       1.0  0.10731  0.63035  0.64101  1.0000
  C   C326      1.0  0.08979  0.76313  0.64573  1.0000
  Fe  Fe48      1.0  0.08924  0.66266  0.36001  1.0000
  S   S93       1.0  0.07433  0.69211  0.35498  1.0000
  S   S94       1.0  0.07853  0.64862  0.38924  1.0000
  Fe  Fe49      1.0  0.09644  0.62124  0.53091  1.0000
  S   S95       1.0  0.07337  0.60096  0.53610  1.0000
  S   S96       1.0  0.10204  0.64347  0.55059  1.0000
  Fe  Fe50      1.0  0.10639  0.61168  0.48904  1.0000
  S   S97       1.0  0.08435  0.59048  0.49095  1.0000
  S   S98       1.0  0.12490  0.61883  0.46136  1.0000
  Fe  Fe51      1.0  0.06551  0.61242  0.50672  1.0000
  S   S99       1.0  0.03586  0.62105  0.49839  1.0000
  Fe  Fe52      1.0  0.09421  0.58045  0.51994  1.0000
  S   S100      1.0  0.09749  0.54901  0.53147  1.0000
  S   S101      1.0  0.08667  0.63441  0.50257  1.0000
  S   S102      1.0  0.11819  0.59993  0.51700  1.0000
  Fe  Fe53      1.0  0.16281  0.79745  0.40448  1.0000
  S   S103      1.0  0.16581  0.82216  0.38179  1.0000
  S   S104      1.0  0.16261  0.76608  0.39847  1.0000
  Fe  Fe54      1.0  0.16627  0.82321  0.43694  1.0000
  S   S105      1.0  0.17005  0.84947  0.41615  1.0000
  S   S106      1.0  0.15847  0.82522  0.46897  1.0000
  Fe  Fe55      1.0  0.14596  0.83934  0.40214  1.0000
  S   S107      1.0  0.12146  0.86016  0.39205  1.0000
  Fe  Fe56      1.0  0.18984  0.82993  0.39770  1.0000
  S   S108      1.0  0.21911  0.83181  0.38002  1.0000
  S   S109      1.0  0.14126  0.81409  0.42358  1.0000
  S   S110      1.0  0.18763  0.80425  0.41975  1.0000
  Fe  Fe57      1.0  0.19298  0.83943  0.60952  1.0000
  S   S111      1.0  0.20315  0.81183  0.59620  1.0000
  S   S112      1.0  0.20981  0.85825  0.62565  1.0000
  Fe  Fe58      1.0  0.15460  0.84326  0.59109  1.0000
  S   S113      1.0  0.16255  0.81628  0.57672  1.0000
  S   S114      1.0  0.12767  0.85900  0.57991  1.0000
  Fe  Fe59      1.0  0.17302  0.80337  0.60470  1.0000
  S   S115      1.0  0.16459  0.77258  0.60839  1.0000
  Fe  Fe60      1.0  0.19143  0.82670  0.56936  1.0000
  S   S116      1.0  0.20790  0.82556  0.53996  1.0000
  S   S117      1.0  0.16326  0.83000  0.61986  1.0000
  S   S118      1.0  0.18308  0.85460  0.58191  1.0000
  Fe  Fe61      1.0  0.01663  0.89163  0.43207  1.0000
  S   S119      1.0  0.01070  0.92135  0.44136  1.0000
  S   S120      1.0  0.04099  0.87021  0.44138  1.0000
  H   H397      1.0  0.05096  0.96748  0.64677  1.0000
  S   S121      1.0  0.01364  0.95610  0.39738  1.0000
  H   H398      1.0  0.13991  0.67548  0.45419  1.0000
  H   H399      1.0  0.13819  0.88919  0.47004  1.0000
  H   H400      1.0  0.08289  0.83096  0.60917  1.0000
  C   C327      1.0  0.11081  0.66900  0.46141  1.0000
  Fe  Fe62      1.0  0.02400  0.89716  0.60831  1.0000
  S   S122      1.0  0.02595  0.92607  0.59187  1.0000
  S   S123      1.0  0.04773  0.88242  0.62562  1.0000
  C   C328      1.0  0.02563  0.67201  0.38866  1.0000
  Fe  Fe63      1.0  0.01242  0.91353  0.56906  1.0000
  C   C329      1.0  0.04173  0.82258  0.36295  1.0000
  H   H401      1.0  0.16986  0.73066  0.53635  1.0000
  C   C330      1.0  0.23187  0.86844  0.37939  1.0000
  C   C331      1.0  0.19550  0.78004  0.54550  1.0000
  H   H402      1.0  0.13339  0.69473  0.42419  1.0000
  C   C332      1.0  0.05765  0.83501  0.38737  1.0000
  H   H403      1.0  0.20523  0.76668  0.38273  1.0000
  C   C333      1.0  0.16483  0.77381  0.49777  1.0000
  C   C334      1.0  0.00672  0.82860  0.38958  1.0000
  C   C335      1.0  0.04305  0.96793  0.61807  1.0000
  H   H404      1.0  0.08832  0.82832  0.38609  1.0000
  H   H405      1.0  0.99834  0.62140  0.55953  1.0000
  C   C336      1.0  0.21297  0.80061  0.34535  1.0000
  H   H406      1.0  0.10775  0.89814  0.45205  1.0000
  H   H407      1.0  0.19252  0.78959  0.37851  1.0000
  N   N22       1.0  0.09915  0.70244  0.40812  1.0000
  H   H408      1.0  0.12649  0.86203  0.50530  1.0000
  H   H409      1.0  0.05266  0.68561  0.60240  1.0000
  C   C337      1.0  0.07020  0.87663  0.61304  1.0000
  C   C338      1.0  0.08587  0.86892  0.62319  1.0000
  C   C339      1.0  0.10381  0.86387  0.61334  1.0000
  C   C340      1.0  0.10607  0.86636  0.59327  1.0000
  C   C341      1.0  0.09043  0.87414  0.58320  1.0000
  C   C342      1.0  0.07259  0.87929  0.59301  1.0000
  H   H410      1.0  0.08410  0.86695  0.63871  1.0000
  H   H411      1.0  0.11583  0.85810  0.62124  1.0000
  H   H412      1.0  0.09207  0.87611  0.56771  1.0000
  H   H413      1.0  0.06063  0.88525  0.58508  1.0000
  C   C343      1.0  0.16575  0.75552  0.33173  1.0000
  Fe  Fe64      1.0  0.10226  0.70102  0.34042  1.0000
  H   H414      1.0  0.02540  0.95784  0.45657  1.0000
  C   C344      1.0  0.17291  0.82616  0.48799  1.0000
  C   C345      1.0  0.16369  0.82886  0.50631  1.0000
  C   C346      1.0  0.17431  0.82916  0.52214  1.0000
  C   C347      1.0  0.19433  0.82653  0.51991  1.0000
  C   C348      1.0  0.20362  0.82390  0.50157  1.0000
  C   C349      1.0  0.19295  0.82375  0.48563  1.0000
  H   H415      1.0  0.14821  0.83059  0.50832  1.0000
  H   H416      1.0  0.16695  0.83141  0.53608  1.0000
  H   H417      1.0  0.21910  0.82184  0.49969  1.0000
  H   H418      1.0  0.20021  0.82160  0.47159  1.0000
  C   C350      1.0  0.06313  0.86757  0.42733  1.0000
  C   C351      1.0  0.06765  0.88041  0.41137  1.0000
  C   C352      1.0  0.08553  0.87788  0.40060  1.0000
  C   C353      1.0  0.09902  0.86258  0.40572  1.0000
  C   C354      1.0  0.09434  0.84958  0.42151  1.0000
  C   C355      1.0  0.07645  0.85207  0.43225  1.0000
  H   H419      1.0  0.05746  0.89239  0.40741  1.0000
  H   H420      1.0  0.08901  0.88794  0.38833  1.0000
  H   H421      1.0  0.10444  0.83757  0.42539  1.0000
  H   H422      1.0  0.07292  0.84193  0.44443  1.0000
  C   C356      1.0  0.09516  0.52994  0.51758  1.0000
  C   C357      1.0  0.09415  0.53290  0.49774  1.0000
  H   H423      1.0  0.01625  0.66101  0.63647  1.0000
  H   H424      1.0  0.09342  0.54731  0.49081  1.0000
  C   C358      1.0  0.08618  0.88700  0.52292  1.0000
  C   C359      1.0  0.02077  0.60272  0.50474  1.0000
  C   C360      1.0  0.02534  0.58766  0.51862  1.0000
  H   H425      1.0  0.10215  0.78535  0.58687  1.0000
  H   H426      1.0  0.03859  0.58697  0.52528  1.0000
  C   C361      1.0  0.12344  0.74053  0.36080  1.0000
  C   C362      1.0  0.13886  0.72927  0.36853  1.0000
  C   C363      1.0  0.15065  0.73730  0.38007  1.0000
  C   C364      1.0  0.14724  0.75667  0.38395  1.0000
  C   C365      1.0  0.13179  0.76789  0.37629  1.0000
  C   C366      1.0  0.12002  0.75987  0.36473  1.0000
  H   H427      1.0  0.14191  0.71450  0.36531  1.0000
  H   H428      1.0  0.16265  0.72855  0.38583  1.0000
  H   H429      1.0  0.12899  0.78279  0.37915  1.0000
  C   C367      1.0  0.09209  0.64027  0.40883  1.0000
  C   C368      1.0  0.08228  0.63405  0.42639  1.0000
  C   C369      1.0  0.09226  0.62738  0.44244  1.0000
  C   C370      1.0  0.11222  0.62694  0.44115  1.0000
  C   C371      1.0  0.12214  0.63306  0.42358  1.0000
  C   C372      1.0  0.11212  0.63969  0.40743  1.0000
  H   H430      1.0  0.06684  0.63445  0.42771  1.0000
  H   H431      1.0  0.08444  0.62279  0.45590  1.0000
  H   H432      1.0  0.13760  0.63273  0.42247  1.0000
  H   H433      1.0  0.11989  0.64419  0.39393  1.0000
  C   C373      1.0  0.01234  0.57385  0.52442  1.0000
  C   C374      1.0  0.02326  0.52554  0.51804  1.0000
  C   C375      1.0  0.15033  0.76369  0.64637  1.0000
  C   C376      1.0  0.15361  0.75806  0.62773  1.0000
  C   C377      1.0  0.14777  0.74034  0.62403  1.0000
  C   C378      1.0  0.13881  0.72829  0.63879  1.0000
  C   C379      1.0  0.09519  0.51119  0.52660  1.0000
  C   C380      1.0  0.07101  0.79670  0.62905  1.0000
  H   H434      1.0  0.15020  0.73585  0.60966  1.0000
  C   C381      1.0  0.18348  0.74502  0.33320  1.0000
  H   H435      1.0  0.07826  0.81502  0.59182  1.0000
  C   C382      1.0  0.10577  0.63431  0.61590  1.0000
  C   C383      1.0  0.10250  0.61891  0.60574  1.0000
  C   C384      1.0  0.10131  0.62144  0.58574  1.0000
  C   C385      1.0  0.10358  0.63940  0.57569  1.0000
  C   C386      1.0  0.10686  0.65480  0.58585  1.0000
  C   C387      1.0  0.10795  0.65228  0.60586  1.0000
  H   H436      1.0  0.10090  0.60493  0.61339  1.0000
  H   H437      1.0  0.09875  0.60949  0.57810  1.0000
  H   H438      1.0  0.10870  0.66871  0.57816  1.0000
  H   H439      1.0  0.11074  0.66417  0.61348  1.0000
  C   C388      1.0  0.09453  0.51712  0.48684  1.0000
  H   H440      1.0  0.03797  0.61157  0.57032  1.0000
  H   H441      1.0  0.14834  0.75602  0.48401  1.0000
  C   C389      1.0  0.07521  0.82647  0.37980  1.0000
  H   H442      1.0  0.00136  0.86605  0.37746  1.0000
  H   H443      1.0  0.09824  0.82919  0.58769  1.0000
  H   H444      1.0  0.02155  0.63218  0.62529  1.0000
  H   H445      1.0  0.24184  0.77748  0.35677  1.0000
  H   H446      1.0  0.20064  0.81077  0.35000  1.0000
  H   H447      1.0  0.05727  0.51482  0.50288  1.0000
  C   C390      1.0  0.23815  0.87666  0.63885  1.0000
  H   H448      1.0  0.03125  0.98201  0.44963  1.0000
  H   H449      1.0  0.22296  0.87850  0.58853  1.0000
  H   H450      1.0  0.22704  0.88831  0.64061  1.0000
  C   C391      1.0  0.22800  0.87885  0.57295  1.0000
  C   C392      1.0  0.01757  0.96797  0.51199  1.0000
  H   H451      1.0  0.03946  0.95316  0.61992  1.0000
  H   H452      1.0  0.02931  0.82112  0.35556  1.0000
  C   C393      1.0  0.01414  0.99493  0.39764  1.0000
  H   H453      1.0  0.12364  0.78282  0.59913  1.0000
  H   H454      1.0  0.24635  0.95868  0.34669  1.0000
  H   H455      1.0  0.04456  0.49782  0.53482  1.0000
  C   C394      1.0  0.14027  0.50877  0.44728  1.0000
  H   H456      1.0  0.08971  0.80923  0.35826  1.0000
  H   H457      1.0  0.21167  0.74395  0.34135  1.0000
  H   H458      1.0  0.15471  0.77729  0.64943  1.0000
  H   H459      1.0  0.23583  0.86275  0.54083  1.0000
  H   H460      1.0  0.02959  0.99205  0.39626  1.0000
  C   C395      1.0  0.04576  0.50880  0.49630  1.0000
  C   C396      1.0  0.17657  0.75659  0.56299  1.0000
  H   H461      1.0  0.17181  0.74190  0.56461  1.0000
  H   H462      1.0  0.05563  0.65974  0.65019  1.0000
  H   H463      1.0  0.21458  0.74730  0.55555  1.0000
  H   H464      1.0  0.23104  0.75552  0.35960  1.0000
  H   H465      1.0  0.02935  0.68142  0.37531  1.0000
  H   H466      1.0  0.02118  0.63121  0.36812  1.0000
  H   H467      1.0  0.02737  0.68206  0.63870  1.0000
  C   C397      1.0  0.02999  0.63383  0.61159  1.0000
  H   H468      1.0  0.16678  0.56193  0.45717  1.0000
  H   H469      1.0  0.12297  0.56184  0.49169  1.0000
  C   C398      1.0  0.10282  0.69090  0.42644  1.0000
  C   C399      1.0  0.00257  0.97963  0.39880  1.0000
  H   H470      1.0  0.06456  0.65890  0.58526  1.0000
  C   C400      1.0  0.04105  0.97884  0.60060  1.0000
  H   H471      1.0  0.09711  0.75018  0.65238  1.0000
  H   H472      1.0  0.04606  0.78830  0.64712  1.0000
  S   S124      1.0  0.09085  0.68391  0.65541  1.0000
  H   H473      1.0  0.12033  0.72258  0.40925  1.0000
  H   H474      1.0  0.09786  0.84807  0.46806  1.0000
  C   C401      1.0  0.20650  0.78132  0.37528  1.0000
  C   C402      1.0  0.00641  0.98224  0.48121  1.0000
  H   H475      1.0  0.07277  0.67074  0.61171  1.0000
  H   H476      1.0  0.09556  0.50884  0.54200  1.0000
  C   C403      1.0  0.13913  0.52878  0.44676  1.0000
  C   C404      1.0  0.11072  0.69351  0.39203  1.0000
  H   H477      1.0  0.20129  0.73168  0.54466  1.0000
  H   H478      1.0  0.14388  0.86425  0.47789  1.0000
  H   H479      1.0  0.13812  0.53692  0.43295  1.0000
  H   H480      1.0  0.01914  0.98724  0.53344  1.0000
  H   H481      1.0  0.10818  0.76872  0.35877  1.0000
  H   H482      1.0  0.23183  0.89356  0.56769  1.0000
  C   C405      1.0  0.14154  0.75154  0.66118  1.0000
  H   H483      1.0  0.00021  0.61503  0.48527  1.0000
  H   H484      1.0  0.13446  0.71467  0.63575  1.0000
  C   C406      1.0  0.04027  0.83317  0.37928  1.0000
  H   H485      1.0  0.01884  0.67857  0.61617  1.0000
  H   H486      1.0  0.15180  0.58339  0.45046  1.0000
  H   H487      1.0  0.21898  0.87215  0.38848  1.0000
  C   C407      1.0  0.05198  0.63577  0.57625  1.0000
  H   H488      1.0  0.21446  0.74914  0.52984  1.0000
  H   H489      1.0  0.03946  0.66724  0.39478  1.0000
  H   H490      1.0  0.16355  0.76696  0.56430  1.0000
  H   H491      1.0  0.05817  0.84313  0.39947  1.0000
  C   C408      1.0  0.01322  0.49997  0.50041  1.0000
  H   H492      1.0  0.01140  0.81579  0.39922  1.0000
  H   H493      1.0  0.03494  0.53006  0.52566  1.0000
  H   H494      1.0  0.03590  0.97239  0.58894  1.0000
  C   C409      1.0  0.17758  0.78201  0.34498  1.0000
  C   C410      1.0  0.12155  0.68844  0.43269  1.0000
  C   C411      1.0  0.02208  0.85063  0.40522  1.0000
  H   H495      1.0  0.22483  0.84236  0.57004  1.0000
  C   C412      1.0  0.00778  0.91719  0.52191  1.0000
  C   C413      1.0  0.03910  0.62183  0.58057  1.0000
  C   C414      1.0  0.02393  0.63609  0.41509  1.0000
  C   C415      1.0  0.05396  0.64882  0.58949  1.0000
  C   C416      1.0  0.16858  0.74307  0.52598  1.0000
  H   H496      1.0  0.12420  0.82348  0.60834  1.0000
  C   C417      1.0  0.07775  0.89286  0.50594  1.0000
  N   N23       1.0  0.00205  0.97984  0.46146  1.0000
  H   H497      1.0  0.06382  0.90110  0.50657  1.0000
  H   H498      1.0  0.12690  0.50313  0.56914  1.0000
  N   N24       1.0  0.13653  0.55935  0.46294  1.0000
  C   C418      1.0  0.13542  0.56678  0.48210  1.0000
  C   C419      1.0  0.13883  0.53812  0.46379  1.0000
  C   C420      1.0  0.14046  0.52614  0.48126  1.0000
  C   C421      1.0  0.11869  0.56679  0.45398  1.0000
  C   C422      1.0  0.19597  0.77191  0.34631  1.0000
  C   C423      1.0  0.06108  0.78457  0.64276  1.0000
  N   N25       1.0  0.01537  0.65563  0.38462  1.0000
  C   C424      1.0  0.04943  0.97609  0.63321  1.0000
  H   H499      1.0  0.18153  0.78867  0.51351  1.0000
  H   H500      1.0  0.14874  0.56247  0.48935  1.0000
  H   H501      1.0  0.20320  0.78067  0.55849  1.0000
  H   H502      1.0  0.13369  0.58274  0.48097  1.0000
  H   H503      1.0  0.14008  0.53181  0.49501  1.0000
  C   C425      1.0  0.23783  0.84518  0.57668  1.0000
  C   C426      1.0  0.11603  0.81337  0.61850  1.0000
  C   C427      1.0  0.17521  0.77533  0.51341  1.0000
  H   H504      1.0  0.24525  0.83168  0.62433  1.0000
  H   H505      1.0  0.01830  0.60981  0.60171  1.0000
  C   C428      1.0  0.01970  0.97220  0.45032  1.0000
  C   C429      1.0  0.04294  0.64828  0.60761  1.0000
  H   H506      1.0  0.18462  0.75751  0.57568  1.0000
  S   S125      1.0  0.00884  0.90034  0.40208  1.0000
  H   H507      1.0  0.00765  0.85674  0.41092  1.0000
  C   C430      1.0  0.99881  0.66371  0.37387  1.0000
  H   H508      1.0  0.02608  0.86929  0.36986  1.0000
  H   H509      1.0  0.04168  0.63763  0.37848  1.0000
  N   N26       1.0  0.18848  0.76094  0.54471  1.0000
  C   C431      1.0  0.01242  0.90861  0.50477  1.0000
  C   C432      1.0  0.05325  0.65032  0.63900  1.0000
  C   C433      1.0  0.14169  0.50613  0.48156  1.0000
  H   H510      1.0  0.16345  0.78570  0.48670  1.0000
  H   H511      1.0  0.06734  0.64250  0.63469  1.0000
  S   S126      1.0  0.08104  0.65315  0.33249  1.0000
  N   N27       1.0  0.10179  0.80470  0.60875  1.0000
  H   H512      1.0  0.12674  0.80236  0.62475  1.0000
  C   C434      1.0  0.11217  0.79335  0.59358  1.0000
  H   H513      1.0  0.02735  0.83957  0.41644  1.0000
  H   H514      1.0  0.11962  0.80271  0.58201  1.0000
  H   H515      1.0  0.11945  0.56437  0.43855  1.0000
  H   H516      1.0  0.07947  0.89279  0.47577  1.0000
  H   H517      1.0  0.08107  0.66399  0.46458  1.0000
  C   C435      1.0  0.07605  0.81582  0.36406  1.0000
  C   C436      1.0  0.23528  0.84995  0.37333  1.0000
  H   H518      1.0  0.05862  0.68680  0.62645  1.0000
  C   C437      1.0  0.01304  0.96608  0.49341  1.0000
  C   C438      1.0  0.02808  0.62088  0.59820  1.0000
  C   C439      1.0  0.02606  0.67113  0.62860  1.0000
  C   C440      1.0  0.01557  0.98592  0.51903  1.0000
  C   C441      1.0  0.15819  0.74172  0.51029  1.0000
  C   C442      1.0  0.24523  0.88217  0.37377  1.0000
  H   H519      1.0  0.11942  0.84168  0.47977  1.0000
  H   H520      1.0  0.10820  0.70172  0.37798  1.0000
  H   H521      1.0  0.00331  0.82361  0.37594  1.0000
  C   C443      1.0  0.11315  0.87103  0.50482  1.0000
  C   C444      1.0  0.11319  0.85082  0.46764  1.0000
  H   H522      1.0  0.11396  0.66022  0.47453  1.0000
  H   H523      1.0  0.12079  0.84563  0.45419  1.0000
  S   S127      1.0  0.10804  0.73137  0.34614  1.0000
  H   H524      1.0  0.09247  0.87939  0.45008  1.0000
  H   H525      1.0  0.04381  0.63940  0.64603  1.0000
  H   H526      1.0  0.11575  0.87846  0.43796  1.0000
  H   H527      1.0  0.07371  0.68230  0.43473  1.0000
  H   H528      1.0  0.06293  0.80960  0.62350  1.0000
  C   C445      1.0  0.01537  0.85845  0.37243  1.0000
  C   C446      1.0  0.15631  0.75708  0.49623  1.0000
  N   N28       1.0  0.02152  0.84252  0.38661  1.0000
  S   S128      1.0  0.02502  0.91593  0.53837  1.0000
  C   C447      1.0  0.12543  0.67756  0.44988  1.0000
  C   C448      1.0  0.08701  0.88804  0.48828  1.0000
  C   C449      1.0  0.09983  0.77515  0.63206  1.0000
  N   N29       1.0  0.11521  0.87143  0.46874  1.0000
  H   H529      1.0  0.15165  0.72865  0.50898  1.0000
  C   C450      1.0  0.16284  0.77400  0.33756  1.0000
  C   C451      1.0  0.10742  0.88241  0.45157  1.0000
  C   C452      1.0  0.07878  0.70406  0.40385  1.0000
  H   H530      1.0  0.02636  0.90086  0.50205  1.0000
  H   H531      1.0  0.14339  0.87125  0.45321  1.0000
  H   H532      1.0  0.15411  0.56369  0.43604  1.0000
  C   C453      1.0  0.13597  0.87425  0.46751  1.0000
  C   C454      1.0  0.08825  0.68178  0.43846  1.0000
  H   H533      1.0  0.07656  0.71305  0.39009  1.0000
  C   C455      1.0  0.10526  0.87723  0.48714  1.0000
  S   S129      1.0  0.11788  0.67187  0.34716  1.0000
  H   H534      1.0  0.04226  0.51861  0.48342  1.0000
  H   H535      1.0  0.07401  0.68973  0.40214  1.0000
  H   H536      1.0  0.14885  0.78192  0.33690  1.0000
  C   C456      1.0  0.15304  0.56737  0.45113  1.0000
  C   C457      1.0  0.14138  0.49748  0.46467  1.0000
  H   H537      1.0  0.02263  0.95541  0.52102  1.0000
  H   H538      1.0  0.11489  0.77108  0.62875  1.0000
  N   N30       1.0  0.02864  0.50671  0.51016  1.0000
  C   C458      1.0  0.05780  0.67682  0.61527  1.0000
  H   H539      1.0  0.06918  0.71093  0.41526  1.0000
  H   H540      1.0  0.03321  0.65191  0.35823  1.0000
  H   H541      1.0  0.20579  0.78386  0.53292  1.0000
  H   H542      1.0  0.11029  0.87133  0.53566  1.0000
  C   C459      1.0  0.23051  0.76996  0.35143  1.0000
  C   C460      1.0  0.10383  0.87606  0.52237  1.0000
  H   H543      1.0  0.09443  0.51947  0.47139  1.0000
  H   H544      1.0  0.23419  0.84434  0.59249  1.0000
  C   C461      1.0  0.09227  0.67115  0.45575  1.0000
  N   N31       1.0  0.21132  0.78069  0.35435  1.0000
  H   H545      1.0  0.10701  0.67862  0.39123  1.0000
  H   H546      1.0  0.11557  0.58257  0.45453  1.0000
  H   H547      1.0  0.01545  0.56276  0.53581  1.0000
  H   H548      1.0  0.07888  0.89082  0.53653  1.0000
  C   C462      1.0  0.23375  0.85980  0.63162  1.0000
  H   H549      1.0  0.18344  0.79156  0.54609  1.0000
  H   H550      1.0  0.12637  0.69279  0.39332  1.0000
  C   C463      1.0  0.17728  0.76001  0.52813  1.0000
  H   H551      1.0  0.17428  0.79603  0.35009  1.0000
  H   H552      1.0  0.01673  0.68099  0.39896  1.0000
  N   N32       1.0  0.04505  0.66149  0.62223  1.0000
  H   H553      1.0  0.10101  0.73163  0.39553  1.0000
  H   H554      1.0  0.14207  0.49726  0.49510  1.0000
  H   H555      1.0  0.10608  0.55993  0.46137  1.0000
  H   H556      1.0  0.09720  0.72898  0.42131  1.0000
  C   C464      1.0  0.10466  0.72221  0.40863  1.0000
  C   C465      1.0  0.09072  0.79216  0.62307  1.0000
  C   C466      1.0  0.00369  0.60347  0.49608  1.0000
  H   H557      1.0  0.21538  0.87637  0.56548  1.0000
  H   H558      1.0  0.03142  0.86264  0.40375  1.0000
  S   S130      1.0  0.01296  0.88407  0.58442  1.0000
  C   C467      1.0  0.02837  0.64354  0.37186  1.0000
  C   C468      1.0  0.00978  0.64408  0.40279  1.0000
  H   H559      1.0  0.23463  0.76836  0.33593  1.0000
  H   H560      1.0  0.21735  0.78831  0.38200  1.0000
  C   C469      1.0  0.08967  0.82056  0.59900  1.0000
  C   C470      1.0  0.05934  0.81389  0.35562  1.0000
  H   H561      1.0  0.03891  0.63804  0.41126  1.0000
  H   H562      1.0  0.13990  0.50193  0.43420  1.0000
  C   C471      1.0  0.01906  0.62543  0.43251  1.0000
  H   H563      1.0  0.22572  0.80684  0.34953  1.0000
  H   H564      1.0  0.06087  0.63626  0.56267  1.0000
  Fe  Fe65      1.0  0.00062  0.92975  0.41218  1.0000
  C   C472      1.0  0.07043  0.76779  0.65101  1.0000
  H   H565      1.0  0.01482  0.95179  0.48869  1.0000
  H   H566      1.0  0.01356  0.85334  0.35833  1.0000
  H   H567      1.0  0.01030  0.52506  0.52853  1.0000
  H   H568      1.0  0.02038  0.53723  0.50647  1.0000
  H   H569      1.0  0.06272  0.75844  0.66167  1.0000
  C   C473      1.0  0.05366  0.99525  0.63099  1.0000
  H   H570      1.0  0.06011  0.80577  0.34321  1.0000
  C   C474      1.0  0.19844  0.75298  0.34038  1.0000
  H   H571      1.0  0.24240  0.89635  0.37865  1.0000
  H   H572      1.0  0.00251  0.90241  0.47839  1.0000
  H   H573      1.0  0.03010  0.61967  0.44180  1.0000
  H   H574      1.0  0.01706  0.97034  0.43529  1.0000
  N   N33       1.0  0.24434  0.86418  0.56931  1.0000
  C   C475      1.0  0.09524  0.49830  0.49582  1.0000
  H   H575      1.0  0.00347  0.67277  0.36066  1.0000
  C   C476      1.0  0.99898  0.90968  0.49126  1.0000
  C   C477      1.0  0.00002  0.62221  0.43806  1.0000
  C   C478      1.0  0.12954  0.67099  0.78170  1.0000
  S   S131      1.0  0.08129  0.64670  0.68677  1.0000
  C   C479      1.0  0.00533  0.65977  0.72764  1.0000
  Fe  Fe66      1.0  0.10215  0.65629  0.70545  1.0000
  S   S132      1.0  0.10395  0.64151  0.73617  1.0000
  S   S133      1.0  0.08926  0.68691  0.70183  1.0000
  Fe  Fe67      1.0  0.16825  0.60313  0.82657  1.0000
  S   S134      1.0  0.19685  0.58628  0.83124  1.0000
  S   S135      1.0  0.16714  0.61937  0.79643  1.0000
  Fe  Fe68      1.0  0.15117  0.58925  0.86671  1.0000
  S   S136      1.0  0.17821  0.57139  0.87334  1.0000
  S   S137      1.0  0.12532  0.58523  0.88847  1.0000
  Fe  Fe69      1.0  0.19374  0.59688  0.86062  1.0000
  S   S138      1.0  0.21742  0.60100  0.87976  1.0000
  Fe  Fe70      1.0  0.17932  0.56221  0.84373  1.0000
  S   S139      1.0  0.19032  0.53136  0.83880  1.0000
  S   S140      1.0  0.16626  0.61553  0.85547  1.0000
  S   S141      1.0  0.15111  0.57826  0.83757  1.0000
  C   C480      1.0  0.16088  0.68249  0.77891  1.0000
  C   C481      1.0  0.16606  0.50055  0.77290  1.0000
  S   S142      1.0  0.10878  0.61558  0.97150  1.0000
  C   C482      1.0  0.19487  0.56845  0.92122  1.0000
  C   C483      1.0  0.17036  0.58458  0.96506  1.0000
  C   C484      1.0  0.18336  0.56497  0.79067  1.0000
  H   H576      1.0  0.12579  0.67428  0.72489  1.0000
  S   S143      1.0  0.08878  0.56796  0.99549  1.0000
  C   C485      1.0  0.14501  0.55805  0.95925  1.0000
  H   H577      1.0  0.16446  0.60914  0.92162  1.0000
  H   H578      1.0  0.11888  0.66238  0.78958  1.0000
  H   H579      1.0  0.15120  0.67496  0.72008  1.0000
  H   H580      1.0  0.19780  0.56072  0.78360  1.0000
  C   C486      1.0  0.14930  0.56762  0.78959  1.0000
  C   C487      1.0  0.17711  0.51274  0.83341  1.0000
  H   H581      1.0  0.99988  0.70185  0.67612  1.0000
  C   C488      1.0  0.15830  0.51625  0.82828  1.0000
  N   N34       1.0  0.13681  0.69957  0.73293  1.0000
  H   H582      1.0  0.15115  0.53058  0.82828  1.0000
  C   C489      1.0  0.12167  0.59366  0.91156  1.0000
  C   C490      1.0  0.11280  0.58221  0.92676  1.0000
  C   C491      1.0  0.10922  0.58853  0.94524  1.0000
  C   C492      1.0  0.11407  0.60661  0.94867  1.0000
  C   C493      1.0  0.12266  0.61822  0.93338  1.0000
  C   C494      1.0  0.12649  0.61177  0.91492  1.0000
  H   H583      1.0  0.10883  0.56827  0.92425  1.0000
  H   H584      1.0  0.10271  0.57935  0.95676  1.0000
  H   H585      1.0  0.12627  0.63231  0.93580  1.0000
  H   H586      1.0  0.13293  0.62091  0.90321  1.0000
  C   C495      1.0  0.18073  0.50640  0.78217  1.0000
  S   S144      1.0  0.12493  0.71901  0.67676  1.0000
  H   H587      1.0  0.14781  0.71963  0.71006  1.0000
  C   C496      1.0  0.15769  0.69187  0.76081  1.0000
  H   H588      1.0  0.22830  0.63484  0.85408  1.0000
  C   C497      1.0  0.12209  0.63405  0.75215  1.0000
  C   C498      1.0  0.11663  0.62605  0.77087  1.0000
  C   C499      1.0  0.13021  0.62100  0.78447  1.0000
  C   C500      1.0  0.14950  0.62405  0.77956  1.0000
  C   C501      1.0  0.15504  0.63160  0.76070  1.0000
  C   C502      1.0  0.14150  0.63639  0.74704  1.0000
  H   H589      1.0  0.10168  0.62408  0.77502  1.0000
  H   H590      1.0  0.12563  0.61528  0.79889  1.0000
  H   H591      1.0  0.16992  0.63397  0.75668  1.0000
  H   H592      1.0  0.14608  0.64205  0.73263  1.0000
  C   C503      1.0  0.15766  0.57769  0.98022  1.0000
  C   C504      1.0  0.12630  0.68003  0.76351  1.0000
  H   H593      1.0  0.20259  0.55882  0.93205  1.0000
  H   H594      1.0  0.17447  0.68292  0.78479  1.0000
  C   C505      1.0  0.15742  0.56504  0.94392  1.0000
  H   H595      1.0  0.11625  0.72173  0.74347  1.0000
  C   C506      1.0  0.14020  0.69093  0.75255  1.0000
  H   H596      1.0  0.14935  0.58263  0.79334  1.0000
  C   C507      1.0  0.17078  0.57823  0.94644  1.0000
  H   H597      1.0  0.14962  0.66427  0.80304  1.0000
  H   H598      1.0  0.20729  0.58963  0.94633  1.0000
  C   C508      1.0  0.14899  0.50125  0.82249  1.0000
  H   H599      1.0  0.02219  0.64736  0.95309  1.0000
  C   C509      1.0  0.23579  0.61681  0.87931  1.0000
  C   C510      1.0  0.99793  0.59997  0.96393  1.0000
  H   H600      1.0  0.18550  0.55973  0.91457  1.0000
  C   C511      1.0  0.02224  0.65665  0.67889  1.0000
  H   H601      1.0  0.20569  0.57308  0.90942  1.0000
  H   H602      1.0  0.18204  0.55749  0.80543  1.0000
  H   H603      1.0  0.18300  0.58058  0.79238  1.0000
  H   H604      1.0  0.13700  0.56769  0.78085  1.0000
  H   H605      1.0  0.14249  0.54372  0.76080  1.0000
  H   H606      1.0  0.15217  0.72446  0.73371  1.0000
  C   C512      1.0  0.15251  0.51418  0.76514  1.0000
  C   C513      1.0  0.14685  0.67205  0.78930  1.0000
  H   H607      1.0  0.01334  0.67043  0.71890  1.0000
  Fe  Fe71      1.0  0.07032  0.67754  0.68140  1.0000
  H   H608      1.0  0.13918  0.75596  0.67559  1.0000
  C   C514      1.0  0.15342  0.53370  0.76690  1.0000
  N   N35       1.0  0.04832  0.61665  0.96139  1.0000
  C   C515      1.0  0.05203  0.62989  0.97546  1.0000
  C   C516      1.0  0.05798  0.59752  0.96729  1.0000
  C   C517      1.0  0.05745  0.62326  0.94224  1.0000
  C   C518      1.0  0.02739  0.61649  0.96056  1.0000
  C   C519      1.0  0.01589  0.63388  0.95625  1.0000
  C   C520      1.0  0.01780  0.59943  0.96418  1.0000
  C   C521      1.0  0.18167  0.52585  0.78420  1.0000
  H   H609      1.0  0.01743  0.50064  0.99224  1.0000
  C   C522      1.0  0.16786  0.54013  0.77675  1.0000
  H   H610      1.0  0.04451  0.62598  0.98983  1.0000
  H   H611      1.0  0.06763  0.62951  0.97729  1.0000
  H   H612      1.0  0.04732  0.64510  0.97105  1.0000
  H   H613      1.0  0.05201  0.59178  0.98177  1.0000
  H   H614      1.0  0.07355  0.59827  0.96815  1.0000
  H   H615      1.0  0.05684  0.58693  0.95683  1.0000
  H   H616      1.0  0.05205  0.63816  0.93732  1.0000
  H   H617      1.0  0.07331  0.62316  0.94235  1.0000
  H   H618      1.0  0.05482  0.61378  0.93120  1.0000
  C   C523      1.0  0.14515  0.56433  0.97736  1.0000
  H   H619      1.0  0.02520  0.58550  0.96777  1.0000
  N   N36       1.0  0.16781  0.56078  0.77936  1.0000
  H   H620      1.0  0.14625  0.55840  0.80317  1.0000
  H   H621      1.0  0.11312  0.67766  0.75780  1.0000
  H   H622      1.0  0.19301  0.52916  0.79226  1.0000
  H   H623      1.0  0.03009  0.64624  0.74085  1.0000
  C   C524      1.0  0.00181  0.68638  0.67615  1.0000
  S   S145      1.0  0.12497  0.66075  0.68092  1.0000
  H   H624      1.0  0.15621  0.56030  0.92998  1.0000
  H   H625      1.0  0.15733  0.58287  0.99426  1.0000
  H   H626      1.0  0.03599  0.64895  0.68135  1.0000
  H   H627      1.0  0.18214  0.60216  0.90284  1.0000
  C   C525      1.0  0.01993  0.67664  0.67871  1.0000
  H   H628      1.0  0.16929  0.69941  0.75344  1.0000
  H   H629      1.0  0.15812  0.57109  0.75155  1.0000
  C   C526      1.0  0.17013  0.57208  0.76040  1.0000
  C   C527      1.0  0.01479  0.64616  0.74003  1.0000
  H   H630      1.0  0.13488  0.54805  0.95698  1.0000
  C   C528      1.0  0.15133  0.71272  0.72445  1.0000
  H   H631      1.0  0.17951  0.59502  0.96826  1.0000
  H   H632      1.0  0.20834  0.60177  0.92262  1.0000
  C   C529      1.0  0.13727  0.68396  0.72024  1.0000
  N   N37       1.0  0.18405  0.58508  0.93002  1.0000
  C   C530      1.0  0.11775  0.71078  0.73293  1.0000
  H   H633      1.0  0.18367  0.56708  0.75206  1.0000
  H   H634      1.0  0.16578  0.70491  0.72193  1.0000
  H   H635      1.0  0.13525  0.68971  0.70518  1.0000
  H   H636      1.0  0.17055  0.58767  0.76199  1.0000
  H   H637      1.0  0.11537  0.71837  0.71852  1.0000
  C   C531      1.0  0.19834  0.59735  0.93530  1.0000
  C   C532      1.0  0.23794  0.63227  0.86530  1.0000
  H   H638      1.0  0.10569  0.70159  0.73637  1.0000
  Fe  Fe72      1.0  0.11086  0.69109  0.67619  1.0000
  H   H639      1.0  0.19133  0.61095  0.94063  1.0000
  H   H640      1.0  0.16248  0.58806  0.90984  1.0000
  C   C533      1.0  0.17279  0.59656  0.91546  1.0000
  S   S146      1.0  0.03929  0.69008  0.68114  1.0000
  H   H641      1.0  0.01209  0.62176  0.76078  1.0000
  C   C534      1.0  0.00461  0.63239  0.75122  1.0000
  C   C535      1.0  0.00670  0.64657  0.67581  1.0000
  H   H642      1.0  0.00865  0.63112  0.67571  1.0000
  H   H643      1.0  0.13534  0.55903  0.98914  1.0000
  H   H644      1.0  0.13467  0.50419  0.81796  1.0000
  H   H645      1.0  0.14107  0.50951  0.75803  1.0000
  H   H646      1.0  0.41166  0.32326  0.13638  1.0000
  H   H647      1.0  0.41482  0.32395  0.09995  1.0000
  Fe  Fe73      1.0  0.34675  0.09146  0.30964  1.0000
  S   S147      1.0  0.35787  0.09392  0.27790  1.0000
  Fe  Fe74      1.0  0.41467  0.14365  0.15690  1.0000
  S   S148      1.0  0.42980  0.14850  0.18258  1.0000
  S   S149      1.0  0.42408  0.11534  0.14383  1.0000
  Fe  Fe75      1.0  0.39687  0.18610  0.15232  1.0000
  S   S150      1.0  0.41101  0.19355  0.17753  1.0000
  S   S151      1.0  0.37894  0.20582  0.13108  1.0000
  Fe  Fe76      1.0  0.43754  0.17606  0.16595  1.0000
  S   S152      1.0  0.46711  0.18683  0.15831  1.0000
  Fe  Fe77      1.0  0.40209  0.16516  0.19230  1.0000
  S   S153      1.0  0.38911  0.16478  0.22354  1.0000
  S   S154      1.0  0.42396  0.17041  0.13982  1.0000
  S   S155      1.0  0.38630  0.15858  0.16772  1.0000
  Fe  Fe78      1.0  0.40514  0.02651  0.09111  1.0000
  S   S156      1.0  0.43453  0.02423  0.07533  1.0000
  S   S157      1.0  0.38883  0.05484  0.09878  1.0000
  H   H648      1.0  0.43019  0.14421  0.23678  1.0000
  Fe  Fe79      1.0  0.33188  0.32688  0.05748  1.0000
  S   S158      1.0  0.35659  0.33051  0.07419  1.0000
  S   S159      1.0  0.34215  0.31726  0.02800  1.0000
  Fe  Fe80      1.0  0.30258  0.34184  0.08910  1.0000
  S   S160      1.0  0.32542  0.34674  0.10785  1.0000
  S   S161      1.0  0.27057  0.35193  0.09254  1.0000
  Fe  Fe81      1.0  0.34130  0.35898  0.08061  1.0000
  S   S162      1.0  0.35667  0.38585  0.07105  1.0000
  Fe  Fe82      1.0  0.33927  0.31747  0.09995  1.0000
  S   S163      1.0  0.35565  0.29717  0.12196  1.0000
  S   S164      1.0  0.31764  0.35600  0.06236  1.0000
  S   S165      1.0  0.31525  0.31188  0.08281  1.0000
  H   H649      1.0  0.36851  0.35717  0.12857  1.0000
  H   H650      1.0  0.38822  0.31549  0.13622  1.0000
  C   C536      1.0  0.29625  0.41759  0.12636  1.0000
  Fe  Fe83      1.0  0.40616  0.47198  0.09949  1.0000
  S   S166      1.0  0.39688  0.44375  0.11460  1.0000
  S   S167      1.0  0.42159  0.47497  0.06986  1.0000
  H   H651      1.0  0.42953  0.40597  0.10854  1.0000
  N   N38       1.0  0.40542  0.12358  0.31062  1.0000
  C   C537      1.0  0.42015  0.12143  0.25688  1.0000
  H   H652      1.0  0.39559  0.33578  0.08692  1.0000
  C   C538      1.0  0.42178  0.12149  0.32262  1.0000
  C   C539      1.0  0.42585  0.13978  0.25170  1.0000
  H   H653      1.0  0.39331  0.44306  0.02676  1.0000
  C   C540      1.0  0.25653  0.36005  0.11304  1.0000
  S   S168      1.0  0.39308  0.00798  0.07157  1.0000
  C   C541      1.0  0.26269  0.35663  0.13148  1.0000
  H   H654      1.0  0.31349  0.14524  0.29440  1.0000
  H   H655      1.0  0.27671  0.34927  0.13345  1.0000
  C   C542      1.0  0.32948  0.32166  0.00728  1.0000
  H   H656      1.0  0.34158  0.12810  0.21452  1.0000
  C   C543      1.0  0.31000  0.32816  0.00823  1.0000
  C   C544      1.0  0.33278  0.01343  0.31909  1.0000
  H   H657      1.0  0.30241  0.33127  0.02187  1.0000
  C   C545      1.0  0.36616  0.40263  0.08386  1.0000
  C   C546      1.0  0.36569  0.40083  0.10391  1.0000
  C   C547      1.0  0.37487  0.41370  0.11322  1.0000
  C   C548      1.0  0.38420  0.42872  0.10263  1.0000
  C   C549      1.0  0.38402  0.43091  0.08266  1.0000
  C   C550      1.0  0.37515  0.41787  0.07334  1.0000
  H   H658      1.0  0.35855  0.38940  0.11221  1.0000
  H   H659      1.0  0.37494  0.41194  0.12868  1.0000
  H   H660      1.0  0.39112  0.44239  0.07435  1.0000
  H   H661      1.0  0.37548  0.41952  0.05785  1.0000
  H   H662      1.0  0.30746  0.40003  0.10368  1.0000
  C   C551      1.0  0.29822  0.28247  0.00830  1.0000
  C   C552      1.0  0.48890  0.16822  0.18666  1.0000
  H   H663      1.0  0.36403  0.33532  0.11944  1.0000
  H   H664      1.0  0.27550  0.39474  0.09479  1.0000
  H   H665      1.0  0.47008  0.02492  0.08752  1.0000
  C   C553      1.0  0.37285  0.23132  0.12875  1.0000
  C   C554      1.0  0.37827  0.24345  0.14146  1.0000
  C   C555      1.0  0.37290  0.26345  0.13911  1.0000
  C   C556      1.0  0.36208  0.27173  0.12403  1.0000
  C   C557      1.0  0.35676  0.25961  0.11125  1.0000
  C   C558      1.0  0.36208  0.23960  0.11363  1.0000
  H   H666      1.0  0.38650  0.23741  0.15318  1.0000
  H   H667      1.0  0.37708  0.27255  0.14917  1.0000
  H   H668      1.0  0.34845  0.26563  0.09959  1.0000
  H   H669      1.0  0.35773  0.23046  0.10370  1.0000
  C   C559      1.0  0.38424  0.46160  0.00236  1.0000
  C   C560      1.0  0.37312  0.34753  0.11703  1.0000
  C   C561      1.0  0.31504  0.13736  0.25691  1.0000
  H   H670      1.0  0.39139  0.31527  0.10303  1.0000
  H   H671      1.0  0.47550  0.16600  0.19517  1.0000
  C   C562      1.0  0.41333  0.09795  0.13284  1.0000
  C   C563      1.0  0.39381  0.09963  0.13003  1.0000
  C   C564      1.0  0.38641  0.08614  0.11987  1.0000
  C   C565      1.0  0.39833  0.07065  0.11277  1.0000
  C   C566      1.0  0.41769  0.06864  0.11616  1.0000
  C   C567      1.0  0.42513  0.08227  0.12604  1.0000
  H   H672      1.0  0.38447  0.11134  0.13551  1.0000
  H   H673      1.0  0.37140  0.08777  0.11738  1.0000
  H   H674      1.0  0.42703  0.05679  0.11084  1.0000
  H   H675      1.0  0.44021  0.08075  0.12825  1.0000
  C   C568      1.0  0.36669  0.11381  0.26316  1.0000
  C   C569      1.0  0.36615  0.13199  0.26971  1.0000
  C   C570      1.0  0.37314  0.14739  0.25742  1.0000
  C   C571      1.0  0.38070  0.14482  0.23845  1.0000
  C   C572      1.0  0.38127  0.12662  0.23191  1.0000
  C   C573      1.0  0.37430  0.11123  0.24422  1.0000
  H   H676      1.0  0.36027  0.13426  0.28416  1.0000
  H   H677      1.0  0.37263  0.16141  0.26259  1.0000
  H   H678      1.0  0.38706  0.12442  0.21737  1.0000
  H   H679      1.0  0.37477  0.09723  0.23898  1.0000
  C   C574      1.0  0.39633  0.32848  0.13525  1.0000
  C   C575      1.0  0.30261  0.10730  0.27277  1.0000
  H   H680      1.0  0.39183  0.46951  0.04773  1.0000
  C   C576      1.0  0.36439  0.40290  0.01340  1.0000
  C   C577      1.0  0.40490  0.35779  0.11455  1.0000
  H   H681      1.0  0.33051  0.18132  0.23983  1.0000
  H   H682      1.0  0.28384  0.15289  0.27860  1.0000
  S   S169      1.0  0.43568  0.00265  0.02642  1.0000
  H   H683      1.0  0.43269  0.10978  0.31820  1.0000
  S   S170      1.0  0.31807  0.08022  0.31933  1.0000
  C   C578      1.0  0.42310  0.99917  0.00671  1.0000
  C   C579      1.0  0.33113  0.26903  0.00598  1.0000
  C   C580      1.0  0.48872  0.17705  0.16791  1.0000
  H   H684      1.0  0.30582  0.12273  0.30436  1.0000
  H   H685      1.0  0.25668  0.45647  0.15021  1.0000
  H   H686      1.0  0.32841  0.12359  0.29014  1.0000
  H   H687      1.0  0.46952  0.22703  0.17388  1.0000
  H   H688      1.0  0.45697  0.48666  0.02464  1.0000
  C   C581      1.0  0.39918  0.32850  0.10105  1.0000
  H   H689      1.0  0.39742  0.36710  0.08536  1.0000
  H   H690      1.0  0.47289  0.02698  0.01704  1.0000
  H   H691      1.0  0.38425  0.10573  0.30405  1.0000
  C   C582      1.0  0.48493  0.22780  0.17255  1.0000
  H   H692      1.0  0.43019  0.38518  0.13905  1.0000
  S   S171      1.0  0.34210  0.11527  0.32895  1.0000
  H   H693      1.0  0.42021  0.11163  0.24591  1.0000
  H   H694      1.0  0.41486  0.35544  0.14342  1.0000
  C   C583      1.0  0.41905  0.14720  0.28470  1.0000
  H   H695      1.0  0.25521  0.35908  0.16172  1.0000
  C   C584      1.0  0.42539  0.15261  0.26559  1.0000
  C   C585      1.0  0.47499  0.03072  0.00164  1.0000
  C   C586      1.0  0.28419  0.13757  0.27585  1.0000
  H   H696      1.0  0.33401  0.02763  0.31179  1.0000
  C   C587      1.0  0.33445  0.13629  0.22588  1.0000
  H   H697      1.0  0.28629  0.28991  0.01634  1.0000
  H   H698      1.0  0.32515  0.37789  0.01882  1.0000
  C   C588      1.0  0.40311  0.99977  0.00817  1.0000
  H   H699      1.0  0.42969  0.16693  0.26139  1.0000
  C   C589      1.0  0.26007  0.41188  0.11614  1.0000
  H   H700      1.0  0.27684  0.13697  0.26266  1.0000
  C   C590      1.0  0.26114  0.42325  0.13155  1.0000
  C   C591      1.0  0.48875  0.49142  0.10400  1.0000
  H   H701      1.0  0.43782  0.46441  0.02152  1.0000
  C   C592      1.0  0.41433  0.38690  0.09493  1.0000
  H   H702      1.0  0.48495  0.24648  0.14648  1.0000
  H   H703      1.0  0.31704  0.09910  0.27226  1.0000
  H   H704      1.0  0.34557  0.16265  0.21355  1.0000
  Fe  Fe84      1.0  0.43945  0.49488  0.08188  1.0000
  H   H705      1.0  0.32343  0.11181  0.24126  1.0000
  H   H706      1.0  0.29542  0.10469  0.26002  1.0000
  C   C593      1.0  0.27664  0.40366  0.10629  1.0000
  H   H707      1.0  0.40879  0.10170  0.27865  1.0000
  C   C594      1.0  0.42325  0.39236  0.11003  1.0000
  H   H708      1.0  0.33482  0.39123  0.03518  1.0000
  H   H709      1.0  0.35440  0.35642  0.01592  1.0000
  C   C595      1.0  0.29468  0.40652  0.11135  1.0000
  H   H710      1.0  0.31154  0.16595  0.26709  1.0000
  C   C596      1.0  0.39619  0.10529  0.31338  1.0000
  H   H711      1.0  0.36568  0.40272  0.02909  1.0000
  C   C597      1.0  0.40514  0.36999  0.09714  1.0000
  H   H712      1.0  0.40659  0.09272  0.31042  1.0000
  H   H713      1.0  0.47558  0.48638  0.11106  1.0000
  H   H714      1.0  0.36971  0.35564  0.10317  1.0000
  C   C598      1.0  0.27977  0.42577  0.13641  1.0000
  H   H715      1.0  0.29418  0.10082  0.28566  1.0000
  H   H716      1.0  0.45383  0.44773  0.00833  1.0000
  C   C599      1.0  0.42344  0.38067  0.12726  1.0000
  H   H717      1.0  0.35751  0.41737  0.00873  1.0000
  H   H718      1.0  0.41371  0.39632  0.08174  1.0000
  C   C600      1.0  0.41350  0.11595  0.27587  1.0000
  C   C601      1.0  0.33319  0.99746  0.30843  1.0000
  H   H719      1.0  0.37926  0.40152  0.00627  1.0000
  C   C602      1.0  0.48417  0.01894  0.09076  1.0000
  C   C603      1.0  0.41244  0.12885  0.29036  1.0000
  H   H720      1.0  0.25566  0.42600  0.17020  1.0000
  C   C604      1.0  0.38876  0.45759  0.02136  1.0000
  N   N39       1.0  0.38822  0.15770  0.09773  1.0000
  C   C605      1.0  0.38513  0.15257  0.11868  1.0000
  C   C606      1.0  0.40484  0.16942  0.09376  1.0000
  C   C607      1.0  0.37105  0.17009  0.09178  1.0000
  C   C608      1.0  0.39198  0.13979  0.08802  1.0000
  C   C609      1.0  0.40903  0.12755  0.09059  1.0000
  C   C610      1.0  0.37844  0.13326  0.07703  1.0000
  C   C611      1.0  0.41239  0.11002  0.08254  1.0000
  C   C612      1.0  0.38185  0.11553  0.06929  1.0000
  C   C613      1.0  0.39874  0.10391  0.07211  1.0000
  H   H721      1.0  0.39793  0.14430  0.12449  1.0000
  H   H722      1.0  0.38193  0.16558  0.12662  1.0000
  H   H723      1.0  0.37293  0.14356  0.12231  1.0000
  H   H724      1.0  0.41793  0.16226  0.09993  1.0000
  H   H725      1.0  0.40198  0.18335  0.10033  1.0000
  H   H726      1.0  0.40836  0.17265  0.07806  1.0000
  H   H727      1.0  0.35762  0.16307  0.09617  1.0000
  H   H728      1.0  0.36921  0.18379  0.09881  1.0000
  H   H729      1.0  0.37221  0.17401  0.07599  1.0000
  H   H730      1.0  0.41950  0.13090  0.09970  1.0000
  H   H731      1.0  0.36490  0.14131  0.07464  1.0000
  H   H732      1.0  0.42518  0.10062  0.08533  1.0000
  H   H733      1.0  0.37112  0.11045  0.06151  1.0000
  H   H734      1.0  0.40098  0.08981  0.06683  1.0000
  N   N40       1.0  0.30401  0.12811  0.27381  1.0000
  H   H735      1.0  0.36507  0.36882  0.03227  1.0000
  C   C614      1.0  0.33671  0.15579  0.22529  1.0000
  C   C615      1.0  0.31334  0.13007  0.29139  1.0000
  H   H736      1.0  0.39491  0.00287  0.02152  1.0000
  Fe  Fe85      1.0  0.42321  0.00379  0.05755  1.0000
  C   C616      1.0  0.32390  0.12709  0.24145  1.0000
  C   C617      1.0  0.36286  0.36880  0.01679  1.0000
  H   H737      1.0  0.39073  0.33611  0.14804  1.0000
  C   C618      1.0  0.38821  0.47259  0.03314  1.0000
  C   C619      1.0  0.41448  0.36359  0.12958  1.0000
  C   C620      1.0  0.31754  0.15726  0.25575  1.0000
  N   N41       1.0  0.35315  0.38730  0.00909  1.0000
  C   C621      1.0  0.32828  0.16625  0.24019  1.0000
  N   N42       1.0  0.39373  0.34081  0.11704  1.0000
  H   H738      1.0  0.32574  0.40341  0.01370  1.0000
  C   C622      1.0  0.44150  0.45888  0.00723  1.0000
  H   H739      1.0  0.31693  0.28165  0.03082  1.0000
  H   H740      1.0  0.37926  0.14196  0.30819  1.0000
  H   H741      1.0  0.27544  0.13060  0.28826  1.0000
  H   H742      1.0  0.42912  0.13487  0.32165  1.0000
  C   C623      1.0  0.48436  0.49587  0.01490  1.0000
  S   S172      1.0  0.41151  0.00189  0.11333  1.0000
  C   C624      1.0  0.33387  0.39008  0.01960  1.0000
  C   C625      1.0  0.39099  0.13872  0.31782  1.0000
  H   H743      1.0  0.42875  0.45160  0.00462  1.0000
  C   C626      1.0  0.49370  0.23860  0.15703  1.0000
  H   H744      1.0  0.31036  0.41972  0.13027  1.0000
  C   C627      1.0  0.31547  0.27780  0.01651  1.0000
  H   H745      1.0  0.28175  0.43393  0.14815  1.0000
  H   H746      1.0  0.39726  0.15232  0.31917  1.0000
  S   S173      1.0  0.42586  0.48992  0.11212  1.0000
  C   C628      1.0  0.49602  0.21735  0.18601  1.0000
  H   H747      1.0  0.38995  0.10232  0.32843  1.0000
  C   C629      1.0  0.25044  0.36219  0.14748  1.0000
  H   H748      1.0  0.41923  0.15759  0.29495  1.0000
  C   C630      1.0  0.48650  0.00171  0.10247  1.0000
  H   H749      1.0  0.48911  0.20855  0.19776  1.0000
  C   C631      1.0  0.46746  0.48795  0.01234  1.0000
  H   H750      1.0  0.28919  0.01632  0.32110  1.0000
  H   H751      1.0  0.37710  0.36573  0.00876  1.0000
  C   C632      1.0  0.37752  0.49531  0.00729  1.0000
  C   C633      1.0  0.38320  0.49151  0.02588  1.0000
  H   H752      1.0  0.33477  0.99949  0.29290  1.0000
  H   H753      1.0  0.34468  0.26602  0.01228  1.0000
  H   H754      1.0  0.44534  0.03724  0.99955  1.0000
  Fe  Fe86      1.0  0.44010  0.99834  0.09621  1.0000
  H   H755      1.0  0.42820  0.49597  0.00684  1.0000
  H   H756      1.0  0.24662  0.40888  0.11151  1.0000
  H   H757      1.0  0.34734  0.14645  0.59636  1.0000
  S   S174      1.0  0.38812  0.07375  0.64809  1.0000
  H   H758      1.0  0.39228  0.11512  0.64069  1.0000
  H   H759      1.0  0.28692  0.06356  0.64158  1.0000
  Fe  Fe87      1.0  0.48484  0.10340  0.59882  1.0000
  C   C634      1.0  0.24897  0.06863  0.63522  1.0000
  S   S175      1.0  0.45580  0.11971  0.60555  1.0000
  C   C635      1.0  0.24686  0.13818  0.62022  1.0000
  S   S176      1.0  0.36274  0.07088  0.33056  1.0000
  H   H760      1.0  0.48841  0.09540  0.53307  1.0000
  C   C636      1.0  0.49596  0.02604  0.52123  1.0000
  Fe  Fe88      1.0  0.35621  0.09403  0.35058  1.0000
  S   S177      1.0  0.37733  0.10446  0.36880  1.0000
  C   C637      1.0  0.26180  0.12194  0.65444  1.0000
  H   H761      1.0  0.47243  0.03926  0.39556  1.0000
  H   H762      1.0  0.46940  0.11248  0.64915  1.0000
  S   S178      1.0  0.32811  0.08358  0.36354  1.0000
  H   H763      1.0  0.46564  0.02281  0.41620  1.0000
  S   S179      1.0  0.46574  0.07567  0.37255  1.0000
  C   C638      1.0  0.43597  0.02880  0.39237  1.0000
  C   C639      1.0  0.48395  0.02422  0.59099  1.0000
  C   C640      1.0  0.26603  0.12538  0.35846  1.0000
  C   C641      1.0  0.26229  0.11075  0.37302  1.0000
  H   H764      1.0  0.47668  0.01181  0.36662  1.0000
  C   C642      1.0  0.25239  0.14143  0.35659  1.0000
  H   H765      1.0  0.27254  0.09829  0.37469  1.0000
  S   S180      1.0  0.48976  0.07921  0.57973  1.0000
  H   H766      1.0  0.44354  0.04902  0.41170  1.0000
  H   H767      1.0  0.27629  0.13539  0.60793  1.0000
  C   C643      1.0  0.43249  0.04429  0.40417  1.0000
  H   H768      1.0  0.36240  0.10315  0.62753  1.0000
  C   C644      1.0  0.41452  0.05474  0.40605  1.0000
  C   C645      1.0  0.44107  0.08352  0.37217  1.0000
  C   C646      1.0  0.43210  0.09746  0.38372  1.0000
  C   C647      1.0  0.41252  0.10354  0.38264  1.0000
  C   C648      1.0  0.40167  0.09560  0.37023  1.0000
  C   C649      1.0  0.41059  0.08145  0.35887  1.0000
  C   C650      1.0  0.43024  0.07560  0.35972  1.0000
  H   H769      1.0  0.44028  0.10367  0.39335  1.0000
  H   H770      1.0  0.40574  0.11449  0.39148  1.0000
  H   H771      1.0  0.40238  0.07496  0.34950  1.0000
  H   H772      1.0  0.43704  0.06471  0.35084  1.0000
  Fe  Fe89      1.0  0.48616  0.08195  0.39391  1.0000
  H   H773      1.0  0.41461  0.08299  0.58973  1.0000
  Fe  Fe90      1.0  0.49611  0.08665  0.43474  1.0000
  C   C651      1.0  0.46973  0.02414  0.40044  1.0000
  C   C652      1.0  0.27440  0.12477  0.63789  1.0000
  H   H774      1.0  0.47709  0.03862  0.59181  1.0000
  C   C653      1.0  0.26677  0.13300  0.62083  1.0000
  H   H775      1.0  0.46378  0.01581  0.57290  1.0000
  H   H776      1.0  0.28295  0.08277  0.65682  1.0000
  Fe  Fe91      1.0  0.33375  0.06159  0.34184  1.0000
  C   C654      1.0  0.40694  0.08712  0.63724  1.0000
  C   C655      1.0  0.42393  0.07707  0.63000  1.0000
  C   C656      1.0  0.43907  0.08694  0.62049  1.0000
  C   C657      1.0  0.43727  0.10699  0.61804  1.0000
  C   C658      1.0  0.42033  0.11709  0.62541  1.0000
  C   C659      1.0  0.40523  0.10720  0.63511  1.0000
  C   C660      1.0  0.32394  0.01429  0.65995  1.0000
  H   H777      1.0  0.32853  0.10017  0.60332  1.0000
  H   H778      1.0  0.41891  0.13261  0.62356  1.0000
  H   H779      1.0  0.48425  0.00862  0.45125  1.0000
  H   H780      1.0  0.32686  0.13331  0.59979  1.0000
  H   H781      1.0  0.42194  0.01298  0.37349  1.0000
  C   C661      1.0  0.38615  0.09721  0.59419  1.0000
  H   H782      1.0  0.47039  0.09461  0.50455  1.0000
  H   H783      1.0  0.25506  0.15287  0.34544  1.0000
  H   H784      1.0  0.45207  0.07903  0.61491  1.0000
  C   C662      1.0  0.40524  0.09585  0.58638  1.0000
  H   H785      1.0  0.38156  0.08519  0.60379  1.0000
  C   C663      1.0  0.40250  0.03519  0.38456  1.0000
  H   H786      1.0  0.48728  0.03573  0.47428  1.0000
  S   S181      1.0  0.49059  0.10780  0.40899  1.0000
  H   H787      1.0  0.45276  0.01302  0.36000  1.0000
  H   H788      1.0  0.34026  0.11815  0.62853  1.0000
  S   S182      1.0  0.48234  0.09118  0.46472  1.0000
  C   C664      1.0  0.48589  0.09280  0.50304  1.0000
  H   H789      1.0  0.34407  0.09669  0.58169  1.0000
  H   H790      1.0  0.34108  0.13362  0.57709  1.0000
  H   H791      1.0  0.46190  0.07884  0.65615  1.0000
  C   C665      1.0  0.41264  0.11134  0.57516  1.0000
  S   S183      1.0  0.32938  0.03064  0.35324  1.0000
  H   H792      1.0  0.37340  0.14308  0.57543  1.0000
  S   S184      1.0  0.48925  0.06147  0.42031  1.0000
  C   C666      1.0  0.40083  0.12811  0.57128  1.0000
  H   H793      1.0  0.42770  0.11048  0.56988  1.0000
  C   C667      1.0  0.34188  0.13303  0.59288  1.0000
  H   H794      1.0  0.36265  0.12872  0.62365  1.0000
  C   C668      1.0  0.47642  0.01132  0.58036  1.0000
  N   N43       1.0  0.45488  0.01760  0.38969  1.0000
  H   H795      1.0  0.42538  0.06153  0.63161  1.0000
  C   C669      1.0  0.46206  0.01931  0.36907  1.0000
  S   S185      1.0  0.33306  0.07435  0.65190  1.0000
  H   H796      1.0  0.41235  0.06686  0.41467  1.0000
  H   H797      1.0  0.35019  0.08518  0.60462  1.0000
  C   C670      1.0  0.38160  0.12956  0.57876  1.0000
  H   H798      1.0  0.40679  0.14019  0.56272  1.0000
  S   S186      1.0  0.28717  0.12425  0.34197  1.0000
  H   H799      1.0  0.46292  0.03470  0.36357  1.0000
  H   H800      1.0  0.39091  0.03207  0.37665  1.0000
  H   H801      1.0  0.38431  0.13429  0.33250  1.0000
  C   C671      1.0  0.37367  0.11409  0.59055  1.0000
  N   N44       1.0  0.35388  0.11564  0.60002  1.0000
  C   C672      1.0  0.34382  0.09869  0.59722  1.0000
  C   C673      1.0  0.35484  0.11644  0.62084  1.0000
  C   C674      1.0  0.32579  0.99763  0.65010  1.0000
  C   C675      1.0  0.45301  0.99709  0.39628  1.0000
  C   C676      1.0  0.39960  0.05027  0.39622  1.0000
  S   S187      1.0  0.29972  0.11838  0.63769  1.0000
  C   C677      1.0  0.33048  0.01101  0.33915  1.0000
  Fe  Fe92      1.0  0.31423  0.10289  0.34033  1.0000
  H   H802      1.0  0.38591  0.05888  0.39724  1.0000
  C   C678      1.0  0.49564  0.09037  0.48489  1.0000
  C   C679      1.0  0.42035  0.02449  0.38274  1.0000
  H   H803      1.0  0.28179  0.03219  0.35102  1.0000
  H   H804      1.0  0.32622  0.02808  0.65220  1.0000
  H   H805      1.0  0.41705  0.11799  0.33808  1.0000
  C   C680      1.0  0.27380  0.00649  0.36799  1.0000
  H   H806      1.0  0.26045  0.06074  0.62712  1.0000
  H   H807      1.0  0.47183  0.02292  0.50554  1.0000
  H   H808      1.0  0.26939  0.03493  0.64902  1.0000
  C   C681      1.0  0.49606  0.09322  0.51922  1.0000
  H   H809      1.0  0.48379  0.01551  0.39817  1.0000
  H   H810      1.0  0.32946  0.99875  0.63474  1.0000
  H   H811      1.0  0.43535  0.99718  0.61620  1.0000
  C   C682      1.0  0.48631  0.02715  0.50465  1.0000
  H   H812      1.0  0.48849  0.02069  0.53462  1.0000
  C   C683      1.0  0.24904  0.06934  0.65533  1.0000
  H   H813      1.0  0.36399  0.00526  0.36346  1.0000
  C   C684      1.0  0.27992  0.01706  0.35104  1.0000
  C   C685      1.0  0.49499  0.03427  0.48703  1.0000
  C   C686      1.0  0.49531  0.00487  0.44009  1.0000
  C   C687      1.0  0.45737  0.10898  0.65938  1.0000
  C   C688      1.0  0.28347  0.06689  0.65669  1.0000
  C   C689      1.0  0.28410  0.00807  0.33418  1.0000
  Fe  Fe93      1.0  0.31798  0.10237  0.66073  1.0000
  H   H814      1.0  0.27062  0.01358  0.38108  1.0000
  Fe  Fe94      1.0  0.35921  0.08378  0.66271  1.0000
  S   S188      1.0  0.35283  0.06989  0.69252  1.0000
  H   H815      1.0  0.43432  0.07052  0.67770  1.0000
  S   S189      1.0  0.30891  0.08994  0.69067  1.0000
  Fe  Fe95      1.0  0.33710  0.09824  0.69878  1.0000
  S   S190      1.0  0.33951  0.10712  0.72880  1.0000
  Fe  Fe96      1.0  0.32564  0.06256  0.68225  1.0000
  S   S191      1.0  0.31397  0.03388  0.69234  1.0000
  H   H816      1.0  0.44917  0.13826  0.66474  1.0000
  Fe  Fe97      1.0  0.39978  0.18430  0.82723  1.0000
  S   S192      1.0  0.42101  0.17869  0.80162  1.0000
  S   S193      1.0  0.38795  0.21590  0.82847  1.0000
  Fe  Fe98      1.0  0.40037  0.14122  0.83973  1.0000
  S   S194      1.0  0.42086  0.13287  0.81484  1.0000
  S   S195      1.0  0.39160  0.12020  0.86494  1.0000
  Fe  Fe99      1.0  0.43710  0.15712  0.82137  1.0000
  S   S196      1.0  0.46875  0.14772  0.82443  1.0000
  Fe  Fe100     1.0  0.40306  0.15498  0.79706  1.0000
  S   S197      1.0  0.39705  0.15446  0.76567  1.0000
  S   S198      1.0  0.41736  0.16441  0.84730  1.0000
  S   S199      1.0  0.38107  0.16159  0.82166  1.0000
  H   H817      1.0  0.28802  0.28639  0.95109  1.0000
  C   C690      1.0  0.44604  0.46591  0.97312  1.0000
  H   H818      1.0  0.38081  0.18786  0.78757  1.0000
  C   C691      1.0  0.47721  0.08955  0.86294  1.0000
  C   C692      1.0  0.45919  0.09364  0.83509  1.0000
  C   C693      1.0  0.46136  0.04146  0.97109  1.0000
  Fe  Fe101     1.0  0.40273  0.01076  0.88468  1.0000
  S   S200      1.0  0.38960  0.03050  0.86110  1.0000
  S   S201      1.0  0.41438  0.01919  0.91075  1.0000
  Fe  Fe102     1.0  0.33246  0.29640  0.89453  1.0000
  S   S202      1.0  0.30127  0.30284  0.90459  1.0000
  S   S203      1.0  0.34662  0.26549  0.89512  1.0000
  Fe  Fe103     1.0  0.33927  0.33909  0.89211  1.0000
  S   S204      1.0  0.30857  0.34877  0.90132  1.0000
  S   S205      1.0  0.36536  0.35595  0.88878  1.0000
  Fe  Fe104     1.0  0.31081  0.32335  0.92345  1.0000
  S   S206      1.0  0.29644  0.32582  0.95366  1.0000
  Fe  Fe105     1.0  0.30130  0.32768  0.88166  1.0000
  S   S207      1.0  0.27742  0.32964  0.86175  1.0000
  S   S208      1.0  0.34185  0.31498  0.91546  1.0000
  S   S209      1.0  0.33205  0.31995  0.87045  1.0000
  Fe  Fe106     1.0  0.37933  0.45819  0.91632  1.0000
  S   S210      1.0  0.40403  0.44420  0.93189  1.0000
  S   S211      1.0  0.35854  0.44498  0.90014  1.0000
  H   H819      1.0  0.35099  0.21916  0.75493  1.0000
  H   H820      1.0  0.44481  0.09481  0.82950  1.0000
  C   C694      1.0  0.25946  0.34893  0.85828  1.0000
  C   C695      1.0  0.25924  0.36592  0.86708  1.0000
  H   H821      1.0  0.48921  0.45444  0.87226  1.0000
  H   H822      1.0  0.37404  0.48344  0.98101  1.0000
  H   H823      1.0  0.27038  0.36761  0.87614  1.0000
  H   H824      1.0  0.34513  0.38487  0.93367  1.0000
  C   C696      1.0  0.40279  0.26991  0.87318  1.0000
  C   C697      1.0  0.36284  0.38039  0.89331  1.0000
  C   C698      1.0  0.34550  0.39173  0.89150  1.0000
  C   C699      1.0  0.34432  0.41146  0.89387  1.0000
  C   C700      1.0  0.36029  0.41992  0.89850  1.0000
  C   C701      1.0  0.37745  0.40845  0.90094  1.0000
  C   C702      1.0  0.37877  0.38881  0.89812  1.0000
  H   H825      1.0  0.33318  0.38543  0.88768  1.0000
  H   H826      1.0  0.33101  0.42024  0.89190  1.0000
  H   H827      1.0  0.38988  0.41484  0.90439  1.0000
  H   H828      1.0  0.39223  0.38015  0.89953  1.0000
  C   C703      1.0  0.32937  0.31963  0.97279  1.0000
  C   C704      1.0  0.30970  0.32526  0.97385  1.0000
  H   H829      1.0  0.41045  0.11795  0.71690  1.0000
  H   H830      1.0  0.33703  0.31644  0.95923  1.0000
  C   C705      1.0  0.43709  0.08544  0.67585  1.0000
  C   C706      1.0  0.31222  0.26938  0.97837  1.0000
  H   H831      1.0  0.40639  0.30063  0.90309  1.0000
  H   H832      1.0  0.25279  0.03263  0.67009  1.0000
  C   C707      1.0  0.37543  0.22895  0.84710  1.0000
  C   C708      1.0  0.36842  0.24821  0.84264  1.0000
  C   C709      1.0  0.35900  0.25941  0.85696  1.0000
  C   C710      1.0  0.35668  0.25155  0.87607  1.0000
  C   C711      1.0  0.36354  0.23225  0.88052  1.0000
  C   C712      1.0  0.37272  0.22096  0.86613  1.0000
  H   H833      1.0  0.37043  0.25459  0.82799  1.0000
  H   H834      1.0  0.35375  0.27417  0.85322  1.0000
  H   H835      1.0  0.36191  0.22598  0.89523  1.0000
  H   H836      1.0  0.37801  0.20620  0.86985  1.0000
  C   C713      1.0  0.48798  0.18064  0.81451  1.0000
  H   H837      1.0  0.46648  0.48253  0.87265  1.0000
  H   H838      1.0  0.43526  0.07478  0.94330  1.0000
  H   H839      1.0  0.47450  0.18783  0.81035  1.0000
  H   H840      1.0  0.33101  0.36100  0.95791  1.0000
  C   C714      1.0  0.39225  0.09525  0.86317  1.0000
  C   C715      1.0  0.39246  0.08276  0.88006  1.0000
  C   C716      1.0  0.39229  0.06286  0.87944  1.0000
  C   C717      1.0  0.39144  0.05530  0.86194  1.0000
  C   C718      1.0  0.39145  0.06776  0.84497  1.0000
  C   C719      1.0  0.39212  0.08767  0.84554  1.0000
  H   H841      1.0  0.39243  0.08854  0.89374  1.0000
  H   H842      1.0  0.39195  0.05349  0.89261  1.0000
  H   H843      1.0  0.39072  0.06205  0.83138  1.0000
  H   H844      1.0  0.39185  0.09720  0.83245  1.0000
  S   S212      1.0  0.36465  0.47106  0.94228  1.0000
  H   H845      1.0  0.38249  0.21306  0.78203  1.0000
  C   C720      1.0  0.35672  0.11937  0.73841  1.0000
  C   C721      1.0  0.36729  0.13295  0.72721  1.0000
  C   C722      1.0  0.37977  0.14332  0.73577  1.0000
  C   C723      1.0  0.38177  0.14034  0.75561  1.0000
  C   C724      1.0  0.37135  0.12663  0.76677  1.0000
  C   C725      1.0  0.35887  0.11627  0.75821  1.0000
  H   H846      1.0  0.36527  0.13601  0.71213  1.0000
  H   H847      1.0  0.38761  0.15404  0.72705  1.0000
  H   H848      1.0  0.37264  0.12425  0.78206  1.0000
  H   H849      1.0  0.35059  0.10597  0.76707  1.0000
  C   C726      1.0  0.31854  0.01310  0.67971  1.0000
  H   H850      1.0  0.45153  0.12207  0.85742  1.0000
  H   H851      1.0  0.44430  0.02118  0.94909  1.0000
  C   C727      1.0  0.44693  0.07421  0.86280  1.0000
  H   H852      1.0  0.31451  0.24054  0.94179  1.0000
  H   H853      1.0  0.43527  0.30074  0.85253  1.0000
  C   C728      1.0  0.48849  0.10542  0.85975  1.0000
  H   H854      1.0  0.46802  0.08134  0.82892  1.0000
  H   H855      1.0  0.45703  0.03783  0.93286  1.0000
  N   N45       1.0  0.44504  0.04865  0.95976  1.0000
  C   C729      1.0  0.32518  0.27573  0.94540  1.0000
  H   H856      1.0  0.25322  0.32640  0.89778  1.0000
  C   C730      1.0  0.46758  0.47968  0.92166  1.0000
  C   C731      1.0  0.34102  0.37267  0.98193  1.0000
  H   H857      1.0  0.28299  0.28320  0.98382  1.0000
  H   H858      1.0  0.30589  0.23568  0.96669  1.0000
  C   C732      1.0  0.45308  0.09000  0.66335  1.0000
  H   H859      1.0  0.29163  0.26718  0.93612  1.0000
  C   C733      1.0  0.45915  0.03669  0.99130  1.0000
  H   H860      1.0  0.44841  0.07810  0.96323  1.0000
  H   H861      1.0  0.42149  0.13088  0.68720  1.0000
  H   H862      1.0  0.38888  0.10197  0.67604  1.0000
  H   H863      1.0  0.32447  0.27328  0.93011  1.0000
  H   H864      1.0  0.26351  0.33532  0.92800  1.0000
  C   C734      1.0  0.32957  0.26478  0.98723  1.0000
  H   H865      1.0  0.48923  0.45582  0.92072  1.0000
  C   C735      1.0  0.33915  0.31766  0.98947  1.0000
  H   H866      1.0  0.27819  0.03079  0.67212  1.0000
  H   H867      1.0  0.32878  0.47097  0.88425  1.0000
  H   H868      1.0  0.41700  0.06626  0.70742  1.0000
  H   H869      1.0  0.38616  0.31802  0.89958  1.0000
  C   C736      1.0  0.42999  0.11909  0.68084  1.0000
  H   H870      1.0  0.30927  0.49203  0.91902  1.0000
  H   H871      1.0  0.39745  0.09874  0.72794  1.0000
  H   H872      1.0  0.33203  0.47796  0.91635  1.0000
  H   H873      1.0  0.48305  0.11895  0.85268  1.0000
  C   C737      1.0  0.48421  0.01059  0.91466  1.0000
  C   C738      1.0  0.41036  0.28791  0.86828  1.0000
  C   C739      1.0  0.42839  0.28780  0.85711  1.0000
  C   C740      1.0  0.34679  0.38543  0.94877  1.0000
  S   S213      1.0  0.44975  0.46601  0.91556  1.0000
  H   H874      1.0  0.32235  0.29141  0.94661  1.0000
  C   C741      1.0  0.44609  0.10826  0.86366  1.0000
  H   H875      1.0  0.40624  0.23940  0.87084  1.0000
  C   C742      1.0  0.40967  0.32321  0.86905  1.0000
  H   H876      1.0  0.44679  0.47705  0.96068  1.0000
  S   S214      1.0  0.46852  0.01719  0.89691  1.0000
  H   H877      1.0  0.45829  0.45480  0.97106  1.0000
  H   H878      1.0  0.43210  0.07622  0.85820  1.0000
  H   H879      1.0  0.35624  0.22304  0.80503  1.0000
  H   H880      1.0  0.43165  0.04078  0.93577  1.0000
  C   C743      1.0  0.40469  0.07503  0.70118  1.0000
  C   C744      1.0  0.43803  0.27068  0.85125  1.0000
  C   C745      1.0  0.35901  0.40047  0.97397  1.0000
  H   H881      1.0  0.47866  0.05920  0.87467  1.0000
  Fe  Fe107     1.0  0.41776  0.47182  0.92342  1.0000
  N   N46       1.0  0.35388  0.20407  0.78314  1.0000
  C   C746      1.0  0.35004  0.20945  0.80317  1.0000
  C   C747      1.0  0.37492  0.20075  0.77883  1.0000
  H   H882      1.0  0.46592  0.10693  0.82922  1.0000
  H   H883      1.0  0.30507  0.48234  0.88672  1.0000
  H   H884      1.0  0.47688  0.48227  0.96437  1.0000
  H   H885      1.0  0.29583  0.06032  0.66449  1.0000
  C   C748      1.0  0.24962  0.34101  0.92343  1.0000
  H   H886      1.0  0.39102  0.12197  0.68930  1.0000
  H   H887      1.0  0.45168  0.27087  0.84260  1.0000
  H   H888      1.0  0.35227  0.23430  0.77336  1.0000
  C   C749      1.0  0.48592  0.07216  0.87181  1.0000
  C   C750      1.0  0.34526  0.18092  0.76104  1.0000
  H   H889      1.0  0.35272  0.18857  0.74891  1.0000
  H   H890      1.0  0.33440  0.21162  0.80753  1.0000
  C   C751      1.0  0.42503  0.09992  0.68504  1.0000
  H   H891      1.0  0.35679  0.19847  0.81358  1.0000
  H   H892      1.0  0.45383  0.06104  0.85652  1.0000
  C   C752      1.0  0.41252  0.25292  0.86720  1.0000
  C   C753      1.0  0.39056  0.10616  0.69057  1.0000
  H   H893      1.0  0.42325  0.32185  0.87613  1.0000
  C   C754      1.0  0.34661  0.22078  0.77034  1.0000
  H   H894      1.0  0.38904  0.26888  0.88134  1.0000
  Fe  Fe108     1.0  0.39043  0.45926  0.95690  1.0000
  N   N47       1.0  0.45769  0.09123  0.85637  1.0000
  N   N48       1.0  0.31112  0.26510  0.95832  1.0000
  C   C755      1.0  0.31573  0.24425  0.95665  1.0000
  C   C756      1.0  0.48892  0.16134  0.82185  1.0000
  C   C757      1.0  0.35679  0.39965  0.95451  1.0000
  H   H895      1.0  0.33458  0.36192  0.99196  1.0000
  C   C758      1.0  0.43015  0.48992  0.99266  1.0000
  C   C759      1.0  0.44746  0.06866  0.95163  1.0000
  C   C760      1.0  0.47837  0.48555  0.97879  1.0000
  H   H896      1.0  0.36283  0.41014  0.94377  1.0000
  C   C761      1.0  0.49340  0.02939  0.99228  1.0000
  H   H897      1.0  0.27634  0.05541  0.69345  1.0000
  S   S215      1.0  0.39396  0.48477  0.90530  1.0000
  H   H898      1.0  0.44554  0.10777  0.87956  1.0000
  H   H899      1.0  0.42315  0.09520  0.72343  1.0000
  H   H900      1.0  0.34022  0.27145  0.94859  1.0000
  H   H901      1.0  0.35573  0.48663  0.88782  1.0000
  H   H902      1.0  0.33065  0.23927  0.95984  1.0000
  C   C762      1.0  0.44452  0.03660  0.94373  1.0000
  C   C763      1.0  0.37799  0.48034  0.99555  1.0000
  H   H903      1.0  0.43271  0.45888  0.97211  1.0000
  H   H904      1.0  0.39172  0.07241  0.71122  1.0000
  H   H905      1.0  0.35424  0.31274  0.98862  1.0000
  C   C764      1.0  0.32019  0.48511  0.88205  1.0000
  H   H906      1.0  0.25089  0.05667  0.69419  1.0000
  C   C765      1.0  0.48032  0.03962  0.96198  1.0000
  Fe  Fe109     1.0  0.44148  0.00246  0.90054  1.0000
  H   H907      1.0  0.37908  0.19809  0.76358  1.0000
  H   H908      1.0  0.38337  0.29328  0.89944  1.0000
  H   H909      1.0  0.38491  0.30887  0.84787  1.0000
  H   H910      1.0  0.34222  0.25824  0.97957  1.0000
  H   H911      1.0  0.41283  0.32630  0.85327  1.0000
  C   C766      1.0  0.34488  0.18666  0.77987  1.0000
  C   C767      1.0  0.33604  0.17468  0.79507  1.0000
  H   H912      1.0  0.43738  0.24009  0.85136  1.0000
  C   C768      1.0  0.32762  0.15838  0.79142  1.0000
  C   C769      1.0  0.33652  0.16478  0.75754  1.0000
  C   C770      1.0  0.32772  0.15354  0.77269  1.0000
  H   H913      1.0  0.44549  0.07145  0.87873  1.0000
  H   H914      1.0  0.33066  0.22292  0.77222  1.0000
  H   H915      1.0  0.40104  0.33630  0.87397  1.0000
  H   H916      1.0  0.33571  0.17738  0.80995  1.0000
  H   H917      1.0  0.32121  0.14927  0.80322  1.0000
  H   H918      1.0  0.33710  0.16056  0.74307  1.0000
  H   H919      1.0  0.32146  0.14073  0.76990  1.0000
  H   H920      1.0  0.40222  0.06945  0.68742  1.0000
  C   C771      1.0  0.38151  0.30874  0.86369  1.0000
  C   C772      1.0  0.40986  0.10217  0.71742  1.0000
  H   H921      1.0  0.36691  0.41192  0.97732  1.0000
  H   H922      1.0  0.26735  0.11590  0.66776  1.0000
  C   C773      1.0  0.48151  0.48404  0.87379  1.0000
  H   H923      1.0  0.37731  0.10302  0.69996  1.0000
  H   H924      1.0  0.37178  0.29725  0.86822  1.0000
  N   N49       1.0  0.40791  0.09573  0.69830  1.0000
  C   C774      1.0  0.39361  0.30429  0.89487  1.0000
  H   H925      1.0  0.42494  0.05830  0.98291  1.0000
  H   H926      1.0  0.28060  0.26293  0.96007  1.0000
  H   H927      1.0  0.37319  0.32264  0.86655  1.0000
  C   C775      1.0  0.43006  0.25330  0.85620  1.0000
  N   N50       1.0  0.39916  0.30579  0.87385  1.0000
  C   C776      1.0  0.29196  0.27062  0.95121  1.0000
  C   C777      1.0  0.42606  0.04865  0.97117  1.0000
  H   H928      1.0  0.43108  0.10923  0.85976  1.0000
  C   C778      1.0  0.33888  0.37199  0.96245  1.0000
  H   H929      1.0  0.46071  0.06965  0.94167  1.0000
  H   H930      1.0  0.41406  0.05370  0.96218  1.0000
  S   S216      1.0  0.38866  0.44383  0.98647  1.0000
  H   H931      1.0  0.37407  0.00837  0.83180  1.0000
  C   C779      1.0  0.29654  0.27848  0.98948  1.0000
  C   C780      1.0  0.48634  0.47095  0.92255  1.0000
  H   H932      1.0  0.42324  0.03396  0.97759  1.0000
  S   S217      1.0  0.40547  0.48609  0.94968  1.0000
  H   H933      1.0  0.48318  0.04281  0.94665  1.0000
  H   H934      1.0  0.26337  0.07821  0.68839  1.0000
  S   S218      1.0  0.34516  0.11287  0.66939  1.0000
  C   C781      1.0  0.26376  0.06268  0.68628  1.0000
  C   C782      1.0  0.35119  0.38690  0.98833  1.0000
  H   H935      1.0  0.32167  0.48944  0.86633  1.0000
  C   C783      1.0  0.49483  0.46788  0.87372  1.0000
  H   H936      1.0  0.41623  0.48473  0.99043  1.0000
  C   C784      1.0  0.32464  0.49266  0.91370  1.0000
  C   C785      1.0  0.30013  0.32977  0.99158  1.0000
  C   C786      1.0  0.44586  0.12349  0.66811  1.0000
  N   N51       1.0  0.44586  0.47429  0.99175  1.0000
  N   N52       1.0  0.26527  0.05961  0.66555  1.0000
  C   C787      1.0  0.47970  0.99749  0.93045  1.0000
  H   H937      1.0  0.37999  0.99919  0.80913  1.0000
  H   H938      1.0  0.28493  0.33422  0.99251  1.0000
  C   C788      1.0  0.46407  0.48220  0.99426  1.0000
  C   C789      1.0  0.49515  0.49363  0.98148  1.0000
  H   H939      1.0  0.37821  0.99671  0.99353  1.0000
  C   C790      1.0  0.49605  0.03364  0.97247  1.0000
  C   C791      1.0  0.26641  0.03862  0.66409  1.0000
  H   H940      1.0  0.40526  0.88992  0.20309  1.0000
  Fe  Fe110     1.0  0.33143  0.88876  0.29833  1.0000
  S   S219      1.0  0.33135  0.87365  0.27105  1.0000
  Fe  Fe111     1.0  0.40566  0.83414  0.18461  1.0000
  S   S220      1.0  0.38815  0.84137  0.15927  1.0000
  S   S221      1.0  0.40272  0.84768  0.21313  1.0000
  Fe  Fe112     1.0  0.43910  0.81403  0.16010  1.0000
  S   S222      1.0  0.42376  0.81987  0.13330  1.0000
  S   S223      1.0  0.46991  0.80070  0.15647  1.0000
  Fe  Fe113     1.0  0.41562  0.84948  0.14262  1.0000
  S   S224      1.0  0.42561  0.87618  0.12503  1.0000
  Fe  Fe114     1.0  0.39767  0.81076  0.15197  1.0000
  S   S225      1.0  0.37613  0.79365  0.13956  1.0000
  S   S226      1.0  0.43250  0.84391  0.16817  1.0000
  S   S227      1.0  0.41360  0.80310  0.17858  1.0000
  Fe  Fe115     1.0  0.40202  0.98310  0.09282  1.0000
  S   S228      1.0  0.43114  0.97773  0.07736  1.0000
  S   S229      1.0  0.38360  0.95840  0.10253  1.0000
  C   C792      1.0  0.37909  0.60401  0.00469  1.0000
  H   H941      1.0  0.36606  0.95884  0.32383  1.0000
  C   C793      1.0  0.26694  0.61751  0.14504  1.0000
  H   H942      1.0  0.36765  0.85262  0.32246  1.0000
  H   H943      1.0  0.37340  0.50990  0.00170  1.0000
  Fe  Fe116     1.0  0.35091  0.68796  0.11021  1.0000
  S   S230      1.0  0.32326  0.69758  0.09732  1.0000
  S   S231      1.0  0.36812  0.70532  0.12742  1.0000
  Fe  Fe117     1.0  0.35252  0.64784  0.09463  1.0000
  S   S232      1.0  0.32454  0.65492  0.08135  1.0000
  S   S233      1.0  0.37200  0.62250  0.08416  1.0000
  Fe  Fe118     1.0  0.33594  0.68318  0.07115  1.0000
  S   S234      1.0  0.33790  0.69719  0.04049  1.0000
  Fe  Fe119     1.0  0.31419  0.66831  0.10878  1.0000
  S   S235      1.0  0.28387  0.67011  0.12380  1.0000
  S   S236      1.0  0.36428  0.67571  0.08319  1.0000
  S   S237      1.0  0.34144  0.65914  0.12302  1.0000
  H   H944      1.0  0.43057  0.95375  0.02141  1.0000
  C   C794      1.0  0.38035  0.93661  0.05317  1.0000
  N   N53       1.0  0.39792  0.94546  0.04457  1.0000
  Fe  Fe120     1.0  0.40492  0.51512  0.10382  1.0000
  S   S238      1.0  0.39501  0.53892  0.12307  1.0000
  S   S239      1.0  0.41970  0.52113  0.07448  1.0000
  C   C795      1.0  0.38876  0.92129  0.16723  1.0000
  C   C796      1.0  0.49057  0.85962  0.14043  1.0000
  C   C797      1.0  0.41416  0.93596  0.05504  1.0000
  H   H945      1.0  0.38016  0.93967  0.31316  1.0000
  H   H946      1.0  0.40697  0.78311  0.10061  1.0000
  C   C798      1.0  0.27021  0.65107  0.13403  1.0000
  C   C799      1.0  0.27808  0.63198  0.13588  1.0000
  H   H947      1.0  0.27325  0.60283  0.14670  1.0000
  H   H948      1.0  0.29285  0.62843  0.13064  1.0000
  C   C800      1.0  0.33062  0.68526  0.02179  1.0000
  C   C801      1.0  0.37429  0.81608  0.25858  1.0000
  C   C802      1.0  0.31918  0.66994  0.02574  1.0000
  H   H949      1.0  0.32086  0.91174  0.22722  1.0000
  H   H950      1.0  0.31453  0.66525  0.04043  1.0000
  C   C803      1.0  0.37902  0.60001  0.09620  1.0000
  C   C804      1.0  0.37105  0.59391  0.11457  1.0000
  C   C805      1.0  0.37627  0.57522  0.12284  1.0000
  C   C806      1.0  0.38918  0.56247  0.11267  1.0000
  C   C807      1.0  0.39736  0.56876  0.09447  1.0000
  C   C808      1.0  0.39241  0.58748  0.08636  1.0000
  H   H951      1.0  0.36075  0.60348  0.12229  1.0000
  H   H952      1.0  0.37001  0.57051  0.13702  1.0000
  H   H953      1.0  0.40759  0.55926  0.08665  1.0000
  H   H954      1.0  0.39879  0.59221  0.07224  1.0000
  H   H955      1.0  0.34937  0.52635  0.06928  1.0000
  H   H956      1.0  0.38048  0.54238  0.06549  1.0000
  H   H957      1.0  0.39359  0.80423  0.23621  1.0000
  H   H958      1.0  0.37356  0.93622  0.01813  1.0000
  H   H959      1.0  0.33046  0.62187  0.05070  1.0000
  C   C809      1.0  0.37398  0.76891  0.13682  1.0000
  C   C810      1.0  0.38664  0.75395  0.14418  1.0000
  C   C811      1.0  0.38446  0.73467  0.14132  1.0000
  C   C812      1.0  0.36968  0.72998  0.13100  1.0000
  C   C813      1.0  0.35682  0.74490  0.12391  1.0000
  C   C814      1.0  0.35900  0.76416  0.12678  1.0000
  H   H960      1.0  0.39819  0.75724  0.15200  1.0000
  H   H961      1.0  0.39446  0.72333  0.14700  1.0000
  H   H962      1.0  0.34515  0.74165  0.11629  1.0000
  H   H963      1.0  0.34903  0.77555  0.12110  1.0000
  C   C815      1.0  0.41321  0.89904  0.12052  1.0000
  C   C816      1.0  0.39322  0.90177  0.12091  1.0000
  C   C817      1.0  0.38419  0.92013  0.11572  1.0000
  C   C818      1.0  0.39507  0.93586  0.11042  1.0000
  C   C819      1.0  0.41497  0.93318  0.11066  1.0000
  C   C820      1.0  0.42399  0.91483  0.11546  1.0000
  H   H964      1.0  0.38480  0.88963  0.12450  1.0000
  H   H965      1.0  0.36878  0.92210  0.11549  1.0000
  H   H966      1.0  0.42349  0.94519  0.10682  1.0000
  H   H967      1.0  0.43945  0.91286  0.11503  1.0000
  H   H968      1.0  0.39611  0.86403  0.28748  1.0000
  H   H969      1.0  0.46913  0.82424  0.18810  1.0000
  C   C821      1.0  0.35117  0.86763  0.25437  1.0000
  C   C822      1.0  0.36972  0.87168  0.25691  1.0000
  C   C823      1.0  0.38526  0.86567  0.24398  1.0000
  C   C824      1.0  0.38239  0.85594  0.22813  1.0000
  C   C825      1.0  0.36373  0.85258  0.22512  1.0000
  C   C826      1.0  0.34823  0.85829  0.23828  1.0000
  H   H970      1.0  0.37205  0.87935  0.26889  1.0000
  H   H971      1.0  0.39964  0.86842  0.24636  1.0000
  H   H972      1.0  0.36129  0.84516  0.21298  1.0000
  H   H973      1.0  0.33388  0.85527  0.23608  1.0000
  H   H974      1.0  0.41111  0.74798  0.10816  1.0000
  H   H975      1.0  0.42024  0.82301  0.28197  1.0000
  C   C827      1.0  0.38440  0.71975  0.05580  1.0000
  C   C828      1.0  0.25101  0.65544  0.14110  1.0000
  C   C829      1.0  0.37324  0.62740  0.02814  1.0000
  H   H976      1.0  0.38577  0.87425  0.18274  1.0000
  C   C830      1.0  0.33424  0.91074  0.21811  1.0000
  H   H977      1.0  0.35814  0.82966  0.28114  1.0000
  C   C831      1.0  0.38769  0.88692  0.17206  1.0000
  C   C832      1.0  0.35143  0.90881  0.18667  1.0000
  C   C833      1.0  0.33415  0.91053  0.19833  1.0000
  H   H978      1.0  0.37617  0.88775  0.16224  1.0000
  H   H979      1.0  0.40145  0.88393  0.16311  1.0000
  H   H980      1.0  0.35061  0.90860  0.17143  1.0000
  H   H981      1.0  0.32060  0.91156  0.19204  1.0000
  N   N54       1.0  0.35232  0.55671  0.06228  1.0000
  C   C834      1.0  0.34928  0.55888  0.08322  1.0000
  C   C835      1.0  0.34415  0.53866  0.05925  1.0000
  C   C836      1.0  0.34377  0.57343  0.05042  1.0000
  C   C837      1.0  0.34033  0.57194  0.03107  1.0000
  C   C838      1.0  0.34024  0.59204  0.05707  1.0000
  C   C839      1.0  0.33285  0.58777  0.01953  1.0000
  H   H982      1.0  0.30397  0.64952  0.01380  1.0000
  S   S240      1.0  0.38522  0.51064  0.03934  1.0000
  H   H983      1.0  0.33381  0.56199  0.08793  1.0000
  H   H984      1.0  0.35477  0.54573  0.09200  1.0000
  H   H985      1.0  0.35723  0.57043  0.08732  1.0000
  H   H986      1.0  0.32822  0.54028  0.06132  1.0000
  N   N55       1.0  0.38746  0.90461  0.18191  1.0000
  H   H987      1.0  0.34862  0.53376  0.04480  1.0000
  H   H988      1.0  0.34365  0.55862  0.02452  1.0000
  H   H989      1.0  0.27450  0.63001  0.06738  1.0000
  Fe  Fe121     1.0  0.40063  0.50091  0.06544  1.0000
  H   H990      1.0  0.33011  0.58620  0.00489  1.0000
  H   H991      1.0  0.36712  0.94457  0.04795  1.0000
  N   N56       1.0  0.37152  0.73657  0.06184  1.0000
  C   C840      1.0  0.38772  0.93939  0.01215  1.0000
  C   C841      1.0  0.35584  0.72960  0.07555  1.0000
  C   C842      1.0  0.38206  0.74948  0.07146  1.0000
  C   C843      1.0  0.39350  0.74199  0.08651  1.0000
  C   C844      1.0  0.38014  0.76979  0.06734  1.0000
  C   C845      1.0  0.40048  0.77381  0.09220  1.0000
  C   C846      1.0  0.40868  0.81284  0.25856  1.0000
  C   C847      1.0  0.48720  0.55203  0.09743  1.0000
  C   C848      1.0  0.33285  0.60779  0.04537  1.0000
  C   C849      1.0  0.35158  0.90941  0.22627  1.0000
  C   C850      1.0  0.36285  0.74602  0.04444  1.0000
  H   H992      1.0  0.34600  0.74176  0.08076  1.0000
  H   H993      1.0  0.34714  0.72022  0.06884  1.0000
  H   H994      1.0  0.36140  0.72112  0.08840  1.0000
  H   H995      1.0  0.39473  0.72686  0.09136  1.0000
  H   H996      1.0  0.36159  0.81447  0.25156  1.0000
  H   H997      1.0  0.49470  0.99048  0.06364  1.0000
  H   H998      1.0  0.47564  0.86606  0.17609  1.0000
  S   S241      1.0  0.33234  0.95930  0.30363  1.0000
  C   C851      1.0  0.40712  0.82138  0.27583  1.0000
  H   H999      1.0  0.36193  0.85604  0.29806  1.0000
  S   S242      1.0  0.30770  0.91129  0.30634  1.0000
  H   H1000     1.0  0.46664  0.88931  0.12821  1.0000
  C   C852      1.0  0.40497  0.90277  0.19236  1.0000
  H   H1001     1.0  0.38350  0.97377  0.04013  1.0000
  H   H1002     1.0  0.34342  0.59494  0.07116  1.0000
  N   N57       1.0  0.31505  0.69103  0.16877  1.0000
  C   C853      1.0  0.30666  0.70339  0.18395  1.0000
  C   C854      1.0  0.33622  0.69128  0.16766  1.0000
  C   C855      1.0  0.30868  0.69963  0.15007  1.0000
  C   C856      1.0  0.30847  0.67153  0.17299  1.0000
  C   C857      1.0  0.32133  0.65459  0.17453  1.0000
  C   C858      1.0  0.28857  0.66904  0.17528  1.0000
  C   C859      1.0  0.31454  0.63641  0.17818  1.0000
  C   C860      1.0  0.28197  0.65082  0.17911  1.0000
  C   C861      1.0  0.29492  0.63454  0.18047  1.0000
  H   H1003     1.0  0.31029  0.69685  0.19839  1.0000
  H   H1004     1.0  0.31204  0.71790  0.18163  1.0000
  H   H1005     1.0  0.29079  0.70578  0.18436  1.0000
  H   H1006     1.0  0.34204  0.68525  0.18137  1.0000
  H   H1007     1.0  0.34074  0.70612  0.16451  1.0000
  H   H1008     1.0  0.34352  0.68314  0.15581  1.0000
  H   H1009     1.0  0.29280  0.70159  0.15013  1.0000
  H   H1010     1.0  0.31414  0.71391  0.14574  1.0000
  H   H1011     1.0  0.31388  0.69018  0.13856  1.0000
  H   H1012     1.0  0.33670  0.65493  0.17267  1.0000
  H   H1013     1.0  0.27792  0.68112  0.17358  1.0000
  H   H1014     1.0  0.32456  0.62365  0.17899  1.0000
  H   H1015     1.0  0.41545  0.84932  0.29784  1.0000
  S   S243      1.0  0.47047  0.49743  0.07035  1.0000
  H   H1016     1.0  0.38093  0.92131  0.05021  1.0000
  H   H1017     1.0  0.38574  0.59865  0.03423  1.0000
  H   H1018     1.0  0.37847  0.93695  0.06910  1.0000
  N   N58       1.0  0.38780  0.83761  0.30271  1.0000
  H   H1019     1.0  0.42266  0.80855  0.25156  1.0000
  H   H1020     1.0  0.29802  0.95043  0.32937  1.0000
  H   H1021     1.0  0.45494  0.52431  0.14232  1.0000
  C   C862      1.0  0.40183  0.94398  0.02366  1.0000
  H   H1022     1.0  0.49195  0.98265  0.00438  1.0000
  H   H1023     1.0  0.47865  0.85037  0.14507  1.0000
  H   H1024     1.0  0.41085  0.93574  0.07089  1.0000
  C   C863      1.0  0.48375  0.82222  0.18175  1.0000
  N   N59       1.0  0.48710  0.87850  0.14851  1.0000
  H   H1025     1.0  0.32361  0.61797  0.01757  1.0000
  C   C864      1.0  0.33155  0.97894  0.31769  1.0000
  C   C865      1.0  0.48700  0.87536  0.16969  1.0000
  C   C866      1.0  0.39230  0.81027  0.24992  1.0000
  C   C867      1.0  0.31325  0.66101  0.01061  1.0000
  H   H1026     1.0  0.36041  0.65514  0.01817  1.0000
  C   C868      1.0  0.26653  0.65660  0.07980  1.0000
  H   H1027     1.0  0.41436  0.93553  0.31349  1.0000
  C   C869      1.0  0.39542  0.96602  0.04790  1.0000
  H   H1028     1.0  0.41765  0.92085  0.05157  1.0000
  H   H1029     1.0  0.39202  0.96798  0.06338  1.0000
  C   C870      1.0  0.37991  0.60902  0.02335  1.0000
  H   H1030     1.0  0.38800  0.93499  0.17406  1.0000
  C   C871      1.0  0.38922  0.78169  0.07766  1.0000
  H   H1031     1.0  0.35123  0.75735  0.04807  1.0000
  H   H1032     1.0  0.42736  0.94358  0.05193  1.0000
  C   C872      1.0  0.39924  0.97167  0.30897  1.0000
  C   C873      1.0  0.40278  0.75400  0.09646  1.0000
  H   H1033     1.0  0.37137  0.77690  0.05654  1.0000
  H   H1034     1.0  0.40240  0.92010  0.15770  1.0000
  H   H1035     1.0  0.40857  0.97333  0.04297  1.0000
  H   H1036     1.0  0.49195  0.86143  0.12445  1.0000
  C   C874      1.0  0.37254  0.82489  0.27570  1.0000
  H   H1037     1.0  0.40606  0.91581  0.19977  1.0000
  C   C875      1.0  0.39475  0.82372  0.31837  1.0000
  H   H1038     1.0  0.37707  0.92269  0.15754  1.0000
  H   H1039     1.0  0.26671  0.64923  0.18040  1.0000
  S   S244      1.0  0.35456  0.90640  0.30415  1.0000
  H   H1040     1.0  0.41824  0.90083  0.18244  1.0000
  H   H1041     1.0  0.38719  0.79716  0.07473  1.0000
  C   C876      1.0  0.48994  0.49756  0.08438  1.0000
  C   C877      1.0  0.37319  0.55453  0.05671  1.0000
  C   C878      1.0  0.36940  0.90708  0.19455  1.0000
  H   H1042     1.0  0.37639  0.55159  0.04140  1.0000
  H   H1043     1.0  0.38178  0.90600  0.22221  1.0000
  H   H1044     1.0  0.37993  0.56776  0.05854  1.0000
  C   C879      1.0  0.36895  0.90749  0.21479  1.0000
  S   S245      1.0  0.46687  0.98872  0.11081  1.0000
  H   H1045     1.0  0.38936  0.71006  0.06817  1.0000
  H   H1046     1.0  0.39726  0.72440  0.04668  1.0000
  H   H1047     1.0  0.37387  0.75236  0.03388  1.0000
  H   H1048     1.0  0.35148  0.90939  0.24172  1.0000
  C   C880      1.0  0.32908  0.60565  0.02667  1.0000
  H   H1049     1.0  0.35591  0.73563  0.03700  1.0000
  H   H1050     1.0  0.37698  0.71050  0.04747  1.0000
  C   C881      1.0  0.37886  0.94853  0.32556  1.0000
  H   H1051     1.0  0.40998  0.81822  0.31523  1.0000
  C   C882      1.0  0.41961  0.94880  0.01391  1.0000
  H   H1052     1.0  0.38611  0.81113  0.32073  1.0000
  H   H1053     1.0  0.41158  0.98021  0.30971  1.0000
  H   H1054     1.0  0.48452  0.88921  0.17632  1.0000
  C   C883      1.0  0.36561  0.64085  0.01436  1.0000
  H   H1055     1.0  0.34516  0.70317  0.99933  1.0000
  H   H1056     1.0  0.47583  0.98547  0.03707  1.0000
  C   C884      1.0  0.24775  0.62187  0.15214  1.0000
  H   H1057     1.0  0.48465  0.53435  0.14479  1.0000
  H   H1058     1.0  0.47900  0.55676  0.08535  1.0000
  H   H1059     1.0  0.45096  0.57142  0.09883  1.0000
  H   H1060     1.0  0.48659  0.50007  0.02890  1.0000
  C   C885      1.0  0.38901  0.82803  0.28475  1.0000
  H   H1061     1.0  0.48437  0.91618  0.12978  1.0000
  Fe  Fe122     1.0  0.33087  0.92781  0.31461  1.0000
  H   H1062     1.0  0.37389  0.63124  0.04261  1.0000
  N   N60       1.0  0.45690  0.54624  0.11854  1.0000
  N   N61       1.0  0.39635  0.95833  0.32659  1.0000
  C   C886      1.0  0.48803  0.81147  0.16598  1.0000
  C   C887      1.0  0.39992  0.85397  0.30005  1.0000
  H   H1063     1.0  0.43455  0.53306  0.10758  1.0000
  C   C888      1.0  0.47805  0.54600  0.11569  1.0000
  H   H1064     1.0  0.28005  0.66246  0.07500  1.0000
  H   H1065     1.0  0.40201  0.96383  0.29584  1.0000
  C   C889      1.0  0.45034  0.53357  0.10544  1.0000
  C   C890      1.0  0.49115  0.98659  0.03435  1.0000
  H   H1066     1.0  0.45392  0.53829  0.09004  1.0000
  H   H1067     1.0  0.46337  0.90051  0.15058  1.0000
  C   C891      1.0  0.36803  0.84528  0.30912  1.0000
  H   H1068     1.0  0.49508  0.83782  0.20220  1.0000
  C   C892      1.0  0.33633  0.69132  0.00255  1.0000
  H   H1069     1.0  0.35821  0.83372  0.31259  1.0000
  H   H1070     1.0  0.38454  0.58955  0.00197  1.0000
  H   H1071     1.0  0.39816  0.86235  0.31283  1.0000
  H   H1072     1.0  0.25509  0.68139  0.09398  1.0000
  H   H1073     1.0  0.43354  0.53987  0.13996  1.0000
  C   C893      1.0  0.44952  0.53950  0.13839  1.0000
  C   C894      1.0  0.25236  0.66732  0.09042  1.0000
  C   C895      1.0  0.49014  0.53958  0.13055  1.0000
  C   C896      1.0  0.46764  0.88681  0.14400  1.0000
  H   H1074     1.0  0.45705  0.51864  0.10797  1.0000
  H   H1075     1.0  0.43202  0.56681  0.11696  1.0000
  C   C897      1.0  0.44795  0.56603  0.11414  1.0000
  H   H1076     1.0  0.45323  0.57623  0.12307  1.0000
  H   H1077     1.0  0.45344  0.54870  0.14908  1.0000
  H   H1078     1.0  0.38641  0.98194  0.30663  1.0000
  C   C898      1.0  0.26340  0.63830  0.07564  1.0000
  H   H1079     1.0  0.45650  0.87697  0.14963  1.0000
  H   H1080     1.0  0.28686  0.98232  0.32076  1.0000
  H   H1081     1.0  0.28967  0.62043  0.18294  1.0000
  H   H1082     1.0  0.27385  0.95389  0.32212  1.0000
  S   S246      1.0  0.38405  0.49684  0.09415  1.0000
  C   C899      1.0  0.41287  0.94339  0.32661  1.0000
  H   H1083     1.0  0.42663  0.94974  0.32717  1.0000
  S   S247      1.0  0.32924  0.87284  0.32790  1.0000
  H   H1084     1.0  0.41110  0.93227  0.33899  1.0000
  S   S248      1.0  0.38074  0.89050  0.62347  1.0000
  H   H1085     1.0  0.35591  0.97043  0.61959  1.0000
  S   S249      1.0  0.48081  0.91972  0.56706  1.0000
  S   S250      1.0  0.47048  0.89544  0.62298  1.0000
  N   N62       1.0  0.49567  0.96299  0.50153  1.0000
  S   S251      1.0  0.27851  0.89573  0.35546  1.0000
  H   H1086     1.0  0.32723  0.99045  0.36394  1.0000
  H   H1087     1.0  0.25511  0.83128  0.35673  1.0000
  S   S252      1.0  0.37917  0.87916  0.34581  1.0000
  C   C900      1.0  0.43035  0.98302  0.61665  1.0000
  H   H1088     1.0  0.41738  0.95387  0.35916  1.0000
  S   S253      1.0  0.32920  0.91478  0.34518  1.0000
  H   H1089     1.0  0.41061  0.97030  0.38788  1.0000
  Fe  Fe123     1.0  0.45698  0.92234  0.40188  1.0000
  S   S254      1.0  0.42736  0.92841  0.39112  1.0000
  H   H1090     1.0  0.28202  0.93207  0.33500  1.0000
  H   H1091     1.0  0.26738  0.97922  0.38171  1.0000
  C   C901      1.0  0.39234  0.89253  0.35899  1.0000
  C   C902      1.0  0.38398  0.90920  0.36680  1.0000
  C   C903      1.0  0.39484  0.91972  0.37697  1.0000
  C   C904      1.0  0.41415  0.91370  0.37947  1.0000
  C   C905      1.0  0.42249  0.89689  0.37185  1.0000
  C   C906      1.0  0.41158  0.88632  0.36169  1.0000
  H   H1092     1.0  0.36906  0.91385  0.36523  1.0000
  H   H1093     1.0  0.38821  0.93259  0.38302  1.0000
  H   H1094     1.0  0.43734  0.89212  0.37369  1.0000
  H   H1095     1.0  0.41811  0.87333  0.35583  1.0000
  H   H1096     1.0  0.37523  0.97093  0.60083  1.0000
  C   C907      1.0  0.28272  0.98837  0.33425  1.0000
  Fe  Fe124     1.0  0.35732  0.89533  0.64761  1.0000
  C   C908      1.0  0.40199  0.97454  0.37591  1.0000
  Fe  Fe125     1.0  0.48179  0.90465  0.43412  1.0000
  C   C909      1.0  0.40418  0.96188  0.62276  1.0000
  C   C910      1.0  0.26217  0.87771  0.36196  1.0000
  C   C911      1.0  0.26555  0.85924  0.35584  1.0000
  C   C912      1.0  0.29519  0.85737  0.58453  1.0000
  S   S255      1.0  0.32408  0.95933  0.64665  1.0000
  H   H1097     1.0  0.27846  0.85551  0.34680  1.0000
  C   C913      1.0  0.37850  0.93966  0.62681  1.0000
  C   C914      1.0  0.49360  0.97761  0.48488  1.0000
  H   H1098     1.0  0.27896  0.89643  0.60794  1.0000
  C   C915      1.0  0.32266  0.97960  0.65993  1.0000
  C   C916      1.0  0.27132  0.86368  0.64190  1.0000
  C   C917      1.0  0.26167  0.86732  0.57849  1.0000
  Fe  Fe126     1.0  0.31450  0.88716  0.65638  1.0000
  C   C918      1.0  0.40550  0.89258  0.62383  1.0000
  C   C919      1.0  0.41399  0.89263  0.64098  1.0000
  C   C920      1.0  0.43392  0.89364  0.64054  1.0000
  C   C921      1.0  0.44539  0.89511  0.62298  1.0000
  C   C922      1.0  0.43679  0.89566  0.60584  1.0000
  C   C923      1.0  0.41697  0.89414  0.60629  1.0000
  C   C924      1.0  0.47993  0.95024  0.50336  1.0000
  H   H1099     1.0  0.44548  0.89666  0.59224  1.0000
  H   H1100     1.0  0.41050  0.89410  0.59298  1.0000
  C   C925      1.0  0.41782  0.94647  0.61771  1.0000
  C   C926      1.0  0.46139  0.92867  0.48881  1.0000
  H   H1101     1.0  0.25017  0.95571  0.37174  1.0000
  H   H1102     1.0  0.49185  0.88762  0.66031  1.0000
  H   H1103     1.0  0.38093  0.97847  0.65111  1.0000
  Fe  Fe127     1.0  0.35126  0.89207  0.33419  1.0000
  H   H1104     1.0  0.37567  0.93896  0.33885  1.0000
  C   C927      1.0  0.27891  0.88505  0.59862  1.0000
  Fe  Fe128     1.0  0.47964  0.94707  0.42281  1.0000
  S   S256      1.0  0.45725  0.92727  0.43284  1.0000
  C   C928      1.0  0.45433  0.93345  0.52232  1.0000
  C   C929      1.0  0.38697  0.98893  0.37747  1.0000
  H   H1105     1.0  0.47211  0.87878  0.50160  1.0000
  C   C930      1.0  0.41112  0.98022  0.62232  1.0000
  C   C931      1.0  0.49493  0.98811  0.43111  1.0000
  H   H1106     1.0  0.44716  0.93742  0.60831  1.0000
  H   H1107     1.0  0.48253  0.98198  0.52231  1.0000
  C   C932      1.0  0.26690  0.84678  0.63476  1.0000
  H   H1108     1.0  0.47079  0.95207  0.53405  1.0000
  H   H1109     1.0  0.30793  0.87417  0.60296  1.0000
  H   H1110     1.0  0.30794  0.84748  0.58264  1.0000
  H   H1111     1.0  0.40530  0.89136  0.65456  1.0000
  C   C933      1.0  0.37901  0.98429  0.34567  1.0000
  C   C934      1.0  0.40562  0.96497  0.35925  1.0000
  H   H1112     1.0  0.48412  0.94308  0.47355  1.0000
  Fe  Fe129     1.0  0.49123  0.94730  0.57345  1.0000
  C   C935      1.0  0.29529  0.87246  0.59587  1.0000
  H   H1113     1.0  0.25442  0.87833  0.54211  1.0000
  H   H1114     1.0  0.45813  0.96988  0.60703  1.0000
  S   S257      1.0  0.47967  0.89737  0.40394  1.0000
  C   C936      1.0  0.26223  0.88250  0.59028  1.0000
  H   H1115     1.0  0.30300  0.95022  0.36461  1.0000
  C   C937      1.0  0.46870  0.94602  0.52099  1.0000
  C   C938      1.0  0.37136  0.97281  0.61632  1.0000
  H   H1116     1.0  0.36383  0.96110  0.65390  1.0000
  H   H1117     1.0  0.45879  0.92158  0.47644  1.0000
  H   H1118     1.0  0.27927  0.84279  0.56739  1.0000
  C   C939      1.0  0.37568  0.99400  0.36225  1.0000
  C   C940      1.0  0.27868  0.85481  0.57591  1.0000
  C   C941      1.0  0.28805  0.94612  0.36716  1.0000
  C   C942      1.0  0.25222  0.84550  0.36151  1.0000
  H   H1119     1.0  0.25981  0.89172  0.64938  1.0000
  H   H1120     1.0  0.44359  0.99035  0.38768  1.0000
  C   C943      1.0  0.48520  0.88586  0.49903  1.0000
  C   C944      1.0  0.43703  0.94941  0.61216  1.0000
  H   H1121     1.0  0.44613  0.93023  0.53598  1.0000
  C   C945      1.0  0.28280  0.94787  0.33386  1.0000
  C   C946      1.0  0.32894  0.99245  0.34842  1.0000
  H   H1122     1.0  0.43974  0.91486  0.50740  1.0000
  Fe  Fe130     1.0  0.30715  0.89662  0.33646  1.0000
  C   C947      1.0  0.47591  0.94105  0.48733  1.0000
  S   S258      1.0  0.47808  0.94400  0.39165  1.0000
  H   H1123     1.0  0.39378  0.83044  0.33220  1.0000
  Fe  Fe131     1.0  0.48796  0.90883  0.59708  1.0000
  C   C948      1.0  0.49277  0.89068  0.48010  1.0000
  Fe  Fe132     1.0  0.32775  0.92790  0.65860  1.0000
  H   H1124     1.0  0.28249  0.94939  0.38191  1.0000
  C   C949      1.0  0.39390  0.96923  0.34377  1.0000
  H   H1125     1.0  0.38182  0.93543  0.61191  1.0000
  C   C950      1.0  0.32969  0.97645  0.33775  1.0000
  H   H1126     1.0  0.37239  0.98806  0.61852  1.0000
  H   H1127     1.0  0.48863  0.88630  0.52923  1.0000
  H   H1128     1.0  0.36289  0.93837  0.63053  1.0000
  N   N63       1.0  0.38368  0.95934  0.62853  1.0000
  H   H1129     1.0  0.28874  0.93021  0.36731  1.0000
  C   C951      1.0  0.37902  0.96339  0.64885  1.0000
  S   S259      1.0  0.33006  0.90777  0.63538  1.0000
  C   C952      1.0  0.27694  0.97703  0.35142  1.0000
  S   S260      1.0  0.47583  0.97412  0.43742  1.0000
  N   N64       1.0  0.27601  0.95600  0.35229  1.0000
  C   C953      1.0  0.45068  0.92481  0.50627  1.0000
  H   H1130     1.0  0.38606  0.92879  0.63675  1.0000
  H   H1131     1.0  0.46716  0.98839  0.39538  1.0000
  H   H1132     1.0  0.32892  0.96223  0.34502  1.0000
  C   C954      1.0  0.44325  0.96765  0.61151  1.0000
  H   H1133     1.0  0.41406  0.93196  0.61793  1.0000
  H   H1134     1.0  0.44048  0.89315  0.65386  1.0000
  S   S261      1.0  0.47639  0.97651  0.56591  1.0000
  C   C955      1.0  0.25677  0.87864  0.64389  1.0000
  H   H1135     1.0  0.27798  0.83510  0.63311  1.0000
  H   H1136     1.0  0.47887  0.98511  0.48541  1.0000
  C   C956      1.0  0.49638  0.97340  0.51876  1.0000
  S   S262      1.0  0.48183  0.88373  0.46069  1.0000
  C   C957      1.0  0.48522  0.99262  0.57952  1.0000
  S   S263      1.0  0.29518  0.86511  0.64808  1.0000
  H   H1137     1.0  0.24989  0.89237  0.59371  1.0000
  H   H1138     1.0  0.24880  0.83314  0.57360  1.0000
  C   C958      1.0  0.49450  0.89016  0.51468  1.0000
  H   H1139     1.0  0.38396  0.99604  0.39055  1.0000
  C   C959      1.0  0.25594  0.95135  0.35738  1.0000
  H   H1140     1.0  0.38824  0.95378  0.65846  1.0000
  H   H1141     1.0  0.36953  0.98844  0.33448  1.0000
  H   H1142     1.0  0.25475  0.93558  0.35785  1.0000
  H   H1143     1.0  0.40172  0.99254  0.62639  1.0000
  C   C960      1.0  0.24833  0.84485  0.62960  1.0000
  H   H1144     1.0  0.25956  0.85268  0.54402  1.0000
  C   C961      1.0  0.27215  0.98680  0.36821  1.0000
  H   H1145     1.0  0.44702  0.99537  0.41159  1.0000
  C   C962      1.0  0.24878  0.86453  0.54818  1.0000
  H   H1146     1.0  0.49522  0.92028  0.64358  1.0000
  H   H1147     1.0  0.49630  0.97121  0.47096  1.0000
  S   S264      1.0  0.49581  0.93720  0.60385  1.0000
  Fe  Fe133     1.0  0.33842  0.89515  0.68874  1.0000
  Fe  Fe134     1.0  0.40650  0.99058  0.92490  1.0000
  S   S265      1.0  0.33861  0.88895  0.72135  1.0000
  C   C963      1.0  0.30000  0.81836  0.73550  1.0000
  H   H1148     1.0  0.37886  0.99027  0.86091  1.0000
  H   H1149     1.0  0.46907  0.93145  0.85718  1.0000
  S   S266      1.0  0.43049  0.99592  0.87359  1.0000
  C   C964      1.0  0.31076  0.83107  0.72264  1.0000
  S   S267      1.0  0.30986  0.90828  0.67892  1.0000
  H   H1150     1.0  0.34976  0.50771  0.87204  1.0000
  Fe  Fe135     1.0  0.42474  0.82363  0.83806  1.0000
  S   S268      1.0  0.40026  0.82541  0.86118  1.0000
  S   S269      1.0  0.45340  0.81625  0.85086  1.0000
  Fe  Fe136     1.0  0.39800  0.83484  0.80636  1.0000
  S   S270      1.0  0.37183  0.83754  0.82724  1.0000
  S   S271      1.0  0.39819  0.83895  0.77366  1.0000
  Fe  Fe137     1.0  0.38994  0.85262  0.84442  1.0000
  S   S272      1.0  0.37661  0.87697  0.86175  1.0000
  Fe  Fe138     1.0  0.38381  0.80989  0.84282  1.0000
  S   S273      1.0  0.36038  0.79055  0.85604  1.0000
  S   S274      1.0  0.41545  0.85208  0.82248  1.0000
  S   S275      1.0  0.40904  0.80599  0.82064  1.0000
  Fe  Fe139     1.0  0.42075  0.96913  0.89006  1.0000
  S   S276      1.0  0.42799  0.94353  0.87250  1.0000
  S   S277      1.0  0.43473  0.97421  0.91639  1.0000
  Fe  Fe140     1.0  0.30667  0.65623  0.90128  1.0000
  S   S278      1.0  0.33697  0.65583  0.88745  1.0000
  S   S279      1.0  0.28334  0.65753  0.88050  1.0000
  Fe  Fe141     1.0  0.32009  0.65921  0.94091  1.0000
  S   S280      1.0  0.35097  0.65944  0.92946  1.0000
  S   S281      1.0  0.31092  0.65520  0.97301  1.0000
  Fe  Fe142     1.0  0.34057  0.67996  0.90506  1.0000
  S   S282      1.0  0.36046  0.70256  0.89106  1.0000
  Fe  Fe143     1.0  0.34507  0.63556  0.91263  1.0000
  S   S283      1.0  0.36854  0.61122  0.90900  1.0000
  S   S284      1.0  0.30974  0.68162  0.91783  1.0000
  S   S285      1.0  0.31467  0.63401  0.92524  1.0000
  C   C965      1.0  0.47617  0.95473  0.87184  1.0000
  C   C966      1.0  0.30639  0.81108  0.75328  1.0000
  S   S286      1.0  0.35966  0.52334  0.93641  1.0000
  H   H1151     1.0  0.27415  0.83803  0.71010  1.0000
  H   H1152     1.0  0.34647  0.79717  0.90017  1.0000
  H   H1153     1.0  0.27816  0.54341  0.86824  1.0000
  H   H1154     1.0  0.33352  0.53304  0.90750  1.0000
  H   H1155     1.0  0.36301  0.97345  0.85611  1.0000
  H   H1156     1.0  0.29729  0.86683  0.68881  1.0000
  C   C967      1.0  0.38239  0.92813  0.80405  1.0000
  C   C968      1.0  0.40582  0.98299  0.83247  1.0000
  C   C969      1.0  0.49331  0.99161  0.94368  1.0000
  H   H1157     1.0  0.32456  0.77376  0.91293  1.0000
  H   H1158     1.0  0.28194  0.83948  0.68505  1.0000
  H   H1159     1.0  0.43619  0.88640  0.88397  1.0000
  C   C970      1.0  0.26526  0.64148  0.88040  1.0000
  C   C971      1.0  0.32354  0.81618  0.75874  1.0000
  C   C972      1.0  0.26315  0.62597  0.89435  1.0000
  C   C973      1.0  0.37796  0.94386  0.83348  1.0000
  H   H1160     1.0  0.27276  0.62342  0.90560  1.0000
  C   C974      1.0  0.36554  0.58674  0.91584  1.0000
  C   C975      1.0  0.38111  0.57295  0.91255  1.0000
  C   C976      1.0  0.37958  0.55341  0.91865  1.0000
  C   C977      1.0  0.36249  0.54759  0.92826  1.0000
  C   C978      1.0  0.34694  0.56139  0.93160  1.0000
  C   C979      1.0  0.34840  0.58088  0.92533  1.0000
  H   H1161     1.0  0.39443  0.57741  0.90525  1.0000
  H   H1162     1.0  0.39163  0.54290  0.91600  1.0000
  H   H1163     1.0  0.33366  0.55696  0.93900  1.0000
  H   H1164     1.0  0.33631  0.59135  0.92791  1.0000
  H   H1165     1.0  0.37745  0.59015  0.95154  1.0000
  H   H1166     1.0  0.29308  0.86571  0.71456  1.0000
  H   H1167     1.0  0.39314  0.94499  0.77882  1.0000
  H   H1168     1.0  0.33507  0.68696  0.97264  1.0000
  C   C980      1.0  0.48042  0.93788  0.86283  1.0000
  C   C981      1.0  0.31893  0.66704  0.99138  1.0000
  H   H1169     1.0  0.34473  0.77139  0.82325  1.0000
  C   C982      1.0  0.36096  0.76627  0.86647  1.0000
  C   C983      1.0  0.34369  0.75906  0.87459  1.0000
  C   C984      1.0  0.34322  0.73979  0.88250  1.0000
  C   C985      1.0  0.36005  0.72733  0.88215  1.0000
  C   C986      1.0  0.37731  0.73459  0.87411  1.0000
  C   C987      1.0  0.37781  0.75392  0.86640  1.0000
  H   H1170     1.0  0.33051  0.76838  0.87448  1.0000
  H   H1171     1.0  0.32983  0.73459  0.88871  1.0000
  H   H1172     1.0  0.39044  0.72515  0.87377  1.0000
  H   H1173     1.0  0.39121  0.75915  0.86017  1.0000
  C   C988      1.0  0.47640  0.82159  0.84016  1.0000
  C   C989      1.0  0.47930  0.82960  0.82117  1.0000
  H   H1174     1.0  0.45252  0.88276  0.84401  1.0000
  H   H1175     1.0  0.46735  0.83230  0.81242  1.0000
  H   H1176     1.0  0.35725  0.71150  0.83735  1.0000
  C   C990      1.0  0.39055  0.89587  0.86441  1.0000
  C   C991      1.0  0.38469  0.90848  0.87859  1.0000
  C   C992      1.0  0.39577  0.92349  0.88108  1.0000
  C   C993      1.0  0.41270  0.92600  0.86927  1.0000
  C   C994      1.0  0.41823  0.91373  0.85476  1.0000
  C   C995      1.0  0.40723  0.89871  0.85235  1.0000
  H   H1177     1.0  0.37167  0.90647  0.88785  1.0000
  H   H1178     1.0  0.39139  0.93288  0.89231  1.0000
  H   H1179     1.0  0.43110  0.91584  0.84533  1.0000
  H   H1180     1.0  0.41150  0.88951  0.84097  1.0000
  H   H1181     1.0  0.30645  0.68859  0.87358  1.0000
  C   C996      1.0  0.34624  0.72323  0.83557  1.0000
  C   C997      1.0  0.35574  0.87545  0.73553  1.0000
  C   C998      1.0  0.37204  0.86514  0.72737  1.0000
  C   C999      1.0  0.38488  0.85413  0.73926  1.0000
  C   C1000     1.0  0.38166  0.85333  0.75941  1.0000
  C   C1001     1.0  0.36537  0.86367  0.76757  1.0000
  C   C1002     1.0  0.35249  0.87461  0.75568  1.0000
  H   H1182     1.0  0.37474  0.86558  0.71192  1.0000
  H   H1183     1.0  0.39742  0.84618  0.73280  1.0000
  H   H1184     1.0  0.36266  0.86316  0.78302  1.0000
  H   H1185     1.0  0.33989  0.88246  0.76214  1.0000
  C   C1003     1.0  0.38344  0.62574  0.95723  1.0000
  N   N65       1.0  0.31917  0.70216  0.84715  1.0000
  C   C1004     1.0  0.33065  0.68214  0.98739  1.0000
  H   H1186     1.0  0.31524  0.96458  0.68748  1.0000
  H   H1187     1.0  0.36909  0.58250  0.97562  1.0000
  N   N66       1.0  0.33731  0.83633  0.88807  1.0000
  C   C1005     1.0  0.33211  0.85426  0.89765  1.0000
  C   C1006     1.0  0.35780  0.83042  0.89067  1.0000
  C   C1007     1.0  0.33546  0.84067  0.86723  1.0000
  C   C1008     1.0  0.32445  0.82139  0.89585  1.0000
  C   C1009     1.0  0.30424  0.82564  0.89710  1.0000
  C   C1010     1.0  0.33141  0.80214  0.90154  1.0000
  C   C1011     1.0  0.29183  0.81174  0.90433  1.0000
  C   C1012     1.0  0.31887  0.78837  0.90878  1.0000
  C   C1013     1.0  0.29915  0.79317  0.91026  1.0000
  H   H1188     1.0  0.33195  0.85135  0.91352  1.0000
  H   H1189     1.0  0.34251  0.86517  0.89287  1.0000
  H   H1190     1.0  0.31793  0.86142  0.89423  1.0000
  H   H1191     1.0  0.36004  0.82618  0.90602  1.0000
  H   H1192     1.0  0.36706  0.84221  0.88561  1.0000
  H   H1193     1.0  0.36344  0.81826  0.88215  1.0000
  H   H1194     1.0  0.32063  0.84623  0.86419  1.0000
  H   H1195     1.0  0.34511  0.85168  0.86070  1.0000
  H   H1196     1.0  0.33926  0.82756  0.85948  1.0000
  H   H1197     1.0  0.29785  0.83967  0.89221  1.0000
  C   C1014     1.0  0.28595  0.83307  0.69948  1.0000
  H   H1198     1.0  0.27644  0.81533  0.90519  1.0000
  H   H1199     1.0  0.28952  0.78237  0.91575  1.0000
  H   H1200     1.0  0.37200  0.91466  0.83137  1.0000
  H   H1201     1.0  0.45434  0.90112  0.87284  1.0000
  H   H1202     1.0  0.36783  0.74275  0.82635  1.0000
  C   C1015     1.0  0.33958  0.75741  0.82752  1.0000
  H   H1203     1.0  0.34124  0.60789  0.97414  1.0000
  C   C1016     1.0  0.34752  0.50106  0.88706  1.0000
  C   C1017     1.0  0.49060  0.96327  0.87909  1.0000
  C   C1018     1.0  0.29038  0.54092  0.87672  1.0000
  H   H1204     1.0  0.38161  0.91552  0.79655  1.0000
  C   C1019     1.0  0.31926  0.83248  0.68838  1.0000
  H   H1205     1.0  0.45703  0.88796  0.89580  1.0000
  S   S287      1.0  0.39192  0.98346  0.89959  1.0000
  H   H1206     1.0  0.33710  0.84558  0.71977  1.0000
  C   C1020     1.0  0.40409  0.99308  0.97462  1.0000
  C   C1021     1.0  0.42327  0.94839  0.99404  1.0000
  H   H1207     1.0  0.45717  0.85692  0.84648  1.0000
  C   C1022     1.0  0.47905  0.51008  0.92665  1.0000
  C   C1023     1.0  0.32009  0.75574  0.83224  1.0000
  C   C1024     1.0  0.37418  0.99521  0.82412  1.0000
  H   H1208     1.0  0.43601  0.86781  0.85795  1.0000
  C   C1025     1.0  0.30288  0.86027  0.70248  1.0000
  C   C1026     1.0  0.38889  0.94474  0.79410  1.0000
  H   H1209     1.0  0.31682  0.86612  0.70305  1.0000
  C   C1027     1.0  0.30007  0.52256  0.87912  1.0000
  C   C1028     1.0  0.35123  0.61652  0.96441  1.0000
  H   H1210     1.0  0.30745  0.69924  0.82058  1.0000
  C   C1029     1.0  0.31779  0.97834  0.67976  1.0000
  H   H1211     1.0  0.43224  0.98994  0.95963  1.0000
  H   H1212     1.0  0.30031  0.71389  0.87016  1.0000
  H   H1213     1.0  0.29018  0.70854  0.83882  1.0000
  H   H1214     1.0  0.44946  0.50608  0.92353  1.0000
  H   H1215     1.0  0.31661  0.56489  0.90267  1.0000
  C   C1030     1.0  0.31210  0.70242  0.86769  1.0000
  H   H1216     1.0  0.35901  0.99213  0.82382  1.0000
  H   H1217     1.0  0.32794  0.67170  0.84956  1.0000
  C   C1031     1.0  0.33441  0.82856  0.74646  1.0000
  C   C1032     1.0  0.30310  0.69840  0.83629  1.0000
  C   C1033     1.0  0.31355  0.73782  0.83853  1.0000
  H   H1218     1.0  0.29816  0.68386  0.84078  1.0000
  H   H1219     1.0  0.25402  0.65645  0.85501  1.0000
  N   N67       1.0  0.30466  0.83899  0.70364  1.0000
  H   H1220     1.0  0.34560  0.68626  0.85499  1.0000
  H   H1221     1.0  0.49016  0.98104  0.95559  1.0000
  H   H1222     1.0  0.48475  0.86946  0.83621  1.0000
  N   N68       1.0  0.32683  0.49975  0.89306  1.0000
  H   H1223     1.0  0.39846  0.62386  0.96119  1.0000
  C   C1034     1.0  0.38438  0.96113  0.82373  1.0000
  H   H1224     1.0  0.29798  0.80144  0.76291  1.0000
  C   C1035     1.0  0.35260  0.74121  0.82923  1.0000
  H   H1225     1.0  0.32378  0.70480  0.87645  1.0000
  C   C1036     1.0  0.33404  0.68571  0.84536  1.0000
  H   H1226     1.0  0.47667  0.51424  0.87716  1.0000
  H   H1227     1.0  0.34062  0.68528  0.83032  1.0000
  H   H1228     1.0  0.32849  0.81058  0.77251  1.0000
  H   H1229     1.0  0.29839  0.73737  0.84261  1.0000
  C   C1037     1.0  0.32164  0.53473  0.89871  1.0000
  N   N69       1.0  0.37110  0.61306  0.97011  1.0000
  H   H1230     1.0  0.34548  0.63178  0.96458  1.0000
  C   C1038     1.0  0.37805  0.59289  0.96680  1.0000
  H   H1231     1.0  0.32109  0.81655  0.68887  1.0000
  H   H1232     1.0  0.38704  0.96533  0.86251  1.0000
  S   S288      1.0  0.35577  0.91633  0.66991  1.0000
  C   C1039     1.0  0.31615  0.51894  0.89015  1.0000
  H   H1233     1.0  0.43682  0.95250  0.98689  1.0000
  H   H1234     1.0  0.41487  0.97086  0.83946  1.0000
  C   C1040     1.0  0.48240  0.87306  0.86713  1.0000
  H   H1235     1.0  0.29467  0.51148  0.87217  1.0000
  H   H1236     1.0  0.28638  0.81724  0.69923  1.0000
  H   H1237     1.0  0.38377  0.62271  0.94193  1.0000
  C   C1041     1.0  0.37693  0.92770  0.82367  1.0000
  C   C1042     1.0  0.37827  0.97669  0.85416  1.0000
  H   H1238     1.0  0.41168  0.94460  0.96767  1.0000
  H   H1239     1.0  0.31010  0.76850  0.83145  1.0000
  H   H1240     1.0  0.49001  0.81191  0.86601  1.0000
  H   H1241     1.0  0.46695  0.84022  0.87746  1.0000
  H   H1242     1.0  0.28660  0.81386  0.73218  1.0000
  C   C1043     1.0  0.39141  0.93945  0.99221  1.0000
  C   C1044     1.0  0.32640  0.72093  0.84011  1.0000
  H   H1243     1.0  0.37376  0.94234  0.84871  1.0000
  C   C1045     1.0  0.32816  0.83593  0.72870  1.0000
  N   N70       1.0  0.46167  0.87077  0.87150  1.0000
  C   C1046     1.0  0.45928  0.85282  0.88420  1.0000
  C   C1047     1.0  0.45199  0.88723  0.88146  1.0000
  C   C1048     1.0  0.45151  0.86962  0.85417  1.0000
  C   C1049     1.0  0.31194  0.55303  0.89613  1.0000
  H   H1244     1.0  0.38029  0.93657  0.98358  1.0000
  H   H1245     1.0  0.28882  0.57035  0.88319  1.0000
  H   H1246     1.0  0.46497  0.85318  0.89831  1.0000
  H   H1247     1.0  0.46598  0.99159  0.93226  1.0000
  C   C1050     1.0  0.29633  0.55613  0.88516  1.0000
  C   C1051     1.0  0.40914  0.94390  0.98319  1.0000
  H   H1248     1.0  0.44393  0.84990  0.88705  1.0000
  C   C1052     1.0  0.24850  0.61376  0.89381  1.0000
  C   C1053     1.0  0.37152  0.61748  0.99021  1.0000
  H   H1249     1.0  0.47622  0.52534  0.92791  1.0000
  C   C1054     1.0  0.38994  0.96101  0.80374  1.0000
  H   H1250     1.0  0.33356  0.83735  0.68969  1.0000
  C   C1055     1.0  0.31549  0.99507  0.68954  1.0000
  H   H1251     1.0  0.39330  0.58947  0.96975  1.0000
  H   H1252     1.0  0.41213  0.98583  0.81745  1.0000
  C   C1056     1.0  0.46386  0.49920  0.92425  1.0000
  H   H1253     1.0  0.34775  0.83258  0.75071  1.0000
  H   H1254     1.0  0.31528  0.83817  0.67379  1.0000
  H   H1255     1.0  0.37831  0.64118  0.95768  1.0000
  N   N71       1.0  0.38556  0.97859  0.83355  1.0000
  H   H1256     1.0  0.35036  0.61287  0.94949  1.0000
  C   C1057     1.0  0.25257  0.64452  0.86588  1.0000
  H   H1257     1.0  0.48641  0.97622  0.88616  1.0000
  C   C1058     1.0  0.49209  0.81816  0.85133  1.0000
  H   H1258     1.0  0.35441  0.50964  0.89643  1.0000
  H   H1259     1.0  0.46157  0.96130  0.87323  1.0000
  H   H1260     1.0  0.48770  0.87610  0.89672  1.0000
  C   C1059     1.0  0.42407  0.99289  0.97304  1.0000
  C   C1060     1.0  0.49385  0.87563  0.88205  1.0000
  H   H1261     1.0  0.35878  0.64707  0.98551  1.0000
  C   C1061     1.0  0.49201  0.87197  0.84842  1.0000
  H   H1262     1.0  0.39519  0.97350  0.79542  1.0000
  H   H1263     1.0  0.43288  0.50192  0.98141  1.0000
  S   S289      1.0  0.34223  0.87315  0.66720  1.0000
  Fe  Fe144     1.0  0.38058  0.49692  0.93252  1.0000
  S   S290      1.0  0.39181  0.98839  0.95512  1.0000
  C   C1062     1.0  0.48719  0.50192  0.87640  1.0000
  H   H1264     1.0  0.33093  0.50195  0.92284  1.0000
  H   H1265     1.0  0.31121  0.99403  0.70480  1.0000
  H   H1266     1.0  0.44902  0.99537  0.98781  1.0000
  H   H1267     1.0  0.40723  0.99605  0.83981  1.0000
  C   C1063     1.0  0.43353  0.99582  0.98906  1.0000
  H   H1268     1.0  0.24703  0.60186  0.90471  1.0000
  C   C1064     1.0  0.36473  0.63603  0.99569  1.0000
  C   C1065     1.0  0.39367  0.99649  0.99224  1.0000
  C   C1066     1.0  0.68970  0.26885  0.01958  1.0000
  S   S291      1.0  0.69542  0.10355  0.31774  1.0000
  Fe  Fe145     1.0  0.66403  0.11307  0.31450  1.0000
  S   S292      1.0  0.64836  0.13421  0.29303  1.0000
  Fe  Fe146     1.0  0.61761  0.15194  0.18572  1.0000
  S   S293      1.0  0.62744  0.16360  0.15557  1.0000
  S   S294      1.0  0.64041  0.13542  0.20338  1.0000
  Fe  Fe147     1.0  0.57528  0.16348  0.17973  1.0000
  S   S295      1.0  0.58211  0.17597  0.14949  1.0000
  S   S296      1.0  0.54557  0.16182  0.19540  1.0000
  Fe  Fe148     1.0  0.60265  0.14941  0.14698  1.0000
  S   S297      1.0  0.60416  0.13273  0.12076  1.0000
  Fe  Fe149     1.0  0.60626  0.18921  0.16072  1.0000
  S   S298      1.0  0.60877  0.22185  0.15518  1.0000
  S   S299      1.0  0.59435  0.13619  0.17657  1.0000
  S   S300      1.0  0.59791  0.17828  0.19153  1.0000
  Fe  Fe150     1.0  0.59972  0.02177  0.10861  1.0000
  S   S301      1.0  0.61100  0.04148  0.12783  1.0000
  S   S302      1.0  0.59327  0.02796  0.07773  1.0000
  Fe  Fe151     1.0  0.66936  0.31202  0.10520  1.0000
  S   S303      1.0  0.69535  0.32064  0.08550  1.0000
  S   S304      1.0  0.66932  0.27935  0.11382  1.0000
  Fe  Fe152     1.0  0.65180  0.35345  0.10425  1.0000
  S   S305      1.0  0.67591  0.36428  0.08464  1.0000
  S   S306      1.0  0.62878  0.37551  0.11552  1.0000
  Fe  Fe153     1.0  0.67412  0.33902  0.06815  1.0000
  S   S307      1.0  0.67918  0.34686  0.03590  1.0000
  Fe  Fe154     1.0  0.69555  0.34550  0.10335  1.0000
  S   S308      1.0  0.72150  0.36210  0.10596  1.0000
  S   S309      1.0  0.64816  0.32925  0.08652  1.0000
  S   S310      1.0  0.67125  0.33578  0.12433  1.0000
  C   C1067     1.0  0.69800  0.00624  0.32733  1.0000
  H   H1269     1.0  0.53015  0.43310  0.09715  1.0000
  N   N72       1.0  0.55909  0.44122  0.09240  1.0000
  H   H1270     1.0  0.54190  0.43314  0.11870  1.0000
  C   C1068     1.0  0.69534  0.26493  0.07072  1.0000
  C   C1069     1.0  0.55682  0.21421  0.17885  1.0000
  H   H1271     1.0  0.62269  0.10031  0.29833  1.0000
  S   S311      1.0  0.62340  0.45941  0.07182  1.0000
  H   H1272     1.0  0.51461  0.05752  0.13430  1.0000
  H   H1273     1.0  0.64949  0.05911  0.14734  1.0000
  H   H1274     1.0  0.57413  0.44569  0.11664  1.0000
  H   H1275     1.0  0.54309  0.12922  0.27981  1.0000
  C   C1070     1.0  0.60747  0.10546  0.29629  1.0000
  H   H1276     1.0  0.67076  0.29642  0.06439  1.0000
  H   H1277     1.0  0.54803  0.20721  0.14344  1.0000
  H   H1278     1.0  0.55332  0.19918  0.17850  1.0000
  H   H1279     1.0  0.66152  0.25180  0.04490  1.0000
  H   H1280     1.0  0.56349  0.12047  0.14716  1.0000
  H   H1281     1.0  0.65138  0.37600  0.00754  1.0000
  C   C1071     1.0  0.67417  0.33449  0.01658  1.0000
  C   C1072     1.0  0.66230  0.31949  0.01916  1.0000
  C   C1073     1.0  0.52999  0.05538  0.12895  1.0000
  N   N73       1.0  0.68152  0.26842  0.05581  1.0000
  H   H1282     1.0  0.65564  0.31544  0.03329  1.0000
  H   H1283     1.0  0.65021  0.29794  0.00549  1.0000
  C   C1074     1.0  0.62746  0.39884  0.10340  1.0000
  C   C1075     1.0  0.63444  0.40201  0.08412  1.0000
  C   C1076     1.0  0.63312  0.42067  0.07473  1.0000
  C   C1077     1.0  0.62490  0.43634  0.08452  1.0000
  C   C1078     1.0  0.61826  0.43325  0.10392  1.0000
  C   C1079     1.0  0.61932  0.41452  0.11325  1.0000
  H   H1284     1.0  0.64058  0.39004  0.07632  1.0000
  H   H1285     1.0  0.63842  0.42296  0.05977  1.0000
  H   H1286     1.0  0.61256  0.44528  0.11183  1.0000
  H   H1287     1.0  0.61413  0.41220  0.12825  1.0000
  S   S312      1.0  0.57050  0.01297  0.11927  1.0000
  H   H1288     1.0  0.58528  0.45425  0.09365  1.0000
  H   H1289     1.0  0.51976  0.24728  0.14243  1.0000
  C   C1080     1.0  0.54043  0.46072  0.06658  1.0000
  H   H1290     1.0  0.71790  0.31348  0.01938  1.0000
  H   H1291     1.0  0.56803  0.41361  0.10703  1.0000
  C   C1081     1.0  0.52084  0.00408  0.09977  1.0000
  C   C1082     1.0  0.62582  0.23743  0.14326  1.0000
  C   C1083     1.0  0.64406  0.23062  0.13556  1.0000
  C   C1084     1.0  0.65708  0.24365  0.12668  1.0000
  C   C1085     1.0  0.65210  0.26366  0.12519  1.0000
  C   C1086     1.0  0.63383  0.27044  0.13283  1.0000
  C   C1087     1.0  0.62087  0.25743  0.14185  1.0000
  H   H1292     1.0  0.64818  0.21535  0.13644  1.0000
  H   H1293     1.0  0.67116  0.23816  0.12090  1.0000
  H   H1294     1.0  0.62972  0.28573  0.13191  1.0000
  H   H1295     1.0  0.60688  0.26297  0.14776  1.0000
  C   C1088     1.0  0.60407  0.10738  0.12290  1.0000
  C   C1089     1.0  0.60318  0.09674  0.14083  1.0000
  C   C1090     1.0  0.60435  0.07656  0.14209  1.0000
  C   C1091     1.0  0.60639  0.06678  0.12547  1.0000
  C   C1092     1.0  0.60642  0.07741  0.10752  1.0000
  C   C1093     1.0  0.60532  0.09764  0.10625  1.0000
  H   H1296     1.0  0.60204  0.10404  0.15370  1.0000
  H   H1297     1.0  0.60412  0.06840  0.15599  1.0000
  H   H1298     1.0  0.60810  0.07003  0.09460  1.0000
  H   H1299     1.0  0.60593  0.10574  0.09230  1.0000
  C   C1094     1.0  0.52382  0.17449  0.16501  1.0000
  C   C1095     1.0  0.52397  0.16657  0.18407  1.0000
  C   C1096     1.0  0.50646  0.16322  0.19476  1.0000
  H   H1300     1.0  0.53718  0.17681  0.15653  1.0000
  H   H1301     1.0  0.60715  0.47929  0.01327  1.0000
  C   C1097     1.0  0.64534  0.13312  0.26842  1.0000
  C   C1098     1.0  0.65624  0.11983  0.25733  1.0000
  C   C1099     1.0  0.65423  0.12046  0.23751  1.0000
  C   C1100     1.0  0.64107  0.13411  0.22866  1.0000
  C   C1101     1.0  0.62970  0.14697  0.23988  1.0000
  C   C1102     1.0  0.63196  0.14656  0.25962  1.0000
  H   H1302     1.0  0.66662  0.10947  0.26391  1.0000
  H   H1303     1.0  0.66318  0.11052  0.22895  1.0000
  H   H1304     1.0  0.61960  0.15761  0.23327  1.0000
  H   H1305     1.0  0.62352  0.15696  0.26807  1.0000
  C   C1103     1.0  0.66472  0.44453  0.10627  1.0000
  N   N74       1.0  0.64956  0.20411  0.20191  1.0000
  C   C1104     1.0  0.66040  0.22049  0.19358  1.0000
  C   C1105     1.0  0.64982  0.19078  0.18677  1.0000
  C   C1106     1.0  0.62927  0.21134  0.20670  1.0000
  C   C1107     1.0  0.65789  0.19505  0.21955  1.0000
  C   C1108     1.0  0.66598  0.17564  0.22143  1.0000
  C   C1109     1.0  0.65775  0.20564  0.23574  1.0000
  C   C1110     1.0  0.67292  0.16736  0.23863  1.0000
  C   C1111     1.0  0.66457  0.19713  0.25292  1.0000
  C   C1112     1.0  0.67197  0.17796  0.25441  1.0000
  H   H1306     1.0  0.67582  0.21571  0.19018  1.0000
  H   H1307     1.0  0.65470  0.22739  0.18003  1.0000
  H   H1308     1.0  0.65965  0.23195  0.20347  1.0000
  H   H1309     1.0  0.66471  0.18548  0.18169  1.0000
  H   H1310     1.0  0.64307  0.19790  0.17387  1.0000
  H   H1311     1.0  0.64173  0.17818  0.19206  1.0000
  H   H1312     1.0  0.62782  0.22331  0.21604  1.0000
  H   H1313     1.0  0.62206  0.21702  0.19360  1.0000
  H   H1314     1.0  0.62099  0.19969  0.21432  1.0000
  H   H1315     1.0  0.66674  0.16632  0.21003  1.0000
  H   H1316     1.0  0.65210  0.22053  0.23532  1.0000
  H   H1317     1.0  0.67859  0.15240  0.23993  1.0000
  H   H1318     1.0  0.66395  0.20533  0.26525  1.0000
  H   H1319     1.0  0.67682  0.17121  0.26788  1.0000
  H   H1320     1.0  0.64151  0.05270  0.19919  1.0000
  H   H1321     1.0  0.64677  0.40039  0.03013  1.0000
  C   C1113     1.0  0.55692  0.06743  0.10965  1.0000
  C   C1114     1.0  0.55746  0.45008  0.07250  1.0000
  C   C1115     1.0  0.57355  0.44908  0.05858  1.0000
  C   C1116     1.0  0.55245  0.24696  0.16567  1.0000
  C   C1117     1.0  0.55561  0.46798  0.03451  1.0000
  C   C1118     1.0  0.64753  0.08655  0.16036  1.0000
  C   C1119     1.0  0.51848  0.02104  0.08766  1.0000
  S   S313      1.0  0.57758  0.49515  0.07323  1.0000
  H   H1322     1.0  0.63209  0.05318  0.17644  1.0000
  C   C1120     1.0  0.59739  0.49203  0.01096  1.0000
  H   H1323     1.0  0.53832  0.05051  0.14149  1.0000
  C   C1121     1.0  0.68848  0.02473  0.32420  1.0000
  H   H1324     1.0  0.55508  0.47505  0.02009  1.0000
  C   C1122     1.0  0.53643  0.12813  0.31038  1.0000
  C   C1123     1.0  0.54869  0.12607  0.29373  1.0000
  C   C1124     1.0  0.65685  0.45283  0.14443  1.0000
  H   H1325     1.0  0.65325  0.07275  0.11446  1.0000
  H   H1326     1.0  0.66682  0.44215  0.09124  1.0000
  C   C1125     1.0  0.55654  0.01002  0.03202  1.0000
  H   H1327     1.0  0.50563  0.02493  0.00038  1.0000
  C   C1126     1.0  0.56814  0.42118  0.09230  1.0000
  C   C1127     1.0  0.54356  0.12426  0.32828  1.0000
  H   H1328     1.0  0.61135  0.02290  0.03287  1.0000
  C   C1128     1.0  0.68227  0.34013  0.99802  1.0000
  C   C1129     1.0  0.62691  0.41912  0.01391  1.0000
  C   C1130     1.0  0.57581  0.11564  0.31295  1.0000
  H   H1329     1.0  0.54652  0.25755  0.15444  1.0000
  N   N75       1.0  0.64450  0.07906  0.18082  1.0000
  C   C1131     1.0  0.51365  0.23876  0.15476  1.0000
  H   H1330     1.0  0.65482  0.28528  0.05156  1.0000
  C   C1132     1.0  0.66562  0.28242  0.06225  1.0000
  H   H1331     1.0  0.54739  0.02294  0.02675  1.0000
  H   H1332     1.0  0.50643  0.15702  0.20949  1.0000
  H   H1333     1.0  0.52763  0.46286  0.07622  1.0000
  H   H1334     1.0  0.61025  0.03725  0.99910  1.0000
  C   C1133     1.0  0.65910  0.30979  0.00336  1.0000
  S   S314      1.0  0.59903  0.49423  0.11283  1.0000
  C   C1134     1.0  0.55326  0.22128  0.14528  1.0000
  C   C1135     1.0  0.55093  0.11320  0.14555  1.0000
  H   H1335     1.0  0.70258  0.29976  0.04950  1.0000
  C   C1136     1.0  0.65226  0.10189  0.12139  1.0000
  C   C1137     1.0  0.64979  0.46561  0.12976  1.0000
  H   H1336     1.0  0.54824  0.23169  0.13348  1.0000
  N   N76       1.0  0.68454  0.41347  0.11671  1.0000
  C   C1138     1.0  0.67573  0.39644  0.12672  1.0000
  C   C1139     1.0  0.68755  0.41061  0.09593  1.0000
  C   C1140     1.0  0.70367  0.41412  0.12362  1.0000
  C   C1141     1.0  0.67229  0.43123  0.12088  1.0000
  C   C1142     1.0  0.66795  0.43591  0.14012  1.0000
  H   H1337     1.0  0.66054  0.09988  0.19131  1.0000
  H   H1338     1.0  0.68420  0.38278  0.12318  1.0000
  H   H1339     1.0  0.67471  0.39630  0.14258  1.0000
  H   H1340     1.0  0.66099  0.39587  0.12255  1.0000
  H   H1341     1.0  0.69479  0.42253  0.08751  1.0000
  H   H1342     1.0  0.67374  0.40924  0.08995  1.0000
  H   H1343     1.0  0.69691  0.39719  0.09329  1.0000
  H   H1344     1.0  0.70299  0.41419  0.13947  1.0000
  H   H1345     1.0  0.71349  0.40133  0.12000  1.0000
  H   H1346     1.0  0.71052  0.42710  0.11701  1.0000
  H   H1347     1.0  0.67320  0.42650  0.15197  1.0000
  H   H1348     1.0  0.66176  0.04052  0.31783  1.0000
  C   C1143     1.0  0.66026  0.08409  0.19135  1.0000
  H   H1349     1.0  0.69966  0.27845  0.07520  1.0000
  Fe  Fe155     1.0  0.56500  0.01701  0.08833  1.0000
  H   H1350     1.0  0.56921  0.21970  0.14283  1.0000
  C   C1144     1.0  0.63903  0.40246  0.01737  1.0000
  H   H1351     1.0  0.64613  0.11669  0.16601  1.0000
  C   C1145     1.0  0.67333  0.24997  0.05452  1.0000
  C   C1146     1.0  0.65002  0.07448  0.14506  1.0000
  H   H1352     1.0  0.67447  0.07835  0.18482  1.0000
  H   H1353     1.0  0.68455  0.23892  0.04930  1.0000
  H   H1354     1.0  0.66689  0.24406  0.06878  1.0000
  C   C1147     1.0  0.52508  0.07927  0.10229  1.0000
  C   C1148     1.0  0.62603  0.08781  0.18958  1.0000
  H   H1355     1.0  0.61381  0.08465  0.18192  1.0000
  H   H1356     1.0  0.62325  0.08243  0.20496  1.0000
  H   H1357     1.0  0.62562  0.10366  0.18926  1.0000
  H   H1358     1.0  0.65772  0.05028  0.17814  1.0000
  C   C1149     1.0  0.52546  0.22775  0.16787  1.0000
  H   H1359     1.0  0.65878  0.07833  0.20674  1.0000
  H   H1360     1.0  0.52660  0.47780  0.04375  1.0000
  C   C1150     1.0  0.64796  0.10659  0.15522  1.0000
  H   H1361     1.0  0.65371  0.45610  0.15922  1.0000
  H   H1362     1.0  0.64964  0.12947  0.13238  1.0000
  C   C1151     1.0  0.55246  0.09812  0.13380  1.0000
  H   H1363     1.0  0.50339  0.11483  0.15994  1.0000
  C   C1152     1.0  0.70163  0.29264  0.03677  1.0000
  H   H1364     1.0  0.58731  0.44218  0.06220  1.0000
  H   H1365     1.0  0.53116  0.04324  0.11970  1.0000
  N   N77       1.0  0.59623  0.10899  0.31485  1.0000
  C   C1153     1.0  0.73642  0.36559  0.12409  1.0000
  H   H1366     1.0  0.54745  0.25227  0.17987  1.0000
  H   H1367     1.0  0.57265  0.21409  0.17591  1.0000
  H   H1368     1.0  0.64803  0.47136  0.09939  1.0000
  H   H1369     1.0  0.72583  0.34392  0.14522  1.0000
  H   H1370     1.0  0.56837  0.24714  0.16357  1.0000
  C   C1154     1.0  0.53963  0.46950  0.04785  1.0000
  C   C1155     1.0  0.57249  0.45770  0.03986  1.0000
  H   H1371     1.0  0.68154  0.25692  0.01841  1.0000
  H   H1372     1.0  0.60561  0.13732  0.31388  1.0000
  H   H1373     1.0  0.70855  0.25616  0.06557  1.0000
  H   H1374     1.0  0.65806  0.27715  0.07619  1.0000
  H   H1375     1.0  0.55720  0.05560  0.10021  1.0000
  C   C1156     1.0  0.65019  0.11408  0.13601  1.0000
  N   N78       1.0  0.53721  0.07292  0.11825  1.0000
  C   C1157     1.0  0.61139  0.02181  0.00221  1.0000
  C   C1158     1.0  0.53332  0.11912  0.15502  1.0000
  H   H1376     1.0  0.58353  0.42047  0.08674  1.0000
  N   N79       1.0  0.54661  0.22746  0.16461  1.0000
  C   C1159     1.0  0.69112  0.27635  0.03739  1.0000
  H   H1377     1.0  0.56434  0.46715  0.10379  1.0000
  H   H1378     1.0  0.56649  0.09442  0.12682  1.0000
  H   H1379     1.0  0.64121  0.47876  0.13309  1.0000
  H   H1380     1.0  0.50624  0.18686  0.14260  1.0000
  H   H1381     1.0  0.50968  0.08195  0.10743  1.0000
  H   H1382     1.0  0.58499  0.45681  0.02955  1.0000
  C   C1160     1.0  0.61199  0.01372  0.02134  1.0000
  H   H1383     1.0  0.53368  0.45535  0.10667  1.0000
  C   C1161     1.0  0.65374  0.46146  0.11076  1.0000
  H   H1384     1.0  0.52584  0.06825  0.09188  1.0000
  H   H1385     1.0  0.60815  0.11888  0.28645  1.0000
  C   C1162     1.0  0.57127  0.45247  0.10207  1.0000
  C   C1163     1.0  0.71049  0.30066  0.01954  1.0000
  H   H1386     1.0  0.52361  0.20811  0.19439  1.0000
  C   C1164     1.0  0.53625  0.08846  0.13115  1.0000
  H   H1387     1.0  0.68908  0.25730  0.08421  1.0000
  C   C1165     1.0  0.64396  0.05788  0.18371  1.0000
  S   S315      1.0  0.53839  0.03276  0.07770  1.0000
  C   C1166     1.0  0.50627  0.17999  0.15709  1.0000
  C   C1167     1.0  0.65228  0.08215  0.12590  1.0000
  H   H1388     1.0  0.65322  0.10782  0.10651  1.0000
  H   H1389     1.0  0.62520  0.43003  0.02396  1.0000
  H   H1390     1.0  0.50378  0.48683  0.12965  1.0000
  C   C1168     1.0  0.51851  0.09492  0.14096  1.0000
  H   H1391     1.0  0.65371  0.48699  0.01281  1.0000
  H   H1392     1.0  0.55325  0.21841  0.19371  1.0000
  H   H1393     1.0  0.60149  0.09439  0.28900  1.0000
  Fe  Fe156     1.0  0.60689  0.48627  0.08272  1.0000
  H   H1394     1.0  0.56674  0.06212  0.12090  1.0000
  H   H1395     1.0  0.56060  0.41270  0.08338  1.0000
  C   C1169     1.0  0.54034  0.44064  0.10413  1.0000
  C   C1170     1.0  0.69849  0.27711  0.00239  1.0000
  H   H1396     1.0  0.49827  0.04175  0.07401  1.0000
  C   C1171     1.0  0.56812  0.11995  0.29488  1.0000
  C   C1172     1.0  0.51599  0.21721  0.18379  1.0000
  H   H1397     1.0  0.57680  0.11873  0.28143  1.0000
  C   C1173     1.0  0.66923  0.02644  0.32045  1.0000
  H   H1398     1.0  0.57464  0.99676  0.00109  1.0000
  C   C1174     1.0  0.60540  0.12370  0.32348  1.0000
  Fe  Fe157     1.0  0.60268  0.99673  0.07500  1.0000
  H   H1399     1.0  0.52137  0.13279  0.30944  1.0000
  H   H1400     1.0  0.57180  0.01292  0.02833  1.0000
  H   H1401     1.0  0.53219  0.13086  0.16407  1.0000
  H   H1402     1.0  0.64497  0.01149  0.31612  1.0000
  C   C1175     1.0  0.51713  0.11001  0.15271  1.0000
  C   C1176     1.0  0.70891  0.29292  0.00238  1.0000
  C   C1177     1.0  0.50477  0.49155  0.11448  1.0000
  S   S316      1.0  0.65433  0.08357  0.32258  1.0000
  C   C1178     1.0  0.50014  0.02855  0.08327  1.0000
  S   S317      1.0  0.70117  0.04536  0.32428  1.0000
  H   H1403     1.0  0.52969  0.09274  0.09422  1.0000
  Fe  Fe158     1.0  0.68481  0.07454  0.32841  1.0000
  C   C1179     1.0  0.65973  0.00992  0.31948  1.0000
  H   H1404     1.0  0.53497  0.99827  0.10338  1.0000
  C   C1180     1.0  0.73585  0.35474  0.14192  1.0000
  H   H1405     1.0  0.50548  0.08851  0.13945  1.0000
  H   H1406     1.0  0.55460  0.00876  0.04795  1.0000
  H   H1407     1.0  0.56303  0.07958  0.10045  1.0000
  H   H1408     1.0  0.62055  0.11883  0.32609  1.0000
  C   C1181     1.0  0.56293  0.11821  0.32958  1.0000
  C   C1182     1.0  0.61718  0.42185  0.99740  1.0000
  C   C1183     1.0  0.64141  0.38843  0.00437  1.0000
  H   H1409     1.0  0.59030  0.07949  0.32187  1.0000
  C   C1184     1.0  0.59767  0.09072  0.32749  1.0000
  H   H1410     1.0  0.61282  0.08502  0.32898  1.0000
  S   S318      1.0  0.68126  0.08320  0.64678  1.0000
  S   S319      1.0  0.52953  0.09327  0.53684  1.0000
  H   H1411     1.0  0.59788  0.12726  0.33745  1.0000
  Fe  Fe159     1.0  0.65533  0.10484  0.64616  1.0000
  S   S320      1.0  0.63752  0.10594  0.62073  1.0000
  Fe  Fe160     1.0  0.52708  0.10093  0.60750  1.0000
  S   S321      1.0  0.53522  0.07660  0.58923  1.0000
  S   S322      1.0  0.54609  0.11185  0.62764  1.0000
  N   N80       1.0  0.74157  0.06915  0.36079  1.0000
  H   H1412     1.0  0.73044  0.05954  0.38952  1.0000
  H   H1413     1.0  0.64659  0.03175  0.63672  1.0000
  H   H1414     1.0  0.52002  0.04579  0.47215  1.0000
  Fe  Fe161     1.0  0.65048  0.09213  0.35269  1.0000
  S   S323      1.0  0.62595  0.08024  0.37202  1.0000
  Fe  Fe162     1.0  0.68922  0.11058  0.34855  1.0000
  S   S324      1.0  0.70737  0.12354  0.36872  1.0000
  S   S325      1.0  0.67159  0.12865  0.65368  1.0000
  C   C1185     1.0  0.73064  0.13173  0.36898  1.0000
  C   C1186     1.0  0.60508  0.03277  0.36520  1.0000
  S   S326      1.0  0.68031  0.08120  0.35906  1.0000
  S   S327      1.0  0.72897  0.10952  0.64863  1.0000
  N   N81       1.0  0.61798  0.04248  0.64708  1.0000
  H   H1415     1.0  0.52330  0.08576  0.46931  1.0000
  Fe  Fe163     1.0  0.52066  0.05852  0.41057  1.0000
  S   S328      1.0  0.51737  0.07721  0.38325  1.0000
  S   S329      1.0  0.53838  0.03024  0.40921  1.0000
  Fe  Fe164     1.0  0.52214  0.10099  0.40054  1.0000
  S   S330      1.0  0.54323  0.12269  0.38953  1.0000
  S   S331      1.0  0.52779  0.08178  0.42728  1.0000
  C   C1187     1.0  0.51567  0.08797  0.48311  1.0000
  H   H1416     1.0  0.55768  0.06920  0.62915  1.0000
  H   H1417     1.0  0.56771  0.11557  0.34382  1.0000
  H   H1418     1.0  0.68199  0.00860  0.63688  1.0000
  N   N82       1.0  0.52407  0.03194  0.53864  1.0000
  H   H1419     1.0  0.59872  0.01021  0.64826  1.0000
  H   H1420     1.0  0.52918  0.13961  0.52553  1.0000
  H   H1421     1.0  0.72219  0.14948  0.63126  1.0000
  H   H1422     1.0  0.72515  0.13860  0.39834  1.0000
  C   C1188     1.0  0.62060  0.02205  0.35644  1.0000
  H   H1423     1.0  0.51236  0.00590  0.55168  1.0000
  C   C1189     1.0  0.74437  0.12698  0.63731  1.0000
  C   C1190     1.0  0.60368  0.09294  0.37818  1.0000
  C   C1191     1.0  0.58844  0.08241  0.38605  1.0000
  C   C1192     1.0  0.56999  0.09154  0.38958  1.0000
  C   C1193     1.0  0.56665  0.11141  0.38574  1.0000
  C   C1194     1.0  0.58202  0.12215  0.37853  1.0000
  C   C1195     1.0  0.60053  0.11291  0.37468  1.0000
  H   H1424     1.0  0.59080  0.06703  0.38922  1.0000
  H   H1425     1.0  0.55834  0.08307  0.39513  1.0000
  H   H1426     1.0  0.57956  0.13757  0.37568  1.0000
  H   H1427     1.0  0.61233  0.12116  0.36897  1.0000
  S   S332      1.0  0.51029  0.11856  0.58511  1.0000
  C   C1196     1.0  0.62446  0.06209  0.64323  1.0000
  C   C1197     1.0  0.59029  0.02336  0.64393  1.0000
  C   C1198     1.0  0.51207  0.04417  0.55200  1.0000
  H   H1428     1.0  0.56565  0.12116  0.44784  1.0000
  C   C1199     1.0  0.54337  0.03917  0.53573  1.0000
  H   H1429     1.0  0.53245  0.16488  0.44121  1.0000
  H   H1430     1.0  0.71809  0.08147  0.37920  1.0000
  H   H1431     1.0  0.53408  0.12591  0.34131  1.0000
  H   H1432     1.0  0.56075  0.14154  0.50699  1.0000
  C   C1200     1.0  0.73745  0.14551  0.63040  1.0000
  C   C1201     1.0  0.58565  0.05791  0.63728  1.0000
  H   H1433     1.0  0.50990  0.05921  0.54545  1.0000
  Fe  Fe165     1.0  0.51649  0.09297  0.56781  1.0000
  C   C1202     1.0  0.59803  0.04139  0.64261  1.0000
  C   C1203     1.0  0.52586  0.08867  0.49920  1.0000
  C   C1204     1.0  0.51610  0.09145  0.51728  1.0000
  C   C1205     1.0  0.61208  0.10783  0.62284  1.0000
  C   C1206     1.0  0.60248  0.10413  0.60719  1.0000
  C   C1207     1.0  0.58229  0.10510  0.60845  1.0000
  C   C1208     1.0  0.57151  0.11007  0.62533  1.0000
  C   C1209     1.0  0.58112  0.11377  0.64097  1.0000
  C   C1210     1.0  0.60130  0.11251  0.63981  1.0000
  H   H1434     1.0  0.61070  0.10047  0.59401  1.0000
  H   H1435     1.0  0.57508  0.10224  0.59631  1.0000
  Fe  Fe166     1.0  0.69671  0.10649  0.65690  1.0000
  H   H1436     1.0  0.55350  0.03029  0.52633  1.0000
  H   H1437     1.0  0.54984  0.03902  0.54960  1.0000
  H   H1438     1.0  0.61595  0.07241  0.65247  1.0000
  H   H1439     1.0  0.62907  0.03263  0.61980  1.0000
  S   S333      1.0  0.65851  0.12209  0.34470  1.0000
  C   C1211     1.0  0.67704  0.00842  0.65197  1.0000
  C   C1212     1.0  0.63136  0.02968  0.63531  1.0000
  C   C1213     1.0  0.51429  0.13753  0.50069  1.0000
  C   C1214     1.0  0.50025  0.01833  0.60072  1.0000
  C   C1215     1.0  0.54823  0.14026  0.49956  1.0000
  H   H1440     1.0  0.50710  0.14262  0.44261  1.0000
  H   H1441     1.0  0.49765  0.03921  0.55594  1.0000
  C   C1216     1.0  0.50956  0.01719  0.43412  1.0000
  H   H1442     1.0  0.53308  0.01137  0.56171  1.0000
  H   H1443     1.0  0.60466  0.04829  0.36392  1.0000
  H   H1444     1.0  0.56412  0.13979  0.47225  1.0000
  C   C1217     1.0  0.55982  0.03844  0.63434  1.0000
  H   H1445     1.0  0.74345  0.08812  0.39403  1.0000
  H   H1446     1.0  0.72822  0.09491  0.34681  1.0000
  H   H1447     1.0  0.63966  0.06246  0.64622  1.0000
  H   H1448     1.0  0.71428  0.05883  0.37164  1.0000
  H   H1449     1.0  0.51868  0.04448  0.56572  1.0000
  H   H1450     1.0  0.56588  0.00806  0.64062  1.0000
  H   H1451     1.0  0.54265  0.05439  0.52941  1.0000
  H   H1452     1.0  0.54136  0.08732  0.49761  1.0000
  Fe  Fe167     1.0  0.50803  0.06495  0.60244  1.0000
  H   H1453     1.0  0.57289  0.11763  0.65407  1.0000
  C   C1218     1.0  0.72547  0.06719  0.37603  1.0000
  H   H1454     1.0  0.68050  0.03848  0.65322  1.0000
  H   H1455     1.0  0.50286  0.13403  0.47480  1.0000
  H   H1456     1.0  0.55234  0.11545  0.42944  1.0000
  H   H1457     1.0  0.62359  0.06763  0.62789  1.0000
  C   C1219     1.0  0.73558  0.13833  0.38595  1.0000
  H   H1458     1.0  0.55704  0.15553  0.44235  1.0000
  H   H1459     1.0  0.57809  0.03194  0.38246  1.0000
  C   C1220     1.0  0.59021  0.02353  0.37563  1.0000
  S   S334      1.0  0.51035  0.03395  0.61382  1.0000
  H   H1460     1.0  0.50975  0.03025  0.44093  1.0000
  C   C1221     1.0  0.53043  0.13935  0.51004  1.0000
  H   H1461     1.0  0.54525  0.03736  0.63111  1.0000
  N   N83       1.0  0.53640  0.13446  0.44891  1.0000
  C   C1222     1.0  0.55107  0.11832  0.44484  1.0000
  C   C1223     1.0  0.50888  0.99962  0.59995  1.0000
  C   C1224     1.0  0.54292  0.15232  0.43832  1.0000
  C   C1225     1.0  0.53395  0.13658  0.46979  1.0000
  C   C1226     1.0  0.51590  0.13612  0.48088  1.0000
  H   H1462     1.0  0.54748  0.10487  0.45361  1.0000
  H   H1463     1.0  0.51286  0.11717  0.44827  1.0000
  C   C1227     1.0  0.51850  0.13058  0.44107  1.0000
  C   C1228     1.0  0.57149  0.02196  0.63972  1.0000
  H   H1464     1.0  0.74086  0.12679  0.33985  1.0000
  C   C1229     1.0  0.52631  0.01204  0.54794  1.0000
  H   H1465     1.0  0.62990  0.01420  0.63958  1.0000
  H   H1466     1.0  0.53721  0.04437  0.50049  1.0000
  H   H1467     1.0  0.59008  0.07224  0.63615  1.0000
  C   C1230     1.0  0.67624  0.02538  0.66120  1.0000
  H   H1468     1.0  0.63220  0.02932  0.34845  1.0000
  H   H1469     1.0  0.54461  0.15125  0.42249  1.0000
  C   C1231     1.0  0.55000  0.13907  0.47972  1.0000
  S   S335      1.0  0.50104  0.08787  0.62247  1.0000
  C   C1232     1.0  0.59090  0.00347  0.37752  1.0000
  H   H1470     1.0  0.60849  0.11542  0.65194  1.0000
  C   C1233     1.0  0.62136  0.00201  0.35809  1.0000
  C   C1234     1.0  0.51462  0.03227  0.52068  1.0000
  C   C1235     1.0  0.52325  0.01290  0.41901  1.0000
  C   C1236     1.0  0.56687  0.05636  0.63320  1.0000
  C   C1237     1.0  0.51345  0.04000  0.48588  1.0000
  H   H1471     1.0  0.74478  0.17341  0.61762  1.0000
  C   C1238     1.0  0.52320  0.03910  0.50239  1.0000
  H   H1472     1.0  0.57886  0.99734  0.38582  1.0000
  H   H1473     1.0  0.73684  0.04153  0.35210  1.0000
  H   H1474     1.0  0.52085  0.12874  0.42544  1.0000
  H   H1475     1.0  0.59129  0.09240  0.34237  1.0000
  H   H1476     1.0  0.53534  0.00233  0.53843  1.0000
  H   H1477     1.0  0.72174  0.07312  0.33900  1.0000
  C   C1239     1.0  0.73377  0.08006  0.34369  1.0000
  H   H1478     1.0  0.70021  0.15709  0.65827  1.0000
  C   C1240     1.0  0.74434  0.13158  0.35309  1.0000
  H   H1479     1.0  0.74467  0.08126  0.33117  1.0000
  H   H1480     1.0  0.50055  0.13640  0.50901  1.0000
  H   H1481     1.0  0.71292  0.00473  0.33015  1.0000
  Fe  Fe168     1.0  0.66185  0.11897  0.68450  1.0000
  C   C1241     1.0  0.54624  0.17430  0.76273  1.0000
  S   S336      1.0  0.65183  0.14353  0.70323  1.0000
  Fe  Fe169     1.0  0.67052  0.07642  0.67758  1.0000
  S   S337      1.0  0.66803  0.04643  0.69275  1.0000
  S   S338      1.0  0.68774  0.09790  0.68816  1.0000
  S   S339      1.0  0.64375  0.09687  0.67650  1.0000
  Fe  Fe170     1.0  0.60901  0.15920  0.81346  1.0000
  S   S340      1.0  0.61977  0.16070  0.84227  1.0000
  S   S341      1.0  0.62510  0.13851  0.79308  1.0000
  Fe  Fe171     1.0  0.57140  0.18177  0.82509  1.0000
  S   S342      1.0  0.57917  0.18518  0.85475  1.0000
  S   S343      1.0  0.54305  0.19418  0.81402  1.0000
  Fe  Fe172     1.0  0.60816  0.19195  0.84062  1.0000
  S   S344      1.0  0.62793  0.21051  0.85375  1.0000
  Fe  Fe173     1.0  0.59048  0.15406  0.85498  1.0000
  S   S345      1.0  0.58817  0.13495  0.88307  1.0000
  S   S346      1.0  0.59969  0.19093  0.81044  1.0000
  S   S347      1.0  0.58038  0.15018  0.82649  1.0000
  Fe  Fe174     1.0  0.57521  0.02511  0.90767  1.0000
  S   S348      1.0  0.56783  0.02593  0.93934  1.0000
  S   S349      1.0  0.56870  0.04850  0.88378  1.0000
  H   H1482     1.0  0.58549  0.16204  0.91333  1.0000
  S   S350      1.0  0.61359  0.02051  0.96311  1.0000
  H   H1483     1.0  0.61141  0.10212  0.81256  1.0000
  H   H1484     1.0  0.55670  0.44333  0.86336  1.0000
  H   H1485     1.0  0.55257  0.16692  0.72789  1.0000
  C   C1242     1.0  0.70788  0.14003  0.69299  1.0000
  Fe  Fe175     1.0  0.65006  0.31130  0.89646  1.0000
  S   S351      1.0  0.67684  0.29798  0.90917  1.0000
  S   S352      1.0  0.63105  0.29548  0.87943  1.0000
  Fe  Fe176     1.0  0.65552  0.35143  0.90938  1.0000
  S   S353      1.0  0.68283  0.34021  0.92252  1.0000
  S   S354      1.0  0.64985  0.38297  0.91463  1.0000
  Fe  Fe177     1.0  0.69032  0.32475  0.89601  1.0000
  S   S355      1.0  0.71730  0.32435  0.87505  1.0000
  Fe  Fe178     1.0  0.66676  0.31501  0.93447  1.0000
  S   S356      1.0  0.66402  0.30203  0.96556  1.0000
  S   S357      1.0  0.66396  0.33742  0.88209  1.0000
  S   S358      1.0  0.63904  0.32685  0.92267  1.0000
  N   N84       1.0  0.52882  0.45236  0.87713  1.0000
  C   C1243     1.0  0.62519  0.04964  0.88680  1.0000
  C   C1244     1.0  0.65596  0.28127  0.82905  1.0000
  H   H1486     1.0  0.63080  0.20692  0.95911  1.0000
  H   H1487     1.0  0.60581  0.37938  0.96445  1.0000
  H   H1488     1.0  0.61699  0.21283  0.92866  1.0000
  Fe  Fe179     1.0  0.57957  0.47450  0.91018  1.0000
  S   S359      1.0  0.58381  0.44814  0.89352  1.0000
  S   S360      1.0  0.55880  0.47424  0.93663  1.0000
  H   H1489     1.0  0.61761  0.15915  0.89709  1.0000
  H   H1490     1.0  0.59032  0.16139  0.77789  1.0000
  Fe  Fe180     1.0  0.55731  0.99703  0.93893  1.0000
  H   H1491     1.0  0.65828  0.04959  0.86384  1.0000
  H   H1492     1.0  0.63113  0.27209  0.81822  1.0000
  H   H1493     1.0  0.71070  0.16943  0.71427  1.0000
  C   C1245     1.0  0.63108  0.40049  0.90849  1.0000
  C   C1246     1.0  0.61725  0.39727  0.89652  1.0000
  C   C1247     1.0  0.60278  0.41197  0.89199  1.0000
  C   C1248     1.0  0.60188  0.42978  0.89966  1.0000
  C   C1249     1.0  0.61554  0.43278  0.91188  1.0000
  C   C1250     1.0  0.63015  0.41829  0.91610  1.0000
  H   H1494     1.0  0.61784  0.38362  0.89056  1.0000
  H   H1495     1.0  0.59229  0.40953  0.88249  1.0000
  H   H1496     1.0  0.61505  0.44639  0.91786  1.0000
  H   H1497     1.0  0.64081  0.42091  0.92534  1.0000
  H   H1498     1.0  0.68034  0.16096  0.67600  1.0000
  H   H1499     1.0  0.68550  0.33486  0.96804  1.0000
  C   C1251     1.0  0.62108  0.37868  0.95852  1.0000
  S   S361      1.0  0.60252  0.48704  0.92344  1.0000
  C   C1252     1.0  0.62974  0.10258  0.83511  1.0000
  C   C1253     1.0  0.57794  0.17110  0.77299  1.0000
  H   H1500     1.0  0.52225  0.44588  0.90751  1.0000
  C   C1254     1.0  0.62774  0.23400  0.86165  1.0000
  C   C1255     1.0  0.64270  0.23787  0.87220  1.0000
  C   C1256     1.0  0.64365  0.25629  0.87829  1.0000
  C   C1257     1.0  0.62985  0.27137  0.87357  1.0000
  C   C1258     1.0  0.61472  0.26740  0.86330  1.0000
  C   C1259     1.0  0.61356  0.24886  0.85752  1.0000
  H   H1501     1.0  0.65374  0.22654  0.87559  1.0000
  H   H1502     1.0  0.65517  0.25880  0.88651  1.0000
  H   H1503     1.0  0.60387  0.27883  0.85960  1.0000
  H   H1504     1.0  0.60193  0.24624  0.84946  1.0000
  C   C1260     1.0  0.58140  0.11134  0.88344  1.0000
  C   C1261     1.0  0.58143  0.09920  0.90061  1.0000
  C   C1262     1.0  0.57741  0.07993  0.90104  1.0000
  C   C1263     1.0  0.57278  0.07284  0.88438  1.0000
  C   C1264     1.0  0.57185  0.08525  0.86746  1.0000
  C   C1265     1.0  0.57641  0.10433  0.86690  1.0000
  H   H1505     1.0  0.58505  0.10458  0.91354  1.0000
  H   H1506     1.0  0.57794  0.07055  0.91423  1.0000
  H   H1507     1.0  0.56811  0.07992  0.85456  1.0000
  H   H1508     1.0  0.57623  0.11354  0.85362  1.0000
  H   H1509     1.0  0.61082  0.17722  0.87891  1.0000
  C   C1266     1.0  0.52225  0.18145  0.81771  1.0000
  C   C1267     1.0  0.52309  0.16223  0.82525  1.0000
  H   H1510     1.0  0.71769  0.43923  0.87147  1.0000
  H   H1511     1.0  0.53648  0.15502  0.82955  1.0000
  H   H1512     1.0  0.61093  0.15169  0.92989  1.0000
  C   C1268     1.0  0.61495  0.16410  0.93590  1.0000
  H   H1513     1.0  0.63450  0.49501  0.95140  1.0000
  C   C1269     1.0  0.64454  0.14187  0.72824  1.0000
  C   C1270     1.0  0.64685  0.12459  0.73988  1.0000
  C   C1271     1.0  0.64094  0.12395  0.75969  1.0000
  C   C1272     1.0  0.63267  0.14051  0.76811  1.0000
  C   C1273     1.0  0.63043  0.15782  0.75650  1.0000
  C   C1274     1.0  0.63637  0.15847  0.73668  1.0000
  H   H1514     1.0  0.65316  0.11173  0.73362  1.0000
  H   H1515     1.0  0.64276  0.11048  0.76854  1.0000
  H   H1516     1.0  0.62422  0.17070  0.76276  1.0000
  H   H1517     1.0  0.63455  0.17191  0.72779  1.0000
  C   C1275     1.0  0.66997  0.02531  0.68071  1.0000
  H   H1518     1.0  0.59133  0.21473  0.90946  1.0000
  C   C1276     1.0  0.57345  0.14819  0.71377  1.0000
  H   H1519     1.0  0.63103  0.17990  0.89149  1.0000
  H   H1520     1.0  0.69667  0.29281  0.86996  1.0000
  C   C1277     1.0  0.56468  0.15651  0.73008  1.0000
  C   C1278     1.0  0.67464  0.27600  0.83502  1.0000
  H   H1521     1.0  0.69585  0.25131  0.83867  1.0000
  H   H1522     1.0  0.54157  0.46081  0.90129  1.0000
  H   H1523     1.0  0.71225  0.13082  0.68103  1.0000
  H   H1524     1.0  0.66497  0.37200  0.97539  1.0000
  H   H1525     1.0  0.53299  0.42235  0.87211  1.0000
  H   H1526     1.0  0.51039  0.03215  0.96517  1.0000
  H   H1527     1.0  0.61854  0.08697  0.89551  1.0000
  C   C1279     1.0  0.70073  0.41585  0.87780  1.0000
  Fe  Fe181     1.0  0.58090  0.48889  0.94899  1.0000
  H   H1528     1.0  0.69322  0.13651  0.69886  1.0000
  C   C1280     1.0  0.50146  0.48177  0.92520  1.0000
  C   C1281     1.0  0.60881  0.07781  0.83363  1.0000
  C   C1282     1.0  0.61222  0.18276  0.92618  1.0000
  C   C1283     1.0  0.63120  0.35634  0.98428  1.0000
  H   H1529     1.0  0.60811  0.05560  0.85626  1.0000
  H   H1530     1.0  0.64875  0.29547  0.83013  1.0000
  C   C1284     1.0  0.51522  0.08694  0.87398  1.0000
  H   H1531     1.0  0.65688  0.38886  0.95632  1.0000
  H   H1532     1.0  0.51127  0.05766  0.88364  1.0000
  H   H1533     1.0  0.69335  0.18058  0.66589  1.0000
  H   H1534     1.0  0.70776  0.99915  0.68043  1.0000
  C   C1285     1.0  0.51531  0.01261  0.92572  1.0000
  H   H1535     1.0  0.68575  0.31945  0.84777  1.0000
  C   C1286     1.0  0.67885  0.33064  0.98219  1.0000
  C   C1287     1.0  0.73307  0.41304  0.86085  1.0000
  H   H1536     1.0  0.61499  0.21231  0.89660  1.0000
  H   H1537     1.0  0.62710  0.03804  0.87693  1.0000
  H   H1538     1.0  0.50383  0.20545  0.80642  1.0000
  H   H1539     1.0  0.56804  0.15229  0.69987  1.0000
  H   H1540     1.0  0.64661  0.09988  0.85875  1.0000
  H   H1541     1.0  0.71739  0.13568  0.70470  1.0000
  H   H1542     1.0  0.67382  0.28316  0.87187  1.0000
  C   C1288     1.0  0.73944  0.34587  0.89371  1.0000
  C   C1289     1.0  0.63348  0.08020  0.89380  1.0000
  C   C1290     1.0  0.50713  0.10412  0.86533  1.0000
  H   H1543     1.0  0.57188  0.17905  0.78545  1.0000
  H   H1544     1.0  0.59408  0.13330  0.76266  1.0000
  H   H1545     1.0  0.63483  0.17409  0.97548  1.0000
  H   H1546     1.0  0.58370  0.18174  0.76158  1.0000
  H   H1547     1.0  0.64968  0.49147  0.97877  1.0000
  H   H1548     1.0  0.60902  0.04499  0.67693  1.0000
  H   H1549     1.0  0.66512  0.07171  0.87045  1.0000
  H   H1550     1.0  0.61705  0.02092  0.67137  1.0000
  H   H1551     1.0  0.63274  0.34485  0.97424  1.0000
  H   H1552     1.0  0.50526  0.02859  0.90047  1.0000
  H   H1553     1.0  0.57502  0.18459  0.92135  1.0000
  H   H1554     1.0  0.62483  0.14669  0.96067  1.0000
  C   C1291     1.0  0.62856  0.07608  0.86077  1.0000
  H   H1555     1.0  0.62354  0.39208  0.94913  1.0000
  C   C1292     1.0  0.61619  0.09484  0.82583  1.0000
  H   H1556     1.0  0.52891  0.01874  0.92393  1.0000
  H   H1557     1.0  0.55034  0.15196  0.79419  1.0000
  H   H1558     1.0  0.69540  0.26847  0.86552  1.0000
  C   C1293     1.0  0.55737  0.14551  0.78113  1.0000
  C   C1294     1.0  0.59633  0.12938  0.73293  1.0000
  N   N85       1.0  0.63558  0.06648  0.87884  1.0000
  H   H1559     1.0  0.54701  0.13662  0.77607  1.0000
  C   C1295     1.0  0.61825  0.19816  0.93503  1.0000
  H   H1560     1.0  0.66192  0.05205  0.88842  1.0000
  H   H1561     1.0  0.56970  0.13572  0.78599  1.0000
  C   C1296     1.0  0.51444  0.46925  0.87625  1.0000
  Fe  Fe182     1.0  0.59624  0.00881  0.94239  1.0000
  C   C1297     1.0  0.62861  0.17648  0.96184  1.0000
  H   H1562     1.0  0.53449  0.16719  0.75767  1.0000
  H   H1563     1.0  0.63544  0.11585  0.82892  1.0000
  C   C1298     1.0  0.60104  0.20591  0.89964  1.0000
  C   C1299     1.0  0.73730  0.33733  0.87704  1.0000
  N   N86       1.0  0.63427  0.37547  0.97399  1.0000
  C   C1300     1.0  0.50468  0.07101  0.87715  1.0000
  H   H1564     1.0  0.50971  0.42985  0.88256  1.0000
  H   H1565     1.0  0.53406  0.48975  0.88181  1.0000
  H   H1566     1.0  0.63693  0.07304  0.90809  1.0000
  H   H1567     1.0  0.54017  0.18057  0.77624  1.0000
  H   H1568     1.0  0.60799  0.43501  0.99456  1.0000
  C   C1301     1.0  0.58775  0.13763  0.74931  1.0000
  H   H1569     1.0  0.59811  0.07192  0.82646  1.0000
  H   H1570     1.0  0.52976  0.08589  0.87812  1.0000
  C   C1302     1.0  0.61481  0.06849  0.85085  1.0000
  S   S362      1.0  0.59123  0.47796  0.97768  1.0000
  C   C1303     1.0  0.62297  0.16108  0.95349  1.0000
  H   H1571     1.0  0.71271  0.37010  0.86681  1.0000
  C   C1304     1.0  0.53473  0.44856  0.89691  1.0000
  C   C1305     1.0  0.73040  0.18546  0.67206  1.0000
  C   C1306     1.0  0.61262  0.01003  0.98708  1.0000
  C   C1307     1.0  0.70076  0.17176  0.70273  1.0000
  H   H1572     1.0  0.74015  0.45093  0.84845  1.0000
  C   C1308     1.0  0.52160  0.43458  0.87203  1.0000
  H   H1573     1.0  0.71516  0.29962  0.98894  1.0000
  N   N87       1.0  0.56332  0.16051  0.76589  1.0000
  H   H1574     1.0  0.59627  0.12855  0.70246  1.0000
  H   H1575     1.0  0.59464  0.20747  0.88562  1.0000
  H   H1576     1.0  0.64301  0.09197  0.89039  1.0000
  H   H1577     1.0  0.62342  0.36700  0.94870  1.0000
  S   S363      1.0  0.60452  0.00994  0.91049  1.0000
  H   H1578     1.0  0.64481  0.23848  0.81661  1.0000
  H   H1579     1.0  0.54545  0.43583  0.89831  1.0000
  H   H1580     1.0  0.54988  0.18668  0.75229  1.0000
  N   N88       1.0  0.70825  0.16071  0.68626  1.0000
  C   C1309     1.0  0.67142  0.24327  0.82709  1.0000
  C   C1310     1.0  0.69908  0.39643  0.87668  1.0000
  C   C1311     1.0  0.69501  0.16508  0.67095  1.0000
  H   H1581     1.0  0.67707  0.22836  0.82685  1.0000
  H   H1582     1.0  0.69665  0.27170  0.98884  1.0000
  C   C1312     1.0  0.67673  0.30959  0.84203  1.0000
  H   H1583     1.0  0.60957  0.05375  0.88975  1.0000
  N   N89       1.0  0.68585  0.28955  0.84299  1.0000
  C   C1313     1.0  0.57168  0.15151  0.74841  1.0000
  H   H1584     1.0  0.63402  0.03802  0.67195  1.0000
  H   H1585     1.0  0.54206  0.46044  0.84885  1.0000
  H   H1586     1.0  0.51590  0.47503  0.92558  1.0000
  C   C1314     1.0  0.61932  0.40781  0.98438  1.0000
  H   H1587     1.0  0.51653  0.43664  0.85740  1.0000
  C   C1315     1.0  0.66460  0.00811  0.69089  1.0000
  C   C1316     1.0  0.73081  0.39333  0.85982  1.0000
  C   C1317     1.0  0.50659  0.15220  0.82705  1.0000
  C   C1318     1.0  0.68202  0.25654  0.83386  1.0000
  C   C1319     1.0  0.62630  0.19496  0.95262  1.0000
  H   H1588     1.0  0.72870  0.34469  0.90580  1.0000
  C   C1320     1.0  0.68807  0.28316  0.86344  1.0000
  C   C1321     1.0  0.58460  0.17787  0.90983  1.0000
  C   C1322     1.0  0.65416  0.37495  0.96475  1.0000
  C   C1323     1.0  0.58746  0.49497  0.99453  1.0000
  C   C1324     1.0  0.71405  0.38523  0.86761  1.0000
  H   H1589     1.0  0.65708  0.36360  0.95459  1.0000
  H   H1590     1.0  0.57733  0.18054  0.89636  1.0000
  H   H1591     1.0  0.71354  0.30079  0.83768  1.0000
  H   H1592     1.0  0.69860  0.18743  0.69854  1.0000
  C   C1325     1.0  0.70519  0.29000  0.83244  1.0000
  H   H1593     1.0  0.70415  0.29375  0.81679  1.0000
  H   H1594     1.0  0.65970  0.00794  0.70600  1.0000
  C   C1326     1.0  0.72759  0.16609  0.67872  1.0000
  H   H1595     1.0  0.68896  0.42446  0.88487  1.0000
  H   H1596     1.0  0.50755  0.13725  0.83249  1.0000
  C   C1327     1.0  0.63596  0.09334  0.85225  1.0000
  H   H1597     1.0  0.63034  0.04307  0.90068  1.0000
  C   C1328     1.0  0.65613  0.05969  0.87525  1.0000
  C   C1329     1.0  0.58930  0.13474  0.71518  1.0000
  N   N90       1.0  0.60370  0.18550  0.90757  1.0000
  C   C1330     1.0  0.61637  0.17493  0.89327  1.0000
  H   H1598     1.0  0.68619  0.39003  0.88292  1.0000
  H   H1599     1.0  0.71404  0.27608  0.83435  1.0000
  C   C1331     1.0  0.64557  0.26791  0.82216  1.0000
  H   H1600     1.0  0.60875  0.11900  0.73393  1.0000
  H   H1601     1.0  0.66269  0.31064  0.85091  1.0000
  C   C1332     1.0  0.65325  0.24896  0.82124  1.0000
  H   H1602     1.0  0.68649  0.16739  0.70912  1.0000
  H   H1603     1.0  0.55399  0.46763  0.86805  1.0000
  C   C1333     1.0  0.54601  0.45615  0.86372  1.0000
  H   H1604     1.0  0.74321  0.13731  0.68129  1.0000
  H   H1605     1.0  0.67449  0.31532  0.82700  1.0000
  C   C1334     1.0  0.66742  0.31527  0.98483  1.0000
  H   H1606     1.0  0.61146  0.41099  0.97184  1.0000
  C   C1335     1.0  0.51133  0.99881  0.94095  1.0000
  C   C1336     1.0  0.71741  0.42415  0.87001  1.0000
  C   C1337     1.0  0.63139  0.39050  0.98760  1.0000
  C   C1338     1.0  0.51968  0.48770  0.87894  1.0000
  H   H1607     1.0  0.64179  0.35167  0.99486  1.0000
  H   H1608     1.0  0.74209  0.38393  0.85319  1.0000
  H   H1609     1.0  0.51541  0.11649  0.86277  1.0000
  C   C1339     1.0  0.50463  0.19059  0.81230  1.0000
  H   H1610     1.0  0.71862  0.19655  0.67249  1.0000
  C   C1340     1.0  0.61955  0.03627  0.66770  1.0000
  C   C1341     1.0  0.50182  0.01840  0.91257  1.0000
  H   H1611     1.0  0.61667  0.35635  0.99213  1.0000
  H   H1612     1.0  0.74175  0.42698  0.82435  1.0000
  C   C1342     1.0  0.74394  0.15248  0.67725  1.0000
  H   H1613     1.0  0.69149  0.35173  0.99592  1.0000
  S   S364      1.0  0.56189  0.99757  0.90688  1.0000
  H   H1614     1.0  0.55134  0.00640  0.99498  1.0000
  H   H1615     1.0  0.73440  0.01710  0.66491  1.0000
  C   C1343     1.0  0.73469  0.00183  0.66360  1.0000
  H   H1616     1.0  0.50578  0.49622  0.96940  1.0000
  H   H1617     1.0  0.71540  0.82874  0.30088  1.0000
  S   S365      1.0  0.68501  0.91672  0.31731  1.0000
  Fe  Fe183     1.0  0.66027  0.89969  0.31333  1.0000
  S   S366      1.0  0.66473  0.88265  0.28672  1.0000
  Fe  Fe184     1.0  0.60138  0.84124  0.20928  1.0000
  S   S367      1.0  0.62327  0.83382  0.18492  1.0000
  S   S368      1.0  0.60355  0.85137  0.23890  1.0000
  Fe  Fe185     1.0  0.56767  0.83354  0.18671  1.0000
  S   S369      1.0  0.58698  0.82569  0.16061  1.0000
  S   S370      1.0  0.53528  0.83727  0.19265  1.0000
  Fe  Fe186     1.0  0.60627  0.80889  0.18151  1.0000
  S   S371      1.0  0.61832  0.77709  0.18272  1.0000
  Fe  Fe187     1.0  0.60248  0.85107  0.16591  1.0000
  S   S372      1.0  0.61347  0.87335  0.14296  1.0000
  S   S373      1.0  0.58567  0.81526  0.20736  1.0000
  S   S374      1.0  0.58190  0.85990  0.19040  1.0000
  H   H1618     1.0  0.64339  0.61259  0.01492  1.0000
  C   C1344     1.0  0.63356  0.60384  0.02376  1.0000
  H   H1619     1.0  0.61680  0.58878  0.06966  1.0000
  C   C1345     1.0  0.59496  0.50568  0.02435  1.0000
  C   C1346     1.0  0.53676  0.89589  0.13621  1.0000
  C   C1347     1.0  0.52209  0.49772  0.10540  1.0000
  Fe  Fe188     1.0  0.58229  0.98289  0.11364  1.0000
  S   S375      1.0  0.57283  0.95856  0.13535  1.0000
  S   S376      1.0  0.57369  0.98635  0.08354  1.0000
  Fe  Fe189     1.0  0.66252  0.68750  0.11666  1.0000
  S   S377      1.0  0.69187  0.67930  0.10181  1.0000
  S   S378      1.0  0.65353  0.71980  0.11951  1.0000
  Fe  Fe190     1.0  0.64992  0.64734  0.11387  1.0000
  S   S379      1.0  0.67788  0.63682  0.09902  1.0000
  S   S380      1.0  0.62403  0.63015  0.11619  1.0000
  Fe  Fe191     1.0  0.69168  0.65131  0.12049  1.0000
  S   S381      1.0  0.71992  0.63340  0.12605  1.0000
  Fe  Fe192     1.0  0.67662  0.66510  0.08136  1.0000
  S   S382      1.0  0.68901  0.66450  0.05026  1.0000
  S   S383      1.0  0.66324  0.66018  0.13702  1.0000
  S   S384      1.0  0.64749  0.67491  0.09457  1.0000
  Fe  Fe193     1.0  0.60773  0.52376  0.10160  1.0000
  S   S385      1.0  0.62901  0.53918  0.11524  1.0000
  S   S386      1.0  0.57817  0.53527  0.09402  1.0000
  H   H1620     1.0  0.62168  0.87724  0.20441  1.0000
  H   H1621     1.0  0.51121  0.50499  0.00148  1.0000
  H   H1622     1.0  0.70113  0.71723  0.07688  1.0000
  H   H1623     1.0  0.66477  0.60526  0.07675  1.0000
  C   C1348     1.0  0.73351  0.63868  0.16089  1.0000
  H   H1624     1.0  0.70315  0.88109  0.30308  1.0000
  C   C1349     1.0  0.64075  0.51496  0.01864  1.0000
  H   H1625     1.0  0.72036  0.64763  0.16394  1.0000
  S   S387      1.0  0.65615  0.97133  0.32114  1.0000
  H   H1626     1.0  0.54407  0.92348  0.12285  1.0000
  C   C1350     1.0  0.67639  0.66800  0.02949  1.0000
  C   C1351     1.0  0.68585  0.66255  0.01205  1.0000
  C   C1352     1.0  0.65767  0.67682  0.02973  1.0000
  H   H1627     1.0  0.70033  0.65568  0.01177  1.0000
  H   H1628     1.0  0.65015  0.68093  0.04307  1.0000
  C   C1353     1.0  0.62585  0.60486  0.11580  1.0000
  C   C1354     1.0  0.60995  0.59609  0.11143  1.0000
  C   C1355     1.0  0.61085  0.57606  0.11079  1.0000
  C   C1356     1.0  0.62756  0.56453  0.11496  1.0000
  C   C1357     1.0  0.64346  0.57330  0.11939  1.0000
  C   C1358     1.0  0.64270  0.59339  0.11962  1.0000
  H   H1629     1.0  0.59682  0.60484  0.10856  1.0000
  H   H1630     1.0  0.59847  0.56950  0.10752  1.0000
  H   H1631     1.0  0.65641  0.56448  0.12274  1.0000
  H   H1632     1.0  0.65501  0.59994  0.12311  1.0000
  C   C1359     1.0  0.61554  0.98201  0.01024  1.0000
  H   H1633     1.0  0.66887  0.62953  0.05133  1.0000
  H   H1634     1.0  0.58532  0.91899  0.21083  1.0000
  H   H1635     1.0  0.72661  0.84822  0.28702  1.0000
  H   H1636     1.0  0.66862  0.91929  0.22812  1.0000
  C   C1360     1.0  0.59290  0.90569  0.20537  1.0000
  C   C1361     1.0  0.70058  0.71536  0.06139  1.0000
  Fe  Fe194     1.0  0.66242  0.93904  0.32845  1.0000
  C   C1362     1.0  0.62819  0.76148  0.16485  1.0000
  C   C1363     1.0  0.63103  0.76786  0.14534  1.0000
  C   C1364     1.0  0.63869  0.75489  0.13180  1.0000
  C   C1365     1.0  0.64353  0.73530  0.13744  1.0000
  C   C1366     1.0  0.64046  0.72888  0.15693  1.0000
  C   C1367     1.0  0.63294  0.74188  0.17050  1.0000
  H   H1637     1.0  0.62755  0.78284  0.14067  1.0000
  H   H1638     1.0  0.64102  0.76012  0.11682  1.0000
  H   H1639     1.0  0.64410  0.71392  0.16160  1.0000
  H   H1640     1.0  0.63083  0.73667  0.18551  1.0000
  C   C1368     1.0  0.51759  0.82711  0.18188  1.0000
  C   C1369     1.0  0.52190  0.81667  0.16585  1.0000
  C   C1370     1.0  0.50248  0.89088  0.14085  1.0000
  H   H1641     1.0  0.59899  0.57520  0.01689  1.0000
  C   C1371     1.0  0.52200  0.88433  0.14289  1.0000
  H   H1642     1.0  0.53657  0.81447  0.15971  1.0000
  N   N91       1.0  0.56864  0.75797  0.15863  1.0000
  C   C1372     1.0  0.52324  0.50380  0.08579  1.0000
  C   C1373     1.0  0.58426  0.93495  0.13676  1.0000
  C   C1374     1.0  0.60133  0.92998  0.12567  1.0000
  C   C1375     1.0  0.61009  0.91103  0.12758  1.0000
  C   C1376     1.0  0.60184  0.89691  0.14051  1.0000
  C   C1377     1.0  0.58470  0.90188  0.15146  1.0000
  C   C1378     1.0  0.57602  0.92081  0.14966  1.0000
  H   H1643     1.0  0.60779  0.94075  0.11565  1.0000
  H   H1644     1.0  0.62332  0.90732  0.11898  1.0000
  H   H1645     1.0  0.57799  0.89114  0.16118  1.0000
  H   H1646     1.0  0.56277  0.92453  0.15822  1.0000
  C   C1379     1.0  0.64729  0.87515  0.27305  1.0000
  C   C1380     1.0  0.65325  0.86808  0.25514  1.0000
  C   C1381     1.0  0.64006  0.86122  0.24419  1.0000
  C   C1382     1.0  0.62073  0.86117  0.25115  1.0000
  C   C1383     1.0  0.61476  0.86839  0.26896  1.0000
  C   C1384     1.0  0.62791  0.87539  0.27982  1.0000
  H   H1647     1.0  0.66819  0.86784  0.24974  1.0000
  H   H1648     1.0  0.64492  0.85568  0.23059  1.0000
  H   H1649     1.0  0.59986  0.86840  0.27452  1.0000
  H   H1650     1.0  0.62307  0.88072  0.29355  1.0000
  H   H1651     1.0  0.72876  0.87851  0.30161  1.0000
  C   C1385     1.0  0.62241  0.88947  0.19303  1.0000
  C   C1386     1.0  0.50726  0.50370  0.07535  1.0000
  N   N92       1.0  0.68221  0.72409  0.05424  1.0000
  C   C1387     1.0  0.68014  0.74461  0.05802  1.0000
  C   C1388     1.0  0.68102  0.72232  0.03357  1.0000
  C   C1389     1.0  0.69543  0.71183  0.02216  1.0000
  C   C1390     1.0  0.66466  0.73066  0.02444  1.0000
  H   H1652     1.0  0.57834  0.97676  0.03176  1.0000
  N   N93       1.0  0.55195  0.99254  0.02383  1.0000
  H   H1653     1.0  0.70767  0.59425  0.15508  1.0000
  H   H1654     1.0  0.71307  0.72198  0.05338  1.0000
  H   H1655     1.0  0.69120  0.75265  0.04907  1.0000
  H   H1656     1.0  0.66585  0.75186  0.05506  1.0000
  H   H1657     1.0  0.66728  0.71467  0.08133  1.0000
  H   H1658     1.0  0.70801  0.70428  0.02794  1.0000
  H   H1659     1.0  0.65290  0.73838  0.03232  1.0000
  H   H1660     1.0  0.64132  0.63430  0.07462  1.0000
  C   C1391     1.0  0.71568  0.87488  0.31090  1.0000
  H   H1661     1.0  0.58576  0.90316  0.19254  1.0000
  H   H1662     1.0  0.63470  0.68845  0.01262  1.0000
  H   H1663     1.0  0.70248  0.69957  0.06028  1.0000
  C   C1392     1.0  0.66651  0.71436  0.06564  1.0000
  H   H1664     1.0  0.65208  0.72109  0.06249  1.0000
  C   C1393     1.0  0.57901  0.77403  0.14861  1.0000
  H   H1665     1.0  0.59424  0.73825  0.15885  1.0000
  S   S388      1.0  0.61214  0.99119  0.10507  1.0000
  H   H1666     1.0  0.55128  0.75742  0.13514  1.0000
  H   H1667     1.0  0.59008  0.76905  0.13729  1.0000
  H   H1668     1.0  0.60767  0.92151  0.17264  1.0000
  H   H1669     1.0  0.59652  0.57192  0.05228  1.0000
  H   H1670     1.0  0.56895  0.78531  0.14177  1.0000
  H   H1671     1.0  0.58686  0.78106  0.15847  1.0000
  H   H1672     1.0  0.62182  0.61977  0.07644  1.0000
  N   N94       1.0  0.64485  0.61221  0.05502  1.0000
  C   C1394     1.0  0.64891  0.68099  0.01245  1.0000
  C   C1395     1.0  0.68833  0.98965  0.32682  1.0000
  C   C1396     1.0  0.56148  0.74777  0.14367  1.0000
  S   S389      1.0  0.63778  0.92313  0.32208  1.0000
  C   C1397     1.0  0.50715  0.55163  0.09425  1.0000
  C   C1398     1.0  0.60830  0.58270  0.02435  1.0000
  H   H1673     1.0  0.66727  0.69905  0.06272  1.0000
  H   H1674     1.0  0.56378  0.53864  0.00210  1.0000
  H   H1675     1.0  0.62481  0.63737  0.05635  1.0000
  C   C1399     1.0  0.49850  0.82984  0.18975  1.0000
  C   C1400     1.0  0.62157  0.59419  0.01408  1.0000
  H   H1676     1.0  0.72193  0.57058  0.13290  1.0000
  H   H1677     1.0  0.66017  0.83580  0.29615  1.0000
  H   H1678     1.0  0.53405  0.54441  0.10649  1.0000
  C   C1401     1.0  0.51956  0.76985  0.18571  1.0000
  H   H1679     1.0  0.63069  0.92478  0.17914  1.0000
  C   C1402     1.0  0.63269  0.62651  0.06603  1.0000
  C   C1403     1.0  0.72916  0.57251  0.14538  1.0000
  H   H1680     1.0  0.51052  0.80038  0.14585  1.0000
  C   C1404     1.0  0.65961  0.62258  0.04264  1.0000
  H   H1681     1.0  0.53639  0.50880  0.07865  1.0000
  C   C1405     1.0  0.63257  0.60214  0.04419  1.0000
  H   H1682     1.0  0.55995  0.96213  0.02744  1.0000
  C   C1406     1.0  0.71464  0.84464  0.29790  1.0000
  C   C1407     1.0  0.61871  0.59049  0.05414  1.0000
  C   C1408     1.0  0.50485  0.99441  0.10716  1.0000
  H   H1683     1.0  0.57240  0.77931  0.18846  1.0000
  H   H1684     1.0  0.57339  0.74246  0.13332  1.0000
  H   H1685     1.0  0.73953  0.66993  0.10232  1.0000
  C   C1409     1.0  0.73015  0.58836  0.17402  1.0000
  C   C1410     1.0  0.51009  0.53928  0.12718  1.0000
  H   H1686     1.0  0.61761  0.96658  0.01324  1.0000
  C   C1411     1.0  0.50714  0.80874  0.15802  1.0000
  C   C1412     1.0  0.52449  0.78064  0.19970  1.0000
  C   C1413     1.0  0.56258  0.97557  0.03343  1.0000
  H   H1687     1.0  0.50673  0.98116  0.11634  1.0000
  H   H1688     1.0  0.68419  0.85648  0.31991  1.0000
  C   C1414     1.0  0.51856  0.54528  0.10910  1.0000
  H   H1689     1.0  0.51388  0.55580  0.08007  1.0000
  H   H1690     1.0  0.52904  0.99343  0.05798  1.0000
  C   C1415     1.0  0.57321  0.52567  0.00455  1.0000
  H   H1691     1.0  0.71535  0.88247  0.32410  1.0000
  H   H1692     1.0  0.51917  0.53373  0.13846  1.0000
  C   C1416     1.0  0.53112  0.99041  0.02715  1.0000
  C   C1417     1.0  0.69354  0.71003  0.00282  1.0000
  H   H1693     1.0  0.54720  0.79284  0.21102  1.0000
  C   C1418     1.0  0.54356  0.78391  0.20046  1.0000
  C   C1419     1.0  0.69688  0.85089  0.32778  1.0000
  H   H1694     1.0  0.60272  0.50328  0.03698  1.0000
  N   N95       1.0  0.71516  0.85394  0.31586  1.0000
  H   H1695     1.0  0.64229  0.51253  0.03390  1.0000
  H   H1696     1.0  0.72388  0.59893  0.18358  1.0000
  N   N96       1.0  0.63146  0.79577  0.24570  1.0000
  C   C1420     1.0  0.63621  0.80516  0.22618  1.0000
  C   C1421     1.0  0.64025  0.77565  0.24665  1.0000
  C   C1422     1.0  0.61032  0.79512  0.24846  1.0000
  C   C1423     1.0  0.63907  0.80631  0.26005  1.0000
  C   C1424     1.0  0.62713  0.81547  0.27463  1.0000
  C   C1425     1.0  0.65906  0.80808  0.25938  1.0000
  C   C1426     1.0  0.63483  0.82563  0.28766  1.0000
  C   C1427     1.0  0.66657  0.81844  0.27238  1.0000
  C   C1428     1.0  0.65446  0.82721  0.28648  1.0000
  H   H1697     1.0  0.63070  0.82061  0.22528  1.0000
  H   H1698     1.0  0.65188  0.80449  0.22202  1.0000
  H   H1699     1.0  0.62989  0.79828  0.21498  1.0000
  H   H1700     1.0  0.63754  0.76825  0.26132  1.0000
  H   H1701     1.0  0.65601  0.77470  0.24294  1.0000
  H   H1702     1.0  0.63441  0.76724  0.23631  1.0000
  H   H1703     1.0  0.60507  0.78700  0.23753  1.0000
  H   H1704     1.0  0.60569  0.78796  0.26279  1.0000
  H   H1705     1.0  0.60271  0.80981  0.24694  1.0000
  H   H1706     1.0  0.61171  0.81559  0.27593  1.0000
  H   H1707     1.0  0.66898  0.80179  0.24852  1.0000
  H   H1708     1.0  0.62539  0.83302  0.29827  1.0000
  H   H1709     1.0  0.68179  0.82003  0.27126  1.0000
  C   C1429     1.0  0.72098  0.58573  0.15796  1.0000
  N   N97       1.0  0.61370  0.90762  0.20056  1.0000
  C   C1430     1.0  0.55919  0.99420  0.00316  1.0000
  Fe  Fe195     1.0  0.58783  0.52420  0.06553  1.0000
  C   C1431     1.0  0.66915  0.99144  0.32274  1.0000
  C   C1432     1.0  0.62371  0.91144  0.21715  1.0000
  C   C1433     1.0  0.64359  0.91399  0.21477  1.0000
  C   C1434     1.0  0.61431  0.91262  0.23594  1.0000
  C   C1435     1.0  0.65340  0.91759  0.23018  1.0000
  C   C1436     1.0  0.62423  0.91642  0.25119  1.0000
  C   C1437     1.0  0.64372  0.91884  0.24835  1.0000
  H   H1710     1.0  0.55156  0.89053  0.13780  1.0000
  C   C1438     1.0  0.58239  0.74424  0.16890  1.0000
  S   S390      1.0  0.61715  0.98303  0.04888  1.0000
  H   H1711     1.0  0.51041  0.93586  0.11902  1.0000
  C   C1439     1.0  0.51360  0.92135  0.12555  1.0000
  H   H1712     1.0  0.61493  0.88589  0.18082  1.0000
  S   S391      1.0  0.61785  0.51479  0.07226  1.0000
  C   C1440     1.0  0.53258  0.91441  0.12768  1.0000
  H   H1713     1.0  0.60985  0.93759  0.19036  1.0000
  H   H1714     1.0  0.65173  0.91309  0.20097  1.0000
  H   H1715     1.0  0.59935  0.91041  0.23935  1.0000
  H   H1716     1.0  0.66383  0.58677  0.06099  1.0000
  H   H1717     1.0  0.61688  0.91702  0.26547  1.0000
  H   H1718     1.0  0.65141  0.92129  0.26038  1.0000
  H   H1719     1.0  0.65302  0.63435  0.03289  1.0000
  H   H1720     1.0  0.55429  0.73491  0.15009  1.0000
  H   H1721     1.0  0.52601  0.87029  0.14993  1.0000
  H   H1722     1.0  0.64516  0.59102  0.07970  1.0000
  C   C1441     1.0  0.73673  0.63020  0.14356  1.0000
  C   C1442     1.0  0.53366  0.76236  0.17231  1.0000
  C   C1443     1.0  0.55780  0.77636  0.18727  1.0000
  H   H1723     1.0  0.50831  0.50852  0.06019  1.0000
  H   H1724     1.0  0.70124  0.84952  0.29086  1.0000
  C   C1444     1.0  0.58312  0.52265  0.02101  1.0000
  H   H1725     1.0  0.63766  0.89020  0.18744  1.0000
  H   H1726     1.0  0.66932  0.61268  0.03388  1.0000
  C   C1445     1.0  0.66290  0.72868  0.00511  1.0000
  H   H1727     1.0  0.52868  0.75448  0.16169  1.0000
  C   C1446     1.0  0.55328  0.76549  0.17265  1.0000
  C   C1447     1.0  0.60690  0.58086  0.04433  1.0000
  H   H1728     1.0  0.68160  0.74631  0.07341  1.0000
  H   H1729     1.0  0.58934  0.75108  0.17962  1.0000
  H   H1730     1.0  0.59040  0.89325  0.21620  1.0000
  H   H1731     1.0  0.57514  0.73202  0.17675  1.0000
  C   C1448     1.0  0.65508  0.59822  0.06863  1.0000
  C   C1449     1.0  0.61561  0.92355  0.18509  1.0000
  S   S392      1.0  0.58065  0.53992  0.03753  1.0000
  Fe  Fe196     1.0  0.57017  0.50515  0.10247  1.0000
  H   H1732     1.0  0.55833  0.97378  0.04913  1.0000
  C   C1450     1.0  0.61445  0.99378  0.02536  1.0000
  H   H1733     1.0  0.52603  0.98541  0.99775  1.0000
  C   C1451     1.0  0.51995  0.98678  0.01234  1.0000
  C   C1452     1.0  0.63165  0.53217  0.01107  1.0000
  H   H1734     1.0  0.62593  0.54296  0.02062  1.0000
  H   H1735     1.0  0.51341  0.78704  0.20956  1.0000
  C   C1453     1.0  0.52146  0.99133  0.04583  1.0000
  H   H1736     1.0  0.50458  0.76790  0.18482  1.0000
  C   C1454     1.0  0.73241  0.84626  0.32561  1.0000
  H   H1737     1.0  0.62248  0.59573  0.99851  1.0000
  H   H1738     1.0  0.50373  0.85116  0.14515  1.0000
  C   C1455     1.0  0.64717  0.50057  0.00670  1.0000
  S   S393      1.0  0.54201  0.49769  0.11886  1.0000
  C   C1456     1.0  0.49870  0.90981  0.13192  1.0000
  H   H1739     1.0  0.50085  0.86817  0.17424  1.0000
  C   C1457     1.0  0.50178  0.98955  0.04927  1.0000
  C   C1458     1.0  0.50026  0.98503  0.01597  1.0000
  C   C1459     1.0  0.49820  0.49867  0.99951  1.0000
  H   H1740     1.0  0.65010  0.73476  0.99856  1.0000
  H   H1741     1.0  0.74456  0.64175  0.18788  1.0000
  H   H1742     1.0  0.69580  0.97553  0.32928  1.0000
  S   S394      1.0  0.67388  0.91771  0.64275  1.0000
  H   H1743     1.0  0.51768  0.93073  0.64249  1.0000
  S   S395      1.0  0.62776  0.89361  0.63326  1.0000
  H   H1744     1.0  0.51484  0.85375  0.45664  1.0000
  H   H1745     1.0  0.51597  0.90306  0.46243  1.0000
  Fe  Fe197     1.0  0.52596  0.92751  0.59318  1.0000
  S   S396      1.0  0.52188  0.94015  0.56310  1.0000
  S   S397      1.0  0.54788  0.93666  0.61120  1.0000
  H   H1746     1.0  0.66304  0.87125  0.63946  1.0000
  C   C1460     1.0  0.73193  0.88649  0.62959  1.0000
  Fe  Fe198     1.0  0.66527  0.94088  0.66270  1.0000
  C   C1461     1.0  0.51422  0.95128  0.49842  1.0000
  C   C1462     1.0  0.62700  0.96297  0.37768  1.0000
  C   C1463     1.0  0.54425  0.86134  0.44942  1.0000
  Fe  Fe199     1.0  0.63909  0.90930  0.35224  1.0000
  S   S398      1.0  0.61503  0.90799  0.37652  1.0000
  Fe  Fe200     1.0  0.68355  0.90235  0.34761  1.0000
  S   S399      1.0  0.70667  0.88607  0.36571  1.0000
  C   C1464     1.0  0.52346  0.99567  0.41061  1.0000
  H   H1747     1.0  0.57357  0.86950  0.44978  1.0000
  S   S400      1.0  0.66277  0.92603  0.35893  1.0000
  H   H1748     1.0  0.57851  0.96628  0.37966  1.0000
  S   S401      1.0  0.51863  0.89821  0.58816  1.0000
  C   C1465     1.0  0.73894  0.86971  0.38254  1.0000
  H   H1749     1.0  0.74172  0.83217  0.62506  1.0000
  C   C1466     1.0  0.56148  0.86768  0.41711  1.0000
  H   H1750     1.0  0.53055  0.87836  0.64080  1.0000
  H   H1751     1.0  0.57338  0.86732  0.48444  1.0000
  H   H1752     1.0  0.71733  0.94665  0.63404  1.0000
  S   S402      1.0  0.52468  0.91402  0.37198  1.0000
  H   H1753     1.0  0.63358  0.99435  0.35080  1.0000
  H   H1754     1.0  0.71939  0.89575  0.62594  1.0000
  H   H1755     1.0  0.57677  0.94695  0.63281  1.0000
  C   C1467     1.0  0.50922  0.98321  0.41668  1.0000
  H   H1756     1.0  0.50895  0.97020  0.40977  1.0000
  C   C1468     1.0  0.58997  0.91017  0.37472  1.0000
  C   C1469     1.0  0.58222  0.90960  0.35728  1.0000
  C   C1470     1.0  0.56218  0.91093  0.35668  1.0000
  C   C1471     1.0  0.54972  0.91320  0.37340  1.0000
  C   C1472     1.0  0.55749  0.91425  0.39076  1.0000
  C   C1473     1.0  0.57752  0.91250  0.39143  1.0000
  H   H1757     1.0  0.59164  0.90783  0.34432  1.0000
  H   H1758     1.0  0.55628  0.91015  0.34319  1.0000
  H   H1759     1.0  0.54808  0.91635  0.40363  1.0000
  H   H1760     1.0  0.58343  0.91313  0.40495  1.0000
  H   H1761     1.0  0.51586  0.85133  0.49125  1.0000
  N   N98       1.0  0.51784  0.90203  0.65650  1.0000
  H   H1762     1.0  0.52150  0.99503  0.60744  1.0000
  H   H1763     1.0  0.53326  0.90900  0.48990  1.0000
  C   C1474     1.0  0.71750  0.93821  0.64833  1.0000
  C   C1475     1.0  0.52890  0.88032  0.42378  1.0000
  C   C1476     1.0  0.51192  0.89843  0.51143  1.0000
  H   H1764     1.0  0.67777  0.84929  0.64237  1.0000
  S   S403      1.0  0.50451  0.92496  0.42621  1.0000
  C   C1477     1.0  0.50790  0.92126  0.65162  1.0000
  H   H1765     1.0  0.56649  0.88145  0.42024  1.0000
  C   C1478     1.0  0.52311  0.89299  0.63828  1.0000
  H   H1766     1.0  0.62791  0.94705  0.38078  1.0000
  C   C1479     1.0  0.74529  0.88641  0.35115  1.0000
  C   C1480     1.0  0.56074  0.86515  0.45808  1.0000
  H   H1767     1.0  0.71018  0.84552  0.63650  1.0000
  H   H1768     1.0  0.62957  0.96919  0.39102  1.0000
  H   H1769     1.0  0.68803  0.87200  0.64155  1.0000
  C   C1481     1.0  0.60673  0.99205  0.36899  1.0000
  C   C1482     1.0  0.51955  0.90306  0.49250  1.0000
  Fe  Fe201     1.0  0.51211  0.91160  0.55859  1.0000
  H   H1770     1.0  0.63921  0.96585  0.36678  1.0000
  H   H1771     1.0  0.51512  0.94380  0.48511  1.0000
  H   H1772     1.0  0.69557  0.83540  0.33221  1.0000
  C   C1483     1.0  0.60584  0.90590  0.62660  1.0000
  C   C1484     1.0  0.59939  0.92387  0.63281  1.0000
  C   C1485     1.0  0.58169  0.93310  0.62779  1.0000
  C   C1486     1.0  0.57030  0.92456  0.61638  1.0000
  C   C1487     1.0  0.57677  0.90663  0.61000  1.0000
  C   C1488     1.0  0.59447  0.89732  0.61515  1.0000
  H   H1773     1.0  0.52161  0.84393  0.42745  1.0000
  N   N99       1.0  0.60819  0.97078  0.37092  1.0000
  H   H1774     1.0  0.56813  0.89994  0.60117  1.0000
  H   H1775     1.0  0.59936  0.88342  0.61024  1.0000
  N   N100      1.0  0.73459  0.94119  0.65797  1.0000
  H   H1776     1.0  0.59319  0.96767  0.39919  1.0000
  H   H1777     1.0  0.57287  0.85586  0.41998  1.0000
  H   H1778     1.0  0.54601  0.83338  0.42621  1.0000
  H   H1779     1.0  0.56012  0.86925  0.40133  1.0000
  S   S404      1.0  0.65970  0.88455  0.34320  1.0000
  C   C1489     1.0  0.73321  0.87844  0.64853  1.0000
  H   H1780     1.0  0.59514  0.94669  0.38657  1.0000
  C   C1490     1.0  0.54482  0.85877  0.48998  1.0000
  H   H1781     1.0  0.53657  0.84750  0.40580  1.0000
  C   C1491     1.0  0.53655  0.84638  0.42173  1.0000
  N   N101      1.0  0.54301  0.86384  0.42837  1.0000
  H   H1782     1.0  0.53308  0.89354  0.42905  1.0000
  H   H1783     1.0  0.51425  0.87800  0.43061  1.0000
  C   C1492     1.0  0.73201  0.88070  0.36634  1.0000
  H   H1784     1.0  0.65179  0.86055  0.61173  1.0000
  S   S405      1.0  0.67258  0.97050  0.64966  1.0000
  C   C1493     1.0  0.52821  0.85604  0.46203  1.0000
  H   H1785     1.0  0.52658  0.96016  0.49709  1.0000
  N   N102      1.0  0.68142  0.86451  0.61411  1.0000
  C   C1494     1.0  0.67934  0.88490  0.60605  1.0000
  H   H1786     1.0  0.66772  0.83882  0.61253  1.0000
  S   S406      1.0  0.52566  0.90124  0.53044  1.0000
  C   C1495     1.0  0.70069  0.85551  0.60793  1.0000
  C   C1496     1.0  0.71356  0.84631  0.62112  1.0000
  C   C1497     1.0  0.70715  0.85582  0.58810  1.0000
  C   C1498     1.0  0.73185  0.83846  0.61475  1.0000
  C   C1499     1.0  0.72558  0.84813  0.58193  1.0000
  H   H1787     1.0  0.60757  0.94786  0.35286  1.0000
  C   C1500     1.0  0.67750  0.86420  0.63529  1.0000
  H   H1788     1.0  0.50878  0.97271  0.58823  1.0000
  H   H1789     1.0  0.69096  0.89288  0.61010  1.0000
  H   H1790     1.0  0.66538  0.89239  0.61133  1.0000
  H   H1791     1.0  0.59278  0.96947  0.34624  1.0000
  C   C1501     1.0  0.50977  0.89971  0.47690  1.0000
  H   H1792     1.0  0.60798  0.93069  0.64156  1.0000
  H   H1793     1.0  0.69560  0.85870  0.34094  1.0000
  C   C1502     1.0  0.50152  0.98688  0.58921  1.0000
  C   C1503     1.0  0.60663  0.96386  0.35197  1.0000
  H   H1794     1.0  0.69810  0.86229  0.57722  1.0000
  H   H1795     1.0  0.53242  0.90189  0.62799  1.0000
  H   H1796     1.0  0.66756  0.85507  0.59109  1.0000
  H   H1797     1.0  0.67969  0.88653  0.59016  1.0000
  C   C1504     1.0  0.56088  0.86390  0.47808  1.0000
  H   H1798     1.0  0.54471  0.85850  0.50546  1.0000
  C   C1505     1.0  0.52859  0.85466  0.48196  1.0000
  H   H1799     1.0  0.61830  0.96843  0.34111  1.0000
  H   H1800     1.0  0.71686  0.92282  0.64629  1.0000
  C   C1506     1.0  0.73795  0.83960  0.59525  1.0000
  Fe  Fe202     1.0  0.50099  0.91948  0.39583  1.0000
  C   C1507     1.0  0.59304  0.96264  0.38471  1.0000
  H   H1801     1.0  0.51622  0.94000  0.51059  1.0000
  C   C1508     1.0  0.66652  0.85427  0.60703  1.0000
  H   H1802     1.0  0.72888  0.86525  0.39443  1.0000
  H   H1803     1.0  0.55742  0.89354  0.64613  1.0000
  H   H1804     1.0  0.52774  0.88326  0.40801  1.0000
  H   H1805     1.0  0.50401  0.98863  0.48416  1.0000
  H   H1806     1.0  0.73047  0.84906  0.56677  1.0000
  Fe  Fe203     1.0  0.64546  0.90659  0.65315  1.0000
  C   C1509     1.0  0.73152  0.83873  0.34522  1.0000
  H   H1807     1.0  0.71825  0.83861  0.35436  1.0000
  H   H1808     1.0  0.74545  0.88820  0.60053  1.0000
  H   H1809     1.0  0.50780  0.98344  0.51672  1.0000
  H   H1810     1.0  0.74036  0.89509  0.33871  1.0000
  C   C1510     1.0  0.73500  0.96195  0.65981  1.0000
  H   H1811     1.0  0.49968  0.96333  0.53153  1.0000
  H   H1812     1.0  0.70394  0.94275  0.65676  1.0000
  H   H1813     1.0  0.53404  0.99239  0.39887  1.0000
  H   H1814     1.0  0.51024  0.89139  0.63079  1.0000
  C   C1511     1.0  0.67145  0.99130  0.66208  1.0000
  C   C1512     1.0  0.55379  0.89909  0.65991  1.0000
  Fe  Fe204     1.0  0.64936  0.91245  0.69495  1.0000
  H   H1815     1.0  0.55618  0.83965  0.73107  1.0000
  S   S407      1.0  0.62979  0.91239  0.72293  1.0000
  H   H1816     1.0  0.50744  0.97199  0.91042  1.0000
  S   S408      1.0  0.63589  0.93111  0.67085  1.0000
  C   C1513     1.0  0.49920  0.92941  0.86116  1.0000
  S   S409      1.0  0.67827  0.92417  0.68796  1.0000
  Fe  Fe205     1.0  0.60270  0.84839  0.82189  1.0000
  S   S410      1.0  0.60849  0.84442  0.85302  1.0000
  S   S411      1.0  0.62710  0.85420  0.79878  1.0000
  Fe  Fe206     1.0  0.56213  0.83661  0.83127  1.0000
  S   S412      1.0  0.56506  0.83136  0.86304  1.0000
  S   S413      1.0  0.53655  0.83573  0.81408  1.0000
  Fe  Fe207     1.0  0.57903  0.85924  0.85904  1.0000
  S   S414      1.0  0.56983  0.88012  0.88186  1.0000
  Fe  Fe208     1.0  0.59446  0.81671  0.85480  1.0000
  S   S415      1.0  0.61210  0.79217  0.87127  1.0000
  S   S416      1.0  0.57431  0.86535  0.82776  1.0000
  S   S417      1.0  0.59043  0.81994  0.82323  1.0000
  Fe  Fe209     1.0  0.59056  0.98222  0.91173  1.0000
  S   S418      1.0  0.58515  0.97969  0.94409  1.0000
  S   S419      1.0  0.60189  0.96023  0.89055  1.0000
  Fe  Fe210     1.0  0.68249  0.65791  0.90988  1.0000
  S   S420      1.0  0.65742  0.65228  0.89411  1.0000
  S   S421      1.0  0.71354  0.65760  0.89619  1.0000
  Fe  Fe211     1.0  0.65679  0.67090  0.94484  1.0000
  S   S422      1.0  0.63060  0.66609  0.93114  1.0000
  S   S423      1.0  0.64797  0.68362  0.97335  1.0000
  Fe  Fe212     1.0  0.64606  0.63835  0.92282  1.0000
  S   S424      1.0  0.62570  0.61512  0.93202  1.0000
  Fe  Fe213     1.0  0.64350  0.68055  0.90378  1.0000
  S   S425      1.0  0.62138  0.70019  0.88715  1.0000
  S   S426      1.0  0.67187  0.64227  0.93819  1.0000
  S   S427      1.0  0.66905  0.68714  0.91781  1.0000
  Fe  Fe214     1.0  0.58875  0.51601  0.91306  1.0000
  S   S428      1.0  0.60871  0.53810  0.89890  1.0000
  S   S429      1.0  0.56878  0.51883  0.93972  1.0000
  C   C1514     1.0  0.53179  0.91170  0.68530  1.0000
  H   H1817     1.0  0.52501  0.98639  0.86031  1.0000
  C   C1515     1.0  0.73013  0.63839  0.88872  1.0000
  C   C1516     1.0  0.72594  0.61924  0.89165  1.0000
  C   C1517     1.0  0.64603  0.91929  0.85802  1.0000
  H   H1818     1.0  0.71217  0.61575  0.89865  1.0000
  C   C1518     1.0  0.62130  0.59390  0.92228  1.0000
  C   C1519     1.0  0.60591  0.58378  0.93082  1.0000
  C   C1520     1.0  0.60179  0.56677  0.92378  1.0000
  C   C1521     1.0  0.61317  0.55957  0.90819  1.0000
  C   C1522     1.0  0.62849  0.56976  0.89956  1.0000
  C   C1523     1.0  0.63258  0.58685  0.90657  1.0000
  H   H1819     1.0  0.59700  0.58923  0.94289  1.0000
  H   H1820     1.0  0.58966  0.55938  0.93027  1.0000
  H   H1821     1.0  0.63731  0.56434  0.88742  1.0000
  H   H1822     1.0  0.64449  0.59446  0.89990  1.0000
  H   H1823     1.0  0.61863  0.65738  0.88132  1.0000
  H   H1824     1.0  0.49762  0.89682  0.68141  1.0000
  C   C1524     1.0  0.61210  0.52697  0.95580  1.0000
  H   H1825     1.0  0.61501  0.63892  0.86688  1.0000
  C   C1525     1.0  0.63267  0.88906  0.86811  1.0000
  H   H1826     1.0  0.73611  0.58978  0.88764  1.0000
  C   C1526     1.0  0.59460  0.82268  0.76800  1.0000
  C   C1527     1.0  0.52253  0.87587  0.85998  1.0000
  H   H1827     1.0  0.61512  0.88537  0.83503  1.0000
  H   H1828     1.0  0.58903  0.67388  0.87323  1.0000
  C   C1528     1.0  0.61501  0.76649  0.87385  1.0000
  C   C1529     1.0  0.60138  0.75515  0.86881  1.0000
  C   C1530     1.0  0.60367  0.73494  0.87277  1.0000
  C   C1531     1.0  0.61972  0.72572  0.88154  1.0000
  C   C1532     1.0  0.63366  0.73703  0.88592  1.0000
  C   C1533     1.0  0.63117  0.75722  0.88237  1.0000
  H   H1829     1.0  0.58884  0.76199  0.86232  1.0000
  H   H1830     1.0  0.59282  0.72643  0.86914  1.0000
  H   H1831     1.0  0.64641  0.73028  0.89207  1.0000
  H   H1832     1.0  0.64188  0.76578  0.88622  1.0000
  C   C1534     1.0  0.57830  0.90273  0.88376  1.0000
  C   C1535     1.0  0.58821  0.91267  0.86826  1.0000
  C   C1536     1.0  0.59498  0.93045  0.87045  1.0000
  C   C1537     1.0  0.59176  0.93858  0.88810  1.0000
  C   C1538     1.0  0.58133  0.92892  0.90345  1.0000
  C   C1539     1.0  0.57462  0.91110  0.90125  1.0000
  H   H1833     1.0  0.59073  0.90657  0.85466  1.0000
  H   H1834     1.0  0.60299  0.93784  0.85849  1.0000
  H   H1835     1.0  0.57882  0.93495  0.91713  1.0000
  H   H1836     1.0  0.56684  0.90358  0.91331  1.0000
  C   C1540     1.0  0.59045  0.86494  0.70631  1.0000
  C   C1541     1.0  0.51350  0.83035  0.82456  1.0000
  C   C1542     1.0  0.51052  0.82267  0.84364  1.0000
  H   H1837     1.0  0.64088  0.54447  0.93390  1.0000
  H   H1838     1.0  0.52246  0.81994  0.85240  1.0000
  H   H1839     1.0  0.58297  0.65516  0.85989  1.0000
  C   C1543     1.0  0.56922  0.90180  0.67012  1.0000
  C   C1544     1.0  0.55360  0.60957  0.89624  1.0000
  C   C1545     1.0  0.62956  0.89612  0.74394  1.0000
  C   C1546     1.0  0.64385  0.88104  0.74661  1.0000
  C   C1547     1.0  0.64294  0.86847  0.76357  1.0000
  C   C1548     1.0  0.62763  0.87064  0.77788  1.0000
  C   C1549     1.0  0.61335  0.88575  0.77523  1.0000
  C   C1550     1.0  0.61435  0.89842  0.75836  1.0000
  H   H1840     1.0  0.65565  0.87914  0.73565  1.0000
  H   H1841     1.0  0.65412  0.85688  0.76552  1.0000
  H   H1842     1.0  0.60155  0.88774  0.78615  1.0000
  H   H1843     1.0  0.60325  0.91007  0.75640  1.0000
  C   C1551     1.0  0.72784  0.63251  0.83521  1.0000
  H   H1844     1.0  0.57143  0.84455  0.79186  1.0000
  H   H1845     1.0  0.60882  0.85650  0.74922  1.0000
  H   H1846     1.0  0.66096  0.97806  0.68958  1.0000
  H   H1847     1.0  0.68455  0.66249  0.98144  1.0000
  H   H1848     1.0  0.54837  0.95607  0.86417  1.0000
  H   H1849     1.0  0.56321  0.86218  0.77352  1.0000
  S   S430      1.0  0.65738  0.88728  0.67756  1.0000
  S   S431      1.0  0.51693  0.51595  0.92761  1.0000
  C   C1552     1.0  0.58198  0.84611  0.74348  1.0000
  H   H1850     1.0  0.61557  0.98089  0.97962  1.0000
  N   N103      1.0  0.52502  0.96507  0.88460  1.0000
  C   C1553     1.0  0.73343  0.93050  0.67732  1.0000
  C   C1554     1.0  0.56393  0.59279  0.89066  1.0000
  C   C1555     1.0  0.64289  0.92422  0.87694  1.0000
  C   C1556     1.0  0.62967  0.89411  0.88697  1.0000
  C   C1557     1.0  0.63473  0.91167  0.89137  1.0000
  H   H1851     1.0  0.64610  0.93817  0.88039  1.0000
  H   H1852     1.0  0.62267  0.88467  0.89810  1.0000
  H   H1853     1.0  0.63169  0.91591  0.90585  1.0000
  C   C1558     1.0  0.49782  0.83381  0.81337  1.0000
  C   C1559     1.0  0.58319  0.59299  0.88394  1.0000
  H   H1854     1.0  0.50244  0.91623  0.85425  1.0000
  C   C1560     1.0  0.52429  0.98540  0.87627  1.0000
  C   C1561     1.0  0.67694  0.66635  0.99485  1.0000
  C   C1562     1.0  0.59790  0.77556  0.91947  1.0000
  N   N104      1.0  0.61238  0.72648  0.94473  1.0000
  C   C1563     1.0  0.63173  0.72242  0.93484  1.0000
  C   C1564     1.0  0.61445  0.73252  0.96399  1.0000
  C   C1565     1.0  0.60313  0.70819  0.94772  1.0000
  C   C1566     1.0  0.60155  0.74197  0.93323  1.0000
  C   C1567     1.0  0.58505  0.73892  0.92419  1.0000
  C   C1568     1.0  0.60774  0.76075  0.93039  1.0000
  H   H1855     1.0  0.53790  0.87656  0.85734  1.0000
  H   H1856     1.0  0.52808  0.93059  0.86650  1.0000
  S   S432      1.0  0.71462  0.88272  0.66729  1.0000
  H   H1857     1.0  0.58815  0.85854  0.77761  1.0000
  H   H1858     1.0  0.59384  0.87202  0.69211  1.0000
  N   N105      1.0  0.63288  0.52445  0.95811  1.0000
  H   H1859     1.0  0.62353  0.74464  0.96326  1.0000
  H   H1860     1.0  0.62148  0.72065  0.97337  1.0000
  H   H1861     1.0  0.60020  0.73699  0.97138  1.0000
  H   H1862     1.0  0.60328  0.78961  0.91680  1.0000
  C   C1569     1.0  0.53453  0.90405  0.66719  1.0000
  H   H1863     1.0  0.58844  0.71020  0.95510  1.0000
  H   H1864     1.0  0.57961  0.72505  0.92490  1.0000
  H   H1865     1.0  0.62058  0.76402  0.93610  1.0000
  H   H1866     1.0  0.56686  0.51371  0.97925  1.0000
  C   C1570     1.0  0.72046  0.64845  0.82396  1.0000
  H   H1867     1.0  0.60934  0.52906  0.94040  1.0000
  H   H1868     1.0  0.66840  0.91058  0.82364  1.0000
  C   C1571     1.0  0.62362  0.89627  0.82642  1.0000
  C   C1572     1.0  0.57510  0.85111  0.77705  1.0000
  H   H1869     1.0  0.50250  0.92874  0.66452  1.0000
  H   H1870     1.0  0.72061  0.62844  0.84920  1.0000
  H   H1871     1.0  0.55706  0.57955  0.89161  1.0000
  H   H1872     1.0  0.52221  0.87869  0.89006  1.0000
  H   H1873     1.0  0.56306  0.75121  0.90611  1.0000
  H   H1874     1.0  0.51888  0.87196  0.83073  1.0000
  H   H1875     1.0  0.60462  0.53950  0.96275  1.0000
  H   H1876     1.0  0.60509  0.51406  0.96215  1.0000
  C   C1573     1.0  0.71972  0.97210  0.67045  1.0000
  S   S433      1.0  0.56724  0.50333  0.89745  1.0000
  H   H1877     1.0  0.61143  0.69700  0.95675  1.0000
  C   C1574     1.0  0.64135  0.50854  0.94665  1.0000
  H   H1878     1.0  0.53637  0.99283  0.88008  1.0000
  C   C1575     1.0  0.63576  0.52091  0.97881  1.0000
  C   C1576     1.0  0.66527  0.99117  0.68162  1.0000
  C   C1577     1.0  0.54474  0.95611  0.87995  1.0000
  H   H1879     1.0  0.72415  0.66636  0.79748  1.0000
  H   H1880     1.0  0.70747  0.65669  0.82917  1.0000
  C   C1578     1.0  0.65858  0.67598  0.99493  1.0000
  C   C1579     1.0  0.57370  0.85572  0.71048  1.0000
  H   H1881     1.0  0.62158  0.54855  0.98638  1.0000
  H   H1882     1.0  0.55577  0.96395  0.88540  1.0000
  H   H1883     1.0  0.51050  0.51752  0.88180  1.0000
  H   H1884     1.0  0.57460  0.78354  0.90190  1.0000
  C   C1580     1.0  0.56940  0.84644  0.72879  1.0000
  H   H1885     1.0  0.63409  0.55533  0.95553  1.0000
  Fe  Fe215     1.0  0.68530  0.90038  0.66829  1.0000
  H   H1886     1.0  0.56670  0.66371  0.87914  1.0000
  C   C1581     1.0  0.58209  0.66015  0.87452  1.0000
  H   H1887     1.0  0.65563  0.90483  0.80447  1.0000
  C   C1582     1.0  0.61224  0.64346  0.88168  1.0000
  C   C1583     1.0  0.58228  0.62722  0.88879  1.0000
  C   C1584     1.0  0.56602  0.90944  0.68778  1.0000
  H   H1888     1.0  0.59147  0.81396  0.78189  1.0000
  H   H1889     1.0  0.55840  0.81836  0.78014  1.0000
  H   H1890     1.0  0.63084  0.71624  0.92109  1.0000
  H   H1891     1.0  0.61577  0.87258  0.71724  1.0000
  C   C1585     1.0  0.58932  0.65250  0.90739  1.0000
  H   H1892     1.0  0.59682  0.66571  0.90748  1.0000
  H   H1893     1.0  0.57415  0.65624  0.91261  1.0000
  H   H1894     1.0  0.59550  0.64145  0.91816  1.0000
  H   H1895     1.0  0.53859  0.60934  0.90143  1.0000
  C   C1586     1.0  0.73960  0.60453  0.88544  1.0000
  C   C1587     1.0  0.65310  0.87671  0.83186  1.0000
  C   C1588     1.0  0.59236  0.60984  0.88310  1.0000
  H   H1896     1.0  0.65199  0.92991  0.84755  1.0000
  H   H1897     1.0  0.63903  0.51181  0.93112  1.0000
  H   H1898     1.0  0.60240  0.70202  0.93386  1.0000
  C   C1589     1.0  0.52152  0.96449  0.90580  1.0000
  C   C1590     1.0  0.56255  0.62658  0.89523  1.0000
  C   C1591     1.0  0.74473  0.62198  0.82875  1.0000
  H   H1899     1.0  0.59117  0.57983  0.87968  1.0000
  H   H1900     1.0  0.71992  0.93461  0.68612  1.0000
  H   H1901     1.0  0.64462  0.86523  0.83936  1.0000
  C   C1592     1.0  0.71969  0.99169  0.67236  1.0000
  N   N106      1.0  0.59143  0.64540  0.88806  1.0000
  C   C1593     1.0  0.64098  0.90146  0.85302  1.0000
  H   H1902     1.0  0.62777  0.87563  0.86538  1.0000
  H   H1903     1.0  0.65693  0.54148  0.95253  1.0000
  H   H1904     1.0  0.66709  0.87558  0.83817  1.0000
  H   H1905     1.0  0.64083  0.71184  0.94361  1.0000
  N   N107      1.0  0.64297  0.89621  0.83298  1.0000
  H   H1906     1.0  0.55391  0.63922  0.89965  1.0000
  H   H1907     1.0  0.60742  0.60872  0.87819  1.0000
  H   H1908     1.0  0.62441  0.89292  0.81124  1.0000
  H   H1909     1.0  0.70440  0.70147  0.99454  1.0000
  H   H1910     1.0  0.60756  0.82994  0.76981  1.0000
  H   H1911     1.0  0.65591  0.87292  0.81675  1.0000
  N   N108      1.0  0.57803  0.83649  0.76304  1.0000
  C   C1594     1.0  0.59875  0.85587  0.73875  1.0000
  C   C1595     1.0  0.56071  0.82570  0.76535  1.0000
  H   H1912     1.0  0.59854  0.81258  0.75675  1.0000
  H   H1913     1.0  0.56191  0.81437  0.75524  1.0000
  C   C1596     1.0  0.60287  0.86512  0.72045  1.0000
  H   H1914     1.0  0.56400  0.85579  0.69943  1.0000
  H   H1915     1.0  0.61535  0.91054  0.82745  1.0000
  H   H1916     1.0  0.51760  0.91611  0.69159  1.0000
  H   H1917     1.0  0.54742  0.83542  0.76336  1.0000
  C   C1597     1.0  0.57530  0.75389  0.91331  1.0000
  C   C1598     1.0  0.65380  0.90961  0.81925  1.0000
  C   C1599     1.0  0.72993  0.65388  0.80615  1.0000
  Fe  Fe216     1.0  0.54817  0.50392  0.92516  1.0000
  H   H1918     1.0  0.64612  0.92425  0.81788  1.0000
  H   H1919     1.0  0.62026  0.63296  0.89164  1.0000
  H   H1920     1.0  0.54670  0.94113  0.88674  1.0000
  H   H1921     1.0  0.63959  0.73546  0.93147  1.0000
  H   H1922     1.0  0.70744  0.96505  0.67713  1.0000
  H   H1923     1.0  0.53252  0.97153  0.91217  1.0000
  H   H1924     1.0  0.49998  0.83974  0.79858  1.0000
  C   C1600     1.0  0.61434  0.99008  0.99120  1.0000
  H   H1925     1.0  0.52174  0.94945  0.91254  1.0000
  C   C1601     1.0  0.64473  0.50338  0.98707  1.0000
  C   C1602     1.0  0.50997  0.95534  0.87721  1.0000
  C   C1603     1.0  0.58170  0.77215  0.91098  1.0000
  C   C1604     1.0  0.51386  0.93792  0.86825  1.0000
  H   H1926     1.0  0.74558  0.93309  0.68541  1.0000
  C   C1605     1.0  0.64159  0.54217  0.94974  1.0000
  C   C1606     1.0  0.54733  0.91430  0.69541  1.0000
  H   H1927     1.0  0.54492  0.92045  0.70907  1.0000
  H   H1928     1.0  0.73379  0.91472  0.67649  1.0000
  H   H1929     1.0  0.58380  0.89837  0.66402  1.0000
  H   H1930     1.0  0.67564  0.71631  0.97953  1.0000
  H   H1931     1.0  0.57808  0.91183  0.69544  1.0000
  C   C1607     1.0  0.51360  0.87705  0.87845  1.0000
  C   C1608     1.0  0.49796  0.50150  0.92664  1.0000
  C   C1609     1.0  0.51176  0.87339  0.84501  1.0000
  S   S434      1.0  0.52957  0.98958  0.95532  1.0000
  C   C1610     1.0  0.67731  0.71838  0.99433  1.0000
  H   H1932     1.0  0.65709  0.50589  0.94753  1.0000
  H   H1933     1.0  0.51123  0.87571  0.67311  1.0000
  C   C1611     1.0  0.62914  0.53516  0.99147  1.0000
  C   C1612     1.0  0.50625  0.50375  0.87893  1.0000
  H   H1934     1.0  0.51107  0.99408  0.88146  1.0000
  C   C1613     1.0  0.57510  0.51165  0.99151  1.0000
  C   C1614     1.0  0.50412  0.89004  0.66843  1.0000
  H   H1935     1.0  0.55810  0.98081  0.99630  1.0000
  Fe  Fe217     1.0  0.80242  0.39361  0.16781  1.0000
  S   S435      1.0  0.83317  0.38462  0.15765  1.0000
  S   S436      1.0  0.77908  0.37305  0.16805  1.0000
  Fe  Fe218     1.0  0.81300  0.43220  0.17930  1.0000
  S   S437      1.0  0.84398  0.42596  0.16930  1.0000
  S   S438      1.0  0.80301  0.45890  0.19473  1.0000
  Fe  Fe219     1.0  0.83340  0.41494  0.14376  1.0000
  S   S439      1.0  0.84193  0.42551  0.11265  1.0000
  Fe  Fe220     1.0  0.84094  0.39634  0.18441  1.0000
  S   S440      1.0  0.86531  0.38379  0.20266  1.0000
  S   S441      1.0  0.80227  0.42334  0.15273  1.0000
  S   S442      1.0  0.81029  0.40310  0.19559  1.0000
  H   H1936     1.0  0.86549  0.47490  0.03965  1.0000
  H   H1937     1.0  0.81723  0.24251  0.31874  1.0000
  S   S443      1.0  0.95959  0.34229  0.30838  1.0000
  H   H1938     1.0  0.83870  0.32133  0.28939  1.0000
  H   H1939     1.0  0.96362  0.43665  0.01604  1.0000
  H   H1940     1.0  0.85622  0.32182  0.31682  1.0000
  Fe  Fe221     1.0  0.90550  0.39785  0.02181  1.0000
  S   S444      1.0  0.90214  0.38483  0.05271  1.0000
  S   S445      1.0  0.91907  0.42562  0.01479  1.0000
  H   H1941     1.0  0.75691  0.32713  0.10195  1.0000
  C   C1615     1.0  0.76984  0.33426  0.10216  1.0000
  S   S446      1.0  0.86357  0.35358  0.29201  1.0000
  C   C1616     1.0  0.85995  0.48764  0.10202  1.0000
  H   H1942     1.0  0.83308  0.29907  0.28205  1.0000
  C   C1617     1.0  0.77790  0.33467  0.11937  1.0000
  C   C1618     1.0  0.80985  0.49588  0.19964  1.0000
  H   H1943     1.0  0.86032  0.45611  0.05803  1.0000
  S   S447      1.0  0.90754  0.36676  0.31979  1.0000
  C   C1619     1.0  0.86740  0.47492  0.08851  1.0000
  C   C1620     1.0  0.88032  0.48065  0.07256  1.0000
  H   H1944     1.0  0.97200  0.39600  0.01433  1.0000
  C   C1621     1.0  0.86445  0.37529  0.22750  1.0000
  C   C1622     1.0  0.84716  0.37317  0.23885  1.0000
  C   C1623     1.0  0.84721  0.36663  0.25853  1.0000
  C   C1624     1.0  0.86451  0.36221  0.26720  1.0000
  C   C1625     1.0  0.88180  0.36447  0.25589  1.0000
  C   C1626     1.0  0.88174  0.37089  0.23618  1.0000
  H   H1945     1.0  0.83373  0.37634  0.23241  1.0000
  H   H1946     1.0  0.83373  0.36491  0.26708  1.0000
  H   H1947     1.0  0.89524  0.36111  0.26227  1.0000
  H   H1948     1.0  0.89522  0.37246  0.22757  1.0000
  C   C1627     1.0  0.81367  0.48062  0.18791  1.0000
  H   H1949     1.0  0.90313  0.43855  0.05798  1.0000
  C   C1628     1.0  0.82560  0.48308  0.17089  1.0000
  H   H1950     1.0  0.94417  0.39136  0.32491  1.0000
  H   H1951     1.0  0.82864  0.47146  0.16176  1.0000
  C   C1629     1.0  0.88460  0.39533  0.06926  1.0000
  C   C1630     1.0  0.88490  0.38961  0.08900  1.0000
  C   C1631     1.0  0.87158  0.39832  0.10255  1.0000
  C   C1632     1.0  0.85781  0.41275  0.09639  1.0000
  C   C1633     1.0  0.85701  0.41788  0.07663  1.0000
  C   C1634     1.0  0.87042  0.40933  0.06311  1.0000
  H   H1952     1.0  0.89579  0.37871  0.09384  1.0000
  H   H1953     1.0  0.87233  0.39425  0.11775  1.0000
  H   H1954     1.0  0.84599  0.42860  0.07180  1.0000
  H   H1955     1.0  0.86982  0.41359  0.04794  1.0000
  H   H1956     1.0  0.89679  0.48728  0.03492  1.0000
  C   C1635     1.0  0.86754  0.44518  0.20342  1.0000
  C   C1636     1.0  0.98382  0.48643  0.01056  1.0000
  C   C1637     1.0  0.87392  0.45908  0.18919  1.0000
  C   C1638     1.0  0.83092  0.24845  0.31830  1.0000
  C   C1639     1.0  0.76213  0.38267  0.13372  1.0000
  C   C1640     1.0  0.76214  0.37130  0.15124  1.0000
  C   C1641     1.0  0.90269  0.47445  0.04377  1.0000
  H   H1957     1.0  0.77194  0.39367  0.13054  1.0000
  N   N109      1.0  0.81899  0.36587  0.10426  1.0000
  C   C1642     1.0  0.81193  0.38303  0.11435  1.0000
  C   C1643     1.0  0.83396  0.35446  0.11519  1.0000
  C   C1644     1.0  0.82840  0.37248  0.08517  1.0000
  C   C1645     1.0  0.80263  0.35447  0.10311  1.0000
  C   C1646     1.0  0.79386  0.34483  0.11997  1.0000
  C   C1647     1.0  0.79410  0.35369  0.08573  1.0000
  H   H1958     1.0  0.80539  0.37912  0.12914  1.0000
  H   H1959     1.0  0.82371  0.39203  0.11571  1.0000
  H   H1960     1.0  0.80083  0.39218  0.10655  1.0000
  H   H1961     1.0  0.82909  0.35128  0.13062  1.0000
  H   H1962     1.0  0.84696  0.36232  0.11510  1.0000
  H   H1963     1.0  0.83850  0.34059  0.10900  1.0000
  H   H1964     1.0  0.81883  0.38314  0.07694  1.0000
  H   H1965     1.0  0.84136  0.37994  0.08650  1.0000
  H   H1966     1.0  0.83320  0.36021  0.07648  1.0000
  H   H1967     1.0  0.79870  0.34573  0.13395  1.0000
  H   H1968     1.0  0.79938  0.36097  0.07228  1.0000
  N   N110      1.0  0.84957  0.43532  0.23509  1.0000
  C   C1648     1.0  0.83931  0.44300  0.25259  1.0000
  C   C1649     1.0  0.83607  0.42448  0.22660  1.0000
  C   C1650     1.0  0.86588  0.42180  0.24124  1.0000
  C   C1651     1.0  0.85660  0.45037  0.22051  1.0000
  H   H1969     1.0  0.87433  0.48929  0.18038  1.0000
  C   C1652     1.0  0.85247  0.47035  0.22244  1.0000
  C   C1653     1.0  0.77791  0.34374  0.08538  1.0000
  H   H1970     1.0  0.82604  0.45222  0.24917  1.0000
  H   H1971     1.0  0.83462  0.43125  0.26337  1.0000
  H   H1972     1.0  0.84866  0.45139  0.25972  1.0000
  H   H1973     1.0  0.82376  0.43417  0.22146  1.0000
  H   H1974     1.0  0.83020  0.41310  0.23707  1.0000
  H   H1975     1.0  0.84302  0.41719  0.21410  1.0000
  H   H1976     1.0  0.87681  0.42950  0.24695  1.0000
  H   H1977     1.0  0.86114  0.41054  0.25256  1.0000
  H   H1978     1.0  0.87322  0.41384  0.22930  1.0000
  H   H1979     1.0  0.95971  0.28453  0.32167  1.0000
  H   H1980     1.0  0.77126  0.34374  0.07212  1.0000
  H   H1981     1.0  0.96664  0.33751  0.00840  1.0000
  H   H1982     1.0  0.77120  0.32784  0.13253  1.0000
  C   C1654     1.0  0.85063  0.27562  0.31045  1.0000
  H   H1983     1.0  0.98729  0.29852  0.32000  1.0000
  H   H1984     1.0  0.90844  0.45218  0.07685  1.0000
  C   C1655     1.0  0.83616  0.30618  0.29469  1.0000
  H   H1985     1.0  0.87690  0.45109  0.03780  1.0000
  H   H1986     1.0  0.75013  0.38812  0.10641  1.0000
  C   C1656     1.0  0.87198  0.46202  0.04808  1.0000
  C   C1657     1.0  0.96414  0.48497  0.01469  1.0000
  H   H1987     1.0  0.94162  0.46604  0.01931  1.0000
  C   C1658     1.0  0.98558  0.39960  0.00694  1.0000
  C   C1659     1.0  0.86972  0.47851  0.19158  1.0000
  Fe  Fe222     1.0  0.92905  0.34095  0.32197  1.0000
  S   S448      1.0  0.90908  0.32123  0.31277  1.0000
  H   H1988     1.0  0.90803  0.46374  0.03340  1.0000
  H   H1989     1.0  0.88643  0.44122  0.07830  1.0000
  C   C1660     1.0  0.95690  0.46708  0.01670  1.0000
  C   C1661     1.0  0.74958  0.37961  0.12014  1.0000
  H   H1990     1.0  0.84386  0.47577  0.23463  1.0000
  Fe  Fe223     1.0  0.88684  0.34663  0.31307  1.0000
  C   C1662     1.0  0.89685  0.44902  0.06831  1.0000
  H   H1991     1.0  0.86932  0.30086  0.32704  1.0000
  N   N111      1.0  0.88792  0.46690  0.05840  1.0000
  C   C1663     1.0  0.96930  0.45055  0.01484  1.0000
  C   C1664     1.0  0.86994  0.29764  0.28968  1.0000
  C   C1665     1.0  0.98900  0.45184  0.01090  1.0000
  H   H1992     1.0  0.87086  0.43028  0.20070  1.0000
  C   C1666     1.0  0.83299  0.26734  0.31052  1.0000
  N   N112      1.0  0.85293  0.29602  0.30387  1.0000
  H   H1993     1.0  0.91525  0.47829  0.05052  1.0000
  C   C1667     1.0  0.85571  0.30616  0.32069  1.0000
  H   H1994     1.0  0.86278  0.46056  0.09064  1.0000
  C   C1668     1.0  0.85909  0.48412  0.20818  1.0000
  S   S449      1.0  0.88065  0.40635  0.00428  1.0000
  C   C1669     1.0  0.97919  0.34194  0.32233  1.0000
  H   H1995     1.0  0.87956  0.26922  0.31960  1.0000
  C   C1670     1.0  0.84623  0.23727  0.32608  1.0000
  H   H1996     1.0  0.88360  0.29250  0.29594  1.0000
  H   H1997     1.0  0.82044  0.27525  0.30504  1.0000
  H   H1998     1.0  0.88187  0.45472  0.17608  1.0000
  H   H1999     1.0  0.87149  0.31286  0.28394  1.0000
  C   C1671     1.0  0.86597  0.26374  0.31838  1.0000
  H   H2000     1.0  0.86886  0.28930  0.27727  1.0000
  C   C1672     1.0  0.74877  0.35748  0.15533  1.0000
  H   H2001     1.0  0.82311  0.30714  0.30502  1.0000
  H   H2002     1.0  0.97532  0.40124  0.32055  1.0000
  H   H2003     1.0  0.80068  0.49403  0.21288  1.0000
  H   H2004     1.0  0.74856  0.34867  0.16889  1.0000
  C   C1673     1.0  0.86377  0.24483  0.32591  1.0000
  H   H2005     1.0  0.85022  0.48281  0.11412  1.0000
  S   S450      1.0  0.92320  0.38313  0.99799  1.0000
  Fe  Fe224     1.0  0.84676  0.17068  0.56676  1.0000
  S   S451      1.0  0.83576  0.14775  0.58869  1.0000
  S   S452      1.0  0.85356  0.16363  0.53563  1.0000
  Fe  Fe225     1.0  0.85257  0.19722  0.59800  1.0000
  S   S453      1.0  0.84150  0.17619  0.62190  1.0000
  S   S454      1.0  0.86862  0.22373  0.60004  1.0000
  Fe  Fe226     1.0  0.85960  0.15369  0.60570  1.0000
  S   S455      1.0  0.87765  0.13022  0.62207  1.0000
  Fe  Fe227     1.0  0.81842  0.17188  0.60292  1.0000
  S   S456      1.0  0.78589  0.17227  0.61176  1.0000
  S   S457      1.0  0.87182  0.17467  0.58300  1.0000
  S   S458      1.0  0.82826  0.19484  0.57983  1.0000
  Fe  Fe228     1.0  0.82010  0.17650  0.43087  1.0000
  S   S459      1.0  0.82243  0.14785  0.41871  1.0000
  S   S460      1.0  0.80833  0.18397  0.46093  1.0000
  Fe  Fe229     1.0  0.83481  0.19754  0.39291  1.0000
  S   S461      1.0  0.83876  0.17040  0.37792  1.0000
  S   S462      1.0  0.83529  0.22850  0.37921  1.0000
  Fe  Fe230     1.0  0.80984  0.16332  0.39246  1.0000
  S   S463      1.0  0.79148  0.15082  0.37210  1.0000
  Fe  Fe231     1.0  0.85097  0.15650  0.40489  1.0000
  S   S464      1.0  0.87463  0.13200  0.40518  1.0000
  S   S465      1.0  0.80517  0.19142  0.40576  1.0000
  S   S466      1.0  0.84943  0.18416  0.41882  1.0000
  C   C1674     1.0  0.98453  0.28613  0.35013  1.0000
  H   H2006     1.0  0.98497  0.44341  0.55572  1.0000
  H   H2007     1.0  0.96739  0.25538  0.36780  1.0000
  C   C1675     1.0  0.93595  0.44247  0.55991  1.0000
  C   C1676     1.0  0.75035  0.15903  0.62250  1.0000
  Fe  Fe232     1.0  0.98307  0.10834  0.41109  1.0000
  S   S467      1.0  0.96437  0.13595  0.40449  1.0000
  S   S468      1.0  0.97039  0.08287  0.42719  1.0000
  H   H2008     1.0  0.93653  0.07620  0.33210  1.0000
  C   C1677     1.0  0.97037  0.41789  0.56251  1.0000
  S   S469      1.0  0.96810  0.11413  0.62347  1.0000
  H   H2009     1.0  0.98389  0.37951  0.33347  1.0000
  H   H2010     1.0  0.97186  0.05352  0.62683  1.0000
  C   C1678     1.0  0.78957  0.14234  0.49650  1.0000
  H   H2011     1.0  0.98936  0.38615  0.44939  1.0000
  H   H2012     1.0  0.92422  0.08159  0.62155  1.0000
  Fe  Fe233     1.0  0.91563  0.33609  0.64735  1.0000
  C   C1679     1.0  0.85792  0.25250  0.64840  1.0000
  S   S470      1.0  0.92770  0.34902  0.61824  1.0000
  Fe  Fe234     1.0  0.89893  0.35806  0.35096  1.0000
  S   S471      1.0  0.92180  0.33359  0.35339  1.0000
  S   S472      1.0  0.89580  0.38260  0.37000  1.0000
  C   C1680     1.0  0.98200  0.35670  0.59888  1.0000
  S   S473      1.0  0.90181  0.28419  0.35711  1.0000
  S   S474      1.0  0.87649  0.33960  0.34443  1.0000
  Fe  Fe235     1.0  0.94347  0.39305  0.50222  1.0000
  S   S475      1.0  0.91808  0.37598  0.50768  1.0000
  S   S476      1.0  0.97311  0.37964  0.50685  1.0000
  Fe  Fe236     1.0  0.91981  0.43005  0.49047  1.0000
  S   S477      1.0  0.89206  0.41596  0.49464  1.0000
  S   S478      1.0  0.92702  0.46057  0.48099  1.0000
  Fe  Fe237     1.0  0.90352  0.40128  0.52185  1.0000
  S   S479      1.0  0.88639  0.39877  0.55097  1.0000
  Fe  Fe238     1.0  0.90897  0.39156  0.47995  1.0000
  S   S480      1.0  0.89953  0.37092  0.46060  1.0000
  S   S481      1.0  0.92976  0.41717  0.51864  1.0000
  S   S482      1.0  0.93575  0.40680  0.47362  1.0000
  H   H2013     1.0  0.91823  0.07129  0.38368  1.0000
  C   C1681     1.0  0.99494  0.39828  0.45538  1.0000
  C   C1682     1.0  0.89712  0.37906  0.39515  1.0000
  C   C1683     1.0  0.89806  0.39505  0.40541  1.0000
  C   C1684     1.0  0.89930  0.39278  0.42541  1.0000
  C   C1685     1.0  0.89922  0.37451  0.43535  1.0000
  C   C1686     1.0  0.89830  0.35854  0.42507  1.0000
  C   C1687     1.0  0.89748  0.36076  0.40502  1.0000
  H   H2014     1.0  0.89776  0.40926  0.39787  1.0000
  H   H2015     1.0  0.89986  0.40517  0.43320  1.0000
  H   H2016     1.0  0.89817  0.34438  0.43268  1.0000
  H   H2017     1.0  0.89676  0.34837  0.39729  1.0000
  H   H2018     1.0  0.96288  0.33667  0.34954  1.0000
  H   H2019     1.0  0.93960  0.49614  0.45302  1.0000
  C   C1688     1.0  0.91531  0.36221  0.59980  1.0000
  C   C1689     1.0  0.92485  0.36440  0.58130  1.0000
  C   C1690     1.0  0.91599  0.37538  0.56624  1.0000
  C   C1691     1.0  0.89758  0.38452  0.56963  1.0000
  C   C1692     1.0  0.88801  0.38239  0.58816  1.0000
  C   C1693     1.0  0.89677  0.37111  0.60319  1.0000
  H   H2020     1.0  0.93916  0.35751  0.57853  1.0000
  H   H2021     1.0  0.92349  0.37688  0.55204  1.0000
  H   H2022     1.0  0.87376  0.38946  0.59087  1.0000
  H   H2023     1.0  0.88938  0.36967  0.61745  1.0000
  H   H2024     1.0  0.95686  0.30768  0.36827  1.0000
  C   C1694     1.0  0.86170  0.29899  0.60518  1.0000
  H   H2025     1.0  0.87202  0.28907  0.59703  1.0000
  H   H2026     1.0  0.95211  0.39494  0.56895  1.0000
  C   C1695     1.0  0.85372  0.28027  0.41927  1.0000
  H   H2027     1.0  0.91540  0.46051  0.58789  1.0000
  C   C1696     1.0  0.85405  0.24384  0.37444  1.0000
  C   C1697     1.0  0.84935  0.26347  0.36914  1.0000
  C   C1698     1.0  0.86375  0.27614  0.36443  1.0000
  C   C1699     1.0  0.88305  0.26921  0.36447  1.0000
  C   C1700     1.0  0.88775  0.24966  0.37017  1.0000
  C   C1701     1.0  0.87333  0.23704  0.37527  1.0000
  H   H2028     1.0  0.83445  0.26887  0.36859  1.0000
  H   H2029     1.0  0.85989  0.29122  0.36077  1.0000
  H   H2030     1.0  0.90264  0.24418  0.37043  1.0000
  H   H2031     1.0  0.87714  0.22199  0.37935  1.0000
  C   C1702     1.0  0.89930  0.13378  0.40623  1.0000
  C   C1703     1.0  0.91156  0.11677  0.40735  1.0000
  C   C1704     1.0  0.93146  0.11736  0.40704  1.0000
  C   C1705     1.0  0.93931  0.13495  0.40567  1.0000
  C   C1706     1.0  0.92704  0.15201  0.40494  1.0000
  C   C1707     1.0  0.90705  0.15145  0.40526  1.0000
  H   H2032     1.0  0.90565  0.10308  0.40801  1.0000
  H   H2033     1.0  0.94074  0.10421  0.40732  1.0000
  H   H2034     1.0  0.93303  0.16570  0.40382  1.0000
  H   H2035     1.0  0.89770  0.16463  0.40432  1.0000
  C   C1708     1.0  0.87039  0.23842  0.61888  1.0000
  C   C1709     1.0  0.88587  0.24986  0.61759  1.0000
  C   C1710     1.0  0.88747  0.26242  0.63168  1.0000
  C   C1711     1.0  0.87332  0.26403  0.64706  1.0000
  C   C1712     1.0  0.85653  0.23964  0.63452  1.0000
  C   C1713     1.0  0.94981  0.00824  0.59523  1.0000
  C   C1714     1.0  0.90921  0.12515  0.35976  1.0000
  C   C1715     1.0  0.82156  0.17896  0.48130  1.0000
  C   C1716     1.0  0.83820  0.16630  0.48110  1.0000
  C   C1717     1.0  0.84780  0.16188  0.49785  1.0000
  C   C1718     1.0  0.84118  0.17039  0.51484  1.0000
  C   C1719     1.0  0.82498  0.18364  0.51481  1.0000
  C   C1720     1.0  0.81507  0.18770  0.49819  1.0000
  H   H2036     1.0  0.84331  0.15943  0.46822  1.0000
  H   H2037     1.0  0.86018  0.15146  0.49776  1.0000
  H   H2038     1.0  0.82005  0.19069  0.52758  1.0000
  H   H2039     1.0  0.80226  0.19758  0.49844  1.0000
  C   C1721     1.0  0.90298  0.12687  0.62106  1.0000
  C   C1722     1.0  0.91113  0.12028  0.63813  1.0000
  C   C1723     1.0  0.93101  0.11665  0.63839  1.0000
  C   C1724     1.0  0.94317  0.11883  0.62146  1.0000
  C   C1725     1.0  0.93517  0.12516  0.60413  1.0000
  C   C1726     1.0  0.91505  0.12946  0.60397  1.0000
  C   C1727     1.0  0.89447  0.20933  0.65584  1.0000
  H   H2040     1.0  0.98860  0.31755  0.62972  1.0000
  H   H2041     1.0  0.94445  0.12705  0.59098  1.0000
  H   H2042     1.0  0.90887  0.13434  0.59065  1.0000
  H   H2043     1.0  0.92254  0.41541  0.56723  1.0000
  C   C1728     1.0  0.76267  0.13774  0.35429  1.0000
  C   C1729     1.0  0.76765  0.14423  0.37131  1.0000
  H   H2044     1.0  0.95996  0.36444  0.63232  1.0000
  H   H2045     1.0  0.95144  0.42346  0.33537  1.0000
  H   H2046     1.0  0.85470  0.32021  0.63519  1.0000
  C   C1730     1.0  0.91611  0.46874  0.57347  1.0000
  C   C1731     1.0  0.94970  0.02803  0.59611  1.0000
  C   C1732     1.0  0.95390  0.29239  0.36879  1.0000
  C   C1733     1.0  0.84157  0.25459  0.44232  1.0000
  H   H2047     1.0  0.88726  0.47314  0.49394  1.0000
  C   C1734     1.0  0.77034  0.15423  0.62113  1.0000
  C   C1735     1.0  0.77725  0.13555  0.62753  1.0000
  H   H2048     1.0  0.79253  0.13155  0.62664  1.0000
  C   C1736     1.0  0.91526  0.10555  0.36075  1.0000
  C   C1737     1.0  0.86532  0.35476  0.56369  1.0000
  N   N113      1.0  0.96031  0.39536  0.34864  1.0000
  C   C1738     1.0  0.97803  0.39459  0.33521  1.0000
  H   H2049     1.0  0.98788  0.44498  0.51365  1.0000
  C   C1739     1.0  0.95328  0.41584  0.34985  1.0000
  C   C1740     1.0  0.96322  0.38609  0.36816  1.0000
  H   H2050     1.0  0.96871  0.25504  0.34222  1.0000
  H   H2051     1.0  0.75580  0.15778  0.53037  1.0000
  H   H2052     1.0  0.79129  0.14069  0.48123  1.0000
  H   H2053     1.0  0.85743  0.36844  0.55980  1.0000
  H   H2054     1.0  0.92244  0.45782  0.52717  1.0000
  C   C1741     1.0  0.95269  0.41030  0.56581  1.0000
  H   H2055     1.0  0.88710  0.17308  0.64603  1.0000
  H   H2056     1.0  0.93954  0.17586  0.63523  1.0000
  C   C1742     1.0  0.90054  0.44552  0.55942  1.0000
  H   H2057     1.0  0.89787  0.43725  0.57365  1.0000
  H   H2058     1.0  0.76992  0.10782  0.64085  1.0000
  H   H2059     1.0  0.91774  0.15376  0.35853  1.0000
  C   C1743     1.0  0.94749  0.38502  0.38241  1.0000
  C   C1744     1.0  0.84863  0.26362  0.45701  1.0000
  H   H2060     1.0  0.93086  0.47725  0.53760  1.0000
  H   H2061     1.0  0.75890  0.17248  0.55699  1.0000
  H   H2062     1.0  0.81692  0.21657  0.43438  1.0000
  C   C1745     1.0  0.92468  0.17154  0.63646  1.0000
  C   C1746     1.0  0.78782  0.09873  0.37638  1.0000
  N   N114      1.0  0.93664  0.12260  0.46839  1.0000
  C   C1747     1.0  0.94818  0.10769  0.47998  1.0000
  C   C1748     1.0  0.92501  0.11251  0.45683  1.0000
  C   C1749     1.0  0.95024  0.13364  0.45522  1.0000
  C   C1750     1.0  0.92385  0.13588  0.48005  1.0000
  C   C1751     1.0  0.92294  0.13458  0.50046  1.0000
  C   C1752     1.0  0.91161  0.15062  0.47097  1.0000
  C   C1753     1.0  0.91035  0.14716  0.51097  1.0000
  C   C1754     1.0  0.89910  0.16310  0.48165  1.0000
  C   C1755     1.0  0.89848  0.16137  0.50160  1.0000
  H   H2063     1.0  0.95751  0.09792  0.47073  1.0000
  H   H2064     1.0  0.95796  0.11416  0.48849  1.0000
  H   H2065     1.0  0.93893  0.09839  0.48989  1.0000
  H   H2066     1.0  0.91720  0.12251  0.44638  1.0000
  H   H2067     1.0  0.85591  0.28665  0.40459  1.0000
  H   H2068     1.0  0.93398  0.02938  0.64362  1.0000
  H   H2069     1.0  0.95887  0.14189  0.46332  1.0000
  H   H2070     1.0  0.80201  0.09234  0.34906  1.0000
  H   H2071     1.0  0.95194  0.08373  0.59912  1.0000
  H   H2072     1.0  0.93170  0.12393  0.50868  1.0000
  H   H2073     1.0  0.91150  0.15251  0.45551  1.0000
  H   H2074     1.0  0.90959  0.14582  0.52655  1.0000
  H   H2075     1.0  0.88961  0.17401  0.47445  1.0000
  H   H2076     1.0  0.88859  0.17090  0.50989  1.0000
  H   H2077     1.0  0.76421  0.16133  0.57990  1.0000
  N   N115      1.0  0.96382  0.28328  0.35189  1.0000
  Fe  Fe239     1.0  0.90016  0.31550  0.34436  1.0000
  S   S483      1.0  0.92319  0.30425  0.65063  1.0000
  H   H2078     1.0  0.95453  0.03621  0.58297  1.0000
  C   C1756     1.0  0.89003  0.32991  0.55551  1.0000
  C   C1757     1.0  0.87947  0.34721  0.55054  1.0000
  C   C1758     1.0  0.97438  0.00258  0.40013  1.0000
  H   H2079     1.0  0.90105  0.32412  0.54521  1.0000
  H   H2080     1.0  0.88241  0.35499  0.53657  1.0000
  C   C1759     1.0  0.81631  0.23876  0.46223  1.0000
  H   H2081     1.0  0.82118  0.24140  0.47618  1.0000
  H   H2082     1.0  0.80852  0.22556  0.46522  1.0000
  H   H2083     1.0  0.80570  0.25087  0.45789  1.0000
  H   H2084     1.0  0.84735  0.25753  0.47178  1.0000
  C   C1760     1.0  0.94202  0.13256  0.35844  1.0000
  C   C1761     1.0  0.93406  0.06899  0.38076  1.0000
  C   C1762     1.0  0.92256  0.13862  0.35858  1.0000
  C   C1763     1.0  0.99556  0.28089  0.36601  1.0000
  C   C1764     1.0  0.94969  0.37599  0.40082  1.0000
  C   C1765     1.0  0.77129  0.09730  0.38888  1.0000
  C   C1766     1.0  0.93852  0.02398  0.62989  1.0000
  H   H2085     1.0  0.93905  0.41757  0.35827  1.0000
  H   H2086     1.0  0.97849  0.36451  0.56884  1.0000
  C   C1767     1.0  0.95397  0.29156  0.33479  1.0000
  C   C1768     1.0  0.78557  0.14822  0.53614  1.0000
  Fe  Fe240     1.0  0.99027  0.06536  0.40739  1.0000
  H   H2087     1.0  0.75739  0.14949  0.40032  1.0000
  H   H2088     1.0  0.81611  0.13835  0.53437  1.0000
  S   S484      1.0  0.98671  0.09504  0.57282  1.0000
  H   H2089     1.0  0.90425  0.09571  0.36240  1.0000
  H   H2090     1.0  0.95823  0.28509  0.38264  1.0000
  C   C1769     1.0  0.93893  0.00418  0.62887  1.0000
  H   H2091     1.0  0.89960  0.27087  0.63060  1.0000
  H   H2092     1.0  0.99648  0.34121  0.66222  1.0000
  C   C1770     1.0  0.74870  0.04950  0.35583  1.0000
  H   H2093     1.0  0.92828  0.47782  0.57254  1.0000
  C   C1771     1.0  0.98704  0.39668  0.51345  1.0000
  C   C1772     1.0  0.76435  0.12210  0.63563  1.0000
  H   H2094     1.0  0.96789  0.42108  0.50443  1.0000
  N   N116      1.0  0.83237  0.23644  0.44701  1.0000
  C   C1773     1.0  0.75388  0.14458  0.38712  1.0000
  C   C1774     1.0  0.99256  0.42985  0.51569  1.0000
  H   H2095     1.0  0.90197  0.11811  0.65134  1.0000
  H   H2096     1.0  0.84068  0.20702  0.45689  1.0000
  C   C1775     1.0  0.75738  0.07910  0.36653  1.0000
  H   H2097     1.0  0.84840  0.30139  0.59761  1.0000
  H   H2098     1.0  0.88597  0.30641  0.63080  1.0000
  C   C1776     1.0  0.91625  0.48086  0.49214  1.0000
  N   N117      1.0  0.91053  0.18766  0.63074  1.0000
  C   C1777     1.0  0.89641  0.48395  0.49642  1.0000
  C   C1778     1.0  0.88661  0.32020  0.57373  1.0000
  H   H2099     1.0  0.94287  0.14401  0.44472  1.0000
  H   H2100     1.0  0.85211  0.22418  0.46764  1.0000
  H   H2101     1.0  0.79911  0.10686  0.37987  1.0000
  C   C1779     1.0  0.94421  0.03650  0.61361  1.0000
  H   H2102     1.0  0.89501  0.30672  0.57681  1.0000
  C   C1780     1.0  0.78936  0.09061  0.35898  1.0000
  H   H2103     1.0  0.84145  0.33055  0.61580  1.0000
  C   C1781     1.0  0.92474  0.06576  0.62091  1.0000
  H   H2104     1.0  0.81378  0.24077  0.42396  1.0000
  H   H2105     1.0  0.89847  0.30330  0.60804  1.0000
  H   H2106     1.0  0.84448  0.23105  0.63569  1.0000
  H   H2107     1.0  0.93083  0.19853  0.60793  1.0000
  C   C1782     1.0  0.86197  0.34535  0.58206  1.0000
  C   C1783     1.0  0.77192  0.14929  0.50515  1.0000
  C   C1784     1.0  0.84677  0.22115  0.45402  1.0000
  C   C1785     1.0  0.82442  0.22979  0.43033  1.0000
  C   C1786     1.0  0.77441  0.08093  0.35407  1.0000
  C   C1787     1.0  0.98109  0.41629  0.51074  1.0000
  H   H2108     1.0  0.85114  0.35233  0.59162  1.0000
  H   H2109     1.0  0.97892  0.37702  0.63894  1.0000
  H   H2110     1.0  0.93735  0.37518  0.41136  1.0000
  C   C1788     1.0  0.87274  0.32783  0.58773  1.0000
  C   C1789     1.0  0.99479  0.35304  0.61350  1.0000
  H   H2111     1.0  0.83593  0.22606  0.41896  1.0000
  C   C1790     1.0  0.97113  0.43760  0.55839  1.0000
  H   H2112     1.0  0.79205  0.18122  0.54842  1.0000
  H   H2113     1.0  0.85933  0.21938  0.44318  1.0000
  C   C1791     1.0  0.86022  0.28889  0.43407  1.0000
  H   H2114     1.0  0.92120  0.16566  0.65159  1.0000
  H   H2115     1.0  0.86290  0.28729  0.46435  1.0000
  C   C1792     1.0  0.91947  0.46722  0.53915  1.0000
  H   H2116     1.0  0.79563  0.17241  0.57273  1.0000
  H   H2117     1.0  0.93797  0.05344  0.34641  1.0000
  C   C1793     1.0  0.76982  0.15216  0.52469  1.0000
  H   H2118     1.0  0.98122  0.00442  0.45821  1.0000
  C   C1794     1.0  0.85770  0.28058  0.45290  1.0000
  C   C1795     1.0  0.84452  0.26339  0.42323  1.0000
  C   C1796     1.0  0.88806  0.31331  0.61586  1.0000
  H   H2119     1.0  0.88099  0.20308  0.65667  1.0000
  C   C1797     1.0  0.98142  0.37801  0.37369  1.0000
  H   H2120     1.0  0.86129  0.34230  0.62252  1.0000
  C   C1798     1.0  0.98418  0.48618  0.48163  1.0000
  H   H2121     1.0  0.95181  0.05416  0.64478  1.0000
  C   C1799     1.0  0.93501  0.09884  0.36040  1.0000
  N   N118      1.0  0.86962  0.31740  0.60703  1.0000
  H   H2122     1.0  0.95812  0.07577  0.63142  1.0000
  C   C1800     1.0  0.85614  0.32819  0.62062  1.0000
  H   H2123     1.0  0.89672  0.24900  0.60559  1.0000
  H   H2124     1.0  0.83995  0.25749  0.41104  1.0000
  H   H2125     1.0  0.96645  0.06266  0.59235  1.0000
  H   H2126     1.0  0.89184  0.16847  0.62155  1.0000
  H   H2127     1.0  0.93700  0.11192  0.65185  1.0000
  H   H2128     1.0  0.85802  0.29119  0.61947  1.0000
  H   H2129     1.0  0.86731  0.30201  0.43090  1.0000
  H   H2130     1.0  0.96578  0.33060  0.62608  1.0000
  H   H2131     1.0  0.89502  0.32676  0.61639  1.0000
  N   N119      1.0  0.94443  0.05731  0.61532  1.0000
  C   C1801     1.0  0.95707  0.06024  0.63024  1.0000
  C   C1802     1.0  0.95155  0.06821  0.59724  1.0000
  H   H2132     1.0  0.75012  0.20559  0.65882  1.0000
  C   C1803     1.0  0.96138  0.26246  0.35456  1.0000
  H   H2133     1.0  0.90637  0.20794  0.60613  1.0000
  H   H2134     1.0  0.91412  0.10460  0.46619  1.0000
  H   H2135     1.0  0.96680  0.35546  0.60213  1.0000
  H   H2136     1.0  0.89400  0.12990  0.36079  1.0000
  H   H2137     1.0  0.96043  0.12407  0.44650  1.0000
  H   H2138     1.0  0.90124  0.43547  0.54807  1.0000
  H   H2139     1.0  0.93805  0.05320  0.38220  1.0000
  H   H2140     1.0  0.96622  0.05768  0.35938  1.0000
  H   H2141     1.0  0.91465  0.06324  0.61040  1.0000
  H   H2142     1.0  0.94218  0.06759  0.58553  1.0000
  C   C1804     1.0  0.80330  0.14101  0.52685  1.0000
  N   N120      1.0  0.94101  0.07797  0.36165  1.0000
  H   H2143     1.0  0.96929  0.07820  0.37094  1.0000
  H   H2144     1.0  0.94591  0.25981  0.35579  1.0000
  Fe  Fe241     1.0  0.99165  0.10399  0.60140  1.0000
  H   H2145     1.0  0.76152  0.00039  0.64616  1.0000
  N   N121      1.0  0.91827  0.45561  0.55804  1.0000
  H   H2146     1.0  0.81894  0.13289  0.50053  1.0000
  C   C1805     1.0  0.94825  0.11299  0.35942  1.0000
  S   S485      1.0  0.99095  0.07163  0.47622  1.0000
  H   H2147     1.0  0.97298  0.48071  0.47477  1.0000
  N   N122      1.0  0.78434  0.15250  0.55644  1.0000
  H   H2148     1.0  0.98686  0.39942  0.46976  1.0000
  H   H2149     1.0  0.94970  0.37008  0.34031  1.0000
  H   H2150     1.0  0.95230  0.14307  0.35841  1.0000
  C   C1806     1.0  0.97682  0.33890  0.34234  1.0000
  C   C1807     1.0  0.91578  0.19484  0.61047  1.0000
  C   C1808     1.0  0.97290  0.36285  0.64040  1.0000
  C   C1809     1.0  0.79133  0.13531  0.56877  1.0000
  H   H2151     1.0  0.77607  0.07534  0.34020  1.0000
  H   H2152     1.0  0.75546  0.04104  0.36804  1.0000
  C   C1810     1.0  0.98853  0.36191  0.57978  1.0000
  C   C1811     1.0  0.93569  0.42234  0.56472  1.0000
  S   S486      1.0  0.97520  0.04168  0.39749  1.0000
  H   H2153     1.0  0.80676  0.13085  0.56523  1.0000
  C   C1812     1.0  0.97826  0.32941  0.63478  1.0000
  C   C1813     1.0  0.89159  0.17986  0.63148  1.0000
  H   H2154     1.0  0.99099  0.41166  0.44620  1.0000
  H   H2155     1.0  0.94060  0.23547  0.65452  1.0000
  H   H2156     1.0  0.99050  0.33666  0.36863  1.0000
  C   C1814     1.0  0.92741  0.21296  0.64345  1.0000
  H   H2157     1.0  0.93407  0.10199  0.44823  1.0000
  H   H2158     1.0  0.84434  0.22287  0.33272  1.0000
  C   C1815     1.0  0.99470  0.99799  0.45080  1.0000
  H   H2159     1.0  0.96842  0.08013  0.34512  1.0000
  H   H2160     1.0  0.96348  0.10938  0.35992  1.0000
  C   C1816     1.0  0.79652  0.16819  0.55785  1.0000
  H   H2161     1.0  0.93329  0.39107  0.37935  1.0000
  C   C1817     1.0  0.80515  0.13798  0.50739  1.0000
  C   C1818     1.0  0.93270  0.06891  0.34661  1.0000
  C   C1819     1.0  0.92779  0.22802  0.65492  1.0000
  C   C1820     1.0  0.96759  0.36777  0.40562  1.0000
  C   C1821     1.0  0.96214  0.07345  0.35906  1.0000
  H   H2162     1.0  0.75989  0.15279  0.49653  1.0000
  H   H2163     1.0  0.93129  0.38781  0.34789  1.0000
  C   C1822     1.0  0.95423  0.44976  0.55713  1.0000
  H   H2164     1.0  0.90590  0.47635  0.53673  1.0000
  H   H2165     1.0  0.96342  0.42341  0.35687  1.0000
  H   H2166     1.0  0.81192  0.16404  0.55365  1.0000
  H   H2167     1.0  0.77315  0.13739  0.34195  1.0000
  H   H2168     1.0  0.91898  0.05970  0.63531  1.0000
  C   C1823     1.0  0.94578  0.38579  0.34012  1.0000
  H   H2169     1.0  0.76985  0.10441  0.40201  1.0000
  H   H2170     1.0  0.78309  0.12289  0.56741  1.0000
  H   H2171     1.0  0.94031  0.20904  0.63451  1.0000
  H   H2172     1.0  0.91683  0.06935  0.34887  1.0000
  H   H2173     1.0  0.75933  0.04958  0.34305  1.0000
  C   C1824     1.0  0.76461  0.15870  0.56448  1.0000
  H   H2174     1.0  0.92496  0.15954  0.62725  1.0000
  H   H2175     1.0  0.96911  0.36050  0.41981  1.0000
  H   H2176     1.0  0.95561  0.46492  0.55377  1.0000
  H   H2177     1.0  0.78992  0.13803  0.58423  1.0000
  C   C1825     1.0  0.91065  0.20328  0.64336  1.0000
  H   H2178     1.0  0.91426  0.18397  0.60037  1.0000
  H   H2179     1.0  0.94051  0.07494  0.39244  1.0000
  H   H2180     1.0  0.95896  0.00552  0.40077  1.0000
  C   C1826     1.0  0.98598  0.01788  0.39888  1.0000
  H   H2181     1.0  0.98353  0.40847  0.56292  1.0000
  H   H2182     1.0  0.96760  0.35957  0.65576  1.0000
  H   H2183     1.0  0.98924  0.27446  0.37947  1.0000
  C   C1827     1.0  0.75616  0.08782  0.38406  1.0000
  N   N123      1.0  0.98743  0.34764  0.63363  1.0000
  H   H2184     1.0  0.93836  0.28972  0.33669  1.0000
  H   H2185     1.0  0.88754  0.45567  0.55747  1.0000
  H   H2186     1.0  0.88030  0.19126  0.62709  1.0000
  H   H2187     1.0  0.97265  0.32484  0.64976  1.0000
  H   H2188     1.0  0.90282  0.47873  0.57272  1.0000
  H   H2189     1.0  0.98935  0.40236  0.34017  1.0000
  C   C1828     1.0  0.98341  0.36879  0.39209  1.0000
  H   H2190     1.0  0.93805  0.29202  0.36954  1.0000
  H   H2191     1.0  0.75463  0.14752  0.56377  1.0000
  C   C1829     1.0  0.99436  0.29395  0.33286  1.0000
  H   H2192     1.0  0.95528  0.30724  0.33198  1.0000
  H   H2193     1.0  0.99431  0.37808  0.36395  1.0000
  C   C1830     1.0  0.92789  0.49502  0.49532  1.0000
  H   H2194     1.0  0.84690  0.25358  0.66023  1.0000
  C   C1831     1.0  0.99250  0.33908  0.35315  1.0000
  H   H2195     1.0  0.95464  0.00197  0.58191  1.0000
  H   H2196     1.0  0.94318  0.49256  0.49232  1.0000
  H   H2197     1.0  0.84374  0.30436  0.33216  1.0000
  H   H2198     1.0  0.87549  0.23623  0.33244  1.0000
  H   H2199     1.0  0.77784  0.18117  0.65637  1.0000
  C   C1832     1.0  0.99359  0.99921  0.61406  1.0000
  H   H2200     1.0  0.99136  0.99813  0.62956  1.0000
  Fe  Fe242     1.0  0.99504  0.08122  0.44496  1.0000
  C   C1833     1.0  0.76405  0.17712  0.66298  1.0000
  Fe  Fe243     1.0  0.81276  0.38017  0.85880  1.0000
  S   S487      1.0  0.84193  0.36597  0.84966  1.0000
  S   S488      1.0  0.79049  0.36915  0.88210  1.0000
  Fe  Fe244     1.0  0.82179  0.41878  0.83699  1.0000
  S   S489      1.0  0.85136  0.40737  0.82555  1.0000
  S   S490      1.0  0.80650  0.44897  0.83489  1.0000
  Fe  Fe245     1.0  0.83763  0.38097  0.82006  1.0000
  S   S491      1.0  0.84432  0.36104  0.79570  1.0000
  Fe  Fe246     1.0  0.85357  0.39312  0.85563  1.0000
  S   S492      1.0  0.88052  0.39617  0.86996  1.0000
  S   S493      1.0  0.80758  0.39358  0.82916  1.0000
  S   S494      1.0  0.82501  0.40615  0.86708  1.0000
  Fe  Fe247     1.0  0.89935  0.39451  0.97957  1.0000
  S   S495      1.0  0.88645  0.37668  0.95983  1.0000
  S   S496      1.0  0.91201  0.42211  0.96962  1.0000
  Fe  Fe248     1.0  0.90055  0.33675  0.69028  1.0000
  S   S497      1.0  0.90753  0.30473  0.69615  1.0000
  S   S498      1.0  0.89026  0.35916  0.71181  1.0000
  C   C1834     1.0  0.85373  0.42233  0.94574  1.0000
  C   C1835     1.0  0.84817  0.42710  0.92718  1.0000
  Fe  Fe249     1.0  0.93525  0.30928  0.67784  1.0000
  C   C1836     1.0  0.92461  0.33968  0.75202  1.0000
  C   C1837     1.0  0.84693  0.48546  0.84022  1.0000
  S   S499      1.0  0.92932  0.34116  0.67366  1.0000
  C   C1838     1.0  0.96595  0.36124  0.96316  1.0000
  C   C1839     1.0  0.98439  0.30638  0.68643  1.0000
  C   C1840     1.0  0.91163  0.23372  0.66680  1.0000
  H   H2201     1.0  0.91094  0.35306  0.83710  1.0000
  C   C1841     1.0  0.98136  0.32189  0.69768  1.0000
  H   H2202     1.0  0.84361  0.41571  0.91996  1.0000
  C   C1842     1.0  0.89160  0.37205  0.81014  1.0000
  H   H2203     1.0  0.96691  0.32703  0.70271  1.0000
  H   H2204     1.0  0.88504  0.37439  0.82491  1.0000
  H   H2205     1.0  0.83691  0.47473  0.87739  1.0000
  C   C1843     1.0  0.85514  0.43958  0.88480  1.0000
  C   C1844     1.0  0.85703  0.36100  0.77228  1.0000
  C   C1845     1.0  0.86078  0.34354  0.76376  1.0000
  C   C1846     1.0  0.87078  0.34265  0.74533  1.0000
  C   C1847     1.0  0.87706  0.35930  0.73498  1.0000
  C   C1848     1.0  0.87327  0.37677  0.74350  1.0000
  C   C1849     1.0  0.86344  0.37763  0.76201  1.0000
  H   H2206     1.0  0.85588  0.33056  0.77147  1.0000
  H   H2207     1.0  0.87357  0.32909  0.73911  1.0000
  H   H2208     1.0  0.87801  0.38977  0.73569  1.0000
  H   H2209     1.0  0.86060  0.39120  0.76819  1.0000
  H   H2210     1.0  0.86234  0.48464  0.84041  1.0000
  C   C1850     1.0  0.81822  0.46968  0.83746  1.0000
  C   C1851     1.0  0.83814  0.46887  0.83761  1.0000
  H   H2211     1.0  0.91659  0.36922  0.74317  1.0000
  H   H2212     1.0  0.84679  0.45551  0.83556  1.0000
  C   C1852     1.0  0.88111  0.39166  0.89519  1.0000
  C   C1853     1.0  0.89414  0.40055  0.90447  1.0000
  C   C1854     1.0  0.89545  0.39667  0.92440  1.0000
  C   C1855     1.0  0.88414  0.38339  0.93510  1.0000
  C   C1856     1.0  0.87101  0.37465  0.92584  1.0000
  C   C1857     1.0  0.86927  0.37898  0.90604  1.0000
  H   H2213     1.0  0.90326  0.41049  0.89620  1.0000
  H   H2214     1.0  0.90540  0.40371  0.93139  1.0000
  H   H2215     1.0  0.86217  0.36439  0.93400  1.0000
  H   H2216     1.0  0.85917  0.37203  0.89909  1.0000
  C   C1858     1.0  0.84880  0.44604  0.91806  1.0000
  C   C1859     1.0  0.82249  0.44585  0.89817  1.0000
  C   C1860     1.0  0.76998  0.35720  0.87945  1.0000
  H   H2217     1.0  0.77401  0.14736  0.66808  1.0000
  H   H2218     1.0  0.83378  0.48080  0.90145  1.0000
  C   C1861     1.0  0.98964  0.35277  0.99391  1.0000
  H   H2219     1.0  0.77848  0.35011  0.85058  1.0000
  H   H2220     1.0  0.75017  0.44394  0.87124  1.0000
  N   N124      1.0  0.95381  0.36624  0.94699  1.0000
  C   C1862     1.0  0.93525  0.35748  0.94989  1.0000
  C   C1863     1.0  0.94941  0.38735  0.94432  1.0000
  C   C1864     1.0  0.96418  0.35969  0.92905  1.0000
  H   H2221     1.0  0.97728  0.36722  0.92461  1.0000
  C   C1865     1.0  0.80727  0.48733  0.83965  1.0000
  H   H2222     1.0  0.86479  0.43231  0.96996  1.0000
  C   C1866     1.0  0.76756  0.41033  0.86183  1.0000
  C   C1867     1.0  0.97166  0.34582  0.99534  1.0000
  H   H2223     1.0  0.85766  0.47594  0.88951  1.0000
  H   H2224     1.0  0.92627  0.36243  0.96270  1.0000
  H   H2225     1.0  0.92636  0.36162  0.93760  1.0000
  H   H2226     1.0  0.93738  0.34153  0.95155  1.0000
  H   H2227     1.0  0.94207  0.39279  0.95769  1.0000
  H   H2228     1.0  0.93991  0.39175  0.93260  1.0000
  H   H2229     1.0  0.91176  0.24569  0.67538  1.0000
  C   C1868     1.0  0.98435  0.36811  0.96225  1.0000
  H   H2230     1.0  0.95509  0.36242  0.91679  1.0000
  H   H2231     1.0  0.96865  0.34401  0.93086  1.0000
  H   H2232     1.0  0.96248  0.39514  0.94081  1.0000
  C   C1869     1.0  0.99601  0.36378  0.97736  1.0000
  H   H2233     1.0  0.76544  0.44726  0.84951  1.0000
  Fe  Fe250     1.0  0.89500  0.30242  0.66807  1.0000
  N   N125      1.0  0.75113  0.42116  0.85274  1.0000
  C   C1870     1.0  0.91726  0.35831  0.75524  1.0000
  H   H2234     1.0  0.85413  0.42391  0.88802  1.0000
  C   C1871     1.0  0.90979  0.36272  0.77364  1.0000
  C   C1872     1.0  0.86042  0.43609  0.95560  1.0000
  H   H2235     1.0  0.88247  0.22902  0.67645  1.0000
  S   S500      1.0  0.96514  0.29440  0.68054  1.0000
  C   C1873     1.0  0.84280  0.47148  0.89157  1.0000
  C   C1874     1.0  0.91776  0.32969  0.78579  1.0000
  H   H2236     1.0  0.81254  0.45352  0.90876  1.0000
  C   C1875     1.0  0.91666  0.34996  0.82224  1.0000
  S   S501      1.0  0.96514  0.41643  0.97682  1.0000
  H   H2237     1.0  0.76737  0.42570  0.82519  1.0000
  N   N126      1.0  0.84246  0.45082  0.89853  1.0000
  H   H2238     1.0  0.98969  0.37733  0.95006  1.0000
  H   H2239     1.0  0.82114  0.43023  0.90150  1.0000
  H   H2240     1.0  0.81721  0.44965  0.88368  1.0000
  C   C1876     1.0  0.85606  0.45968  0.92841  1.0000
  H   H2241     1.0  0.79187  0.48816  0.83940  1.0000
  H   H2242     1.0  0.94613  0.34418  0.98241  1.0000
  C   C1877     1.0  0.75142  0.33908  0.86146  1.0000
  N   N127      1.0  0.90126  0.35233  0.80907  1.0000
  H   H2243     1.0  0.91791  0.46216  0.98382  1.0000
  C   C1878     1.0  0.76762  0.34908  0.86258  1.0000
  H   H2244     1.0  0.87046  0.44208  0.88518  1.0000
  H   H2245     1.0  0.92788  0.35990  0.81727  1.0000
  C   C1879     1.0  0.88685  0.33856  0.81610  1.0000
  H   H2246     1.0  0.85138  0.44318  0.86977  1.0000
  H   H2247     1.0  0.89342  0.32373  0.81944  1.0000
  C   C1880     1.0  0.92502  0.32542  0.76730  1.0000
  H   H2248     1.0  0.93070  0.31092  0.76467  1.0000
  H   H2249     1.0  0.85765  0.47425  0.92249  1.0000
  H   H2250     1.0  0.90372  0.37731  0.77485  1.0000
  H   H2251     1.0  0.92385  0.33512  0.82325  1.0000
  H   H2252     1.0  0.87979  0.37481  0.80055  1.0000
  H   H2253     1.0  0.91827  0.31813  0.79714  1.0000
  H   H2254     1.0  0.90179  0.38322  0.80623  1.0000
  C   C1881     1.0  0.95996  0.34984  0.98020  1.0000
  H   H2255     1.0  0.87818  0.34266  0.82945  1.0000
  C   C1882     1.0  0.90957  0.34841  0.78948  1.0000
  H   H2256     1.0  0.87663  0.33785  0.80515  1.0000
  H   H2257     1.0  0.92967  0.33627  0.73756  1.0000
  H   H2258     1.0  0.86715  0.46521  0.95472  1.0000
  H   H2259     1.0  0.93919  0.48837  0.98233  1.0000
  C   C1883     1.0  0.75400  0.41945  0.83177  1.0000
  H   H2260     1.0  0.74992  0.33255  0.84848  1.0000
  C   C1884     1.0  0.86169  0.45468  0.94694  1.0000
  H   H2261     1.0  0.78120  0.41706  0.85757  1.0000
  C   C1885     1.0  0.74837  0.19082  0.66426  1.0000
  C   C1886     1.0  0.92415  0.49095  0.98714  1.0000
  H   H2262     1.0  0.85312  0.40776  0.95244  1.0000
  C   C1887     1.0  0.89256  0.47961  0.99361  1.0000
  H   H2263     1.0  0.99470  0.34189  0.71226  1.0000
  C   C1888     1.0  0.76187  0.15805  0.66960  1.0000
  H   H2264     1.0  0.77018  0.39544  0.85760  1.0000
  H   H2265     1.0  0.76514  0.40926  0.87780  1.0000
  Fe  Fe251     1.0  0.93483  0.41174  0.98962  1.0000
  C   C1889     1.0  0.98616  0.40927  0.98852  1.0000
  S   S502      1.0  0.88630  0.33429  0.66316  1.0000
  C   C1890     1.0  0.91209  0.47616  0.98785  1.0000
  S   S503      1.0  0.87385  0.28045  0.66467  1.0000
  C   C1891     1.0  0.75576  0.35561  0.89494  1.0000
  C   C1892     1.0  0.75159  0.44173  0.85569  1.0000
  H   H2266     1.0  0.75548  0.40424  0.82835  1.0000
  H   H2267     1.0  0.75744  0.36184  0.90805  1.0000
  C   C1893     1.0  0.89511  0.22426  0.66740  1.0000
  S   S504      1.0  0.87753  0.46117  0.99552  1.0000
  Fe  Fe252     1.0  0.89532  0.43304  0.99562  1.0000
  C   C1894     1.0  0.82516  0.65460  0.11018  1.0000
  H   H2268     1.0  0.94350  0.63215  0.24904  1.0000
  H   H2269     1.0  0.75236  0.55187  0.13855  1.0000
  H   H2270     1.0  0.75647  0.61187  0.12654  1.0000
  Fe  Fe253     1.0  0.89529  0.66307  0.31582  1.0000
  S   S505      1.0  0.87957  0.66034  0.28908  1.0000
  S   S506      1.0  0.91835  0.68340  0.31410  1.0000
  Fe  Fe254     1.0  0.81143  0.60483  0.18521  1.0000
  S   S507      1.0  0.83662  0.62207  0.18610  1.0000
  S   S508      1.0  0.78093  0.61923  0.18848  1.0000
  Fe  Fe255     1.0  0.83692  0.56742  0.18018  1.0000
  S   S509      1.0  0.86388  0.58196  0.18085  1.0000
  S   S510      1.0  0.83996  0.53766  0.16942  1.0000
  Fe  Fe256     1.0  0.84849  0.59722  0.20566  1.0000
  S   S511      1.0  0.86438  0.59782  0.23285  1.0000
  Fe  Fe257     1.0  0.85002  0.60549  0.16152  1.0000
  S   S512      1.0  0.86446  0.61968  0.13407  1.0000
  S   S513      1.0  0.82229  0.58071  0.20631  1.0000
  S   S514      1.0  0.82398  0.59033  0.15935  1.0000
  N   N128      1.0  0.77560  0.55399  0.16733  1.0000
  H   H2271     1.0  0.84692  0.65941  0.31930  1.0000
  H   H2272     1.0  0.83990  0.64914  0.11389  1.0000
  Fe  Fe258     1.0  0.89675  0.57744  0.03336  1.0000
  S   S515      1.0  0.88374  0.56891  0.06356  1.0000
  S   S516      1.0  0.92776  0.56760  0.02637  1.0000
  C   C1895     1.0  0.92816  0.60260  0.06064  1.0000
  H   H2273     1.0  0.77687  0.55698  0.19748  1.0000
  C   C1896     1.0  0.77301  0.53327  0.17153  1.0000
  C   C1897     1.0  0.86902  0.60578  0.11424  1.0000
  C   C1898     1.0  0.86754  0.58600  0.11659  1.0000
  C   C1899     1.0  0.87183  0.57504  0.10081  1.0000
  C   C1900     1.0  0.87748  0.58372  0.08251  1.0000
  C   C1901     1.0  0.87842  0.60363  0.07999  1.0000
  C   C1902     1.0  0.87434  0.61460  0.09587  1.0000
  H   H2274     1.0  0.86343  0.57903  0.13065  1.0000
  H   H2275     1.0  0.87098  0.55968  0.10289  1.0000
  H   H2276     1.0  0.88249  0.61050  0.06590  1.0000
  H   H2277     1.0  0.87543  0.62992  0.09394  1.0000
  H   H2278     1.0  0.96057  0.71639  0.27434  1.0000
  C   C1903     1.0  0.82967  0.51593  0.17722  1.0000
  H   H2279     1.0  0.92677  0.67243  0.25024  1.0000
  H   H2280     1.0  0.81518  0.52492  0.20372  1.0000
  H   H2281     1.0  0.74816  0.67257  0.13501  1.0000
  C   C1904     1.0  0.75890  0.66683  0.12441  1.0000
  C   C1905     1.0  0.79115  0.65133  0.11629  1.0000
  C   C1906     1.0  0.76438  0.62360  0.17073  1.0000
  C   C1907     1.0  0.76767  0.61529  0.15335  1.0000
  H   H2282     1.0  0.78058  0.60601  0.15052  1.0000
  C   C1908     1.0  0.87609  0.64273  0.27338  1.0000
  C   C1909     1.0  0.88374  0.62359  0.27607  1.0000
  C   C1910     1.0  0.88003  0.61016  0.26352  1.0000
  C   C1911     1.0  0.86869  0.61560  0.24805  1.0000
  C   C1912     1.0  0.86113  0.63477  0.24536  1.0000
  C   C1913     1.0  0.86479  0.64818  0.25793  1.0000
  H   H2283     1.0  0.89241  0.61905  0.28785  1.0000
  H   H2284     1.0  0.88597  0.59540  0.26579  1.0000
  H   H2285     1.0  0.85238  0.63925  0.23361  1.0000
  H   H2286     1.0  0.85872  0.66290  0.25567  1.0000
  C   C1914     1.0  0.86486  0.50649  0.09992  1.0000
  H   H2287     1.0  0.78700  0.57575  0.18125  1.0000
  C   C1915     1.0  0.83346  0.50067  0.16555  1.0000
  H   H2288     1.0  0.97497  0.59320  0.09423  1.0000
  C   C1916     1.0  0.83900  0.62485  0.31344  1.0000
  C   C1917     1.0  0.97666  0.59936  0.00971  1.0000
  H   H2289     1.0  0.80261  0.63505  0.15138  1.0000
  C   C1918     1.0  0.81402  0.62305  0.11668  1.0000
  S   S517      1.0  0.88730  0.56289  0.00949  1.0000
  H   H2290     1.0  0.84260  0.50244  0.15228  1.0000
  H   H2291     1.0  0.80235  0.61442  0.12349  1.0000
  H   H2292     1.0  0.95880  0.61913  0.04747  1.0000
  H   H2293     1.0  0.82283  0.66997  0.11307  1.0000
  S   S518      1.0  0.95391  0.61233  0.00813  1.0000
  C   C1919     1.0  0.96064  0.59309  0.10137  1.0000
  H   H2294     1.0  0.81171  0.65840  0.14647  1.0000
  N   N129      1.0  0.94666  0.59888  0.06946  1.0000
  H   H2295     1.0  0.93038  0.60553  0.04474  1.0000
  H   H2296     1.0  0.93922  0.58766  0.14701  1.0000
  N   N130      1.0  0.81045  0.64330  0.12138  1.0000
  H   H2297     1.0  0.89147  0.52593  0.00302  1.0000
  C   C1920     1.0  0.74776  0.57811  0.17736  1.0000
  H   H2298     1.0  0.95439  0.49786  0.01585  1.0000
  H   H2299     1.0  0.82360  0.62845  0.31115  1.0000
  H   H2300     1.0  0.97190  0.57875  0.06620  1.0000
  C   C1921     1.0  0.96536  0.70124  0.27427  1.0000
  C   C1922     1.0  0.75095  0.84672  0.31559  1.0000
  H   H2301     1.0  0.76335  0.53058  0.18488  1.0000
  H   H2302     1.0  0.82774  0.61608  0.12172  1.0000
  H   H2303     1.0  0.93726  0.64864  0.29857  1.0000
  C   C1923     1.0  0.94433  0.59567  0.09070  1.0000
  C   C1924     1.0  0.81795  0.51343  0.19442  1.0000
  H   H2304     1.0  0.96697  0.57213  0.00560  1.0000
  H   H2305     1.0  0.91028  0.59160  0.12922  1.0000
  H   H2306     1.0  0.95088  0.62870  0.06997  1.0000
  H   H2307     1.0  0.75284  0.85282  0.30087  1.0000
  H   H2308     1.0  0.86999  0.50038  0.00320  1.0000
  H   H2309     1.0  0.80362  0.54982  0.15178  1.0000
  H   H2310     1.0  0.97278  0.61324  0.06721  1.0000
  S   S519      1.0  0.89797  0.60579  0.01551  1.0000
  H   H2311     1.0  0.79965  0.55246  0.18448  1.0000
  C   C1925     1.0  0.87717  0.51273  0.08427  1.0000
  C   C1926     1.0  0.75400  0.66538  0.10595  1.0000
  H   H2312     1.0  0.91945  0.61538  0.06603  1.0000
  C   C1927     1.0  0.92613  0.59476  0.10138  1.0000
  C   C1928     1.0  0.97754  0.66218  0.27534  1.0000
  C   C1929     1.0  0.81307  0.64354  0.14207  1.0000
  H   H2313     1.0  0.95662  0.65208  0.23902  1.0000
  C   C1930     1.0  0.95254  0.68815  0.27113  1.0000
  H   H2314     1.0  0.79585  0.64472  0.08639  1.0000
  C   C1931     1.0  0.95347  0.64247  0.25233  1.0000
  C   C1932     1.0  0.78887  0.55661  0.14963  1.0000
  H   H2315     1.0  0.85900  0.51635  0.11039  1.0000
  H   H2316     1.0  0.89420  0.50599  0.05897  1.0000
  H   H2317     1.0  0.91639  0.65130  0.26110  1.0000
  C   C1933     1.0  0.78588  0.65073  0.09739  1.0000
  C   C1934     1.0  0.95775  0.61569  0.06337  1.0000
  H   H2318     1.0  0.91824  0.67024  0.27543  1.0000
  C   C1935     1.0  0.88486  0.50008  0.07075  1.0000
  C   C1936     1.0  0.92440  0.59201  0.12143  1.0000
  H   H2319     1.0  0.94945  0.56867  0.06597  1.0000
  H   H2320     1.0  0.98278  0.64717  0.27665  1.0000
  C   C1937     1.0  0.75391  0.61854  0.13987  1.0000
  H   H2321     1.0  0.78433  0.54994  0.13739  1.0000
  C   C1938     1.0  0.95832  0.66814  0.27147  1.0000
  H   H2322     1.0  0.76671  0.52739  0.15974  1.0000
  H   H2323     1.0  0.97142  0.58838  0.12929  1.0000
  H   H2324     1.0  0.95610  0.63216  0.28981  1.0000
  H   H2325     1.0  0.91295  0.59607  0.09463  1.0000
  C   C1939     1.0  0.94252  0.64053  0.28604  1.0000
  C   C1940     1.0  0.78511  0.56011  0.18334  1.0000
  C   C1941     1.0  0.98458  0.66100  0.32637  1.0000
  H   H2326     1.0  0.76353  0.65624  0.07812  1.0000
  C   C1942     1.0  0.98286  0.68103  0.32572  1.0000
  H   H2327     1.0  0.93197  0.63005  0.28476  1.0000
  C   C1943     1.0  0.95877  0.59025  0.12144  1.0000
  C   C1944     1.0  0.76750  0.65748  0.09242  1.0000
  N   N131      1.0  0.94518  0.65378  0.26837  1.0000
  C   C1945     1.0  0.94068  0.58980  0.13145  1.0000
  H   H2328     1.0  0.93812  0.69407  0.26884  1.0000
  H   H2329     1.0  0.96701  0.63378  0.25561  1.0000
  Fe  Fe259     1.0  0.92872  0.59488  0.00702  1.0000
  C   C1946     1.0  0.92590  0.66240  0.26354  1.0000
  H   H2330     1.0  0.78691  0.52457  0.17347  1.0000
  H   H2331     1.0  0.91953  0.59000  0.06343  1.0000
  H   H2332     1.0  0.82513  0.65395  0.09446  1.0000
  H   H2333     1.0  0.84717  0.63260  0.30114  1.0000
  C   C1947     1.0  0.76748  0.83987  0.32456  1.0000
  C   C1948     1.0  0.75676  0.56482  0.16453  1.0000
  H   H2334     1.0  0.79002  0.57211  0.14512  1.0000
  H   H2335     1.0  0.77959  0.66076  0.14444  1.0000
  C   C1949     1.0  0.97905  0.57961  0.00807  1.0000
  H   H2336     1.0  0.81524  0.62169  0.10100  1.0000
  C   C1950     1.0  0.77713  0.65985  0.12965  1.0000
  H   H2337     1.0  0.82759  0.63720  0.14549  1.0000
  H   H2338     1.0  0.88070  0.52754  0.08250  1.0000
  H   H2339     1.0  0.84290  0.60926  0.31216  1.0000
  H   H2340     1.0  0.95889  0.58345  0.04553  1.0000
  C   C1951     1.0  0.74726  0.63532  0.17442  1.0000
  C   C1952     1.0  0.95719  0.58169  0.06152  1.0000
  S   S520      1.0  0.96428  0.64778  0.32886  1.0000
  H   H2341     1.0  0.96878  0.68882  0.32680  1.0000
  C   C1953     1.0  0.99260  0.60889  0.01265  1.0000
  H   H2342     1.0  0.87296  0.63204  0.32058  1.0000
  H   H2343     1.0  0.99087  0.62419  0.01387  1.0000
  H   H2344     1.0  0.75423  0.58134  0.18981  1.0000
  H   H2345     1.0  0.78151  0.84073  0.31681  1.0000
  H   H2346     1.0  0.84238  0.87838  0.32565  1.0000
  H   H2347     1.0  0.98833  0.50078  0.00878  1.0000
  C   C1954     1.0  0.99027  0.67542  0.27824  1.0000
  Fe  Fe260     1.0  0.91839  0.55550  0.00105  1.0000
  C   C1955     1.0  0.98419  0.69490  0.27772  1.0000
  H   H2348     1.0  0.85568  0.91066  0.32515  1.0000
  C   C1956     1.0  0.89728  0.51227  0.99854  1.0000
  C   C1957     1.0  0.88509  0.49774  0.99864  1.0000
  H   H2349     1.0  0.85553  0.49929  0.20973  1.0000
  H   H2350     1.0  0.99400  0.70502  0.28051  1.0000
  C   C1958     1.0  0.74669  0.56205  0.14865  1.0000
  H   H2351     1.0  0.75247  0.83425  0.59051  1.0000
  S   S521      1.0  0.88958  0.62862  0.63458  1.0000
  S   S522      1.0  0.92420  0.66711  0.64295  1.0000
  H   H2352     1.0  0.90790  0.51273  0.45538  1.0000
  H   H2353     1.0  0.77714  0.85270  0.64201  1.0000
  Fe  Fe261     1.0  0.89728  0.65434  0.35955  1.0000
  S   S523      1.0  0.88307  0.63722  0.38535  1.0000
  S   S524      1.0  0.92045  0.67385  0.36084  1.0000
  Fe  Fe262     1.0  0.90886  0.56252  0.51159  1.0000
  S   S525      1.0  0.89872  0.59346  0.50256  1.0000
  S   S526      1.0  0.88956  0.53831  0.51273  1.0000
  Fe  Fe263     1.0  0.94895  0.57166  0.51606  1.0000
  S   S527      1.0  0.94224  0.60290  0.50719  1.0000
  S   S528      1.0  0.97793  0.55889  0.52441  1.0000
  Fe  Fe264     1.0  0.91518  0.60046  0.52666  1.0000
  S   S529      1.0  0.91014  0.62610  0.54455  1.0000
  Fe  Fe265     1.0  0.92668  0.59348  0.48396  1.0000
  S   S530      1.0  0.93482  0.60533  0.45312  1.0000
  S   S531      1.0  0.92293  0.56960  0.53708  1.0000
  S   S532      1.0  0.93569  0.56225  0.49148  1.0000
  Fe  Fe266     1.0  0.82221  0.83462  0.43387  1.0000
  S   S533      1.0  0.82314  0.86234  0.41514  1.0000
  S   S534      1.0  0.80782  0.83352  0.46430  1.0000
  Fe  Fe267     1.0  0.84280  0.81109  0.40282  1.0000
  S   S535      1.0  0.84590  0.83713  0.38148  1.0000
  S   S536      1.0  0.85029  0.77872  0.40244  1.0000
  Fe  Fe268     1.0  0.85364  0.85172  0.40640  1.0000
  S   S537      1.0  0.87240  0.87621  0.40644  1.0000
  Fe  Fe269     1.0  0.81505  0.84660  0.39138  1.0000
  S   S538      1.0  0.79699  0.86207  0.36789  1.0000
  S   S539      1.0  0.85319  0.82508  0.42693  1.0000
  S   S540      1.0  0.81144  0.81950  0.41090  1.0000
  Fe  Fe270     1.0  0.81089  0.84745  0.59886  1.0000
  S   S541      1.0  0.81741  0.81879  0.58636  1.0000
  S   S542      1.0  0.78082  0.86395  0.60029  1.0000
  Fe  Fe271     1.0  0.85375  0.85083  0.60210  1.0000
  S   S543      1.0  0.86314  0.82261  0.59022  1.0000
  S   S544      1.0  0.87269  0.87153  0.61207  1.0000
  Fe  Fe272     1.0  0.84191  0.83204  0.56840  1.0000
  S   S545      1.0  0.85458  0.82740  0.53789  1.0000
  Fe  Fe273     1.0  0.83821  0.81154  0.60908  1.0000
  S   S546      1.0  0.83814  0.78328  0.62838  1.0000
  S   S547      1.0  0.83419  0.86109  0.57910  1.0000
  S   S548      1.0  0.83006  0.83930  0.62269  1.0000
  Fe  Fe274     1.0  0.97879  0.89402  0.41352  1.0000
  S   S549      1.0  0.96978  0.92434  0.42083  1.0000
  S   S550      1.0  0.96340  0.87263  0.40000  1.0000
  Fe  Fe275     1.0  0.98330  0.89351  0.59711  1.0000
  S   S551      1.0  0.98197  0.92234  0.57975  1.0000
  S   S552      1.0  0.96346  0.86979  0.59683  1.0000
  H   H2354     1.0  0.84754  0.88820  0.45813  1.0000
  H   H2355     1.0  0.89143  0.76817  0.34231  1.0000
  C   C1959     1.0  0.92117  0.85981  0.53322  1.0000
  H   H2356     1.0  0.84142  0.76032  0.59149  1.0000
  H   H2357     1.0  0.82036  0.78267  0.43557  1.0000
  H   H2358     1.0  0.85100  0.74484  0.45945  1.0000
  C   C1960     1.0  0.89781  0.87128  0.60660  1.0000
  C   C1961     1.0  0.90709  0.88715  0.61025  1.0000
  C   C1962     1.0  0.92715  0.88719  0.60687  1.0000
  C   C1963     1.0  0.93812  0.87114  0.60016  1.0000
  C   C1964     1.0  0.92883  0.85536  0.59631  1.0000
  C   C1965     1.0  0.90876  0.85548  0.59931  1.0000
  H   H2359     1.0  0.89871  0.89943  0.61589  1.0000
  H   H2360     1.0  0.93415  0.89940  0.60993  1.0000
  H   H2361     1.0  0.93721  0.84285  0.59119  1.0000
  H   H2362     1.0  0.90183  0.84326  0.59622  1.0000
  C   C1966     1.0  0.77195  0.86965  0.36816  1.0000
  C   C1967     1.0  0.76507  0.88081  0.35202  1.0000
  H   H2363     1.0  0.85491  0.85453  0.45906  1.0000
  C   C1968     1.0  0.75873  0.86430  0.38351  1.0000
  H   H2364     1.0  0.83004  0.70936  0.62710  1.0000
  H   H2365     1.0  0.96880  0.88647  0.51510  1.0000
  H   H2366     1.0  0.76370  0.85574  0.39603  1.0000
  C   C1969     1.0  0.82102  0.83202  0.48461  1.0000
  C   C1970     1.0  0.81168  0.83708  0.50224  1.0000
  C   C1971     1.0  0.82174  0.83581  0.51874  1.0000
  C   C1972     1.0  0.84124  0.82943  0.51768  1.0000
  C   C1973     1.0  0.85055  0.82428  0.50007  1.0000
  C   C1974     1.0  0.84046  0.82541  0.48365  1.0000
  H   H2367     1.0  0.79659  0.84204  0.50315  1.0000
  H   H2368     1.0  0.81441  0.83977  0.53224  1.0000
  H   H2369     1.0  0.86555  0.81901  0.49923  1.0000
  H   H2370     1.0  0.84765  0.82084  0.47036  1.0000
  C   C1975     1.0  0.89767  0.87417  0.40610  1.0000
  C   C1976     1.0  0.90894  0.85751  0.40129  1.0000
  C   C1977     1.0  0.92909  0.85715  0.39964  1.0000
  C   C1978     1.0  0.93809  0.87323  0.40321  1.0000
  C   C1979     1.0  0.92678  0.88963  0.40863  1.0000
  C   C1980     1.0  0.90667  0.89014  0.40989  1.0000
  H   H2371     1.0  0.90217  0.84518  0.39820  1.0000
  H   H2372     1.0  0.93774  0.84440  0.39541  1.0000
  H   H2373     1.0  0.93353  0.90210  0.41140  1.0000
  H   H2374     1.0  0.89806  0.90309  0.41361  1.0000
  C   C1981     1.0  0.93282  0.88597  0.46519  1.0000
  C   C1982     1.0  0.86908  0.88318  0.35069  1.0000
  N   N132      1.0  0.94812  0.87902  0.53876  1.0000
  Fe  Fe276     1.0  0.93362  0.66118  0.33388  1.0000
  H   H2375     1.0  0.97839  0.58948  0.49393  1.0000
  H   H2376     1.0  0.86486  0.88351  0.49636  1.0000
  C   C1983     1.0  0.90003  0.51592  0.50566  1.0000
  C   C1984     1.0  0.91989  0.51243  0.50209  1.0000
  H   H2377     1.0  0.99348  0.60623  0.54245  1.0000
  H   H2378     1.0  0.88210  0.57484  0.46427  1.0000
  H   H2379     1.0  0.95173  0.87156  0.50930  1.0000
  H   H2380     1.0  0.92910  0.52318  0.50441  1.0000
  H   H2381     1.0  0.83541  0.86569  0.34864  1.0000
  C   C1985     1.0  0.90897  0.86654  0.45676  1.0000
  C   C1986     1.0  0.88535  0.74137  0.35842  1.0000
  C   C1987     1.0  0.87575  0.73300  0.37511  1.0000
  C   C1988     1.0  0.86509  0.74467  0.38833  1.0000
  C   C1989     1.0  0.86378  0.76484  0.38504  1.0000
  C   C1990     1.0  0.87330  0.77323  0.36833  1.0000
  C   C1991     1.0  0.88404  0.76155  0.35515  1.0000
  H   H2382     1.0  0.87665  0.71753  0.37786  1.0000
  H   H2383     1.0  0.85782  0.73799  0.40119  1.0000
  H   H2384     1.0  0.87248  0.78869  0.36559  1.0000
  C   C1992     1.0  0.89734  0.62863  0.40435  1.0000
  C   C1993     1.0  0.91732  0.62797  0.40162  1.0000
  C   C1994     1.0  0.92847  0.62072  0.41671  1.0000
  C   C1995     1.0  0.91982  0.61437  0.43482  1.0000
  C   C1996     1.0  0.89979  0.61510  0.43764  1.0000
  C   C1997     1.0  0.88862  0.62201  0.42238  1.0000
  H   H2385     1.0  0.92422  0.63289  0.38779  1.0000
  H   H2386     1.0  0.94391  0.62009  0.41429  1.0000
  H   H2387     1.0  0.89292  0.61057  0.45159  1.0000
  H   H2388     1.0  0.87316  0.62259  0.42464  1.0000
  C   C1998     1.0  0.88697  0.73633  0.64168  1.0000
  C   C1999     1.0  0.89062  0.75244  0.62870  1.0000
  C   C2000     1.0  0.87587  0.76686  0.62433  1.0000
  C   C2001     1.0  0.85731  0.76551  0.63323  1.0000
  C   C2002     1.0  0.85367  0.74943  0.64625  1.0000
  C   C2003     1.0  0.80951  0.59872  0.36373  1.0000
  H   H2389     1.0  0.87881  0.77888  0.61396  1.0000
  H   H2390     1.0  0.83325  0.91740  0.33855  1.0000
  H   H2391     1.0  0.94470  0.89646  0.51207  1.0000
  C   C2004     1.0  0.89741  0.62707  0.60995  1.0000
  C   C2005     1.0  0.90697  0.64158  0.59902  1.0000
  C   C2006     1.0  0.91095  0.64094  0.57905  1.0000
  C   C2007     1.0  0.90618  0.62542  0.56990  1.0000
  C   C2008     1.0  0.89748  0.61046  0.58096  1.0000
  C   C2009     1.0  0.89284  0.61146  0.60084  1.0000
  H   H2392     1.0  0.91085  0.65355  0.60581  1.0000
  H   H2393     1.0  0.91766  0.65261  0.57062  1.0000
  H   H2394     1.0  0.89358  0.59851  0.57409  1.0000
  H   H2395     1.0  0.88541  0.60018  0.60916  1.0000
  H   H2396     1.0  0.89427  0.85868  0.65547  1.0000
  C   C2010     1.0  0.76324  0.86993  0.61944  1.0000
  C   C2011     1.0  0.74681  0.88223  0.61519  1.0000
  C   C2012     1.0  0.95208  0.54164  0.44208  1.0000
  H   H2397     1.0  0.76511  0.93384  0.65332  1.0000
  Fe  Fe277     1.0  0.90713  0.68826  0.66159  1.0000
  H   H2398     1.0  0.80763  0.79216  0.45627  1.0000
  C   C2013     1.0  0.89410  0.87716  0.46756  1.0000
  H   H2399     1.0  0.93078  0.85125  0.52382  1.0000
  C   C2014     1.0  0.88179  0.54037  0.45304  1.0000
  H   H2400     1.0  0.86330  0.90373  0.46582  1.0000
  H   H2401     1.0  0.85020  0.86678  0.48941  1.0000
  S   S553      1.0  0.96462  0.92177  0.47720  1.0000
  H   H2402     1.0  0.75293  0.93924  0.63157  1.0000
  C   C2015     1.0  0.86531  0.87056  0.48849  1.0000
  Fe  Fe278     1.0  0.90320  0.69470  0.34115  1.0000
  C   C2016     1.0  0.91968  0.52147  0.45128  1.0000
  H   H2403     1.0  0.88256  0.53241  0.46757  1.0000
  H   H2404     1.0  0.95981  0.84943  0.53747  1.0000
  H   H2405     1.0  0.94341  0.60119  0.55687  1.0000
  C   C2017     1.0  0.90652  0.84870  0.65205  1.0000
  S   S554      1.0  0.98761  0.96087  0.61754  1.0000
  C   C2018     1.0  0.90485  0.82906  0.64987  1.0000
  H   H2406     1.0  0.77510  0.88507  0.34005  1.0000
  C   C2019     1.0  0.96283  0.63163  0.54989  1.0000
  H   H2407     1.0  0.97413  0.97064  0.47119  1.0000
  C   C2020     1.0  0.99295  0.98277  0.60436  1.0000
  S   S555      1.0  0.91150  0.64006  0.33397  1.0000
  H   H2408     1.0  0.96277  0.58425  0.56497  1.0000
  C   C2021     1.0  0.92800  0.87097  0.45567  1.0000
  H   H2409     1.0  0.93905  0.86308  0.44689  1.0000
  H   H2410     1.0  0.94418  0.90905  0.54373  1.0000
  C   C2022     1.0  0.86293  0.89049  0.45855  1.0000
  H   H2411     1.0  0.89710  0.55402  0.41766  1.0000
  H   H2412     1.0  0.93390  0.60485  0.62236  1.0000
  H   H2413     1.0  0.86947  0.63162  0.34605  1.0000
  C   C2023     1.0  0.94538  0.61170  0.61363  1.0000
  C   C2024     1.0  0.95547  0.62446  0.62161  1.0000
  H   H2414     1.0  0.88905  0.90128  0.48526  1.0000
  H   H2415     1.0  0.92252  0.90852  0.48295  1.0000
  H   H2416     1.0  0.97868  0.64561  0.40042  1.0000
  C   C2025     1.0  0.89516  0.56369  0.42941  1.0000
  H   H2417     1.0  0.84764  0.90290  0.37803  1.0000
  H   H2418     1.0  0.88171  0.52986  0.44225  1.0000
  C   C2026     1.0  0.92198  0.81778  0.64417  1.0000
  S   S556      1.0  0.90632  0.71894  0.64698  1.0000
  C   C2027     1.0  0.89514  0.88019  0.55798  1.0000
  H   H2419     1.0  0.90548  0.57481  0.42577  1.0000
  N   N133      1.0  0.96890  0.61397  0.56197  1.0000
  H   H2420     1.0  0.82131  0.74276  0.61662  1.0000
  H   H2421     1.0  0.94559  0.98089  0.61098  1.0000
  C   C2028     1.0  0.76468  0.86221  0.63845  1.0000
  H   H2422     1.0  0.92238  0.86135  0.35352  1.0000
  C   C2029     1.0  0.83673  0.88013  0.34078  1.0000
  H   H2423     1.0  0.82890  0.61889  0.39827  1.0000
  H   H2424     1.0  0.98845  0.67311  0.38256  1.0000
  C   C2030     1.0  0.82610  0.61576  0.38406  1.0000
  C   C2031     1.0  0.75168  0.93255  0.64665  1.0000
  C   C2032     1.0  0.94957  0.60812  0.59437  1.0000
  C   C2033     1.0  0.93384  0.55156  0.44298  1.0000
  H   H2425     1.0  0.94751  0.88960  0.46396  1.0000
  C   C2034     1.0  0.98968  0.92705  0.52543  1.0000
  C   C2035     1.0  0.96048  0.86191  0.54577  1.0000
  C   C2036     1.0  0.91703  0.54181  0.44758  1.0000
  H   H2426     1.0  0.99255  0.52560  0.50193  1.0000
  H   H2427     1.0  0.97583  0.86483  0.54491  1.0000
  H   H2428     1.0  0.82347  0.65577  0.33102  1.0000
  Fe  Fe279     1.0  0.99559  0.93275  0.60406  1.0000
  H   H2429     1.0  0.94079  0.59845  0.58908  1.0000
  N   N134      1.0  0.82829  0.76775  0.46244  1.0000
  C   C2037     1.0  0.84549  0.75857  0.45172  1.0000
  C   C2038     1.0  0.83178  0.77256  0.48175  1.0000
  C   C2039     1.0  0.81678  0.78175  0.49355  1.0000
  C   C2040     1.0  0.84986  0.76839  0.48941  1.0000
  C   C2041     1.0  0.81963  0.78632  0.51188  1.0000
  C   C2042     1.0  0.85255  0.77309  0.50777  1.0000
  C   C2043     1.0  0.83746  0.78198  0.51899  1.0000
  H   H2430     1.0  0.85715  0.76837  0.44881  1.0000
  C   C2044     1.0  0.86834  0.73481  0.65034  1.0000
  H   H2431     1.0  0.84229  0.75497  0.43736  1.0000
  C   C2045     1.0  0.97631  0.92841  0.51172  1.0000
  H   H2432     1.0  0.80281  0.78590  0.48852  1.0000
  H   H2433     1.0  0.86222  0.76173  0.48144  1.0000
  H   H2434     1.0  0.80812  0.79385  0.52040  1.0000
  H   H2435     1.0  0.86650  0.77013  0.51325  1.0000
  H   H2436     1.0  0.83976  0.78612  0.53298  1.0000
  N   N135      1.0  0.86278  0.68604  0.61377  1.0000
  C   C2046     1.0  0.88177  0.68539  0.62129  1.0000
  C   C2047     1.0  0.84970  0.67696  0.62922  1.0000
  C   C2048     1.0  0.86453  0.67417  0.59729  1.0000
  C   C2049     1.0  0.85628  0.70618  0.60745  1.0000
  C   C2050     1.0  0.86740  0.71675  0.59285  1.0000
  C   C2051     1.0  0.83927  0.71601  0.61570  1.0000
  C   C2052     1.0  0.86199  0.73599  0.58708  1.0000
  C   C2053     1.0  0.88166  0.81634  0.63295  1.0000
  C   C2054     1.0  0.84531  0.74522  0.59552  1.0000
  H   H2437     1.0  0.88118  0.69479  0.63318  1.0000
  H   H2438     1.0  0.88677  0.67057  0.62691  1.0000
  H   H2439     1.0  0.89312  0.69020  0.61022  1.0000
  H   H2440     1.0  0.84845  0.68465  0.64244  1.0000
  H   H2441     1.0  0.85513  0.66182  0.63362  1.0000
  H   H2442     1.0  0.83519  0.67643  0.62445  1.0000
  H   H2443     1.0  0.87606  0.67831  0.58609  1.0000
  H   H2444     1.0  0.86818  0.65867  0.60185  1.0000
  H   H2445     1.0  0.85087  0.67534  0.59038  1.0000
  H   H2446     1.0  0.88061  0.71029  0.58608  1.0000
  H   H2447     1.0  0.84318  0.65740  0.34484  1.0000
  H   H2448     1.0  0.87098  0.74394  0.57631  1.0000
  H   H2449     1.0  0.96827  0.51345  0.48590  1.0000
  C   C2055     1.0  0.95926  0.59795  0.55608  1.0000
  N   N136      1.0  0.84894  0.89163  0.35032  1.0000
  C   C2056     1.0  0.98986  0.60935  0.55769  1.0000
  C   C2057     1.0  0.84029  0.89320  0.37027  1.0000
  H   H2450     1.0  0.89266  0.80591  0.62636  1.0000
  H   H2451     1.0  0.75089  0.91690  0.64574  1.0000
  H   H2452     1.0  0.99245  0.95140  0.46801  1.0000
  C   C2058     1.0  0.81927  0.60758  0.34740  1.0000
  C   C2059     1.0  0.97399  0.63047  0.59102  1.0000
  C   C2060     1.0  0.81292  0.60279  0.38201  1.0000
  H   H2453     1.0  0.98477  0.63854  0.58274  1.0000
  C   C2061     1.0  0.94079  0.84486  0.64346  1.0000
  H   H2454     1.0  0.94981  0.89285  0.56452  1.0000
  H   H2455     1.0  0.98621  0.93411  0.53845  1.0000
  H   H2456     1.0  0.97096  0.62708  0.43079  1.0000
  H   H2457     1.0  0.82481  0.89855  0.37082  1.0000
  S   S557      1.0  0.89927  0.72739  0.34137  1.0000
  C   C2062     1.0  0.98578  0.62964  0.42628  1.0000
  C   C2063     1.0  0.93964  0.82562  0.64106  1.0000
  C   C2064     1.0  0.99111  0.58926  0.50131  1.0000
  H   H2458     1.0  0.80537  0.59585  0.39462  1.0000
  C   C2065     1.0  0.90773  0.86748  0.35243  1.0000
  C   C2066     1.0  0.92429  0.85634  0.64900  1.0000
  H   H2459     1.0  0.95205  0.62725  0.63653  1.0000
  C   C2067     1.0  0.90220  0.85511  0.53673  1.0000
  Fe  Fe280     1.0  0.98058  0.91389  0.44939  1.0000
  H   H2460     1.0  0.96465  0.54953  0.43876  1.0000
  C   C2068     1.0  0.96426  0.61722  0.58250  1.0000
  C   C2069     1.0  0.83279  0.62093  0.34901  1.0000
  H   H2461     1.0  0.96246  0.93635  0.51429  1.0000
  H   H2462     1.0  0.86762  0.54898  0.45347  1.0000
  H   H2463     1.0  0.97724  0.64403  0.61665  1.0000
  C   C2070     1.0  0.89637  0.56643  0.46311  1.0000
  H   H2464     1.0  0.89848  0.55874  0.47744  1.0000
  H   H2465     1.0  0.89751  0.84328  0.53016  1.0000
  H   H2466     1.0  0.97361  0.97179  0.40118  1.0000
  C   C2071     1.0  0.87045  0.85653  0.45859  1.0000
  H   H2467     1.0  0.86907  0.89342  0.44340  1.0000
  H   H2468     1.0  0.90629  0.85505  0.44860  1.0000
  H   H2469     1.0  0.87555  0.85805  0.44309  1.0000
  H   H2470     1.0  0.96801  0.89811  0.54597  1.0000
  C   C2072     1.0  0.86439  0.62586  0.33348  1.0000
  N   N137      1.0  0.87363  0.87361  0.46825  1.0000
  C   C2073     1.0  0.98733  0.96604  0.46209  1.0000
  C   C2074     1.0  0.89957  0.89231  0.47714  1.0000
  H   H2471     1.0  0.87362  0.85861  0.49658  1.0000
  C   C2075     1.0  0.90189  0.88542  0.35880  1.0000
  H   H2472     1.0  0.95613  0.85737  0.56109  1.0000
  H   H2473     1.0  0.94722  0.63577  0.55287  1.0000
  H   H2474     1.0  0.79918  0.76079  0.47066  1.0000
  N   N138      1.0  0.89787  0.55271  0.44828  1.0000
  H   H2475     1.0  0.87769  0.84315  0.46545  1.0000
  H   H2476     1.0  0.79926  0.58857  0.36220  1.0000
  H   H2477     1.0  0.90497  0.75368  0.62185  1.0000
  H   H2478     1.0  0.81723  0.74101  0.47348  1.0000
  H   H2479     1.0  0.88509  0.88770  0.56805  1.0000
  H   H2480     1.0  0.83214  0.79647  0.45019  1.0000
  H   H2481     1.0  0.88094  0.82966  0.62295  1.0000
  C   C2076     1.0  0.95347  0.88351  0.51793  1.0000
  H   H2482     1.0  0.84601  0.63465  0.37027  1.0000
  S   S558      1.0  0.87912  0.67598  0.34154  1.0000
  C   C2077     1.0  0.91866  0.89660  0.47593  1.0000
  H   H2483     1.0  0.77893  0.82772  0.35085  1.0000
  C   C2078     1.0  0.81312  0.75433  0.46426  1.0000
  H   H2484     1.0  0.92519  0.87147  0.65020  1.0000
  C   C2079     1.0  0.82179  0.78547  0.45065  1.0000
  C   C2080     1.0  0.89458  0.85721  0.34522  1.0000
  H   H2485     1.0  0.87466  0.86128  0.55214  1.0000
  H   H2486     1.0  0.93302  0.56704  0.44024  1.0000
  C   C2081     1.0  0.95258  0.89550  0.54867  1.0000
  H   H2487     1.0  0.97054  0.64404  0.55242  1.0000
  H   H2488     1.0  0.91773  0.89635  0.56246  1.0000
  C   C2082     1.0  0.96971  0.63387  0.61033  1.0000
  C   C2083     1.0  0.87552  0.86486  0.34429  1.0000
  C   C2084     1.0  0.91408  0.88501  0.55462  1.0000
  C   C2085     1.0  0.92774  0.87490  0.54209  1.0000
  C   C2086     1.0  0.98103  0.91981  0.49457  1.0000
  H   H2489     1.0  0.89686  0.79094  0.65881  1.0000
  H   H2490     1.0  0.92178  0.80294  0.64153  1.0000
  H   H2491     1.0  0.90721  0.57702  0.46014  1.0000
  H   H2492     1.0  0.81042  0.75009  0.44998  1.0000
  H   H2493     1.0  0.88065  0.57159  0.42918  1.0000
  C   C2087     1.0  0.88924  0.86525  0.54913  1.0000
  H   H2494     1.0  0.89911  0.84307  0.34061  1.0000
  H   H2495     1.0  0.81600  0.60369  0.33371  1.0000
  C   C2088     1.0  0.83587  0.62474  0.36786  1.0000
  H   H2496     1.0  0.85626  0.82678  0.66187  1.0000
  S   S559      1.0  0.98722  0.88340  0.44288  1.0000
  H   H2497     1.0  0.84127  0.87898  0.37873  1.0000
  H   H2498     1.0  0.86608  0.85597  0.33884  1.0000
  C   C2089     1.0  0.83395  0.73524  0.60971  1.0000
  Fe  Fe281     1.0  0.90158  0.64760  0.65392  1.0000
  H   H2499     1.0  0.85517  0.92140  0.34733  1.0000
  H   H2500     1.0  0.86763  0.81010  0.63373  1.0000
  S   S560      1.0  0.99442  0.90451  0.62247  1.0000
  H   H2501     1.0  0.96380  0.59519  0.54093  1.0000
  C   C2090     1.0  0.99047  0.64038  0.40884  1.0000
  H   H2502     1.0  0.96544  0.62960  0.53428  1.0000
  H   H2503     1.0  0.99510  0.97174  0.57672  1.0000
  C   C2091     1.0  0.95416  0.52171  0.44553  1.0000
  C   C2092     1.0  0.99508  0.57483  0.51592  1.0000
  H   H2504     1.0  0.86533  0.72260  0.66045  1.0000
  H   H2505     1.0  0.86723  0.84687  0.64989  1.0000
  H   H2506     1.0  0.99517  0.59650  0.56693  1.0000
  C   C2093     1.0  0.88832  0.50148  0.50314  1.0000
  H   H2507     1.0  0.87887  0.90666  0.36413  1.0000
  H   H2508     1.0  0.82173  0.88692  0.34056  1.0000
  C   C2094     1.0  0.98263  0.98347  0.40042  1.0000
  H   H2509     1.0  0.91204  0.89306  0.36501  1.0000
  H   H2510     1.0  0.98315  0.96442  0.44750  1.0000
  C   C2095     1.0  0.98151  0.50449  0.48797  1.0000
  H   H2511     1.0  0.95440  0.85107  0.64042  1.0000
  C   C2096     1.0  0.74976  0.86643  0.65285  1.0000
  C   C2097     1.0  0.93800  0.51166  0.45009  1.0000
  C   C2098     1.0  0.88285  0.89313  0.35812  1.0000
  H   H2512     1.0  0.96832  0.51406  0.44479  1.0000
  C   C2099     1.0  0.99571  0.98426  0.58432  1.0000
  H   H2513     1.0  0.83935  0.74822  0.65318  1.0000
  C   C2100     1.0  0.76607  0.83242  0.34372  1.0000
  C   C2101     1.0  0.74992  0.99237  0.65303  1.0000
  H   H2514     1.0  0.95248  0.81688  0.63631  1.0000
  H   H2515     1.0  0.93511  0.99477  0.64159  1.0000
  H   H2516     1.0  0.87294  0.50400  0.50601  1.0000
  C   C2102     1.0  0.84828  0.91110  0.33988  1.0000
  N   N139      1.0  0.84352  0.63056  0.33214  1.0000
  H   H2517     1.0  0.86820  0.61007  0.33482  1.0000
  H   H2518     1.0  0.99111  0.65223  0.36903  1.0000
  H   H2519     1.0  0.76235  0.96634  0.64264  1.0000
  C   C2103     1.0  0.99573  0.51135  0.49726  1.0000
  C   C2104     1.0  0.86997  0.83371  0.65989  1.0000
  H   H2520     1.0  0.99125  0.99557  0.43620  1.0000
  N   N140      1.0  0.88617  0.82068  0.65203  1.0000
  C   C2105     1.0  0.74815  0.83183  0.35400  1.0000
  H   H2521     1.0  0.99281  0.83513  0.39619  1.0000
  C   C2106     1.0  0.83906  0.65166  0.33185  1.0000
  C   C2107     1.0  0.75018  0.97271  0.65112  1.0000
  H   H2522     1.0  0.99625  0.61389  0.45152  1.0000
  H   H2523     1.0  0.74721  0.82674  0.36913  1.0000
  C   C2108     1.0  0.94467  0.99632  0.61160  1.0000
  S   S561      1.0  0.88337  0.66917  0.67143  1.0000
  H   H2524     1.0  0.87279  0.79664  0.66759  1.0000
  H   H2525     1.0  0.80845  0.59639  0.91163  1.0000
  H   H2526     1.0  0.95914  0.62865  0.71179  1.0000
  C   C2109     1.0  0.95110  0.64232  0.71586  1.0000
  C   C2110     1.0  0.79189  0.65757  0.89035  1.0000
  Fe  Fe282     1.0  0.90117  0.65715  0.69589  1.0000
  S   S562      1.0  0.89492  0.65097  0.72877  1.0000
  S   S563      1.0  0.92371  0.67812  0.68720  1.0000
  Fe  Fe283     1.0  0.83531  0.59385  0.82143  1.0000
  S   S564      1.0  0.81408  0.57154  0.82967  1.0000
  S   S565      1.0  0.83588  0.60687  0.78982  1.0000
  Fe  Fe284     1.0  0.84677  0.59068  0.86287  1.0000
  S   S566      1.0  0.82655  0.56855  0.87370  1.0000
  S   S567      1.0  0.86735  0.60215  0.88095  1.0000
  Fe  Fe285     1.0  0.83666  0.55473  0.84653  1.0000
  S   S568      1.0  0.84767  0.52291  0.84787  1.0000
  Fe  Fe286     1.0  0.80536  0.58705  0.85618  1.0000
  S   S569      1.0  0.77383  0.58956  0.86811  1.0000
  S   S570      1.0  0.85852  0.57589  0.83664  1.0000
  S   S571      1.0  0.82496  0.61037  0.84710  1.0000
  H   H2527     1.0  0.90404  0.51004  0.95014  1.0000
  H   H2528     1.0  0.95036  0.61642  0.74599  1.0000
  H   H2529     1.0  0.89179  0.80493  0.67909  1.0000
  H   H2530     1.0  0.97913  0.67016  0.71605  1.0000
  S   S572      1.0  0.86619  0.59701  0.97184  1.0000
  S   S573      1.0  0.92177  0.58197  0.98082  1.0000
  H   H2531     1.0  0.92260  0.55691  0.94626  1.0000
  H   H2532     1.0  0.78124  0.68263  0.87290  1.0000
  C   C2111     1.0  0.86818  0.59628  0.94662  1.0000
  C   C2112     1.0  0.88231  0.60545  0.93475  1.0000
  C   C2113     1.0  0.88208  0.60669  0.91465  1.0000
  C   C2114     1.0  0.86795  0.59854  0.90621  1.0000
  C   C2115     1.0  0.85436  0.58855  0.91806  1.0000
  C   C2116     1.0  0.85428  0.58775  0.93818  1.0000
  H   H2533     1.0  0.89293  0.61229  0.94106  1.0000
  H   H2534     1.0  0.89267  0.61442  0.90560  1.0000
  H   H2535     1.0  0.84375  0.58172  0.91176  1.0000
  H   H2536     1.0  0.84332  0.58059  0.94727  1.0000
  H   H2537     1.0  0.90440  0.57018  0.93316  1.0000
  C   C2117     1.0  0.83596  0.50304  0.84273  1.0000
  H   H2538     1.0  0.81925  0.64262  0.92867  1.0000
  H   H2539     1.0  0.78345  0.61488  0.83324  1.0000
  C   C2118     1.0  0.94447  0.63122  0.74896  1.0000
  Fe  Fe287     1.0  0.89096  0.59025  0.99071  1.0000
  H   H2540     1.0  0.78502  0.63750  0.78331  1.0000
  H   H2541     1.0  0.87398  0.55688  0.88121  1.0000
  C   C2119     1.0  0.75765  0.60871  0.87638  1.0000
  C   C2120     1.0  0.76186  0.62787  0.87342  1.0000
  H   H2542     1.0  0.76888  0.58930  0.82152  1.0000
  H   H2543     1.0  0.77551  0.63139  0.86617  1.0000
  C   C2121     1.0  0.88650  0.53854  0.92597  1.0000
  C   C2122     1.0  0.87872  0.63784  0.74526  1.0000
  C   C2123     1.0  0.86255  0.63060  0.73962  1.0000
  C   C2124     1.0  0.84980  0.62107  0.75340  1.0000
  C   C2125     1.0  0.85310  0.61827  0.77300  1.0000
  C   C2126     1.0  0.86944  0.62525  0.77859  1.0000
  C   C2127     1.0  0.88202  0.63506  0.76487  1.0000
  H   H2544     1.0  0.85969  0.63259  0.72468  1.0000
  H   H2545     1.0  0.83727  0.61578  0.74880  1.0000
  H   H2546     1.0  0.87222  0.62337  0.79355  1.0000
  H   H2547     1.0  0.89436  0.64064  0.76953  1.0000
  H   H2548     1.0  0.89559  0.56173  0.90451  1.0000
  C   C2128     1.0  0.86074  0.52199  0.91556  1.0000
  H   H2549     1.0  0.77558  0.62606  0.91151  1.0000
  H   H2550     1.0  0.77840  0.65771  0.89916  1.0000
  H   H2551     1.0  0.97242  0.68399  0.67093  1.0000
  C   C2129     1.0  0.91276  0.55592  0.93499  1.0000
  H   H2552     1.0  0.78935  0.63577  0.81775  1.0000
  H   H2553     1.0  0.82061  0.61701  0.93439  1.0000
  H   H2554     1.0  0.80744  0.51734  0.84420  1.0000
  H   H2555     1.0  0.75367  0.64866  0.78582  1.0000
  C   C2130     1.0  0.75488  0.62717  0.81079  1.0000
  H   H2556     1.0  0.89873  0.54662  0.96999  1.0000
  H   H2557     1.0  0.92200  0.55347  0.92151  1.0000
  H   H2558     1.0  0.82438  0.60672  0.89305  1.0000
  H   H2559     1.0  0.79934  0.60770  0.88990  1.0000
  H   H2560     1.0  0.75099  0.86012  0.66742  1.0000
  H   H2561     1.0  0.87898  0.55756  0.95733  1.0000
  C   C2131     1.0  0.80737  0.64333  0.89356  1.0000
  N   N141      1.0  0.89994  0.54033  0.94047  1.0000
  H   H2562     1.0  0.92880  0.63196  0.74729  1.0000
  H   H2563     1.0  0.83683  0.63467  0.88261  1.0000
  C   C2132     1.0  0.78737  0.62751  0.92060  1.0000
  C   C2133     1.0  0.98700  0.61735  0.96030  1.0000
  C   C2134     1.0  0.88635  0.55029  0.90825  1.0000
  C   C2135     1.0  0.82110  0.62860  0.92235  1.0000
  H   H2564     1.0  0.78400  0.64083  0.92804  1.0000
  H   H2565     1.0  0.78702  0.61527  0.93198  1.0000
  H   H2566     1.0  0.94866  0.67670  0.72884  1.0000
  H   H2567     1.0  0.98739  0.64776  0.95349  1.0000
  C   C2136     1.0  0.82564  0.65939  0.86593  1.0000
  Fe  Fe288     1.0  0.93879  0.65565  0.66917  1.0000
  C   C2137     1.0  0.97480  0.64583  0.73752  1.0000
  S   S574      1.0  0.96996  0.64330  0.66781  1.0000
  S   S575      1.0  0.91736  0.63427  0.67893  1.0000
  C   C2138     1.0  0.98870  0.65637  0.67283  1.0000
  S   S576      1.0  0.93215  0.52723  0.99187  1.0000
  H   H2568     1.0  0.88045  0.53249  0.96530  1.0000
  H   H2569     1.0  0.79507  0.61366  0.78102  1.0000
  C   C2139     1.0  0.81013  0.67295  0.86300  1.0000
  H   H2570     1.0  0.91956  0.51770  0.92946  1.0000
  C   C2140     1.0  0.80977  0.60880  0.90055  1.0000
  C   C2141     1.0  0.77158  0.59560  0.80642  1.0000
  H   H2571     1.0  0.92830  0.66530  0.73934  1.0000
  N   N142      1.0  0.77348  0.61657  0.80500  1.0000
  H   H2572     1.0  0.97152  0.61772  0.96089  1.0000
  C   C2142     1.0  0.86117  0.53356  0.89824  1.0000
  H   H2573     1.0  0.80197  0.61284  0.81403  1.0000
  H   H2574     1.0  0.81115  0.68415  0.85125  1.0000
  H   H2575     1.0  0.97793  0.62104  0.75909  1.0000
  C   C2143     1.0  0.78135  0.62235  0.78505  1.0000
  N   N143      1.0  0.80626  0.62743  0.90905  1.0000
  H   H2576     1.0  0.93569  0.64140  0.71410  1.0000
  C   C2144     1.0  0.82437  0.64486  0.88100  1.0000
  C   C2145     1.0  0.78764  0.62018  0.81810  1.0000
  H   H2577     1.0  0.83588  0.62711  0.91508  1.0000
  C   C2146     1.0  0.87325  0.52433  0.92923  1.0000
  H   H2578     1.0  0.83874  0.66003  0.85642  1.0000
  C   C2147     1.0  0.94412  0.66500  0.73968  1.0000
  H   H2579     1.0  0.94577  0.63327  0.76425  1.0000
  C   C2148     1.0  0.88903  0.54438  0.95901  1.0000
  H   H2580     1.0  0.92362  0.52328  0.95298  1.0000
  C   C2149     1.0  0.81606  0.50393  0.84228  1.0000
  C   C2150     1.0  0.87388  0.54771  0.89464  1.0000
  H   H2581     1.0  0.78498  0.58747  0.80063  1.0000
  H   H2582     1.0  0.87254  0.51490  0.94238  1.0000
  C   C2151     1.0  0.91226  0.52205  0.94335  1.0000
  H   H2583     1.0  0.94686  0.66880  0.75407  1.0000
  N   N144      1.0  0.95400  0.64596  0.73570  1.0000
  H   H2584     1.0  0.77121  0.62033  0.77443  1.0000
  H   H2585     1.0  0.95602  0.65390  0.70512  1.0000
  C   C2152     1.0  0.98568  0.65957  0.72624  1.0000
  H   H2586     1.0  0.99085  0.58687  0.96722  1.0000
  C   C2153     1.0  0.98489  0.63215  0.75009  1.0000
  H   H2587     1.0  0.85161  0.53162  0.88755  1.0000
  C   C2154     1.0  0.98622  0.67629  0.67324  1.0000
  C   C2155     1.0  0.79332  0.67207  0.87522  1.0000
  H   H2588     1.0  0.75969  0.59241  0.79829  1.0000
  H   H2589     1.0  0.87269  0.83805  0.67407  1.0000
  H   H2590     1.0  0.75002  0.60994  0.83818  1.0000
  C   C2156     1.0  0.74814  0.64259  0.87951  1.0000
  H   H2591     1.0  0.75137  0.65740  0.87689  1.0000
  C   C2157     1.0  0.91680  0.50897  0.99274  1.0000
  C   C2158     1.0  0.88702  0.80259  0.66496  1.0000
  H   H2592     1.0  0.85063  0.51120  0.91839  1.0000
  C   C2159     1.0  0.99598  0.63426  0.95630  1.0000
  C   C2160     1.0  0.74694  0.64350  0.79959  1.0000
