data_image0
_chemical_formula_structural       CFeSFeSFeSFeS3CFeS2FeS2FeHFeS3CFeS2FeSCSC2HNHC3SHC6H4C6H4C4HCH2C2HC4H4CH7CHC2HC6HCH2CHSHC2H2NH3C3H3C2SH2SNC9H16NCH3CH4CHC2HC2H2C2HSH2CH4CHCNC2HCHCHCHCHCH3C2H2CNCH5C3H3CHCHCHCH2CH3CH5CSHCH3C2FeH2CHCH3FeS2C2HFeCH2C3HNHNCSCH2SCHSCHCHCHCHC2HCHCS2HC2HFeH2C2HNC3HSCH4CHCS2FeS2FeSFeSFeCS2CHCH3C2H2C3HC3HCH3NH3CHC2HC2H3C2HN2HC6HC2H2CH2CH2CH3CH2CH2C2H3C3HCHCHCH5CHC2HSC2H4C4H2CHFeSFeHSFeSHFeS2FeSFeS3CH5SHC6H5CH2CHC6H3C2H2CH2C2FeHC8H4NC7HFeH9CSH2CHCHCHCHNC9H18SC3HC2S2CHSCH2CHC4SNFeC2H2S2HC2H3CHCH2SH2CNCHCH3CH3CH4CH2C6H2C2HCH3C2HCH2NH4CHCH2C3FeS2FeS2FeSFeS2FeS2FeS2Fe2HS2H2FeS2FeS2FeSFeCS2HCHC2H2C8H3C6H4C6H5C3H2CHC4H5CHC2H2CH3C2H2C2H2CHCHNH3CHC4HCHNC9H4NHNCH6SC4H12CH3C2H2CH2CH2CHC3HCH2CHFeS2FeS2Fe2S3FeS2FeS2Fe2CS2FeSCFeS2FeS6FeCFeSC2H2CHFeH2CSHC7H4C6H4CSCHFeC2FeHC6H3C6H4C6H4NC6HCSH11SHSCHC2H2C2H2CHSCH2C2H6NC9H14NC9H20CH2SH4NC2HCHCH2C2SH3CH2CHC2HSC2HC3HCH2CH2SHC2H2C2H3NC2H2CH3CNHNHCSFeSFeSHFe2S3FeSHFeS2FeSFeHS2FeS3HFeS2FeS2FeS2FeS2FeSFeS3C6H4C6H4C6H4C6H6CH2C7H4C6H5NC9H14NC9H12NC3H7CSCH4CHSHCFeCH6CHCH2CH5CHFeC4SHCHCH2C3NCHFeHCNSCH3C5H5C2HNCH5CHCSC2HCHNHCH2CHC2HC2HC2H2CH4C4H4C3H4SH5NHCHSC3HC4H2SH2CFeS2FeSFeSFeSFeSHFeS2FeSFeHS2FeS7FeS2FeS2FeSFeS3C6H4C6H4C6H4SC2H2SCHC6H4C6H4C6H4C3SHC3H2CHFeHCH2CH4CH3SHCH4C2NC6H9CNC9H15C5FeC3HCHCHC2H4CH2CH7CHCH2CHC3HFeNHCH3CN2H2CH2CNH10SHCH4CH5CHC2FeSCHSFeSFeSC2SFeSHFeSFeS2CFeS2FeS2Fe2S3HC2FeHSC7H3C2H5CHC6H4C6H2S2C6H4C6H4CH2C3H4SCHNC2HC7HCHCH2CH7SCH5C2H10C3HFeHSH3NCHNC4H2CH14SHNC9H10C3HNCH4CHFeHCHSFe2CH3SFeH2C4SH4CHSCHSHCHCHNH4CHFeS2FeSCFeHFeS3FeSFeS2FeSFeS3FeH2FeS2FeCFeCS2H3C6H4C3H5C8H4CH2CHCSC2HC3HCHC2H2CNH2CH2NCH5CH5C2H2C2H3CS2HCNCH3NH2C3HCH4CHC2H4SHNHSCH2C3HC2HC2H3C2H5CHCH2CH2CHC4HCHNH2C7H2CSH2SH2C6H4CH2NSHC3H2C3H3CH2CFeSHFeSFeSFeS3FeSCFeS2FeSFeS3H2SFeSH2CH2C3H3C6H4C6H4C3H2CH2C3SC4H6SH3CHCH3CHCNH2CHNH2SH3NC9H15CSH4SCHCNC9H6C2HC6H2C4H7CH2CHNH3CSH3CFeC2H4CH2C2SHFeSFeS2FeSFeHS2NC2H2C3H2CH3CH2CH3CHC2H2C7H3NHNH3C2HNCH3CHCHSHCSH3CH5CHC2HC2H2CHCH3SH2C2HCHC4H2CHC4H2CHFeSCHSFeHFeS3CHCH3C3HCH2CH2CH4CH3CSHC3H3C3HCHCHC2HCN3H3CHC2HC5H2CHCHC2HCNHCFeCHCHCH2C2H4C2H2CH3CH6C3H2CFeS2FeS2FeHFeS2FeS2FeS2FeCFeS3CHS2C7H5C2HCH3NC6H5CHCHCHCHC5SC2HCHC3HC2HCHC2HC2HCHCH5FeC3H7CHNCH2SCHC2H3NCNCHC3H2CHCH4C2HSH4CHCH5CSH3CHC2H6CHCHCH2CH2C
_chemical_formula_sum              "C1080 Fe144 S288 H1296 N72"
_cell_length_a       51.1384
_cell_length_b       50.531
_cell_length_c       74.9154
_cell_angle_alpha    85.7168
_cell_angle_beta     95.1941
_cell_angle_gamma    113.594

_space_group_name_H-M_alt    "P 1"
_space_group_IT_number       1

loop_
  _space_group_symop_operation_xyz
  'x, y, z'

loop_
  _atom_site_type_symbol
  _atom_site_label
  _atom_site_symmetry_multiplicity
  _atom_site_fract_x
  _atom_site_fract_y
  _atom_site_fract_z
  _atom_site_occupancy
  C   C1        1.0  0.26007  0.16116  0.23032  1.0000
  Fe  Fe1       1.0  0.08761  0.04265  0.21718  1.0000
  S   S1        1.0  0.08240  0.05838  0.18888  1.0000
  Fe  Fe2       1.0  0.14798  0.09031  0.22383  1.0000
  S   S2        1.0  0.14738  0.11014  0.19598  1.0000
  Fe  Fe3       1.0  0.10168  0.10257  0.19986  1.0000
  S   S3        1.0  0.08716  0.13781  0.18941  1.0000
  Fe  Fe4       1.0  0.12814  0.06454  0.18696  1.0000
  S   S4        1.0  0.14009  0.04989  0.16226  1.0000
  S   S5        1.0  0.10372  0.08685  0.22848  1.0000
  S   S6        1.0  0.13185  0.04469  0.21456  1.0000
  C   C2        1.0  0.23089  0.14247  0.23020  1.0000
  Fe  Fe5       1.0  0.24754  0.11894  0.05451  1.0000
  S   S7        1.0  0.23414  0.15525  0.05738  1.0000
  S   S8        1.0  0.29350  0.12386  0.06217  1.0000
  Fe  Fe6       1.0  0.18648  0.07768  0.04201  1.0000
  S   S9        1.0  0.16899  0.11180  0.04451  1.0000
  S   S10       1.0  0.15210  0.03372  0.03413  1.0000
  Fe  Fe7       1.0  0.20822  0.14200  0.03128  1.0000
  H   H1        1.0  0.45766  0.31736  0.15681  1.0000
  Fe  Fe8       1.0  0.19618  0.12191  0.07039  1.0000
  S   S11       1.0  0.18504  0.13641  0.09548  1.0000
  S   S12       1.0  0.22441  0.10761  0.02711  1.0000
  S   S13       1.0  0.21095  0.08590  0.06916  1.0000
  C   C3        1.0  0.99407  0.10720  0.12643  1.0000
  Fe  Fe9       1.0  0.43826  0.24110  0.10715  1.0000
  S   S14       1.0  0.44899  0.20382  0.11787  1.0000
  S   S15       1.0  0.39724  0.23729  0.09047  1.0000
  Fe  Fe10      1.0  0.45606  0.22391  0.14459  1.0000
  S   S16       1.0  0.43494  0.19378  0.16764  1.0000
  C   C4        1.0  0.01836  0.13589  0.23664  1.0000
  S   S17       1.0  0.44328  0.25993  0.13416  1.0000
  C   C5        1.0  0.33200  0.21435  0.02447  1.0000
  C   C6        1.0  0.46593  0.33318  0.16761  1.0000
  H   H2        1.0  0.06514  0.06776  0.14675  1.0000
  N   N1        1.0  0.47360  0.32046  0.18479  1.0000
  H   H3        1.0  0.28736  0.16689  0.03540  1.0000
  C   C7        1.0  0.08155  0.09028  0.14755  1.0000
  C   C8        1.0  0.08699  0.09637  0.11589  1.0000
  C   C9        1.0  0.15235  0.00824  0.01912  1.0000
  S   S18       1.0  0.31396  0.19072  0.24571  1.0000
  H   H4        1.0  0.19724  0.02848  0.01481  1.0000
  C   C10       1.0  0.36822  0.20502  0.08374  1.0000
  C   C11       1.0  0.34182  0.20624  0.07776  1.0000
  C   C12       1.0  0.31874  0.18165  0.07122  1.0000
  C   C13       1.0  0.32178  0.15542  0.07057  1.0000
  C   C14       1.0  0.34808  0.15411  0.07672  1.0000
  C   C15       1.0  0.37114  0.17870  0.08334  1.0000
  H   H5        1.0  0.33935  0.22650  0.07795  1.0000
  H   H6        1.0  0.29875  0.18317  0.06658  1.0000
  H   H7        1.0  0.35071  0.13395  0.07630  1.0000
  H   H8        1.0  0.39135  0.17742  0.08778  1.0000
  C   C16       1.0  0.15334  0.07430  0.14396  1.0000
  C   C17       1.0  0.15634  0.06371  0.12780  1.0000
  C   C18       1.0  0.16613  0.08252  0.11280  1.0000
  C   C19       1.0  0.17305  0.11206  0.11394  1.0000
  C   C20       1.0  0.17044  0.12273  0.13015  1.0000
  C   C21       1.0  0.16064  0.10393  0.14513  1.0000
  H   H9        1.0  0.15077  0.04079  0.12683  1.0000
  H   H10       1.0  0.16803  0.07409  0.10034  1.0000
  H   H11       1.0  0.17600  0.14563  0.13112  1.0000
  H   H12       1.0  0.15869  0.11236  0.15755  1.0000
  C   C22       1.0  0.05242  0.13707  0.18996  1.0000
  C   C23       1.0  0.04905  0.16296  0.18575  1.0000
  C   C24       1.0  0.02209  0.16396  0.18536  1.0000
  C   C25       1.0  0.40370  0.25445  0.18905  1.0000
  H   H13       1.0  0.99593  0.01443  0.21679  1.0000
  C   C26       1.0  0.02828  0.11179  0.19346  1.0000
  H   H14       1.0  0.06745  0.18250  0.18278  1.0000
  H   H15       1.0  0.01996  0.18427  0.18210  1.0000
  C   C27       1.0  0.44751  0.22754  0.22418  1.0000
  C   C28       1.0  0.29674  0.16506  0.02296  1.0000
  H   H16       1.0  0.17230  0.35994  0.01270  1.0000
  C   C29       1.0  0.44010  0.20737  0.18923  1.0000
  C   C30       1.0  0.41914  0.19375  0.20153  1.0000
  C   C31       1.0  0.42267  0.20400  0.21888  1.0000
  C   C32       1.0  0.35668  0.20901  0.03046  1.0000
  H   H17       1.0  0.47528  0.17585  0.14897  1.0000
  H   H18       1.0  0.39994  0.17542  0.19757  1.0000
  H   H19       1.0  0.40614  0.19373  0.22810  1.0000
  H   H20       1.0  0.21764  0.13862  0.21778  1.0000
  C   C33       1.0  0.23084  0.06611  0.23957  1.0000
  H   H21       1.0  0.02598  0.04807  0.21776  1.0000
  H   H22       1.0  0.12311  0.13914  0.13411  1.0000
  H   H23       1.0  0.06133  0.13844  0.23673  1.0000
  H   H24       1.0  0.29844  0.11670  0.24042  1.0000
  H   H25       1.0  0.10919  0.09720  0.11784  1.0000
  H   H26       1.0  0.09926  0.14725  0.14627  1.0000
  H   H27       1.0  0.04867  0.98950  0.19463  1.0000
  C   C34       1.0  0.10088  0.13808  0.13356  1.0000
  H   H28       1.0  0.99019  0.23350  0.01545  1.0000
  C   C35       1.0  0.03046  0.09546  0.11447  1.0000
  C   C36       1.0  0.33108  0.24041  0.02978  1.0000
  H   H29       1.0  0.03581  0.08582  0.10372  1.0000
  C   C37       1.0  0.37911  0.22863  0.04090  1.0000
  C   C38       1.0  0.03888  0.12421  0.23707  1.0000
  C   C39       1.0  0.00129  0.07506  0.23658  1.0000
  C   C40       1.0  0.39784  0.25528  0.20674  1.0000
  C   C41       1.0  0.04040  0.11985  0.14244  1.0000
  C   C42       1.0  0.23413  0.20642  0.24670  1.0000
  H   H30       1.0  0.39737  0.22374  0.04583  1.0000
  C   C43       1.0  0.05016  0.10792  0.12920  1.0000
  H   H31       1.0  0.38975  0.23672  0.18089  1.0000
  H   H32       1.0  0.26911  0.17162  0.21788  1.0000
  C   C44       1.0  0.00286  0.09522  0.11318  1.0000
  H   H33       1.0  0.27951  0.14865  0.01473  1.0000
  S   S19       1.0  0.21147  0.17851  0.01084  1.0000
  H   H34       1.0  0.47623  0.35584  0.20025  1.0000
  C   C45       1.0  0.44110  0.29860  0.21059  1.0000
  C   C46       1.0  0.35366  0.25985  0.04027  1.0000
  H   H35       1.0  0.07873  0.09934  0.15996  1.0000
  H   H36       1.0  0.10283  0.08892  0.14946  1.0000
  N   N2        1.0  0.07933  0.10809  0.13132  1.0000
  H   H37       1.0  0.01462  0.01644  0.17205  1.0000
  H   H38       1.0  0.31294  0.15589  0.02707  1.0000
  H   H39       1.0  0.98233  0.09350  0.19608  1.0000
  C   C47       1.0  0.01282  0.11950  0.14104  1.0000
  C   C48       1.0  0.46500  0.23085  0.19448  1.0000
  C   C49       1.0  0.03056  0.09428  0.23706  1.0000
  H   H40       1.0  0.41263  0.27706  0.23148  1.0000
  H   H41       1.0  0.47386  0.11557  0.15078  1.0000
  H   H42       1.0  0.05411  0.12957  0.15404  1.0000
  C   C50       1.0  0.99793  0.13911  0.18917  1.0000
  C   C51       1.0  0.17729  0.01046  0.01166  1.0000
  S   S20       1.0  0.45243  0.24139  0.24574  1.0000
  H   H43       1.0  0.07285  0.07321  0.11410  1.0000
  H   H44       1.0  0.35243  0.27938  0.04445  1.0000
  S   S21       1.0  0.05146  0.00706  0.23113  1.0000
  N   N3        1.0  0.26678  0.14109  0.12338  1.0000
  C   C52       1.0  0.24940  0.11038  0.12831  1.0000
  C   C53       1.0  0.25286  0.15933  0.12935  1.0000
  C   C54       1.0  0.26628  0.14384  0.10347  1.0000
  C   C55       1.0  0.29597  0.15007  0.13223  1.0000
  C   C56       1.0  0.32111  0.16184  0.12257  1.0000
  C   C57       1.0  0.29994  0.14799  0.15122  1.0000
  C   C58       1.0  0.34837  0.17098  0.13140  1.0000
  C   C59       1.0  0.32731  0.15705  0.15993  1.0000
  C   C60       1.0  0.35148  0.16854  0.15003  1.0000
  H   H45       1.0  0.22773  0.10267  0.12117  1.0000
  H   H46       1.0  0.25989  0.09613  0.12476  1.0000
  H   H47       1.0  0.24571  0.10669  0.14284  1.0000
  H   H48       1.0  0.24940  0.15609  0.14391  1.0000
  H   H49       1.0  0.23143  0.15433  0.12228  1.0000
  H   H50       1.0  0.26593  0.18268  0.12655  1.0000
  H   H51       1.0  0.27753  0.16667  0.09862  1.0000
  H   H52       1.0  0.27608  0.13031  0.09798  1.0000
  H   H53       1.0  0.24402  0.13657  0.09726  1.0000
  H   H54       1.0  0.32040  0.16433  0.10815  1.0000
  H   H55       1.0  0.28186  0.13949  0.15948  1.0000
  H   H56       1.0  0.36725  0.18013  0.12371  1.0000
  H   H57       1.0  0.32987  0.15526  0.17445  1.0000
  H   H58       1.0  0.37271  0.17562  0.15678  1.0000
  H   H59       1.0  0.39473  0.26868  0.05434  1.0000
  H   H60       1.0  0.09857  0.15272  0.12223  1.0000
  N   N4        1.0  0.30881  0.19343  0.01312  1.0000
  C   C61       1.0  0.42820  0.27565  0.18204  1.0000
  H   H61       1.0  0.45500  0.31433  0.21989  1.0000
  H   H62       1.0  0.02478  0.15912  0.23601  1.0000
  H   H63       1.0  0.00601  0.12896  0.15133  1.0000
  C   C62       1.0  0.21892  0.12887  0.24620  1.0000
  H   H64       1.0  0.27410  0.20437  0.01959  1.0000
  H   H65       1.0  0.08611  0.10905  0.10320  1.0000
  H   H66       1.0  0.25408  0.10087  0.22150  1.0000
  H   H67       1.0  0.03083  0.09171  0.19646  1.0000
  C   C63       1.0  0.37762  0.25401  0.04577  1.0000
  H   H68       1.0  0.21083  0.06027  0.23143  1.0000
  C   C64       1.0  0.25524  0.08902  0.23401  1.0000
  C   C65       1.0  0.41654  0.27726  0.21748  1.0000
  H   H69       1.0  0.99270  0.04646  0.20672  1.0000
  C   C66       1.0  0.98947  0.11767  0.23644  1.0000
  C   C67       1.0  0.44753  0.29860  0.19250  1.0000
  H   H70       1.0  0.43228  0.27346  0.16848  1.0000
  H   H71       1.0  0.37936  0.23829  0.21236  1.0000
  C   C68       1.0  0.28475  0.20237  0.00771  1.0000
  C   C69       1.0  0.00094  0.11280  0.19316  1.0000
  H   H72       1.0  0.04723  0.08635  0.23682  1.0000
  S   S22       1.0  0.18228  0.10549  0.24697  1.0000
  H   H73       1.0  0.22834  0.20324  0.23249  1.0000
  H   H74       1.0  0.31305  0.24617  0.02619  1.0000
  C   C70       1.0  0.46881  0.24066  0.21201  1.0000
  H   H75       1.0  0.47016  0.13439  0.16900  1.0000
  H   H76       1.0  0.98816  0.08579  0.10179  1.0000
  H   H77       1.0  0.44947  0.34182  0.16933  1.0000
  H   H78       1.0  0.01333  0.06491  0.16620  1.0000
  C   C71       1.0  0.00235  0.03796  0.21845  1.0000
  H   H79       1.0  0.35864  0.18934  0.02742  1.0000
  C   C72       1.0  0.28068  0.09770  0.24490  1.0000
  N   N5        1.0  0.99315  0.04358  0.23546  1.0000
  C   C73       1.0  0.99372  0.04611  0.16825  1.0000
  C   C74       1.0  0.99441  0.01889  0.17153  1.0000
  H   H80       1.0  0.15409  0.13436  0.00440  1.0000
  C   C75       1.0  0.27755  0.16646  0.24637  1.0000
  H   H81       1.0  0.27614  0.23601  0.24212  1.0000
  C   C76       1.0  0.98086  0.08766  0.23644  1.0000
  H   H82       1.0  0.16214  0.32159  0.01653  1.0000
  C   C77       1.0  0.17522  0.34082  0.00823  1.0000
  H   H83       1.0  0.19797  0.34428  0.01151  1.0000
  C   C78       1.0  0.17652  0.98892  0.00043  1.0000
  H   H84       1.0  0.29187  0.22319  0.99971  1.0000
  C   C79       1.0  0.46625  0.14345  0.31817  1.0000
  H   H85       1.0  0.43378  0.14644  0.35891  1.0000
  H   H86       1.0  0.36233  0.44504  0.35314  1.0000
  H   H87       1.0  0.47300  0.45277  0.44028  1.0000
  C   C80       1.0  0.31363  0.12212  0.27984  1.0000
  C   C81       1.0  0.43844  0.34420  0.33969  1.0000
  H   H88       1.0  0.31022  0.27764  0.25466  1.0000
  H   H89       1.0  0.44405  0.35281  0.35294  1.0000
  C   C82       1.0  0.43686  0.21261  0.34507  1.0000
  N   N6        1.0  0.46881  0.47982  0.45998  1.0000
  C   C83       1.0  0.40565  0.47749  0.35014  1.0000
  H   H90       1.0  0.40679  0.47232  0.40692  1.0000
  H   H91       1.0  0.34653  0.47496  0.36997  1.0000
  H   H92       1.0  0.29285  0.07287  0.29858  1.0000
  H   H93       1.0  0.44351  0.16578  0.30214  1.0000
  H   H94       1.0  0.41788  0.29993  0.34953  1.0000
  C   C84       1.0  0.28265  0.08305  0.26158  1.0000
  C   C85       1.0  0.23194  0.05134  0.25588  1.0000
  C   C86       1.0  0.40941  0.43083  0.35147  1.0000
  H   H95       1.0  0.31958  0.28548  0.29403  1.0000
  H   H96       1.0  0.38623  0.41689  0.35133  1.0000
  H   H97       1.0  0.42409  0.22252  0.33710  1.0000
  C   C87       1.0  0.43451  0.48572  0.48055  1.0000
  H   H98       1.0  0.44197  0.36573  0.29562  1.0000
  C   C88       1.0  0.00732  0.03286  0.25076  1.0000
  H   H99       1.0  0.33296  0.13060  0.28921  1.0000
  C   C89       1.0  0.43715  0.35136  0.30742  1.0000
  H   H100      1.0  0.45397  0.13635  0.38701  1.0000
  C   C90       1.0  0.31861  0.26353  0.26332  1.0000
  H   H101      1.0  0.19343  0.17502  0.25449  1.0000
  H   H102      1.0  0.35449  0.10376  0.27209  1.0000
  C   C91       1.0  0.42303  0.32124  0.30545  1.0000
  H   H103      1.0  0.44578  0.47172  0.38969  1.0000
  H   H104      1.0  0.33114  0.07654  0.25711  1.0000
  H   H105      1.0  0.21268  0.03382  0.26023  1.0000
  C   C92       1.0  0.40022  0.45219  0.32299  1.0000
  H   H106      1.0  0.28597  0.26064  0.30129  1.0000
  H   H107      1.0  0.31253  0.21280  0.28094  1.0000
  H   H108      1.0  0.20655  0.18076  0.28693  1.0000
  H   H109      1.0  0.40725  0.43801  0.31564  1.0000
  H   H110      1.0  0.41746  0.43485  0.36574  1.0000
  C   C93       1.0  0.44166  0.14788  0.31152  1.0000
  S   S23       1.0  0.35508  0.19269  0.29625  1.0000
  H   H111      1.0  0.33004  0.08230  0.29740  1.0000
  C   C94       1.0  0.33434  0.09710  0.26323  1.0000
  H   H112      1.0  0.37670  0.44093  0.32387  1.0000
  H   H113      1.0  0.33532  0.24394  0.29338  1.0000
  H   H114      1.0  0.32173  0.24806  0.25475  1.0000
  C   C95       1.0  0.24929  0.21263  0.28334  1.0000
  C   C96       1.0  0.42656  0.18267  0.34761  1.0000
  Fe  Fe11      1.0  0.39196  0.23633  0.29613  1.0000
  H   H115      1.0  0.41702  0.31264  0.29221  1.0000
  H   H116      1.0  0.40586  0.16933  0.34139  1.0000
  C   C97       1.0  0.44295  0.16975  0.35781  1.0000
  H   H117      1.0  0.29504  0.12061  0.28714  1.0000
  C   C98       1.0  0.46635  0.46281  0.49247  1.0000
  H   H118      1.0  0.40427  0.47246  0.31465  1.0000
  H   H119      1.0  0.30143  0.22079  0.30115  1.0000
  H   H120      1.0  0.30523  0.05210  0.28527  1.0000
  Fe  Fe12      1.0  0.38798  0.17494  0.29241  1.0000
  S   S24       1.0  0.42500  0.21796  0.29428  1.0000
  S   S25       1.0  0.38196  0.17729  0.26233  1.0000
  C   C99       1.0  0.44492  0.36302  0.32454  1.0000
  C   C100      1.0  0.26551  0.15313  0.26239  1.0000
  H   H121      1.0  0.45383  0.45643  0.33212  1.0000
  Fe  Fe13      1.0  0.41635  0.22194  0.26434  1.0000
  C   C101      1.0  0.41478  0.12888  0.31677  1.0000
  H   H122      1.0  0.44182  0.43626  0.45300  1.0000
  H   H123      1.0  0.00110  0.00908  0.25053  1.0000
  C   C102      1.0  0.22191  0.19362  0.27737  1.0000
  C   C103      1.0  0.46425  0.12026  0.33029  1.0000
  C   C104      1.0  0.27012  0.22897  0.27108  1.0000
  H   H124      1.0  0.25654  0.04734  0.27933  1.0000
  N   N7        1.0  0.41553  0.45854  0.34093  1.0000
  H   H125      1.0  0.25419  0.21398  0.29766  1.0000
  N   N8        1.0  0.29931  0.24813  0.27780  1.0000
  C   C105      1.0  0.37731  0.46680  0.35577  1.0000
  S   S26       1.0  0.38606  0.24368  0.26636  1.0000
  C   C106      1.0  0.41576  0.30251  0.32061  1.0000
  H   H126      1.0  0.46371  0.09023  0.49072  1.0000
  H   H127      1.0  0.45939  0.47748  0.35139  1.0000
  S   S27       1.0  0.39461  0.26489  0.31892  1.0000
  C   C107      1.0  0.23640  0.13430  0.26226  1.0000
  H   H128      1.0  0.03101  0.04247  0.25051  1.0000
  S   S28       1.0  0.47808  0.07172  0.38693  1.0000
  C   C108      1.0  0.21437  0.19048  0.25909  1.0000
  H   H129      1.0  0.31642  0.13861  0.26867  1.0000
  C   C109      1.0  0.26168  0.22530  0.25249  1.0000
  H   H130      1.0  0.22722  0.12409  0.27471  1.0000
  C   C110      1.0  0.42358  0.31418  0.33771  1.0000
  H   H131      1.0  0.28699  0.28325  0.28148  1.0000
  C   C111      1.0  0.42293  0.48133  0.49728  1.0000
  H   H132      1.0  0.39196  0.09090  0.33307  1.0000
  C   C112      1.0  0.29784  0.27030  0.28912  1.0000
  C   C113      1.0  0.31269  0.23070  0.28881  1.0000
  H   H133      1.0  0.41961  0.41750  0.34611  1.0000
  C   C114      1.0  0.46484  0.45113  0.45380  1.0000
  H   H134      1.0  0.43564  0.08345  0.34508  1.0000
  C   C115      1.0  0.41272  0.10568  0.32895  1.0000
  S   S29       1.0  0.46037  0.40121  0.32638  1.0000
  S   S30       1.0  0.38344  0.13350  0.30829  1.0000
  H   H135      1.0  0.46869  0.13022  0.36737  1.0000
  C   C116      1.0  0.43741  0.10147  0.33581  1.0000
  C   C117      1.0  0.47390  0.14207  0.37999  1.0000
  H   H136      1.0  0.27839  0.15773  0.27491  1.0000
  Fe  Fe14      1.0  0.35184  0.19846  0.26621  1.0000
  H   H137      1.0  0.00973  0.47359  0.46861  1.0000
  H   H138      1.0  0.47646  0.44045  0.46286  1.0000
  C   C118      1.0  0.25740  0.05949  0.26678  1.0000
  C   C119      1.0  0.47034  0.18668  0.36589  1.0000
  H   H139      1.0  0.00178  0.03773  0.26380  1.0000
  N   N9        1.0  0.30938  0.09365  0.27332  1.0000
  C   C120      1.0  0.44671  0.47159  0.33835  1.0000
  C   C121      1.0  0.30916  0.07422  0.28927  1.0000
  C   C122      1.0  0.45649  0.47629  0.47760  1.0000
  H   H140      1.0  0.43233  0.48033  0.44321  1.0000
  S   S31       1.0  0.47296  0.43301  0.37549  1.0000
  C   C123      1.0  0.46376  0.22979  0.35257  1.0000
  H   H141      1.0  0.33860  0.11419  0.25235  1.0000
  H   H142      1.0  0.02551  0.47438  0.41581  1.0000
  H   H143      1.0  0.34038  0.27765  0.26884  1.0000
  H   H144      1.0  0.47176  0.25308  0.35034  1.0000
  C   C124      1.0  0.36791  0.48382  0.36523  1.0000
  H   H145      1.0  0.47872  0.18479  0.40163  1.0000
  C   C125      1.0  0.48038  0.21711  0.36275  1.0000
  S   S32       1.0  0.45824  0.98840  0.39125  1.0000
  S   S33       1.0  0.16675  0.32685  0.73442  1.0000
  Fe  Fe15      1.0  0.15437  0.41355  0.69882  1.0000
  S   S34       1.0  0.18656  0.39389  0.69702  1.0000
  S   S35       1.0  0.12900  0.41756  0.67315  1.0000
  Fe  Fe16      1.0  0.17094  0.42604  0.73830  1.0000
  S   S36       1.0  0.20491  0.40857  0.73922  1.0000
  Fe  Fe17      1.0  0.21643  0.43212  0.71238  1.0000
  S   S37       1.0  0.26212  0.46264  0.70680  1.0000
  Fe  Fe18      1.0  0.17170  0.37202  0.72389  1.0000
  C   C126      1.0  0.09587  0.15628  0.71918  1.0000
  S   S38       1.0  0.18488  0.45276  0.71295  1.0000
  S   S39       1.0  0.13704  0.38843  0.72423  1.0000
  C   C127      1.0  0.28329  0.45954  0.65583  1.0000
  H   H146      1.0  0.04141  0.37455  0.65677  1.0000
  C   C128      1.0  0.20329  0.48532  0.67119  1.0000
  H   H147      1.0  0.44627  0.05147  0.55517  1.0000
  H   H148      1.0  0.17205  0.27175  0.71969  1.0000
  H   H149      1.0  0.05357  0.42358  0.70320  1.0000
  C   C129      1.0  0.13466  0.30013  0.74236  1.0000
  C   C130      1.0  0.14160  0.22846  0.72573  1.0000
  H   H150      1.0  0.41463  0.48020  0.63361  1.0000
  H   H151      1.0  0.13824  0.28497  0.69937  1.0000
  C   C131      1.0  0.47629  0.03102  0.59337  1.0000
  C   C132      1.0  0.36919  0.44164  0.65264  1.0000
  C   C133      1.0  0.00677  0.45237  0.63854  1.0000
  H   H152      1.0  0.06365  0.38813  0.68716  1.0000
  C   C134      1.0  0.26804  0.45324  0.67147  1.0000
  C   C135      1.0  0.36379  0.44481  0.62017  1.0000
  C   C136      1.0  0.45451  0.45842  0.50909  1.0000
  H   H153      1.0  0.02878  0.46837  0.64192  1.0000
  C   C137      1.0  0.01196  0.42279  0.66436  1.0000
  H   H154      1.0  0.24766  0.43502  0.67207  1.0000
  H   H155      1.0  0.33715  0.45150  0.69615  1.0000
  H   H156      1.0  0.19791  0.45934  0.63001  1.0000
  N   N10       1.0  0.10256  0.17883  0.73242  1.0000
  H   H157      1.0  0.32592  0.40934  0.64711  1.0000
  H   H158      1.0  0.27444  0.44609  0.64440  1.0000
  H   H159      1.0  0.38830  0.40126  0.64697  1.0000
  C   C138      1.0  0.45651  0.02941  0.57885  1.0000
  H   H160      1.0  0.05773  0.17214  0.73186  1.0000
  C   C139      1.0  0.45373  0.47396  0.57890  1.0000
  C   C140      1.0  0.10182  0.44941  0.65485  1.0000
  H   H161      1.0  0.00938  0.39598  0.64216  1.0000
  C   C141      1.0  0.11494  0.45941  0.68623  1.0000
  C   C142      1.0  0.11459  0.44411  0.67136  1.0000
  H   H162      1.0  0.08861  0.24947  0.69351  1.0000
  H   H163      1.0  0.38765  0.48142  0.69053  1.0000
  H   H164      1.0  0.12461  0.45537  0.69902  1.0000
  C   C143      1.0  0.34033  0.42474  0.65644  1.0000
  C   C144      1.0  0.37728  0.40763  0.63496  1.0000
  H   H165      1.0  0.10639  0.31779  0.72815  1.0000
  N   N11       1.0  0.99349  0.43653  0.65501  1.0000
  N   N12       1.0  0.38033  0.43798  0.63581  1.0000
  H   H166      1.0  0.46227  0.44788  0.52023  1.0000
  C   C145      1.0  0.15051  0.25577  0.71699  1.0000
  C   C146      1.0  0.08275  0.27768  0.74261  1.0000
  C   C147      1.0  0.46216  0.05262  0.56598  1.0000
  C   C148      1.0  0.47944  0.47044  0.57765  1.0000
  C   C149      1.0  0.11300  0.20775  0.72311  1.0000
  C   C150      1.0  0.09438  0.21588  0.71084  1.0000
  H   H167      1.0  0.20543  0.99064  0.70742  1.0000
  C   C151      1.0  0.03629  0.38961  0.66387  1.0000
  C   C152      1.0  0.38616  0.46192  0.66558  1.0000
  H   H168      1.0  0.43648  0.01071  0.57788  1.0000
  H   H169      1.0  0.42497  0.45270  0.64508  1.0000
  C   C153      1.0  0.04306  0.41714  0.69006  1.0000
  H   H170      1.0  0.45290  0.04116  0.50628  1.0000
  H   H171      1.0  0.02262  0.44618  0.68940  1.0000
  C   C154      1.0  0.10345  0.24338  0.70235  1.0000
  H   H172      1.0  0.08825  0.13421  0.72581  1.0000
  H   H173      1.0  0.07876  0.15642  0.70894  1.0000
  C   C155      1.0  0.27961  0.47013  0.68647  1.0000
  H   H174      1.0  0.37193  0.44308  0.60720  1.0000
  H   H175      1.0  0.11508  0.15950  0.71195  1.0000
  H   H176      1.0  0.17233  0.44580  0.64685  1.0000
  C   C156      1.0  0.13142  0.26333  0.70550  1.0000
  H   H177      1.0  0.40823  0.47590  0.66388  1.0000
  H   H178      1.0  0.14322  0.17632  0.74052  1.0000
  C   C157      1.0  0.08899  0.46953  0.65328  1.0000
  H   H179      1.0  0.36499  0.46720  0.62064  1.0000
  H   H180      1.0  0.42340  0.46362  0.52430  1.0000
  C   C158      1.0  0.01808  0.40211  0.65563  1.0000
  C   C159      1.0  0.41098  0.45692  0.63398  1.0000
  H   H181      1.0  0.15739  0.22446  0.73478  1.0000
  H   H182      1.0  0.10160  0.43772  0.64328  1.0000
  H   H183      1.0  0.38661  0.40439  0.62284  1.0000
  C   C160      1.0  0.32916  0.42804  0.67209  1.0000
  C   C161      1.0  0.10784  0.30044  0.73700  1.0000
  C   C162      1.0  0.34623  0.44835  0.68434  1.0000
  H   H184      1.0  0.00832  0.43793  0.62858  1.0000
  C   C163      1.0  0.08864  0.48422  0.66830  1.0000
  H   H185      1.0  0.41880  0.45356  0.62127  1.0000
  C   C164      1.0  0.43274  0.46749  0.51146  1.0000
  H   H186      1.0  0.21762  0.47493  0.67754  1.0000
  C   C165      1.0  0.31019  0.48275  0.65501  1.0000
  H   H187      1.0  0.07249  0.20121  0.70794  1.0000
  H   H188      1.0  0.06210  0.27786  0.73815  1.0000
  H   H189      1.0  0.35454  0.39211  0.63431  1.0000
  H   H190      1.0  0.30684  0.41553  0.67447  1.0000
  H   H191      1.0  0.34070  0.43038  0.61974  1.0000
  C   C166      1.0  0.19531  0.45898  0.64460  1.0000
  H   H192      1.0  0.07916  0.47337  0.64052  1.0000
  C   C167      1.0  0.04876  0.39712  0.68105  1.0000
  C   C168      1.0  0.98905  0.45756  0.66596  1.0000
  H   H193      1.0  0.99434  0.46427  0.63150  1.0000
  S   S40       1.0  0.46956  0.00349  0.61083  1.0000
  C   C169      1.0  0.37465  0.46523  0.68110  1.0000
  C   C170      1.0  0.02508  0.42999  0.68190  1.0000
  H   H194      1.0  0.20792  0.44719  0.65153  1.0000
  H   H195      1.0  0.18134  0.47133  0.67512  1.0000
  H   H196      1.0  0.47237  0.06136  0.52539  1.0000
  H   H197      1.0  0.00963  0.47594  0.66947  1.0000
  C   C171      1.0  0.07614  0.17369  0.74140  1.0000
  C   C172      1.0  0.12355  0.17513  0.74639  1.0000
  C   C173      1.0  0.10185  0.47927  0.68471  1.0000
  C   C174      1.0  0.47457  0.05131  0.51316  1.0000
  H   H198      1.0  0.43579  0.46357  0.56945  1.0000
  H   H199      1.0  0.42203  0.98861  0.52343  1.0000
  C   C175      1.0  0.21039  0.45117  0.78129  1.0000
  H   H200      1.0  0.15779  0.29089  0.99014  1.0000
  Fe  Fe19      1.0  0.06233  0.13428  0.78661  1.0000
  S   S41       1.0  0.07346  0.10384  0.77105  1.0000
  Fe  Fe20      1.0  0.05167  0.18953  0.78013  1.0000
  H   H201      1.0  0.09677  0.01207  0.91828  1.0000
  S   S42       1.0  0.09100  0.18145  0.78880  1.0000
  Fe  Fe21      1.0  0.05163  0.24839  0.96255  1.0000
  S   S43       1.0  0.04451  0.20735  0.94976  1.0000
  H   H202      1.0  0.16101  0.38455  0.76893  1.0000
  Fe  Fe22      1.0  0.10581  0.28282  0.94238  1.0000
  S   S44       1.0  0.10267  0.24327  0.92871  1.0000
  S   S45       1.0  0.14562  0.32363  0.93644  1.0000
  Fe  Fe23      1.0  0.05613  0.23447  0.92433  1.0000
  S   S46       1.0  0.03084  0.21581  0.89865  1.0000
  Fe  Fe24      1.0  0.09169  0.21921  0.95521  1.0000
  S   S47       1.0  0.10173  0.18007  0.96420  1.0000
  S   S48       1.0  0.05944  0.27525  0.93646  1.0000
  S   S49       1.0  0.09859  0.25912  0.96960  1.0000
  C   C176      1.0  0.13104  0.15506  0.98706  1.0000
  H   H203      1.0  0.14912  0.09173  0.98154  1.0000
  H   H204      1.0  0.11262  0.23741  0.76828  1.0000
  H   H205      1.0  0.19422  0.31341  0.98698  1.0000
  H   H206      1.0  0.99166  0.16563  0.83976  1.0000
  H   H207      1.0  0.16788  0.30880  0.96876  1.0000
  S   S50       1.0  0.16712  0.45176  0.90583  1.0000
  H   H208      1.0  0.33106  0.21084  0.98917  1.0000
  C   C177      1.0  0.14967  0.35779  0.92598  1.0000
  C   C178      1.0  0.17597  0.37542  0.91888  1.0000
  C   C179      1.0  0.18124  0.40374  0.91196  1.0000
  C   C180      1.0  0.16044  0.41508  0.91242  1.0000
  C   C181      1.0  0.13405  0.39739  0.91940  1.0000
  C   C182      1.0  0.12855  0.36883  0.92596  1.0000
  H   H209      1.0  0.19257  0.36725  0.91898  1.0000
  H   H210      1.0  0.20171  0.41706  0.90678  1.0000
  H   H211      1.0  0.11782  0.40590  0.91990  1.0000
  H   H212      1.0  0.10832  0.35568  0.93149  1.0000
  H   H213      1.0  0.00468  0.12667  0.90082  1.0000
  C   C183      1.0  0.21995  0.46324  0.81280  1.0000
  H   H214      1.0  0.00811  0.24393  0.81473  1.0000
  H   H215      1.0  0.08816  0.13496  0.88615  1.0000
  C   C184      1.0  0.99527  0.22500  0.80733  1.0000
  H   H216      1.0  0.98453  0.03409  0.77246  1.0000
  C   C185      1.0  0.05149  0.21299  0.88192  1.0000
  C   C186      1.0  0.03891  0.19108  0.86969  1.0000
  C   C187      1.0  0.05488  0.18761  0.85648  1.0000
  C   C188      1.0  0.08384  0.20559  0.85574  1.0000
  C   C189      1.0  0.09659  0.22750  0.86803  1.0000
  C   C190      1.0  0.08033  0.23145  0.88096  1.0000
  H   H217      1.0  0.01698  0.17628  0.87080  1.0000
  H   H218      1.0  0.04502  0.17040  0.84721  1.0000
  H   H219      1.0  0.09015  0.24874  0.89018  1.0000
  C   C191      1.0  0.14033  0.07231  0.97387  1.0000
  C   C192      1.0  0.18025  0.17921  0.99889  1.0000
  H   H220      1.0  0.01484  0.10321  0.84929  1.0000
  H   H221      1.0  0.14027  0.34872  0.76222  1.0000
  C   C193      1.0  0.13567  0.32936  0.98624  1.0000
  H   H222      1.0  0.15167  0.09525  0.94861  1.0000
  H   H223      1.0  0.98442  0.20170  0.96308  1.0000
  C   C194      1.0  0.13060  0.04913  0.94540  1.0000
  C   C195      1.0  0.19158  0.45996  0.81345  1.0000
  Fe  Fe25      1.0  0.01412  0.13931  0.80480  1.0000
  H   H224      1.0  0.23190  0.43289  0.95139  1.0000
  C   C196      1.0  0.17235  0.38104  0.96835  1.0000
  C   C197      1.0  0.99458  0.21961  0.84560  1.0000
  C   C198      1.0  0.06811  0.01883  0.80014  1.0000
  C   C199      1.0  0.07051  0.02252  0.78157  1.0000
  C   C200      1.0  0.07243  0.04879  0.77271  1.0000
  C   C201      1.0  0.07164  0.07126  0.78235  1.0000
  C   C202      1.0  0.06916  0.06736  0.80087  1.0000
  C   C203      1.0  0.06749  0.04133  0.80971  1.0000
  H   H225      1.0  0.07118  0.00531  0.77410  1.0000
  H   H226      1.0  0.15782  0.22578  0.97280  1.0000
  H   H227      1.0  0.06906  0.08457  0.80849  1.0000
  H   H228      1.0  0.06584  0.03868  0.82409  1.0000
  N   N13       1.0  0.06218  0.14357  0.91451  1.0000
  C   C204      1.0  0.08635  0.17206  0.91242  1.0000
  C   C205      1.0  0.04213  0.14740  0.92625  1.0000
  C   C206      1.0  0.07336  0.12306  0.92402  1.0000
  C   C207      1.0  0.04878  0.13264  0.89669  1.0000
  C   C208      1.0  0.98369  0.20327  0.77836  1.0000
  C   C209      1.0  0.01908  0.12453  0.89190  1.0000
  C   C210      1.0  0.00711  0.11384  0.87502  1.0000
  H   H229      1.0  0.14953  0.37442  0.80884  1.0000
  Fe  Fe26      1.0  0.20245  0.48324  0.88866  1.0000
  H   H230      1.0  0.07888  0.18811  0.90541  1.0000
  H   H231      1.0  0.09667  0.18087  0.92563  1.0000
  H   H232      1.0  0.07443  0.05166  0.75837  1.0000
  H   H233      1.0  0.03344  0.16323  0.92005  1.0000
  H   H234      1.0  0.05293  0.15593  0.93943  1.0000
  H   H235      1.0  0.02410  0.12660  0.92938  1.0000
  H   H236      1.0  0.06286  0.99257  0.94286  1.0000
  H   H237      1.0  0.08295  0.13037  0.93771  1.0000
  H   H238      1.0  0.05599  0.10119  0.92561  1.0000
  C   C211      1.0  0.11651  0.02026  0.97288  1.0000
  S   S51       1.0  0.24649  0.48637  0.88360  1.0000
  H   H239      1.0  0.10357  0.17129  0.90475  1.0000
  H   H240      1.0  0.12304  0.30914  0.99389  1.0000
  C   C212      1.0  0.13610  0.27729  0.75375  1.0000
  H   H241      1.0  0.11174  0.13558  0.98589  1.0000
  C   C213      1.0  0.23140  0.39702  0.96902  1.0000
  H   H242      1.0  0.21796  0.44826  0.76887  1.0000
  C   C214      1.0  0.06546  0.12922  0.88357  1.0000
  H   H243      1.0  0.10710  0.99994  0.98032  1.0000
  C   C215      1.0  0.18227  0.44877  0.78183  1.0000
  H   H244      1.0  0.11897  0.24160  0.86745  1.0000
  N   N14       1.0  0.15957  0.35140  0.78927  1.0000
  C   C216      1.0  0.18545  0.34950  0.78302  1.0000
  C   C217      1.0  0.14615  0.36286  0.77389  1.0000
  C   C218      1.0  0.16844  0.37278  0.80352  1.0000
  C   C219      1.0  0.14046  0.32266  0.79648  1.0000
  C   C220      1.0  0.11226  0.30716  0.78895  1.0000
  C   C221      1.0  0.15011  0.30907  0.81140  1.0000
  C   C222      1.0  0.09497  0.27994  0.79607  1.0000
  C   C223      1.0  0.13265  0.28178  0.81833  1.0000
  C   C224      1.0  0.10516  0.26726  0.81067  1.0000
  H   H245      1.0  0.17953  0.33263  0.77290  1.0000
  H   H246      1.0  0.19967  0.37030  0.77657  1.0000
  H   H247      1.0  0.19858  0.34404  0.79413  1.0000
  H   H248      1.0  0.12686  0.36563  0.77765  1.0000
  H   H249      1.0  0.25106  0.46072  0.79616  1.0000
  H   H250      1.0  0.11472  0.15362  0.75364  1.0000
  H   H251      1.0  0.18096  0.36736  0.81502  1.0000
  H   H252      1.0  0.18235  0.39478  0.79841  1.0000
  H   H253      1.0  0.15102  0.45080  0.79853  1.0000
  H   H254      1.0  0.10320  0.31528  0.77734  1.0000
  H   H255      1.0  0.17135  0.31935  0.81774  1.0000
  H   H256      1.0  0.07373  0.26825  0.78994  1.0000
  H   H257      1.0  0.14044  0.27158  0.82965  1.0000
  H   H258      1.0  0.09187  0.24598  0.81599  1.0000
  H   H259      1.0  0.07972  0.19150  0.75039  1.0000
  H   H260      1.0  0.99365  0.24106  0.84235  1.0000
  H   H261      1.0  0.14965  0.37580  0.96697  1.0000
  H   H262      1.0  0.01411  0.02597  0.78175  1.0000
  S   S52       1.0  0.15849  0.44112  0.76259  1.0000
  C   C225      1.0  0.99282  0.02501  0.78460  1.0000
  C   C226      1.0  0.21448  0.37212  0.97866  1.0000
  C   C227      1.0  0.15689  0.20591  0.97976  1.0000
  H   H263      1.0  0.09042  0.12096  0.91680  1.0000
  C   C228      1.0  0.18952  0.40606  0.95895  1.0000
  C   C229      1.0  0.13183  0.18083  0.97815  1.0000
  S   S53       1.0  0.05200  0.22618  0.76031  1.0000
  S   S54       1.0  0.02380  0.24952  0.98443  1.0000
  C   C230      1.0  0.14172  0.07418  0.95530  1.0000
  H   H264      1.0  0.13260  0.05218  0.93110  1.0000
  S   S55       1.0  0.02363  0.14253  0.77585  1.0000
  C   C231      1.0  0.17200  0.31148  0.98350  1.0000
  H   H265      1.0  0.06667  0.11705  0.85676  1.0000
  H   H266      1.0  0.01440  0.24632  0.78283  1.0000
  C   C232      1.0  0.05331  0.11872  0.86671  1.0000
  H   H267      1.0  0.12800  0.32576  0.97186  1.0000
  C   C233      1.0  0.12775  0.04540  0.98264  1.0000
  C   C234      1.0  0.32044  0.18968  0.99648  1.0000
  C   C235      1.0  0.11105  0.25471  0.75948  1.0000
  C   C236      1.0  0.08419  0.25460  0.75378  1.0000
  S   S56       1.0  0.03799  0.18711  0.80808  1.0000
  N   N15       1.0  0.16693  0.33669  0.98883  1.0000
  Fe  Fe27      1.0  0.07571  0.17637  0.81649  1.0000
  C   C237      1.0  0.18434  0.36314  0.97846  1.0000
  C   C238      1.0  0.22913  0.45825  0.79676  1.0000
  H   H268      1.0  0.15672  0.27689  0.75802  1.0000
  H   H269      1.0  0.99651  0.03985  0.79571  1.0000
  S   S57       1.0  0.05122  0.12846  0.81536  1.0000
  S   S58       1.0  0.10413  0.20056  0.83960  1.0000
  H   H270      1.0  0.17982  0.41896  0.95093  1.0000
  C   C239      1.0  0.11761  0.02128  0.95396  1.0000
  C   C240      1.0  0.21890  0.41389  0.95913  1.0000
  H   H271      1.0  0.99250  0.21582  0.86038  1.0000
  H   H272      1.0  0.12953  0.19163  0.75676  1.0000
  H   H273      1.0  0.12694  0.04401  0.99714  1.0000
  C   C241      1.0  0.02418  0.11100  0.86246  1.0000
  H   H274      1.0  0.22518  0.35980  0.98614  1.0000
  C   C242      1.0  0.17285  0.45289  0.79799  1.0000
  H   H275      1.0  0.18411  0.46323  0.82578  1.0000
  H   H276      1.0  0.01630  0.22107  0.84314  1.0000
  S   S59       1.0  0.24499  0.47558  0.83126  1.0000
  H   H277      1.0  0.12991  0.34658  0.99093  1.0000
  H   H278      1.0  0.13127  0.00927  0.92112  1.0000
  C   C243      1.0  0.10845  0.99882  0.92437  1.0000
  N   N16       1.0  0.10569  0.99419  0.94405  1.0000
  C   C244      1.0  0.99077  0.22026  0.98885  1.0000
  H   H279      1.0  0.30330  0.17514  0.98720  1.0000
  C   C245      1.0  0.99899  0.22682  0.78893  1.0000
  H   H280      1.0  0.25429  0.40314  0.96906  1.0000
  H   H281      1.0  0.20061  0.22429  0.99083  1.0000
  H   H282      1.0  0.98665  0.99664  0.81738  1.0000
  C   C246      1.0  0.15500  0.15431  0.99756  1.0000
  H   H283      1.0  0.98731  0.20458  0.76421  1.0000
  H   H284      1.0  0.98451  0.10807  0.87152  1.0000
  H   H285      1.0  0.19602  0.99057  0.99497  1.0000
  C   C247      1.0  0.18111  0.20499  0.98993  1.0000
  H   H286      1.0  0.09849  0.47439  0.90048  1.0000
  H   H287      1.0  0.26759  0.18611  0.99928  1.0000
  H   H288      1.0  0.33641  0.17985  0.99928  1.0000
  H   H289      1.0  0.06893  0.15305  0.74962  1.0000
  C   C248      1.0  0.00921  0.95168  0.19150  1.0000
  H   H290      1.0  0.07281  0.85935  0.01593  1.0000
  H   H291      1.0  0.09841  0.93468  0.05613  1.0000
  C   C249      1.0  0.12512  0.89957  0.03029  1.0000
  C   C250      1.0  0.16185  0.94432  0.04087  1.0000
  C   C251      1.0  0.05636  0.89718  0.02836  1.0000
  C   C252      1.0  0.11330  0.92928  0.04938  1.0000
  C   C253      1.0  0.06337  0.87552  0.05725  1.0000
  C   C254      1.0  0.14178  0.94916  0.05003  1.0000
  H   H292      1.0  0.04559  0.84033  0.03058  1.0000
  H   H293      1.0  0.04119  0.85853  0.05711  1.0000
  C   C255      1.0  0.15353  0.91965  0.03100  1.0000
  C   C256      1.0  0.02626  0.97812  0.21885  1.0000
  H   H294      1.0  0.03321  0.88263  0.02746  1.0000
  C   C257      1.0  0.02982  0.97470  0.20101  1.0000
  H   H295      1.0  0.99898  0.96094  0.24086  1.0000
  H   H296      1.0  0.07740  0.86716  0.06601  1.0000
  H   H297      1.0  0.08161  0.84457  0.03730  1.0000
  C   C258      1.0  0.00178  0.95857  0.22702  1.0000
  C   C259      1.0  0.06844  0.85574  0.03038  1.0000
  H   H298      1.0  0.05840  0.91751  0.03425  1.0000
  C   C260      1.0  0.10413  0.90362  0.03969  1.0000
  H   H299      1.0  0.06251  0.89411  0.06382  1.0000
  H   H300      1.0  0.01227  0.94900  0.17775  1.0000
  N   N17       1.0  0.07370  0.88322  0.03889  1.0000
  H   H301      1.0  0.06305  0.90264  0.01434  1.0000
  H   H302      1.0  0.12011  0.88146  0.02191  1.0000
  H   H303      1.0  0.16896  0.91666  0.02321  1.0000
  H   H304      1.0  0.18366  0.96032  0.04085  1.0000
  C   C261      1.0  0.12579  0.96323  0.00355  1.0000
  H   H305      1.0  0.14812  0.96907  0.05704  1.0000
  C   C262      1.0  0.98466  0.93221  0.19961  1.0000
  H   H306      1.0  0.10595  0.94497  0.00067  1.0000
  H   H307      1.0  0.10724  0.98267  0.02066  1.0000
  C   C263      1.0  0.12660  0.98462  0.01490  1.0000
  C   C264      1.0  0.98092  0.93579  0.21740  1.0000
  C   C265      1.0  0.98594  0.81674  0.00001  1.0000
  Fe  Fe28      1.0  0.11649  0.58079  0.44342  1.0000
  S   S60       1.0  0.11424  0.54536  0.46388  1.0000
  S   S61       1.0  0.08358  0.57905  0.42027  1.0000
  Fe  Fe29      1.0  0.16655  0.62650  0.46498  1.0000
  S   S62       1.0  0.16669  0.59452  0.48748  1.0000
  S   S63       1.0  0.19442  0.67412  0.46845  1.0000
  Fe  Fe30      1.0  0.16255  0.56549  0.46513  1.0000
  S   S64       1.0  0.18901  0.53845  0.46859  1.0000
  Fe  Fe31      1.0  0.11875  0.57742  0.48438  1.0000
  S   S65       1.0  0.16473  0.59841  0.44265  1.0000
  S   S66       1.0  0.11879  0.61194  0.46393  1.0000
  Fe  Fe32      1.0  0.40311  0.83875  0.45296  1.0000
  S   S67       1.0  0.40758  0.82645  0.48232  1.0000
  S   S68       1.0  0.44219  0.87966  0.44545  1.0000
  Fe  Fe33      1.0  0.34391  0.78820  0.44874  1.0000
  S   S69       1.0  0.34434  0.77443  0.47775  1.0000
  S   S70       1.0  0.30677  0.75825  0.43120  1.0000
  Fe  Fe34      1.0  0.36236  0.82165  0.48293  1.0000
  Fe  Fe35      1.0  0.38947  0.78026  0.47436  1.0000
  H   H308      1.0  0.05828  0.54985  0.46906  1.0000
  S   S71       1.0  0.35809  0.83561  0.45400  1.0000
  S   S72       1.0  0.38874  0.79225  0.44494  1.0000
  H   H309      1.0  0.32181  0.70544  0.45094  1.0000
  H   H310      1.0  0.38192  0.73604  0.42308  1.0000
  Fe  Fe36      1.0  0.39359  0.55207  0.43905  1.0000
  S   S73       1.0  0.42417  0.57465  0.46195  1.0000
  S   S74       1.0  0.39796  0.51709  0.42328  1.0000
  Fe  Fe37      1.0  0.34933  0.57643  0.44759  1.0000
  S   S75       1.0  0.37630  0.59933  0.47141  1.0000
  S   S76       1.0  0.31233  0.58914  0.43829  1.0000
  Fe  Fe38      1.0  0.41252  0.61269  0.45359  1.0000
  S   S77       1.0  0.44079  0.66027  0.45081  1.0000
  Fe  Fe39      1.0  0.38503  0.55950  0.47770  1.0000
  C   C266      1.0  0.36682  0.68872  0.42644  1.0000
  S   S78       1.0  0.38541  0.59148  0.42922  1.0000
  S   S79       1.0  0.35469  0.53501  0.45535  1.0000
  H   H311      1.0  0.06999  0.51697  0.42363  1.0000
  C   C267      1.0  0.00125  0.52722  0.40433  1.0000
  H   H312      1.0  0.42375  0.96474  0.49654  1.0000
  C   C268      1.0  0.42620  0.51822  0.41074  1.0000
  C   C269      1.0  0.44973  0.54386  0.40720  1.0000
  H   H313      1.0  0.46142  0.93047  0.46964  1.0000
  H   H314      1.0  0.45092  0.56399  0.41205  1.0000
  C   C270      1.0  0.37295  0.66532  0.42147  1.0000
  C   C271      1.0  0.41160  0.72154  0.47791  1.0000
  C   C272      1.0  0.40873  0.69481  0.48629  1.0000
  C   C273      1.0  0.41715  0.67574  0.47793  1.0000
  C   C274      1.0  0.42945  0.68366  0.46138  1.0000
  C   C275      1.0  0.43338  0.71089  0.45337  1.0000
  C   C276      1.0  0.42387  0.72952  0.46137  1.0000
  C   C277      1.0  0.42721  0.93563  0.40751  1.0000
  H   H315      1.0  0.41507  0.65536  0.48460  1.0000
  H   H316      1.0  0.44366  0.71747  0.44086  1.0000
  H   H317      1.0  0.42666  0.75028  0.45495  1.0000
  C   C278      1.0  0.22352  0.55280  0.46051  1.0000
  C   C279      1.0  0.24101  0.53717  0.46347  1.0000
  C   C280      1.0  0.26869  0.54832  0.45716  1.0000
  C   C281      1.0  0.27864  0.57484  0.44749  1.0000
  C   C282      1.0  0.26120  0.59047  0.44467  1.0000
  C   C283      1.0  0.23390  0.57969  0.45132  1.0000
  H   H318      1.0  0.32436  0.66099  0.46161  1.0000
  H   H319      1.0  0.28191  0.53602  0.45931  1.0000
  H   H320      1.0  0.26862  0.61085  0.43711  1.0000
  H   H321      1.0  0.22068  0.59193  0.44903  1.0000
  C   C284      1.0  0.22693  0.69549  0.45864  1.0000
  C   C285      1.0  0.24371  0.72250  0.46574  1.0000
  C   C286      1.0  0.26880  0.74125  0.45784  1.0000
  C   C287      1.0  0.27709  0.73346  0.44246  1.0000
  C   C288      1.0  0.26062  0.70620  0.43546  1.0000
  C   C289      1.0  0.23580  0.68706  0.44367  1.0000
  H   H322      1.0  0.23702  0.72919  0.47730  1.0000
  H   H323      1.0  0.28112  0.76225  0.46325  1.0000
  H   H324      1.0  0.26676  0.70011  0.42347  1.0000
  H   H325      1.0  0.22301  0.66634  0.43805  1.0000
  H   H326      1.0  0.25453  0.61646  0.48858  1.0000
  C   C290      1.0  0.42295  0.91142  0.41938  1.0000
  C   C291      1.0  0.44526  0.91073  0.43140  1.0000
  C   C292      1.0  0.41090  0.90704  0.48503  1.0000
  H   H327      1.0  0.42169  0.74283  0.40551  1.0000
  H   H328      1.0  0.40268  0.89295  0.41884  1.0000
  C   C293      1.0  0.34309  0.66565  0.45362  1.0000
  H   H329      1.0  0.40119  0.65177  0.40853  1.0000
  C   C294      1.0  0.02675  0.55144  0.40844  1.0000
  C   C295      1.0  0.05169  0.54798  0.41557  1.0000
  C   C296      1.0  0.05092  0.52001  0.41838  1.0000
  C   C297      1.0  0.38485  0.71687  0.42010  1.0000
  H   H330      1.0  0.02709  0.57295  0.40611  1.0000
  H   H331      1.0  0.23307  0.51632  0.47058  1.0000
  H   H332      1.0  0.98221  0.53021  0.39896  1.0000
  H   H333      1.0  0.11985  0.63958  0.42651  1.0000
  H   H334      1.0  0.46887  0.93495  0.37066  1.0000
  C   C298      1.0  0.46784  0.90200  0.38999  1.0000
  H   H335      1.0  0.33744  0.72366  0.43097  1.0000
  C   C299      1.0  0.32117  0.68822  0.49410  1.0000
  C   C300      1.0  0.47148  0.54355  0.39701  1.0000
  H   H336      1.0  0.04627  0.49888  0.47152  1.0000
  H   H337      1.0  0.31395  0.64573  0.42266  1.0000
  C   C301      1.0  0.40790  0.72115  0.40988  1.0000
  H   H338      1.0  0.29595  0.66353  0.43338  1.0000
  H   H339      1.0  0.45103  0.88583  0.48529  1.0000
  H   H340      1.0  0.17686  0.64160  0.41297  1.0000
  C   C302      1.0  0.41365  0.52367  0.36303  1.0000
  C   C303      1.0  0.45356  0.95972  0.40770  1.0000
  H   H341      1.0  0.45849  0.51563  0.44904  1.0000
  H   H342      1.0  0.03220  0.56474  0.46973  1.0000
  C   C304      1.0  0.34036  0.71010  0.44272  1.0000
  C   C305      1.0  0.47152  0.93501  0.43179  1.0000
  H   H343      1.0  0.43217  0.70119  0.39831  1.0000
  H   H344      1.0  0.41001  0.93553  0.39793  1.0000
  C   C306      1.0  0.41379  0.69776  0.40576  1.0000
  H   H345      1.0  0.31397  0.67956  0.41333  1.0000
  C   C307      1.0  0.39632  0.66991  0.41151  1.0000
  H   H346      1.0  0.36283  0.67697  0.46215  1.0000
  N   N18       1.0  0.43987  0.91944  0.49425  1.0000
  H   H347      1.0  0.45187  0.95798  0.47673  1.0000
  H   H348      1.0  0.47134  0.87230  0.41123  1.0000
  H   H349      1.0  0.10904  0.64899  0.39554  1.0000
  C   C308      1.0  0.44710  0.49182  0.39457  1.0000
  H   H350      1.0  0.42795  0.54555  0.36628  1.0000
  C   C309      1.0  0.02565  0.49588  0.41388  1.0000
  C   C310      1.0  0.01504  0.51607  0.49012  1.0000
  C   C311      1.0  0.47029  0.51756  0.39064  1.0000
  C   C312      1.0  0.45949  0.94090  0.48178  1.0000
  H   H351      1.0  0.35993  0.72315  0.45101  1.0000
  C   C313      1.0  0.31529  0.66731  0.42613  1.0000
  H   H352      1.0  0.40282  0.92377  0.47998  1.0000
  N   N19       1.0  0.15149  0.66693  0.40849  1.0000
  C   C314      1.0  0.13919  0.66025  0.42631  1.0000
  C   C315      1.0  0.12911  0.66901  0.39512  1.0000
  C   C316      1.0  0.15823  0.64218  0.40428  1.0000
  C   C317      1.0  0.17757  0.69404  0.40778  1.0000
  C   C318      1.0  0.18860  0.71260  0.42246  1.0000
  C   C319      1.0  0.19300  0.70243  0.39204  1.0000
  C   C320      1.0  0.21385  0.73747  0.42148  1.0000
  C   C321      1.0  0.21841  0.72720  0.39130  1.0000
  C   C322      1.0  0.22893  0.74454  0.40606  1.0000
  H   H353      1.0  0.13229  0.67721  0.43010  1.0000
  H   H354      1.0  0.16341  0.64303  0.39013  1.0000
  H   H355      1.0  0.15483  0.65785  0.43696  1.0000
  H   H356      1.0  0.12368  0.68759  0.39770  1.0000
  N   N20       1.0  0.34195  0.68327  0.43705  1.0000
  H   H357      1.0  0.13586  0.67196  0.38117  1.0000
  N   N21       1.0  0.01501  0.51794  0.47022  1.0000
  C   C323      1.0  0.47559  0.95947  0.42017  1.0000
  H   H358      1.0  0.13983  0.62104  0.40635  1.0000
  H   H359      1.0  0.17872  0.70802  0.43512  1.0000
  H   H360      1.0  0.18574  0.68961  0.38028  1.0000
  H   H361      1.0  0.22238  0.75079  0.43305  1.0000
  H   H362      1.0  0.23025  0.73283  0.37932  1.0000
  H   H363      1.0  0.45278  0.49128  0.32929  1.0000
  S   S80       1.0  0.39977  0.74420  0.48874  1.0000
  C   C324      1.0  0.03601  0.54674  0.46441  1.0000
  C   C325      1.0  0.32364  0.60403  0.49256  1.0000
  C   C326      1.0  0.27140  0.66192  0.48511  1.0000
  C   C327      1.0  0.29502  0.68805  0.48690  1.0000
  H   H364      1.0  0.24907  0.76328  0.40571  1.0000
  H   H365      1.0  0.34295  0.64436  0.45089  1.0000
  H   H366      1.0  0.41042  0.89466  0.47319  1.0000
  H   H367      1.0  0.03529  0.54960  0.44952  1.0000
  H   H368      1.0  0.37916  0.52497  0.37688  1.0000
  H   H369      1.0  0.29304  0.70821  0.48268  1.0000
  H   H370      1.0  0.44487  0.89050  0.38779  1.0000
  H   H371      1.0  0.02758  0.49746  0.45031  1.0000
  H   H372      1.0  0.33962  0.70861  0.49536  1.0000
  H   H373      1.0  0.25101  0.66182  0.47957  1.0000
  H   H374      1.0  0.01364  0.53523  0.49565  1.0000
  H   H375      1.0  0.35985  0.64320  0.42532  1.0000
  C   C328      1.0  0.42341  0.50677  0.35372  1.0000
  H   H376      1.0  0.44533  0.51696  0.35010  1.0000
  H   H377      1.0  0.34528  0.62177  0.49377  1.0000
  H   H378      1.0  0.39521  0.89195  0.49424  1.0000
  C   C329      1.0  0.98628  0.51423  0.46217  1.0000
  C   C330      1.0  0.38614  0.51211  0.36900  1.0000
  H   H379      1.0  0.03524  0.51523  0.49654  1.0000
  H   H380      1.0  0.31589  0.60329  0.47813  1.0000
  C   C331      1.0  0.00063  0.49925  0.40689  1.0000
  H   H381      1.0  0.32643  0.58347  0.49620  1.0000
  H   H382      1.0  0.98325  0.54836  0.47698  1.0000
  C   C332      1.0  0.27374  0.63582  0.49053  1.0000
  H   H383      1.0  0.26711  0.57862  0.48858  1.0000
  H   H384      1.0  0.99708  0.49634  0.49486  1.0000
  C   C333      1.0  0.02487  0.49586  0.46493  1.0000
  H   H385      1.0  0.42559  0.49629  0.47014  1.0000
  C   C334      1.0  0.30003  0.63523  0.49818  1.0000
  C   C335      1.0  0.42496  0.49225  0.40430  1.0000
  C   C336      1.0  0.45565  0.49349  0.44572  1.0000
  H   H386      1.0  0.46555  0.49592  0.43272  1.0000
  C   C337      1.0  0.44995  0.89565  0.49791  1.0000
  H   H387      1.0  0.39984  0.68877  0.49927  1.0000
  H   H388      1.0  0.40598  0.48848  0.49915  1.0000
  C   C338      1.0  0.44625  0.92473  0.52817  1.0000
  H   H389      1.0  0.42689  0.51830  0.52996  1.0000
  Fe  Fe40      1.0  0.21270  0.81373  0.69559  1.0000
  S   S81       1.0  0.20515  0.76683  0.69775  1.0000
  S   S82       1.0  0.25696  0.84931  0.69145  1.0000
  Fe  Fe41      1.0  0.15222  0.80091  0.70634  1.0000
  S   S83       1.0  0.13968  0.75260  0.70863  1.0000
  S   S84       1.0  0.12024  0.82065  0.71038  1.0000
  Fe  Fe42      1.0  0.18318  0.76417  0.72279  1.0000
  Fe  Fe43      1.0  0.16222  0.75845  0.68329  1.0000
  S   S85       1.0  0.15245  0.72710  0.66083  1.0000
  S   S86       1.0  0.19426  0.81185  0.72222  1.0000
  S   S87       1.0  0.17117  0.80596  0.67946  1.0000
  Fe  Fe44      1.0  0.41679  0.89666  0.59808  1.0000
  S   S88       1.0  0.45555  0.92333  0.61506  1.0000
  S   S89       1.0  0.42377  0.87021  0.57737  1.0000
  Fe  Fe45      1.0  0.37603  0.91008  0.61969  1.0000
  S   S90       1.0  0.41202  0.93896  0.63783  1.0000
  S   S91       1.0  0.32784  0.89634  0.62152  1.0000
  Fe  Fe46      1.0  0.43629  0.95668  0.61280  1.0000
  Fe  Fe47      1.0  0.42887  0.90399  0.63852  1.0000
  C   C339      1.0  0.47234  0.97439  0.67565  1.0000
  S   S92       1.0  0.39873  0.93076  0.59430  1.0000
  S   S93       1.0  0.39163  0.87427  0.62176  1.0000
  Fe  Fe48      1.0  0.05742  0.52530  0.64099  1.0000
  S   S94       1.0  0.01640  0.53204  0.63896  1.0000
  C   C340      1.0  0.44538  0.93888  0.54333  1.0000
  Fe  Fe49      1.0  0.07445  0.55593  0.60471  1.0000
  S   S95       1.0  0.03491  0.56537  0.59969  1.0000
  S   S96       1.0  0.11244  0.57092  0.58784  1.0000
  Fe  Fe50      1.0  0.04325  0.57718  0.62881  1.0000
  S   S97       1.0  0.04044  0.61630  0.64026  1.0000
  S   S98       1.0  0.07107  0.50810  0.66735  1.0000
  S   S99       1.0  0.08423  0.57098  0.63284  1.0000
  S   S100      1.0  0.05107  0.50950  0.61310  1.0000
  S   S101      1.0  0.37869  0.57270  0.62709  1.0000
  S   S102      1.0  0.44556  0.58710  0.61921  1.0000
  Fe  Fe51      1.0  0.42067  0.58260  0.64323  1.0000
  C   C341      1.0  0.11253  0.58810  0.69334  1.0000
  Fe  Fe52      1.0  0.40307  0.57342  0.60335  1.0000
  S   S103      1.0  0.40042  0.59835  0.57732  1.0000
  C   C342      1.0  0.47481  0.79763  0.62136  1.0000
  C   C343      1.0  0.16806  0.52097  0.61479  1.0000
  H   H390      1.0  0.43108  0.49334  0.59291  1.0000
  H   H391      1.0  0.37985  0.53778  0.56921  1.0000
  C   C344      1.0  0.46929  0.86054  0.68733  1.0000
  H   H392      1.0  0.11610  0.64914  0.73703  1.0000
  Fe  Fe53      1.0  0.43475  0.53942  0.62323  1.0000
  H   H393      1.0  0.07729  0.83962  0.71912  1.0000
  H   H394      1.0  0.16549  0.70767  0.70747  1.0000
  C   C345      1.0  0.13030  0.61237  0.70289  1.0000
  S   S104      1.0  0.39393  0.52604  0.60585  1.0000
  H   H395      1.0  0.23185  0.96368  0.69857  1.0000
  C   C346      1.0  0.12258  0.63629  0.70410  1.0000
  C   C347      1.0  0.12128  0.69535  0.65695  1.0000
  C   C348      1.0  0.09443  0.69236  0.66184  1.0000
  C   C349      1.0  0.06983  0.66787  0.65685  1.0000
  C   C350      1.0  0.07193  0.64604  0.64720  1.0000
  C   C351      1.0  0.09892  0.64866  0.64290  1.0000
  C   C352      1.0  0.12341  0.67325  0.64765  1.0000
  H   H396      1.0  0.09248  0.70937  0.66886  1.0000
  H   H397      1.0  0.04903  0.66605  0.66022  1.0000
  H   H398      1.0  0.10087  0.63218  0.63546  1.0000
  H   H399      1.0  0.14406  0.67542  0.64378  1.0000
  C   C353      1.0  0.27639  0.85959  0.67174  1.0000
  C   C354      1.0  0.30629  0.87464  0.67350  1.0000
  C   C355      1.0  0.32244  0.88504  0.65828  1.0000
  C   C356      1.0  0.30875  0.88123  0.64106  1.0000
  C   C357      1.0  0.27884  0.86611  0.63927  1.0000
  C   C358      1.0  0.26276  0.85504  0.65450  1.0000
  H   H400      1.0  0.31706  0.87841  0.68675  1.0000
  H   H401      1.0  0.34539  0.89671  0.65991  1.0000
  H   H402      1.0  0.26797  0.86320  0.62605  1.0000
  H   H403      1.0  0.23977  0.84373  0.65291  1.0000
  C   C359      1.0  0.11766  0.83854  0.72931  1.0000
  S   S105      1.0  0.19130  0.73710  0.74630  1.0000
  C   C360      1.0  0.18595  0.50250  0.64246  1.0000
  H   H404      1.0  0.21028  0.50666  0.67733  1.0000
  Fe  Fe54      1.0  0.01136  0.51941  0.61020  1.0000
  C   C361      1.0  0.09623  0.63430  0.69512  1.0000
  C   C362      1.0  0.16714  0.66083  0.72316  1.0000
  Fe  Fe55      1.0  0.37242  0.52606  0.63098  1.0000
  H   H405      1.0  0.43513  0.87779  0.50635  1.0000
  C   C363      1.0  0.38505  0.55330  0.52428  1.0000
  C   C364      1.0  0.37972  0.53698  0.54050  1.0000
  C   C365      1.0  0.38386  0.55056  0.55680  1.0000
  C   C366      1.0  0.39311  0.58058  0.55696  1.0000
  C   C367      1.0  0.39735  0.59685  0.54064  1.0000
  C   C368      1.0  0.39342  0.58326  0.52430  1.0000
  H   H406      1.0  0.37284  0.51375  0.54050  1.0000
  H   H407      1.0  0.40447  0.62011  0.54069  1.0000
  H   H408      1.0  0.39777  0.59604  0.51185  1.0000
  C   C369      1.0  0.37118  0.85159  0.52363  1.0000
  C   C370      1.0  0.39006  0.83820  0.52874  1.0000
  C   C371      1.0  0.40661  0.84463  0.54509  1.0000
  C   C372      1.0  0.40458  0.86466  0.55629  1.0000
  C   C373      1.0  0.38697  0.87928  0.55067  1.0000
  C   C374      1.0  0.36993  0.87241  0.53451  1.0000
  H   H409      1.0  0.39106  0.82201  0.52048  1.0000
  H   H410      1.0  0.42045  0.83345  0.54927  1.0000
  H   H411      1.0  0.38641  0.89580  0.55879  1.0000
  H   H412      1.0  0.35575  0.88321  0.53042  1.0000
  C   C375      1.0  0.10451  0.56798  0.56458  1.0000
  C   C376      1.0  0.07619  0.55793  0.55743  1.0000
  C   C377      1.0  0.07030  0.55709  0.53878  1.0000
  C   C378      1.0  0.09265  0.56620  0.52720  1.0000
  C   C379      1.0  0.12097  0.57622  0.53434  1.0000
  C   C380      1.0  0.12688  0.57717  0.55303  1.0000
  H   H413      1.0  0.05885  0.55086  0.56626  1.0000
  H   H414      1.0  0.04836  0.54937  0.53329  1.0000
  H   H415      1.0  0.13828  0.58328  0.52547  1.0000
  H   H416      1.0  0.14883  0.58507  0.55852  1.0000
  N   N22       1.0  0.21484  0.90303  0.70071  1.0000
  C   C381      1.0  0.19700  0.88079  0.68785  1.0000
  C   C382      1.0  0.24244  0.92011  0.69257  1.0000
  C   C383      1.0  0.22111  0.88835  0.71741  1.0000
  C   C384      1.0  0.19925  0.92065  0.70508  1.0000
  C   C385      1.0  0.21106  0.95138  0.70355  1.0000
  C   C386      1.0  0.17173  0.90705  0.71185  1.0000
  H   H417      1.0  0.13706  0.53901  0.61762  1.0000
  C   C387      1.0  0.15704  0.92304  0.71698  1.0000
  S   S106      1.0  0.47073  0.52377  0.62245  1.0000
  H   H418      1.0  0.20898  0.86857  0.68333  1.0000
  H   H419      1.0  0.17760  0.86427  0.69376  1.0000
  H   H420      1.0  0.18978  0.89076  0.67570  1.0000
  H   H421      1.0  0.23922  0.93167  0.67987  1.0000
  H   H422      1.0  0.25321  0.90599  0.68911  1.0000
  H   H423      1.0  0.25790  0.93590  0.70198  1.0000
  H   H424      1.0  0.20127  0.87333  0.72361  1.0000
  H   H425      1.0  0.23340  0.87526  0.71488  1.0000
  H   H426      1.0  0.23394  0.90425  0.72760  1.0000
  H   H427      1.0  0.25996  0.58334  0.51103  1.0000
  H   H428      1.0  0.16146  0.88383  0.71340  1.0000
  S   S107      1.0  0.34861  0.84235  0.50391  1.0000
  H   H429      1.0  0.23837  0.50597  0.63299  1.0000
  S   S108      1.0  0.43963  0.88640  0.66565  1.0000
  C   C388      1.0  0.46079  0.64616  0.67015  1.0000
  H   H430      1.0  0.10645  0.67311  0.72147  1.0000
  C   C389      1.0  0.09228  0.86250  0.74368  1.0000
  C   C390      1.0  0.15067  0.52905  0.62451  1.0000
  H   H431      1.0  0.34462  0.66361  0.50492  1.0000
  H   H432      1.0  0.13202  0.69281  0.69486  1.0000
  C   C391      1.0  0.45916  0.57334  0.53525  1.0000
  C   C392      1.0  0.44610  0.82599  0.62088  1.0000
  H   H433      1.0  0.15750  0.84143  0.74303  1.0000
  H   H434      1.0  0.45221  0.90648  0.53068  1.0000
  C   C393      1.0  0.43891  0.93366  0.51064  1.0000
  H   H435      1.0  0.16174  0.64249  0.73327  1.0000
  S   S109      1.0  0.32927  0.48887  0.63540  1.0000
  C   C394      1.0  0.08675  0.58685  0.68481  1.0000
  H   H436      1.0  0.44756  0.65025  0.69596  1.0000
  H   H437      1.0  0.07419  0.86849  0.74367  1.0000
  C   C395      1.0  0.15059  0.52407  0.64304  1.0000
  C   C396      1.0  0.16918  0.95309  0.71539  1.0000
  H   H438      1.0  0.16602  0.50706  0.66627  1.0000
  H   H439      1.0  0.42660  0.52517  0.55314  1.0000
  H   H440      1.0  0.34214  0.51777  0.66947  1.0000
  H   H441      1.0  0.47918  0.64908  0.64502  1.0000
  H   H442      1.0  0.98998  0.49875  0.55629  1.0000
  H   H443      1.0  0.45420  0.74150  0.65517  1.0000
  N   N23       1.0  0.11689  0.65653  0.58462  1.0000
  C   C397      1.0  0.09662  0.63300  0.57331  1.0000
  C   C398      1.0  0.13755  0.67781  0.57253  1.0000
  C   C399      1.0  0.13260  0.64389  0.59775  1.0000
  C   C400      1.0  0.10260  0.67079  0.59446  1.0000
  C   C401      1.0  0.11893  0.69673  0.60342  1.0000
  C   C402      1.0  0.07259  0.65875  0.59631  1.0000
  C   C403      1.0  0.10592  0.71037  0.61296  1.0000
  C   C404      1.0  0.05982  0.67254  0.60593  1.0000
  C   C405      1.0  0.07641  0.69835  0.61415  1.0000
  H   H444      1.0  0.08282  0.64073  0.56390  1.0000
  H   H445      1.0  0.10801  0.62410  0.56505  1.0000
  H   H446      1.0  0.08284  0.61417  0.58156  1.0000
  H   H447      1.0  0.12698  0.68971  0.56354  1.0000
  H   H448      1.0  0.14676  0.66715  0.56388  1.0000
  H   H449      1.0  0.15619  0.69389  0.57998  1.0000
  H   H450      1.0  0.11767  0.62697  0.60663  1.0000
  H   H451      1.0  0.14417  0.63332  0.59096  1.0000
  H   H452      1.0  0.14855  0.66038  0.60657  1.0000
  H   H453      1.0  0.14199  0.70622  0.60372  1.0000
  H   H454      1.0  0.05854  0.63829  0.59090  1.0000
  H   H455      1.0  0.11891  0.72965  0.62019  1.0000
  H   H456      1.0  0.03704  0.66246  0.60773  1.0000
  H   H457      1.0  0.06652  0.70837  0.62213  1.0000
  N   N24       1.0  0.31565  0.83540  0.58371  1.0000
  C   C406      1.0  0.33940  0.86396  0.58134  1.0000
  C   C407      1.0  0.28872  0.84011  0.58341  1.0000
  C   C408      1.0  0.31978  0.82268  0.60173  1.0000
  C   C409      1.0  0.31591  0.81679  0.56941  1.0000
  C   C410      1.0  0.29498  0.80905  0.55472  1.0000
  C   C411      1.0  0.33898  0.80799  0.56905  1.0000
  C   C412      1.0  0.29722  0.79353  0.54064  1.0000
  C   C413      1.0  0.34073  0.79208  0.55505  1.0000
  C   C414      1.0  0.32005  0.78510  0.54079  1.0000
  H   H458      1.0  0.33958  0.87944  0.59111  1.0000
  H   H459      1.0  0.36061  0.86250  0.58320  1.0000
  H   H460      1.0  0.33757  0.87373  0.56771  1.0000
  H   H461      1.0  0.28565  0.85253  0.57107  1.0000
  H   H462      1.0  0.28890  0.85320  0.59483  1.0000
  H   H463      1.0  0.26982  0.81925  0.58451  1.0000
  H   H464      1.0  0.31839  0.83580  0.61269  1.0000
  H   H465      1.0  0.30331  0.80037  0.60361  1.0000
  H   H466      1.0  0.34116  0.82180  0.60416  1.0000
  H   H467      1.0  0.27709  0.81540  0.55351  1.0000
  H   H468      1.0  0.35659  0.81441  0.57916  1.0000
  H   H469      1.0  0.28166  0.78870  0.52923  1.0000
  H   H470      1.0  0.35894  0.78626  0.55485  1.0000
  H   H471      1.0  0.32219  0.77393  0.52956  1.0000
  H   H472      1.0  0.11874  0.57009  0.69239  1.0000
  H   H473      1.0  0.43614  0.83434  0.64655  1.0000
  H   H474      1.0  0.07317  0.56811  0.67728  1.0000
  H   H475      1.0  0.15772  0.96538  0.71949  1.0000
  H   H476      1.0  0.13837  0.68718  0.73551  1.0000
  H   H477      1.0  0.24942  0.49649  0.65482  1.0000
  C   C415      1.0  0.19607  0.96723  0.70862  1.0000
  H   H478      1.0  0.45666  0.98112  0.66734  1.0000
  H   H479      1.0  0.33716  0.62619  0.52483  1.0000
  S   S110      1.0  0.41278  0.53556  0.64866  1.0000
  H   H480      1.0  0.46090  0.95066  0.67816  1.0000
  H   H481      1.0  0.43595  0.97255  0.55346  1.0000
  H   H482      1.0  0.31547  0.50668  0.69706  1.0000
  H   H483      1.0  0.44617  0.57749  0.54501  1.0000
  N   N25       1.0  0.14095  0.66259  0.71381  1.0000
  C   C416      1.0  0.43692  0.96197  0.54159  1.0000
  C   C417      1.0  0.45998  0.81284  0.61182  1.0000
  H   H484      1.0  0.27939  0.56182  0.50718  1.0000
  C   C418      1.0  0.09409  0.84610  0.72977  1.0000
  H   H485      1.0  0.05857  0.60886  0.67893  1.0000
  C   C419      1.0  0.47371  0.50361  0.60485  1.0000
  H   H486      1.0  0.16787  0.52477  0.60034  1.0000
  H   H487      1.0  0.47183  0.90341  0.50464  1.0000
  C   C420      1.0  0.46201  0.80921  0.64924  1.0000
  C   C421      1.0  0.46906  0.87678  0.67131  1.0000
  S   S111      1.0  0.43325  0.61121  0.66739  1.0000
  H   H488      1.0  0.43482  0.83793  0.61341  1.0000
  H   H489      1.0  0.18145  0.65875  0.71350  1.0000
  H   H490      1.0  0.46433  0.76609  0.67315  1.0000
  C   C422      1.0  0.47626  0.79536  0.64046  1.0000
  H   H491      1.0  0.44574  0.56916  0.52235  1.0000
  H   H492      1.0  0.44390  0.50295  0.54720  1.0000
  C   C423      1.0  0.16777  0.51086  0.65197  1.0000
  H   H493      1.0  0.08927  0.65190  0.69496  1.0000
  C   C424      1.0  0.07855  0.60982  0.68578  1.0000
  C   C425      1.0  0.44694  0.82400  0.63954  1.0000
  H   H494      1.0  0.45100  0.85306  0.69543  1.0000
  S   S112      1.0  0.38369  0.53574  0.50460  1.0000
  C   C426      1.0  0.46314  0.66033  0.68605  1.0000
  C   C427      1.0  0.30632  0.49350  0.68554  1.0000
  H   H495      1.0  0.13617  0.91197  0.72237  1.0000
  C   C428      1.0  0.15022  0.68776  0.70091  1.0000
  C   C429      1.0  0.32149  0.49987  0.66989  1.0000
  C   C430      1.0  0.31511  0.60938  0.52294  1.0000
  H   H496      1.0  0.15003  0.61195  0.70906  1.0000
  C   C431      1.0  0.42924  0.97105  0.52465  1.0000
  H   H497      1.0  0.16094  0.68396  0.68964  1.0000
  H   H498      1.0  0.47702  0.96923  0.64079  1.0000
  C   C432      1.0  0.18545  0.50790  0.62357  1.0000
  H   H499      1.0  0.13667  0.53002  0.65051  1.0000
  H   H500      1.0  0.31659  0.58864  0.52794  1.0000
  S   S113      1.0  0.08417  0.56503  0.50394  1.0000
  H   H501      1.0  0.30138  0.61409  0.53187  1.0000
  C   C433      1.0  0.43993  0.52260  0.54300  1.0000
  C   C434      1.0  0.23471  0.50553  0.64742  1.0000
  H   H502      1.0  0.46950  0.56106  0.56872  1.0000
  H   H503      1.0  0.10161  0.49054  0.69638  1.0000
  C   C435      1.0  0.13927  0.84715  0.74315  1.0000
  C   C436      1.0  0.12470  0.66812  0.72752  1.0000
  H   H504      1.0  0.24182  0.52829  0.65139  1.0000
  H   H505      1.0  0.46269  0.80906  0.66372  1.0000
  H   H506      1.0  0.18011  0.68081  0.73057  1.0000
  N   N26       1.0  0.46686  0.54856  0.54137  1.0000
  C   C437      1.0  0.47277  0.75713  0.66302  1.0000
  C   C438      1.0  0.45095  0.49073  0.59224  1.0000
  H   H507      1.0  0.45065  0.93134  0.55659  1.0000
  H   H508      1.0  0.47830  0.55580  0.65459  1.0000
  C   C439      1.0  0.43024  0.95721  0.50937  1.0000
  H   H509      1.0  0.47170  0.58520  0.66197  1.0000
  H   H510      1.0  0.19838  0.50181  0.61542  1.0000
  H   H511      1.0  0.45930  0.81461  0.59727  1.0000
  C   C440      1.0  0.27625  0.58193  0.50267  1.0000
  N   N27       1.0  0.30344  0.60803  0.50398  1.0000
  H   H512      1.0  0.47670  0.98489  0.68874  1.0000
  N   N28       1.0  0.20443  0.48841  0.65137  1.0000
  H   H513      1.0  0.47850  0.59365  0.53357  1.0000
  C   C441      1.0  0.32375  0.66227  0.49964  1.0000
  S   S114      1.0  0.01708  0.84813  0.99531  1.0000
  Fe  Fe56      1.0  0.05738  0.94441  0.79975  1.0000
  S   S115      1.0  0.01495  0.91004  0.80651  1.0000
  Fe  Fe57      1.0  0.07598  0.90156  0.78281  1.0000
  S   S116      1.0  0.03487  0.86421  0.78849  1.0000
  H   H514      1.0  0.46938  0.66084  0.93368  1.0000
  Fe  Fe58      1.0  0.01382  0.89477  0.77922  1.0000
  Fe  Fe59      1.0  0.03953  0.88288  0.81535  1.0000
  S   S117      1.0  0.03056  0.85337  0.84017  1.0000
  S   S118      1.0  0.05470  0.93128  0.77134  1.0000
  S   S119      1.0  0.08218  0.91804  0.81073  1.0000
  Fe  Fe60      1.0  0.04976  0.85791  0.97411  1.0000
  S   S120      1.0  0.09274  0.85528  0.98060  1.0000
  H   H515      1.0  0.24924  0.51980  0.79992  1.0000
  Fe  Fe61      1.0  0.06872  0.89075  0.93820  1.0000
  S   S121      1.0  0.11258  0.89064  0.94222  1.0000
  S   S122      1.0  0.06071  0.91637  0.91386  1.0000
  Fe  Fe62      1.0  0.09006  0.84442  0.95154  1.0000
  S   S123      1.0  0.09759  0.80722  0.94059  1.0000
  Fe  Fe63      1.0  0.11161  0.90191  0.97064  1.0000
  H   H516      1.0  0.20589  0.57712  0.79254  1.0000
  S   S124      1.0  0.04555  0.84373  0.94577  1.0000
  S   S125      1.0  0.06931  0.90534  0.96585  1.0000
  Fe  Fe64      1.0  0.20889  0.53658  0.86378  1.0000
  S   S126      1.0  0.18908  0.56629  0.85023  1.0000
  S   S127      1.0  0.29960  0.56792  0.90050  1.0000
  S   S128      1.0  0.25234  0.54276  0.85629  1.0000
  H   H517      1.0  0.10548  0.84039  0.90694  1.0000
  Fe  Fe65      1.0  0.42605  0.75555  0.88802  1.0000
  S   S129      1.0  0.43869  0.71908  0.89836  1.0000
  S   S130      1.0  0.39227  0.76207  0.90253  1.0000
  Fe  Fe66      1.0  0.43016  0.70632  0.86978  1.0000
  S   S131      1.0  0.40454  0.66092  0.86035  1.0000
  S   S132      1.0  0.41538  0.74120  0.85975  1.0000
  Fe  Fe67      1.0  0.18827  0.75277  0.84707  1.0000
  S   S133      1.0  0.17002  0.73737  0.87410  1.0000
  S   S134      1.0  0.16085  0.75861  0.82284  1.0000
  Fe  Fe68      1.0  0.24963  0.76793  0.86221  1.0000
  S   S135      1.0  0.23641  0.75466  0.89021  1.0000
  S   S136      1.0  0.29510  0.78559  0.85386  1.0000
  Fe  Fe69      1.0  0.20169  0.71618  0.87754  1.0000
  S   S137      1.0  0.19687  0.67382  0.89213  1.0000
  Fe  Fe70      1.0  0.20619  0.77710  0.88442  1.0000
  S   S138      1.0  0.20618  0.81157  0.90245  1.0000
  S   S139      1.0  0.21680  0.72818  0.84972  1.0000
  S   S140      1.0  0.22255  0.79368  0.85722  1.0000
  C   C442      1.0  0.36488  0.76756  0.88880  1.0000
  C   C443      1.0  0.36930  0.77827  0.87109  1.0000
  C   C444      1.0  0.34773  0.78382  0.86062  1.0000
  C   C445      1.0  0.32129  0.77785  0.86751  1.0000
  C   C446      1.0  0.31666  0.76675  0.88515  1.0000
  C   C447      1.0  0.33859  0.76208  0.89586  1.0000
  H   H518      1.0  0.38973  0.78328  0.86569  1.0000
  H   H519      1.0  0.35160  0.79307  0.84721  1.0000
  H   H520      1.0  0.29653  0.76245  0.89068  1.0000
  H   H521      1.0  0.33527  0.75430  0.90966  1.0000
  C   C448      1.0  0.32810  0.59399  0.88893  1.0000
  C   C449      1.0  0.33305  0.59003  0.87146  1.0000
  C   C450      1.0  0.35663  0.61069  0.86294  1.0000
  C   C451      1.0  0.37491  0.63590  0.87152  1.0000
  C   C452      1.0  0.36965  0.64017  0.88886  1.0000
  C   C453      1.0  0.34661  0.61907  0.89761  1.0000
  H   H522      1.0  0.31920  0.57064  0.86471  1.0000
  H   H523      1.0  0.36092  0.60700  0.84968  1.0000
  H   H524      1.0  0.38368  0.65941  0.89567  1.0000
  H   H525      1.0  0.34307  0.62216  0.91118  1.0000
  C   C454      1.0  0.19334  0.59716  0.86166  1.0000
  C   C455      1.0  0.18701  0.61932  0.85246  1.0000
  C   C456      1.0  0.18900  0.64353  0.86151  1.0000
  C   C457      1.0  0.19676  0.64533  0.87990  1.0000
  C   C458      1.0  0.20363  0.62344  0.88901  1.0000
  C   C459      1.0  0.20214  0.59954  0.87990  1.0000
  H   H526      1.0  0.18018  0.61760  0.83834  1.0000
  H   H527      1.0  0.18356  0.66026  0.85440  1.0000
  H   H528      1.0  0.20958  0.62471  0.90325  1.0000
  H   H529      1.0  0.20701  0.58263  0.88713  1.0000
  C   C460      1.0  0.12832  0.80885  0.93042  1.0000
  C   C461      1.0  0.15362  0.83380  0.93034  1.0000
  C   C462      1.0  0.17730  0.83420  0.92183  1.0000
  C   C463      1.0  0.17581  0.80992  0.91304  1.0000
  C   C464      1.0  0.15048  0.78504  0.91307  1.0000
  C   C465      1.0  0.12698  0.78447  0.92184  1.0000
  H   H530      1.0  0.15503  0.85264  0.93700  1.0000
  H   H531      1.0  0.19688  0.85348  0.92203  1.0000
  H   H532      1.0  0.14906  0.76614  0.90648  1.0000
  H   H533      1.0  0.10755  0.76504  0.92188  1.0000
  H   H534      1.0  0.16068  0.88377  0.87497  1.0000
  H   H535      1.0  0.14777  0.61309  0.91216  1.0000
  C   C466      1.0  0.99197  0.97136  0.76849  1.0000
  H   H536      1.0  0.21695  0.52044  0.82236  1.0000
  H   H537      1.0  0.15586  0.86574  0.89672  1.0000
  C   C467      1.0  0.23998  0.53224  0.79038  1.0000
  C   C468      1.0  0.03768  0.87109  0.86050  1.0000
  C   C469      1.0  0.04859  0.90124  0.86073  1.0000
  C   C470      1.0  0.05515  0.91494  0.87717  1.0000
  C   C471      1.0  0.05124  0.89860  0.89344  1.0000
  C   C472      1.0  0.04001  0.86844  0.89317  1.0000
  C   C473      1.0  0.03307  0.85472  0.87673  1.0000
  H   H538      1.0  0.05217  0.91409  0.84826  1.0000
  H   H539      1.0  0.06369  0.93829  0.87728  1.0000
  H   H540      1.0  0.03662  0.85565  0.90564  1.0000
  H   H541      1.0  0.02445  0.83137  0.87662  1.0000
  C   C474      1.0  0.18358  0.74413  0.76749  1.0000
  C   C475      1.0  0.16756  0.76060  0.76904  1.0000
  C   C476      1.0  0.16078  0.76502  0.78605  1.0000
  C   C477      1.0  0.17037  0.75342  0.80165  1.0000
  C   C478      1.0  0.18675  0.73730  0.80008  1.0000
  C   C479      1.0  0.19311  0.73246  0.78305  1.0000
  H   H542      1.0  0.16007  0.76964  0.75711  1.0000
  H   H543      1.0  0.14822  0.77758  0.78704  1.0000
  H   H544      1.0  0.19404  0.72805  0.81195  1.0000
  H   H545      1.0  0.20546  0.71965  0.78194  1.0000
  H   H546      1.0  0.35616  0.69120  0.83898  1.0000
  N   N29       1.0  0.29947  0.83410  0.90880  1.0000
  C   C480      1.0  0.30018  0.86056  0.91652  1.0000
  C   C481      1.0  0.28568  0.83229  0.89033  1.0000
  C   C482      1.0  0.28102  0.80852  0.91949  1.0000
  C   C483      1.0  0.32887  0.83500  0.90941  1.0000
  C   C484      1.0  0.34354  0.83746  0.89371  1.0000
  C   C485      1.0  0.34372  0.83332  0.92614  1.0000
  C   C486      1.0  0.37081  0.83701  0.89480  1.0000
  C   C487      1.0  0.37084  0.83252  0.92705  1.0000
  C   C488      1.0  0.38422  0.83404  0.91139  1.0000
  H   H547      1.0  0.31391  0.88030  0.90891  1.0000
  H   H548      1.0  0.27831  0.86057  0.91619  1.0000
  H   H549      1.0  0.30874  0.86260  0.93076  1.0000
  H   H550      1.0  0.29705  0.85183  0.88179  1.0000
  H   H551      1.0  0.26324  0.83053  0.89030  1.0000
  H   H552      1.0  0.28478  0.81294  0.88370  1.0000
  H   H553      1.0  0.28672  0.81038  0.93413  1.0000
  H   H554      1.0  0.25807  0.80532  0.91778  1.0000
  H   H555      1.0  0.28255  0.78845  0.91547  1.0000
  H   H556      1.0  0.33415  0.83884  0.88034  1.0000
  H   H557      1.0  0.33428  0.83216  0.93866  1.0000
  H   H558      1.0  0.38124  0.83792  0.88266  1.0000
  H   H559      1.0  0.38146  0.83031  0.93993  1.0000
  H   H560      1.0  0.40487  0.83252  0.91208  1.0000
  N   N30       1.0  0.29625  0.67311  0.88585  1.0000
  C   C489      1.0  0.32048  0.68043  0.89970  1.0000
  C   C490      1.0  0.27453  0.68198  0.89243  1.0000
  C   C491      1.0  0.28302  0.64128  0.88419  1.0000
  C   C492      1.0  0.30672  0.68719  0.86835  1.0000
  C   C493      1.0  0.29529  0.70552  0.85819  1.0000
  C   C494      1.0  0.32882  0.68233  0.86079  1.0000
  C   C495      1.0  0.30555  0.71813  0.84162  1.0000
  C   C496      1.0  0.33899  0.69511  0.84424  1.0000
  C   C497      1.0  0.32731  0.71295  0.83465  1.0000
  H   H561      1.0  0.33246  0.70426  0.90034  1.0000
  H   H562      1.0  0.31316  0.67185  0.91330  1.0000
  H   H563      1.0  0.26684  0.67098  0.90553  1.0000
  H   H564      1.0  0.25519  0.67625  0.88300  1.0000
  H   H565      1.0  0.28328  0.70566  0.89438  1.0000
  H   H566      1.0  0.29836  0.63257  0.88022  1.0000
  H   H567      1.0  0.27491  0.62975  0.89710  1.0000
  H   H568      1.0  0.26459  0.63487  0.87397  1.0000
  H   H569      1.0  0.27868  0.71091  0.86282  1.0000
  H   H570      1.0  0.08862  0.50150  0.90873  1.0000
  H   H571      1.0  0.29677  0.73244  0.83432  1.0000
  H   H572      1.0  0.33514  0.72287  0.82183  1.0000
  N   N31       1.0  0.39948  0.77707  0.79745  1.0000
  C   C498      1.0  0.40208  0.75895  0.81346  1.0000
  C   C499      1.0  0.40850  0.76686  0.78191  1.0000
  C   C500      1.0  0.41977  0.80743  0.80019  1.0000
  H   H573      1.0  0.42386  0.75900  0.81555  1.0000
  H   H574      1.0  0.39530  0.74362  0.77962  1.0000
  H   H575      1.0  0.43106  0.76875  0.78408  1.0000
  H   H576      1.0  0.41671  0.82222  0.78920  1.0000
  H   H577      1.0  0.15599  0.80540  0.84713  1.0000
  H   H578      1.0  0.41769  0.81549  0.81317  1.0000
  H   H579      1.0  0.07948  0.83734  0.78876  1.0000
  C   C501      1.0  0.28184  0.57438  0.81271  1.0000
  S   S141      1.0  0.47568  0.73241  0.86298  1.0000
  C   C502      1.0  0.45930  0.62594  0.90618  1.0000
  H   H580      1.0  0.08317  0.80839  0.83536  1.0000
  H   H581      1.0  0.28840  0.55984  0.80625  1.0000
  H   H582      1.0  0.15500  0.87142  0.76719  1.0000
  H   H583      1.0  0.42139  0.63385  0.89660  1.0000
  C   C503      1.0  0.14174  0.51085  0.88170  1.0000
  H   H584      1.0  0.98718  0.79248  0.97793  1.0000
  S   S142      1.0  0.06558  0.98664  0.81213  1.0000
  H   H585      1.0  0.06974  0.83059  0.82063  1.0000
  C   C504      1.0  0.07481  0.97869  0.94701  1.0000
  Fe  Fe71      1.0  0.23410  0.49446  0.85461  1.0000
  C   C505      1.0  0.13924  0.56911  0.90612  1.0000
  H   H586      1.0  0.16806  0.53157  0.91345  1.0000
  H   H587      1.0  0.12857  0.62469  0.88271  1.0000
  H   H588      1.0  0.10895  0.58769  0.85978  1.0000
  H   H589      1.0  0.16293  0.52822  0.87917  1.0000
  H   H590      1.0  0.07559  0.83542  0.89090  1.0000
  H   H591      1.0  0.10330  0.77614  0.82142  1.0000
  C   C506      1.0  0.12789  0.60309  0.88571  1.0000
  H   H592      1.0  0.44244  0.80987  0.80057  1.0000
  C   C507      1.0  0.11889  0.82779  0.87450  1.0000
  H   H593      1.0  0.19006  0.51478  0.80420  1.0000
  H   H594      1.0  0.26343  0.62766  0.83863  1.0000
  C   C508      1.0  0.12869  0.54745  0.89313  1.0000
  H   H595      1.0  0.23336  0.58134  0.77785  1.0000
  H   H596      1.0  0.39823  0.76683  0.82603  1.0000
  H   H597      1.0  0.33848  0.66860  0.86767  1.0000
  H   H598      1.0  0.09036  0.75396  0.88164  1.0000
  H   H599      1.0  0.33615  0.67134  0.89707  1.0000
  C   C509      1.0  0.11443  0.87214  0.75708  1.0000
  H   H600      1.0  0.32231  0.79104  0.81769  1.0000
  Fe  Fe72      1.0  0.26115  0.53480  0.88549  1.0000
  C   C510      1.0  0.42994  0.61777  0.90060  1.0000
  C   C511      1.0  0.42074  0.56702  0.90493  1.0000
  C   C512      1.0  0.25327  0.57268  0.81089  1.0000
  C   C513      1.0  0.24741  0.59274  0.82044  1.0000
  S   S143      1.0  0.11453  0.89518  0.77389  1.0000
  H   H601      1.0  0.38680  0.73607  0.81216  1.0000
  C   C514      1.0  0.41101  0.58878  0.89998  1.0000
  H   H602      1.0  0.10728  0.86864  0.81151  1.0000
  C   C515      1.0  0.21693  0.56544  0.78637  1.0000
  H   H603      1.0  0.19794  0.89684  0.81870  1.0000
  H   H604      1.0  0.09914  0.97795  0.91740  1.0000
  C   C516      1.0  0.07411  0.81064  0.82152  1.0000
  C   C517      1.0  0.11701  0.58227  0.87281  1.0000
  C   C518      1.0  0.17705  0.87938  0.81695  1.0000
  N   N32       1.0  0.23011  0.55086  0.80001  1.0000
  C   C519      1.0  0.44943  0.57420  0.91051  1.0000
  H   H605      1.0  0.07169  0.76430  0.80651  1.0000
  Fe  Fe73      1.0  0.46162  0.76859  0.85565  1.0000
  H   H606      1.0  0.20042  0.54962  0.77737  1.0000
  C   C520      1.0  0.35864  0.78543  0.80862  1.0000
  N   N33       1.0  0.09359  0.81078  0.80791  1.0000
  S   S144      1.0  0.21826  0.53099  0.89323  1.0000
  C   C521      1.0  0.20781  0.53167  0.81184  1.0000
  H   H607      1.0  0.22608  0.59238  0.82006  1.0000
  H   H608      1.0  0.25626  0.54510  0.78078  1.0000
  H   H609      1.0  0.45688  0.55714  0.91434  1.0000
  C   C522      1.0  0.08180  0.81631  0.78987  1.0000
  C   C523      1.0  0.12234  0.83386  0.81141  1.0000
  C   C524      1.0  0.14787  0.82879  0.81244  1.0000
  C   C525      1.0  0.12554  0.86279  0.81312  1.0000
  C   C526      1.0  0.12286  0.77704  0.86341  1.0000
  H   H610      1.0  0.06029  0.79934  0.78643  1.0000
  H   H611      1.0  0.14778  0.80768  0.81099  1.0000
  H   H612      1.0  0.08654  0.79662  0.89156  1.0000
  H   H613      1.0  0.11367  0.95543  0.94286  1.0000
  H   H614      1.0  0.08449  0.85207  0.85900  1.0000
  C   C527      1.0  0.13875  0.59646  0.90236  1.0000
  C   C528      1.0  0.15249  0.88516  0.81579  1.0000
  H   H615      1.0  0.15191  0.84938  0.85556  1.0000
  N   N34       1.0  0.12890  0.51825  0.89657  1.0000
  C   C529      1.0  0.14036  0.80401  0.85643  1.0000
  H   H616      1.0  0.14847  0.56575  0.91916  1.0000
  H   H617      1.0  0.35755  0.75534  0.76894  1.0000
  H   H618      1.0  0.09613  0.81714  0.77928  1.0000
  H   H619      1.0  0.05273  0.79254  0.81981  1.0000
  H   H620      1.0  0.40597  0.54455  0.90441  1.0000
  C   C530      1.0  0.30296  0.59482  0.82346  1.0000
  H   H621      1.0  0.10306  0.88733  0.86776  1.0000
  C   C531      1.0  0.46857  0.60321  0.91118  1.0000
  S   S145      1.0  0.47720  0.79935  0.83167  1.0000
  C   C532      1.0  0.14548  0.51554  0.91346  1.0000
  C   C533      1.0  0.35102  0.76339  0.77995  1.0000
  H   H622      1.0  0.10573  0.77893  0.79740  1.0000
  C   C534      1.0  0.10341  0.77496  0.87585  1.0000
  H   H623      1.0  0.09741  0.87045  0.89864  1.0000
  N   N35       1.0  0.11706  0.85464  0.87984  1.0000
  H   H624      1.0  0.32447  0.59541  0.82485  1.0000
  C   C535      1.0  0.09368  0.78134  0.80839  1.0000
  H   H625      1.0  0.14432  0.98673  0.95013  1.0000
  H   H626      1.0  0.44686  0.66938  0.91658  1.0000
  C   C536      1.0  0.13816  0.82903  0.86161  1.0000
  H   H627      1.0  0.12016  0.87402  0.85294  1.0000
  C   C537      1.0  0.10582  0.86761  0.86420  1.0000
  C   C538      1.0  0.14585  0.87571  0.88593  1.0000
  H   H628      1.0  0.10835  0.53940  0.86601  1.0000
  C   C539      1.0  0.09806  0.84990  0.89469  1.0000
  C   C540      1.0  0.12071  0.97528  0.95072  1.0000
  H   H629      1.0  0.14485  0.89515  0.89143  1.0000
  C   C541      1.0  0.10142  0.79987  0.88143  1.0000
  C   C542      1.0  0.29639  0.61399  0.83276  1.0000
  H   H630      1.0  0.19791  0.54360  0.81882  1.0000
  H   H631      1.0  0.13570  0.51819  0.92551  1.0000
  C   C543      1.0  0.31256  0.77145  0.79211  1.0000
  H   H632      1.0  0.12468  0.75774  0.85932  1.0000
  H   H633      1.0  0.08587  0.49625  0.88510  1.0000
  H   H634      1.0  0.40755  0.77992  0.76941  1.0000
  H   H635      1.0  0.29072  0.77003  0.79095  1.0000
  C   C544      1.0  0.36981  0.77543  0.79513  1.0000
  C   C545      1.0  0.32285  0.76157  0.77854  1.0000
  C   C546      1.0  0.46900  0.67095  0.92000  1.0000
  C   C547      1.0  0.11709  0.55476  0.87647  1.0000
  H   H636      1.0  0.22204  0.51578  0.78252  1.0000
  H   H637      1.0  0.37175  0.79485  0.82049  1.0000
  H   H638      1.0  0.15428  0.90724  0.81622  1.0000
  H   H639      1.0  0.31277  0.62929  0.84136  1.0000
  C   C548      1.0  0.33043  0.78335  0.80714  1.0000
  C   C549      1.0  0.17472  0.85123  0.81533  1.0000
  C   C550      1.0  0.26868  0.61303  0.83121  1.0000
  H   H640      1.0  0.19384  0.84671  0.81599  1.0000
  H   H641      1.0  0.38867  0.58324  0.89560  1.0000
  H   H642      1.0  0.06488  0.95866  0.93925  1.0000
  H   H643      1.0  0.46532  0.74126  0.82115  1.0000
  S   S146      1.0  0.15115  0.93806  0.98268  1.0000
  H   H644      1.0  0.01296  0.98068  0.77533  1.0000
  H   H645      1.0  0.30886  0.75255  0.76680  1.0000
  H   H646      1.0  0.45674  0.67193  0.88480  1.0000
  H   H647      1.0  0.00655  0.94936  0.75060  1.0000
  H   H648      1.0  0.47000  0.72311  0.79226  1.0000
  N   N36       1.0  0.47866  0.65691  0.90679  1.0000
  H   H649      1.0  0.12844  0.50779  0.86886  1.0000
  C   C551      1.0  0.09915  0.49666  0.89776  1.0000
  H   H650      1.0  0.99034  0.88675  0.84166  1.0000
  S   S147      1.0  0.47140  0.78632  0.88332  1.0000
  C   C552      1.0  0.47778  0.74616  0.79394  1.0000
  C   C553      1.0  0.47518  0.75640  0.81032  1.0000
  C   C554      1.0  0.13781  0.86418  0.75682  1.0000
  H   H651      1.0  0.11661  0.96764  0.96487  1.0000
  C   C555      1.0  0.98482  0.98406  0.80541  1.0000
  C   C556      1.0  0.15084  0.96514  0.99638  1.0000
  C   C557      1.0  0.47790  0.67125  0.88883  1.0000
  C   C558      1.0  0.98867  0.95378  0.75420  1.0000
  H   H652      1.0  0.07094  0.97161  0.96129  1.0000
  H   H653      1.0  0.00678  0.98559  0.80380  1.0000
  S   S148      1.0  0.18962  0.48889  0.85952  1.0000
  H   H654      1.0  0.14635  0.49379  0.91530  1.0000
  H   H655      1.0  0.14481  0.49029  0.88467  1.0000
  C   C559      1.0  0.78578  0.00404  0.01571  1.0000
  Fe  Fe74      1.0  0.88535  0.05744  0.21691  1.0000
  S   S149      1.0  0.89924  0.06580  0.18868  1.0000
  S   S150      1.0  0.89401  0.02245  0.23382  1.0000
  Fe  Fe75      1.0  0.87070  0.11070  0.21668  1.0000
  S   S151      1.0  0.88458  0.12329  0.18856  1.0000
  Fe  Fe76      1.0  0.86077  0.07680  0.18271  1.0000
  S   S152      1.0  0.82996  0.06673  0.15819  1.0000
  Fe  Fe77      1.0  0.92195  0.11155  0.19696  1.0000
  S   S153      1.0  0.84444  0.06423  0.21032  1.0000
  Fe  Fe78      1.0  0.81361  0.08595  0.02832  1.0000
  S   S154      1.0  0.82792  0.13239  0.01821  1.0000
  H   H656      1.0  0.50727  0.19413  0.13738  1.0000
  Fe  Fe79      1.0  0.85999  0.10185  0.05867  1.0000
  S   S155      1.0  0.87819  0.14894  0.05024  1.0000
  S   S156      1.0  0.88381  0.08997  0.08272  1.0000
  Fe  Fe80      1.0  0.83214  0.14364  0.04712  1.0000
  S   S157      1.0  0.82483  0.18173  0.05697  1.0000
  Fe  Fe81      1.0  0.87273  0.13417  0.02209  1.0000
  H   H657      1.0  0.82840  0.18001  0.23582  1.0000
  S   S158      1.0  0.81417  0.09720  0.05715  1.0000
  S   S159      1.0  0.85812  0.08706  0.03070  1.0000
  Fe  Fe82      1.0  0.71705  0.44959  0.14038  1.0000
  S   S160      1.0  0.70802  0.45395  0.11084  1.0000
  S   S161      1.0  0.73642  0.41898  0.15310  1.0000
  S   S162      1.0  0.62735  0.41902  0.10300  1.0000
  S   S163      1.0  0.67405  0.44540  0.14794  1.0000
  S   S164      1.0  0.91050  0.10311  0.22561  1.0000
  S   S165      1.0  0.51508  0.33007  0.13872  1.0000
  S   S166      1.0  0.52603  0.21879  0.10244  1.0000
  Fe  Fe83      1.0  0.73853  0.23626  0.15521  1.0000
  S   S167      1.0  0.75756  0.24902  0.12835  1.0000
  S   S168      1.0  0.76669  0.23338  0.17972  1.0000
  Fe  Fe84      1.0  0.67799  0.22500  0.13940  1.0000
  S   S169      1.0  0.69179  0.23546  0.11124  1.0000
  S   S170      1.0  0.63486  0.21736  0.14936  1.0000
  Fe  Fe85      1.0  0.71963  0.21041  0.11851  1.0000
  S   S171      1.0  0.72248  0.17460  0.10281  1.0000
  Fe  Fe86      1.0  0.72855  0.27309  0.12345  1.0000
  S   S172      1.0  0.73886  0.31711  0.10953  1.0000
  S   S173      1.0  0.70213  0.19634  0.14581  1.0000
  S   S174      1.0  0.71329  0.26395  0.15119  1.0000
  C   C560      1.0  0.55841  0.22213  0.11459  1.0000
  C   C561      1.0  0.56467  0.23213  0.13200  1.0000
  C   C562      1.0  0.58870  0.23133  0.14222  1.0000
  C   C563      1.0  0.60735  0.22151  0.13503  1.0000
  C   C564      1.0  0.60213  0.21299  0.11726  1.0000
  C   C565      1.0  0.57751  0.21301  0.10714  1.0000
  H   H658      1.0  0.55070  0.23975  0.13787  1.0000
  H   H659      1.0  0.59260  0.23792  0.15591  1.0000
  H   H660      1.0  0.61633  0.20519  0.11161  1.0000
  H   H661      1.0  0.57294  0.20534  0.09364  1.0000
  C   C566      1.0  0.59730  0.39343  0.11366  1.0000
  C   C567      1.0  0.57814  0.36954  0.10417  1.0000
  C   C568      1.0  0.55330  0.34950  0.11187  1.0000
  C   C569      1.0  0.54710  0.35353  0.12901  1.0000
  C   C570      1.0  0.56643  0.37719  0.13860  1.0000
  C   C571      1.0  0.59157  0.39689  0.13105  1.0000
  H   H662      1.0  0.58233  0.36675  0.09069  1.0000
  H   H663      1.0  0.53857  0.33144  0.10431  1.0000
  H   H664      1.0  0.56187  0.38049  0.15187  1.0000
  H   H665      1.0  0.60609  0.41522  0.13846  1.0000
  C   C572      1.0  0.73466  0.38955  0.14101  1.0000
  C   C573      1.0  0.74095  0.36727  0.15007  1.0000
  C   C574      1.0  0.74157  0.34453  0.14061  1.0000
  C   C575      1.0  0.73646  0.34426  0.12195  1.0000
  C   C576      1.0  0.72998  0.36643  0.11289  1.0000
  C   C577      1.0  0.72865  0.38875  0.12242  1.0000
  H   H666      1.0  0.74570  0.36776  0.16445  1.0000
  H   H667      1.0  0.74694  0.32776  0.14770  1.0000
  H   H668      1.0  0.72609  0.36638  0.09846  1.0000
  H   H669      1.0  0.72366  0.40563  0.11532  1.0000
  S   S175      1.0  0.85454  0.14310  0.22615  1.0000
  C   C578      1.0  0.96774  0.04915  0.16769  1.0000
  C   C579      1.0  0.95143  0.19648  0.00868  1.0000
  H   H670      1.0  0.89689  0.20462  0.24434  1.0000
  H   H671      1.0  0.94245  0.19520  0.02138  1.0000
  S   S176      1.0  0.96490  0.14282  0.18802  1.0000
  C   C580      1.0  0.92834  0.26212  0.00447  1.0000
  H   H672      1.0  0.75076  0.44123  0.09307  1.0000
  C   C581      1.0  0.79571  0.17946  0.06920  1.0000
  C   C582      1.0  0.79684  0.20435  0.07708  1.0000
  C   C583      1.0  0.77453  0.20335  0.08727  1.0000
  C   C584      1.0  0.75079  0.17738  0.08967  1.0000
  C   C585      1.0  0.74966  0.15250  0.08178  1.0000
  C   C586      1.0  0.77195  0.15350  0.07158  1.0000
  H   H673      1.0  0.81511  0.22455  0.07536  1.0000
  H   H674      1.0  0.77573  0.22264  0.09328  1.0000
  H   H675      1.0  0.73137  0.13232  0.08352  1.0000
  H   H676      1.0  0.77070  0.13418  0.06556  1.0000
  C   C587      1.0  0.84506  0.07217  0.13734  1.0000
  C   C588      1.0  0.82732  0.06857  0.12151  1.0000
  C   C589      1.0  0.83898  0.07382  0.10468  1.0000
  C   C590      1.0  0.86845  0.08262  0.10360  1.0000
  C   C591      1.0  0.88613  0.08577  0.11943  1.0000
  C   C592      1.0  0.87452  0.08079  0.13628  1.0000
  H   H677      1.0  0.80450  0.06162  0.12225  1.0000
  H   H678      1.0  0.82513  0.07071  0.09255  1.0000
  H   H679      1.0  0.90893  0.09246  0.11866  1.0000
  H   H680      1.0  0.88837  0.08374  0.14842  1.0000
  C   C593      1.0  0.75121  0.22788  0.20053  1.0000
  C   C594      1.0  0.76698  0.22490  0.21631  1.0000
  C   C595      1.0  0.75516  0.22059  0.23307  1.0000
  C   C596      1.0  0.72757  0.21951  0.23417  1.0000
  C   C597      1.0  0.71175  0.22231  0.21836  1.0000
  C   C598      1.0  0.72348  0.22639  0.20158  1.0000
  H   H681      1.0  0.78846  0.22612  0.21561  1.0000
  H   H682      1.0  0.97184  0.29357  0.00340  1.0000
  H   H683      1.0  0.69039  0.22144  0.21907  1.0000
  H   H684      1.0  0.71111  0.22857  0.18948  1.0000
  C   C599      1.0  0.49296  0.30639  0.18124  1.0000
  C   C600      1.0  0.62166  0.30050  0.10828  1.0000
  C   C601      1.0  0.80008  0.42409  0.12351  1.0000
  S   S177      1.0  0.50278  0.25014  0.14210  1.0000
  H   H685      1.0  0.54226  0.17008  0.13672  1.0000
  C   C602      1.0  0.52572  0.15035  0.14276  1.0000
  C   C603      1.0  0.81379  0.21405  0.14346  1.0000
  C   C604      1.0  0.77202  0.01963  0.00554  1.0000
  H   H686      1.0  0.57845  0.29352  0.18194  1.0000
  H   H687      1.0  0.87892  0.16269  0.13731  1.0000
  C   C605      1.0  0.82348  0.13795  0.10604  1.0000
  H   H688      1.0  0.84503  0.13284  0.13973  1.0000
  Fe  Fe87      1.0  0.48974  0.28477  0.12895  1.0000
  H   H689      1.0  0.89110  0.99142  0.18654  1.0000
  C   C606      1.0  0.83656  0.14254  0.24546  1.0000
  H   H690      1.0  0.76740  0.45712  0.12557  1.0000
  H   H691      1.0  0.84417  0.99230  0.21000  1.0000
  C   C607      1.0  0.80564  0.38429  0.11057  1.0000
  H   H692      1.0  0.87532  0.16787  0.09628  1.0000
  H   H693      1.0  0.85664  0.23425  0.15510  1.0000
  H   H694      1.0  0.80689  0.12253  0.11464  1.0000
  H   H695      1.0  0.96724  0.07039  0.16513  1.0000
  C   C608      1.0  0.97861  0.21814  0.00531  1.0000
  H   H696      1.0  0.62525  0.48303  0.23444  1.0000
  H   H697      1.0  0.51305  0.13713  0.13130  1.0000
  H   H698      1.0  0.79735  0.43265  0.13567  1.0000
  S   S178      1.0  0.48395  0.26942  0.10094  1.0000
  H   H699      1.0  0.80217  0.43285  0.07790  1.0000
  C   C609      1.0  0.82599  0.16407  0.24671  1.0000
  H   H700      1.0  0.86428  0.19705  0.02914  1.0000
  H   H701      1.0  0.82602  0.48340  0.08411  1.0000
  H   H702      1.0  0.68502  0.00414  0.00978  1.0000
  H   H703      1.0  0.83578  0.19056  0.00087  1.0000
  C   C610      1.0  0.55365  0.18446  0.17295  1.0000
  C   C611      1.0  0.84231  0.21770  0.14630  1.0000
  N   N37       1.0  0.64069  0.31470  0.12399  1.0000
  C   C612      1.0  0.65366  0.34636  0.12007  1.0000
  C   C613      1.0  0.66408  0.30408  0.12613  1.0000
  C   C614      1.0  0.62403  0.30876  0.14007  1.0000
  C   C615      1.0  0.63192  0.29725  0.15661  1.0000
  C   C616      1.0  0.61565  0.29199  0.17152  1.0000
  C   C617      1.0  0.59116  0.29790  0.17043  1.0000
  H   H704      1.0  0.66773  0.35786  0.13171  1.0000
  H   H705      1.0  0.66695  0.35193  0.10828  1.0000
  H   H706      1.0  0.63730  0.35570  0.11702  1.0000
  H   H707      1.0  0.68049  0.31532  0.13686  1.0000
  H   H708      1.0  0.67574  0.30801  0.11368  1.0000
  H   H709      1.0  0.65572  0.28034  0.12927  1.0000
  H   H710      1.0  0.63387  0.30310  0.09624  1.0000
  H   H711      1.0  0.65030  0.29161  0.15831  1.0000
  H   H712      1.0  0.62197  0.28291  0.18389  1.0000
  C   C618      1.0  0.59939  0.31524  0.13963  1.0000
  N   N38       1.0  0.78857  0.14579  0.18853  1.0000
  C   C619      1.0  0.81994  0.16171  0.18785  1.0000
  C   C620      1.0  0.77677  0.16643  0.19370  1.0000
  C   C621      1.0  0.78281  0.12266  0.20289  1.0000
  C   C622      1.0  0.77635  0.13286  0.17099  1.0000
  C   C623      1.0  0.78513  0.11229  0.16439  1.0000
  C   C624      1.0  0.75590  0.14027  0.15996  1.0000
  C   C625      1.0  0.77391  0.09965  0.14793  1.0000
  C   C626      1.0  0.74488  0.12755  0.14346  1.0000
  C   C627      1.0  0.75380  0.10725  0.13748  1.0000
  H   H713      1.0  0.82517  0.17808  0.17653  1.0000
  H   H714      1.0  0.82973  0.17319  0.20044  1.0000
  H   H715      1.0  0.83103  0.14712  0.18629  1.0000
  H   H716      1.0  0.78169  0.18525  0.18395  1.0000
  H   H717      1.0  0.78605  0.17551  0.20703  1.0000
  H   H718      1.0  0.75319  0.15594  0.19470  1.0000
  H   H719      1.0  0.79411  0.10826  0.20135  1.0000
  H   H720      1.0  0.79034  0.13172  0.21640  1.0000
  H   H721      1.0  0.75952  0.10899  0.20310  1.0000
  H   H722      1.0  0.80071  0.10564  0.17196  1.0000
  H   H723      1.0  0.74818  0.15603  0.16363  1.0000
  H   H724      1.0  0.78079  0.08371  0.14336  1.0000
  H   H725      1.0  0.72950  0.13375  0.13515  1.0000
  H   H726      1.0  0.74513  0.09749  0.12470  1.0000
  H   H727      1.0  0.88538  0.19711  0.11105  1.0000
  C   C628      1.0  0.86006  0.14704  0.12979  1.0000
  C   C629      1.0  0.50968  0.18719  0.18038  1.0000
  C   C630      1.0  0.49217  0.17259  0.14221  1.0000
  C   C631      1.0  0.85247  0.20039  0.13769  1.0000
  C   C632      1.0  0.80352  0.39791  0.12552  1.0000
  Fe  Fe88      1.0  0.49505  0.23346  0.11434  1.0000
  C   C633      1.0  0.96192  0.02627  0.23578  1.0000
  C   C634      1.0  0.83420  0.17864  0.12600  1.0000
  C   C635      1.0  0.77000  0.46084  0.08978  1.0000
  H   H728      1.0  0.80671  0.38638  0.08195  1.0000
  C   C636      1.0  0.56834  0.20221  0.18714  1.0000
  H   H729      1.0  0.77335  0.19084  0.12942  1.0000
  C   C637      1.0  0.94227  0.99687  0.17365  1.0000
  H   H730      1.0  0.51319  0.21249  0.20307  1.0000
  C   C638      1.0  0.79878  0.43752  0.10625  1.0000
  C   C639      1.0  0.48984  0.34470  0.19676  1.0000
  H   H731      1.0  0.95807  0.07492  0.23591  1.0000
  H   H732      1.0  0.49852  0.29579  0.19365  1.0000
  H   H733      1.0  0.78986  0.16024  0.11442  1.0000
  H   H734      1.0  0.64925  0.46687  0.24394  1.0000
  C   C640      1.0  0.55385  0.21238  0.19791  1.0000
  H   H735      1.0  0.48826  0.25845  0.21624  1.0000
  H   H736      1.0  0.49671  0.11926  0.17103  1.0000
  C   C641      1.0  0.52381  0.17664  0.16900  1.0000
  H   H737      1.0  0.80042  0.01385  0.02699  1.0000
  H   H738      1.0  0.80588  0.22755  0.15006  1.0000
  H   H739      1.0  0.56535  0.22613  0.20888  1.0000
  H   H740      1.0  0.81305  0.14693  0.09503  1.0000
  H   H741      1.0  0.49858  0.33711  0.20933  1.0000
  H   H742      1.0  0.60535  0.30954  0.10424  1.0000
  H   H743      1.0  0.80321  0.38741  0.13872  1.0000
  C   C642      1.0  0.80530  0.17569  0.12330  1.0000
  H   H744      1.0  0.48488  0.35111  0.16210  1.0000
  C   C643      1.0  0.86675  0.18030  0.10403  1.0000
  H   H745      1.0  0.61013  0.27690  0.11120  1.0000
  H   H746      1.0  0.87488  0.20446  0.14003  1.0000
  C   C644      1.0  0.58310  0.30959  0.15453  1.0000
  H   H747      1.0  0.80682  0.36326  0.11217  1.0000
  C   C645      1.0  0.79543  0.19323  0.13190  1.0000
  C   C646      1.0  0.52455  0.20479  0.19459  1.0000
  C   C647      1.0  0.94233  0.02501  0.17039  1.0000
  H   H748      1.0  0.59257  0.32486  0.12773  1.0000
  Fe  Fe89      1.0  0.66557  0.45174  0.11839  1.0000
  N   N39       1.0  0.79400  0.46464  0.10348  1.0000
  H   H749      1.0  0.85669  0.19156  0.09408  1.0000
  C   C648      1.0  0.48614  0.13058  0.16156  1.0000
  H   H750      1.0  0.86827  0.13328  0.12304  1.0000
  H   H751      1.0  0.53662  0.13758  0.15051  1.0000
  H   H752      1.0  0.56419  0.31443  0.15369  1.0000
  C   C649      1.0  0.88422  0.20913  0.02213  1.0000
  N   N40       1.0  0.50749  0.15789  0.15410  1.0000
  N   N41       1.0  0.84569  0.16118  0.11663  1.0000
  H   H753      1.0  0.92301  0.02898  0.16970  1.0000
  H   H754      1.0  0.59123  0.20829  0.18959  1.0000
  C   C650      1.0  0.80529  0.39726  0.09354  1.0000
  H   H755      1.0  0.97271  0.10709  0.12532  1.0000
  H   H756      1.0  0.83281  0.12517  0.09929  1.0000
  C   C651      1.0  0.80230  0.42366  0.09137  1.0000
  N   N42       1.0  0.87852  0.22339  0.00512  1.0000
  H   H757      1.0  0.94997  0.03186  0.22395  1.0000
  H   H758      1.0  0.88011  0.26004  0.01921  1.0000
  H   H759      1.0  0.76747  0.21827  0.24510  1.0000
  H   H760      1.0  0.92632  0.26932  0.01729  1.0000
  H   H761      1.0  0.51336  0.32227  0.17605  1.0000
  H   H762      1.0  0.89938  0.22473  0.03172  1.0000
  H   H763      1.0  0.50866  0.36129  0.19027  1.0000
  H   H764      1.0  0.89361  0.19344  0.01958  1.0000
  H   H765      1.0  0.56643  0.17770  0.16508  1.0000
  H   H766      1.0  0.95327  0.02950  0.24819  1.0000
  S   S179      1.0  0.77614  0.05455  0.01138  1.0000
  H   H767      1.0  0.76373  0.47969  0.08877  1.0000
  C   C652      1.0  0.78688  0.47407  0.12003  1.0000
  H   H768      1.0  0.77533  0.45869  0.07607  1.0000
  H   H769      1.0  0.48695  0.18188  0.17840  1.0000
  H   H770      1.0  0.48325  0.28968  0.17102  1.0000
  H   H771      1.0  0.84528  0.23310  0.01531  1.0000
  C   C653      1.0  0.86633  0.24426  0.00926  1.0000
  H   H772      1.0  0.72419  0.01009  0.03296  1.0000
  H   H773      1.0  0.95660  0.00270  0.23534  1.0000
  H   H774      1.0  0.80470  0.47938  0.13062  1.0000
  H   H775      1.0  0.48138  0.16019  0.13008  1.0000
  H   H776      1.0  0.97361  0.12698  0.23570  1.0000
  C   C654      1.0  0.96909  0.99460  0.17405  1.0000
  H   H777      1.0  0.48150  0.24099  0.18517  1.0000
  C   C655      1.0  0.71198  0.98906  0.02742  1.0000
  C   C656      1.0  0.64702  0.48775  0.24093  1.0000
  Fe  Fe90      1.0  0.86998  0.46192  0.40662  1.0000
  S   S180      1.0  0.88949  0.42924  0.40818  1.0000
  C   C657      1.0  0.89874  0.17871  0.26800  1.0000
  H   H778      1.0  0.63927  0.47267  0.44319  1.0000
  S   S181      1.0  0.90103  0.44472  0.36572  1.0000
  Fe  Fe91      1.0  0.86524  0.41415  0.38171  1.0000
  S   S182      1.0  0.83521  0.36698  0.37759  1.0000
  Fe  Fe92      1.0  0.92393  0.46281  0.39220  1.0000
  S   S183      1.0  0.84285  0.44442  0.38152  1.0000
  C   C658      1.0  0.62548  0.46087  0.27648  1.0000
  C   C659      1.0  0.48538  0.09731  0.49774  1.0000
  S   S184      1.0  0.53274  0.05651  0.40443  1.0000
  Fe  Fe93      1.0  0.50247  0.08902  0.36231  1.0000
  S   S185      1.0  0.54376  0.11442  0.37760  1.0000
  H   H779      1.0  0.61558  0.16219  0.26716  1.0000
  Fe  Fe94      1.0  0.55280  0.07456  0.37797  1.0000
  S   S186      1.0  0.59298  0.07207  0.36872  1.0000
  Fe  Fe95      1.0  0.52016  0.09469  0.40224  1.0000
  S   S187      1.0  0.51712  0.12348  0.42292  1.0000
  S   S188      1.0  0.51275  0.05000  0.36119  1.0000
  C   C660      1.0  0.78876  0.33554  0.30708  1.0000
  Fe  Fe96      1.0  0.77403  0.17932  0.29910  1.0000
  S   S189      1.0  0.78605  0.22116  0.28287  1.0000
  S   S190      1.0  0.79431  0.14714  0.29632  1.0000
  Fe  Fe97      1.0  0.73022  0.19105  0.31938  1.0000
  S   S191      1.0  0.73988  0.23395  0.30435  1.0000
  S   S192      1.0  0.69616  0.18348  0.33917  1.0000
  Fe  Fe98      1.0  0.73895  0.21028  0.27998  1.0000
  Fe  Fe99      1.0  0.78610  0.24103  0.30888  1.0000
  S   S193      1.0  0.82403  0.28356  0.31472  1.0000
  S   S194      1.0  0.72655  0.16697  0.29458  1.0000
  S   S195      1.0  0.77700  0.19976  0.32550  1.0000
  H   H780      1.0  0.77665  0.35447  0.45765  1.0000
  C   C661      1.0  0.49769  0.03190  0.45307  1.0000
  C   C662      1.0  0.58009  0.42336  0.40340  1.0000
  Fe  Fe100     1.0  0.50977  0.42524  0.38997  1.0000
  H   H781      1.0  0.54920  0.01661  0.37906  1.0000
  S   S196      1.0  0.52309  0.41236  0.36530  1.0000
  C   C663      1.0  0.82331  0.43728  0.30630  1.0000
  C   C664      1.0  0.51408  0.41572  0.43626  1.0000
  C   C665      1.0  0.52994  0.44554  0.43645  1.0000
  C   C666      1.0  0.54028  0.45910  0.45278  1.0000
  C   C667      1.0  0.53440  0.44306  0.46908  1.0000
  C   C668      1.0  0.51798  0.41331  0.46901  1.0000
  C   C669      1.0  0.50795  0.39965  0.45259  1.0000
  H   H782      1.0  0.53446  0.45818  0.42405  1.0000
  H   H783      1.0  0.52793  0.16871  0.37400  1.0000
  H   H784      1.0  0.51317  0.40081  0.48155  1.0000
  C   C670      1.0  0.80993  0.14542  0.27643  1.0000
  C   C671      1.0  0.82037  0.12379  0.27516  1.0000
  H   H785      1.0  0.59366  0.41858  0.48615  1.0000
  H   H786      1.0  0.65013  0.45794  0.41675  1.0000
  H   H787      1.0  0.83190  0.44255  0.29280  1.0000
  H   H788      1.0  0.58770  0.18366  0.29887  1.0000
  H   H789      1.0  0.81834  0.10819  0.28621  1.0000
  C   C672      1.0  0.63085  0.44224  0.40955  1.0000
  H   H790      1.0  0.63336  0.44753  0.39490  1.0000
  C   C673      1.0  0.66718  0.15189  0.34643  1.0000
  C   C674      1.0  0.64563  0.15520  0.35527  1.0000
  C   C675      1.0  0.62266  0.13100  0.36189  1.0000
  C   C676      1.0  0.62117  0.10309  0.36000  1.0000
  C   C677      1.0  0.64259  0.09971  0.35102  1.0000
  C   C678      1.0  0.66538  0.12396  0.34412  1.0000
  H   H791      1.0  0.64682  0.17667  0.35716  1.0000
  H   H792      1.0  0.60642  0.13402  0.36874  1.0000
  H   H793      1.0  0.64168  0.07824  0.34947  1.0000
  H   H794      1.0  0.68189  0.12107  0.33744  1.0000
  C   C679      1.0  0.53887  0.12976  0.44307  1.0000
  C   C680      1.0  0.55868  0.11715  0.44713  1.0000
  C   C681      1.0  0.57554  0.12276  0.46345  1.0000
  C   C682      1.0  0.57254  0.14086  0.47574  1.0000
  C   C683      1.0  0.55269  0.15335  0.47163  1.0000
  C   C684      1.0  0.53589  0.14778  0.45538  1.0000
  H   H795      1.0  0.56107  0.10320  0.43770  1.0000
  H   H796      1.0  0.59087  0.11300  0.46655  1.0000
  S   S197      1.0  0.51851  0.47077  0.34537  1.0000
  S   S198      1.0  0.50282  0.39795  0.41585  1.0000
  C   C685      1.0  0.83281  0.34421  0.36001  1.0000
  C   C686      1.0  0.80936  0.31741  0.35879  1.0000
  C   C687      1.0  0.80642  0.29859  0.34506  1.0000
  C   C688      1.0  0.82700  0.30636  0.33241  1.0000
  C   C689      1.0  0.85050  0.33316  0.33364  1.0000
  C   C690      1.0  0.85341  0.35202  0.34736  1.0000
  H   H797      1.0  0.79329  0.31111  0.36850  1.0000
  H   H798      1.0  0.78823  0.27806  0.34428  1.0000
  H   H799      1.0  0.86653  0.33938  0.32390  1.0000
  H   H800      1.0  0.87176  0.37237  0.34829  1.0000
  C   C691      1.0  0.84268  0.44919  0.44895  1.0000
  C   C692      1.0  0.85216  0.42674  0.45165  1.0000
  C   C693      1.0  0.84378  0.40716  0.46645  1.0000
  C   C694      1.0  0.82573  0.40980  0.47858  1.0000
  C   C695      1.0  0.81708  0.43290  0.47630  1.0000
  C   C696      1.0  0.82568  0.45262  0.46155  1.0000
  H   H801      1.0  0.86578  0.42435  0.44226  1.0000
  H   H802      1.0  0.85095  0.38966  0.46838  1.0000
  H   H803      1.0  0.80305  0.43506  0.48551  1.0000
  H   H804      1.0  0.48654  0.06450  0.43845  1.0000
  C   C697      1.0  0.81885  0.38754  0.30760  1.0000
  H   H805      1.0  0.56215  0.39551  0.43255  1.0000
  H   H806      1.0  0.55881  0.38545  0.46449  1.0000
  C   C698      1.0  0.50398  0.02143  0.46993  1.0000
  C   C699      1.0  0.57881  0.41038  0.44117  1.0000
  C   C700      1.0  0.61872  0.44730  0.46571  1.0000
  H   H807      1.0  0.79962  0.42972  0.30448  1.0000
  H   H808      1.0  0.81880  0.35898  0.26731  1.0000
  H   H809      1.0  0.79159  0.42455  0.40580  1.0000
  H   H810      1.0  0.58253  0.42989  0.38889  1.0000
  S   S199      1.0  0.54709  0.46133  0.48915  1.0000
  C   C701      1.0  0.81264  0.16545  0.26205  1.0000
  H   H811      1.0  0.84158  0.10560  0.25896  1.0000
  N   N43       1.0  0.63649  0.17599  0.29306  1.0000
  C   C702      1.0  0.65026  0.20339  0.30260  1.0000
  C   C703      1.0  0.65861  0.16433  0.29165  1.0000
  H   H812      1.0  0.79931  0.40638  0.33548  1.0000
  C   C704      1.0  0.61157  0.15599  0.30273  1.0000
  C   C705      1.0  0.61016  0.12920  0.31099  1.0000
  C   C706      1.0  0.58796  0.16346  0.30450  1.0000
  C   C707      1.0  0.58646  0.11110  0.32025  1.0000
  C   C708      1.0  0.56439  0.14517  0.31383  1.0000
  C   C709      1.0  0.56369  0.11908  0.32170  1.0000
  C   C710      1.0  0.89517  0.17431  0.28634  1.0000
  H   H813      1.0  0.55208  0.99265  0.39713  1.0000
  C   C711      1.0  0.79555  0.33465  0.28962  1.0000
  H   H814      1.0  0.90113  0.45256  0.49443  1.0000
  C   C712      1.0  0.88707  0.22072  0.26768  1.0000
  H   H815      1.0  0.77520  0.31570  0.31390  1.0000
  H   H816      1.0  0.88487  0.18858  0.30966  1.0000
  C   C713      1.0  0.57655  0.40427  0.45963  1.0000
  H   H817      1.0  0.93419  0.47687  0.43047  1.0000
  H   H818      1.0  0.62729  0.12190  0.31084  1.0000
  H   H819      1.0  0.64580  0.19631  0.26663  1.0000
  H   H820      1.0  0.58601  0.09099  0.32672  1.0000
  H   H821      1.0  0.52286  0.99866  0.35071  1.0000
  H   H822      1.0  0.54557  0.10512  0.32912  1.0000
  H   H823      1.0  0.57863  0.40075  0.40482  1.0000
  S   S200      1.0  0.54110  0.47130  0.38763  1.0000
  C   C714      1.0  0.89419  0.46996  0.49724  1.0000
  H   H824      1.0  0.76709  0.42820  0.43184  1.0000
  H   H825      1.0  0.87219  0.43047  0.30431  1.0000
  H   H826      1.0  0.88379  0.23778  0.25953  1.0000
  H   H827      1.0  0.64988  0.14372  0.28452  1.0000
  H   H828      1.0  0.87047  0.40944  0.32490  1.0000
  C   C715      1.0  0.48997  0.06971  0.46699  1.0000
  C   C716      1.0  0.59618  0.42287  0.47187  1.0000
  H   H829      1.0  0.83156  0.45815  0.31320  1.0000
  H   H830      1.0  0.63767  0.44977  0.27192  1.0000
  H   H831      1.0  0.81839  0.47006  0.45959  1.0000
  H   H832      1.0  0.60305  0.42479  0.29430  1.0000
  H   H833      1.0  0.63101  0.42034  0.41239  1.0000
  H   H834      1.0  0.52070  0.15770  0.45227  1.0000
  H   H835      1.0  0.80464  0.18212  0.26277  1.0000
  H   H836      1.0  0.63390  0.46174  0.47532  1.0000
  H   H837      1.0  0.49850  0.02161  0.44105  1.0000
  H   H838      1.0  0.50130  0.23134  0.36798  1.0000
  C   C717      1.0  0.83348  0.12222  0.25971  1.0000
  C   C718      1.0  0.81354  0.35982  0.28091  1.0000
  C   C719      1.0  0.60126  0.43545  0.43441  1.0000
  H   H839      1.0  0.67669  0.17964  0.28397  1.0000
  Fe  Fe101     1.0  0.49196  0.03453  0.38749  1.0000
  H   H840      1.0  0.83263  0.43490  0.34153  1.0000
  S   S201      1.0  0.71238  0.21491  0.25508  1.0000
  H   H841      1.0  0.52787  0.20264  0.36521  1.0000
  H   H842      1.0  0.51002  0.00309  0.47093  1.0000
  H   H843      1.0  0.55293  0.48213  0.45279  1.0000
  N   N44       1.0  0.60406  0.44311  0.41498  1.0000
  C   C720      1.0  0.50304  0.03484  0.48541  1.0000
  H   H844      1.0  0.79478  0.36023  0.32977  1.0000
  N   N45       1.0  0.87430  0.23584  0.29634  1.0000
  C   C721      1.0  0.89765  0.25154  0.30966  1.0000
  C   C722      1.0  0.86760  0.25767  0.28460  1.0000
  C   C723      1.0  0.84837  0.21841  0.30598  1.0000
  C   C724      1.0  0.88294  0.21668  0.28639  1.0000
  H   H845      1.0  0.78714  0.31427  0.28297  1.0000
  H   H846      1.0  0.48325  0.45537  0.49135  1.0000
  C   C725      1.0  0.82503  0.38592  0.28969  1.0000
  H   H847      1.0  0.55932  0.42344  0.40656  1.0000
  H   H848      1.0  0.75957  0.39261  0.45741  1.0000
  H   H849      1.0  0.89194  0.26648  0.31722  1.0000
  H   H850      1.0  0.90243  0.23656  0.31978  1.0000
  H   H851      1.0  0.91772  0.26460  0.30300  1.0000
  H   H852      1.0  0.88664  0.27298  0.27777  1.0000
  H   H853      1.0  0.86032  0.27114  0.29238  1.0000
  H   H854      1.0  0.84993  0.24711  0.27433  1.0000
  H   H855      1.0  0.85205  0.20379  0.31680  1.0000
  H   H856      1.0  0.83989  0.23221  0.31249  1.0000
  H   H857      1.0  0.83120  0.20455  0.29655  1.0000
  H   H858      1.0  0.54655  0.15121  0.31513  1.0000
  H   H859      1.0  0.60465  0.47834  0.39649  1.0000
  H   H860      1.0  0.57533  0.44892  0.30650  1.0000
  S   S202      1.0  0.59820  0.46884  0.35621  1.0000
  H   H861      1.0  0.90366  0.16360  0.26079  1.0000
  N   N46       1.0  0.80553  0.34316  0.43052  1.0000
  C   C726      1.0  0.80177  0.32456  0.44722  1.0000
  C   C727      1.0  0.79043  0.32425  0.41543  1.0000
  C   C728      1.0  0.83661  0.35640  0.42773  1.0000
  C   C729      1.0  0.79438  0.36600  0.43107  1.0000
  C   C730      1.0  0.79768  0.38646  0.41648  1.0000
  C   C731      1.0  0.77978  0.36852  0.44574  1.0000
  C   C732      1.0  0.78778  0.40849  0.41678  1.0000
  C   C733      1.0  0.76969  0.39047  0.44580  1.0000
  C   C734      1.0  0.77390  0.41054  0.43142  1.0000
  H   H862      1.0  0.77876  0.31254  0.44969  1.0000
  H   H863      1.0  0.81090  0.30804  0.44651  1.0000
  H   H864      1.0  0.81283  0.33760  0.45911  1.0000
  H   H865      1.0  0.79817  0.30674  0.41445  1.0000
  H   H866      1.0  0.79374  0.33637  0.40225  1.0000
  H   H867      1.0  0.76695  0.31409  0.41688  1.0000
  H   H868      1.0  0.84873  0.37123  0.43857  1.0000
  H   H869      1.0  0.84571  0.33982  0.42728  1.0000
  H   H870      1.0  0.84142  0.36916  0.41487  1.0000
  H   H871      1.0  0.80832  0.38584  0.40478  1.0000
  C   C735      1.0  0.62718  0.18245  0.27449  1.0000
  C   C736      1.0  0.86336  0.42575  0.31773  1.0000
  C   C737      1.0  0.82286  0.41354  0.33522  1.0000
  H   H872      1.0  0.50847  0.02622  0.49818  1.0000
  N   N47       1.0  0.83173  0.41539  0.31666  1.0000
  C   C738      1.0  0.88761  0.19308  0.29547  1.0000
  H   H873      1.0  0.61292  0.19427  0.27412  1.0000
  H   H874      1.0  0.82990  0.39862  0.34408  1.0000
  H   H875      1.0  0.50822  0.17048  0.35319  1.0000
  H   H876      1.0  0.55063  0.16782  0.48078  1.0000
  C   C739      1.0  0.62145  0.45345  0.44727  1.0000
  H   H877      1.0  0.83903  0.40481  0.28242  1.0000
  Fe  Fe102     1.0  0.55197  0.45952  0.36174  1.0000
  H   H878      1.0  0.63601  0.21516  0.30264  1.0000
  C   C740      1.0  0.49576  0.05928  0.48444  1.0000
  H   H879      1.0  0.89758  0.15583  0.29341  1.0000
  S   S203      1.0  0.81352  0.38317  0.49593  1.0000
  Fe  Fe103     1.0  0.48886  0.42411  0.35046  1.0000
  Fe  Fe104     1.0  0.87970  0.47601  0.36685  1.0000
  C   C741      1.0  0.80028  0.36145  0.31607  1.0000
  H   H880      1.0  0.66813  0.16076  0.30511  1.0000
  H   H881      1.0  0.67017  0.21840  0.29638  1.0000
  H   H882      1.0  0.65634  0.19919  0.31686  1.0000
  S   S204      1.0  0.96935  0.46773  0.40193  1.0000
  Fe  Fe105     1.0  0.50501  0.47853  0.37172  1.0000
  H   H883      1.0  0.87380  0.44618  0.32506  1.0000
  H   H884      1.0  0.64824  0.47462  0.33888  1.0000
  C   C742      1.0  0.59010  0.45989  0.29621  1.0000
  C   C743      1.0  0.60503  0.47275  0.41118  1.0000
  C   C744      1.0  0.51428  0.17923  0.36687  1.0000
  C   C745      1.0  0.89488  0.20193  0.25873  1.0000
  S   S205      1.0  0.85130  0.47301  0.42990  1.0000
  H   H885      1.0  0.49560  0.37655  0.45254  1.0000
  H   H886      1.0  0.51182  0.21028  0.39335  1.0000
  H   H887      1.0  0.87417  0.46588  0.48862  1.0000
  H   H888      1.0  0.58635  0.47486  0.41652  1.0000
  C   C746      1.0  0.60582  0.44641  0.28937  1.0000
  H   H889      1.0  0.51885  0.99657  0.39195  1.0000
  S   S206      1.0  0.59333  0.14726  0.49631  1.0000
  C   C747      1.0  0.53741  0.99531  0.38593  1.0000
  H   H890      1.0  0.50070  0.11542  0.48972  1.0000
  S   S207      1.0  0.49593  0.11570  0.33795  1.0000
  H   H891      1.0  0.50988  0.17644  0.40308  1.0000
  C   C748      1.0  0.49079  0.05600  0.45163  1.0000
  H   H892      1.0  0.48775  0.13333  0.38863  1.0000
  C   C749      1.0  0.49759  0.18699  0.39436  1.0000
  H   H893      1.0  0.48693  0.15805  0.31382  1.0000
  N   N48       1.0  0.48849  0.17379  0.37658  1.0000
  H   H894      1.0  0.48518  0.08871  0.46472  1.0000
  H   H895      1.0  0.56455  0.99075  0.35750  1.0000
  H   H896      1.0  0.67711  0.22522  0.49946  1.0000
  H   H897      1.0  0.98026  0.48034  0.44344  1.0000
  C   C750      1.0  0.59385  0.48780  0.29013  1.0000
  H   H898      1.0  0.68272  0.48801  0.26926  1.0000
  Fe  Fe106     1.0  0.55312  0.20915  0.52694  1.0000
  S   S208      1.0  0.54971  0.19327  0.55585  1.0000
  S   S209      1.0  0.55182  0.25040  0.51358  1.0000
  Fe  Fe107     1.0  0.57698  0.16559  0.51730  1.0000
  S   S210      1.0  0.57681  0.14746  0.54557  1.0000
  C   C751      1.0  0.57625  0.35401  0.59942  1.0000
  Fe  Fe108     1.0  0.53307  0.14787  0.54551  1.0000
  H   H899      1.0  0.92636  0.43445  0.58148  1.0000
  Fe  Fe109     1.0  0.59356  0.19395  0.55330  1.0000
  S   S211      1.0  0.62991  0.21364  0.57416  1.0000
  S   S212      1.0  0.53271  0.16424  0.51657  1.0000
  S   S213      1.0  0.59763  0.21162  0.52516  1.0000
  Fe  Fe110     1.0  0.79337  0.39266  0.51904  1.0000
  S   S214      1.0  0.81026  0.38528  0.54687  1.0000
  Fe  Fe111     1.0  0.74950  0.41199  0.53266  1.0000
  S   S215      1.0  0.76391  0.40727  0.56153  1.0000
  S   S216      1.0  0.71214  0.42284  0.52086  1.0000
  Fe  Fe112     1.0  0.80926  0.42775  0.55266  1.0000
  S   S217      1.0  0.84626  0.46553  0.56605  1.0000
  Fe  Fe113     1.0  0.76386  0.36521  0.55328  1.0000
  S   S218      1.0  0.74726  0.32454  0.57123  1.0000
  S   S219      1.0  0.79456  0.43621  0.52429  1.0000
  S   S220      1.0  0.74723  0.36882  0.52497  1.0000
  Fe  Fe114     1.0  0.51603  0.43606  0.55127  1.0000
  H   H900      1.0  0.65919  0.23099  0.51738  1.0000
  H   H901      1.0  0.84903  0.43396  0.51511  1.0000
  Fe  Fe115     1.0  0.57450  0.43097  0.55034  1.0000
  S   S221      1.0  0.56127  0.40499  0.52571  1.0000
  S   S222      1.0  0.61783  0.43784  0.56444  1.0000
  Fe  Fe116     1.0  0.54130  0.43618  0.51573  1.0000
  C   C752      1.0  0.72910  0.23893  0.56138  1.0000
  Fe  Fe117     1.0  0.52045  0.38076  0.53919  1.0000
  C   C753      1.0  0.65339  0.33026  0.54926  1.0000
  S   S223      1.0  0.55768  0.46439  0.53947  1.0000
  S   S224      1.0  0.53436  0.40514  0.56457  1.0000
  H   H902      1.0  0.64751  0.29184  0.58956  1.0000
  H   H903      1.0  0.62851  0.36363  0.57153  1.0000
  H   H904      1.0  0.87714  0.42684  0.56929  1.0000
  C   C754      1.0  0.68710  0.42848  0.53332  1.0000
  C   C755      1.0  0.66297  0.43100  0.52410  1.0000
  C   C756      1.0  0.64167  0.43384  0.53348  1.0000
  C   C757      1.0  0.64444  0.43458  0.55220  1.0000
  C   C758      1.0  0.66880  0.43251  0.56143  1.0000
  C   C759      1.0  0.68999  0.42934  0.55205  1.0000
  H   H905      1.0  0.68906  0.20361  0.56102  1.0000
  H   H906      1.0  0.62341  0.43607  0.52617  1.0000
  H   H907      1.0  0.56295  0.31008  0.50661  1.0000
  H   H908      1.0  0.76421  0.27696  0.52551  1.0000
  C   C760      1.0  0.53744  0.27270  0.52243  1.0000
  C   C761      1.0  0.54711  0.30187  0.51648  1.0000
  C   C762      1.0  0.53602  0.32038  0.52297  1.0000
  H   H909      1.0  0.48177  0.03392  0.51816  1.0000
  H   H910      1.0  0.55012  0.34301  0.56671  1.0000
  H   H911      1.0  0.66066  0.43058  0.50961  1.0000
  H   H912      1.0  0.57712  0.37649  0.59854  1.0000
  H   H913      1.0  0.54331  0.34266  0.51810  1.0000
  C   C763      1.0  0.68867  0.35806  0.57256  1.0000
  C   C764      1.0  0.67809  0.33515  0.58502  1.0000
  C   C765      1.0  0.66162  0.24528  0.57192  1.0000
  C   C766      1.0  0.66916  0.26161  0.55574  1.0000
  C   C767      1.0  0.69510  0.28660  0.55514  1.0000
  C   C768      1.0  0.71345  0.29506  0.57071  1.0000
  C   C769      1.0  0.70575  0.27845  0.58665  1.0000
  C   C770      1.0  0.68012  0.25391  0.58726  1.0000
  H   H914      1.0  0.65517  0.25497  0.54379  1.0000
  H   H915      1.0  0.70126  0.29892  0.54270  1.0000
  H   H916      1.0  0.71985  0.28452  0.59867  1.0000
  H   H917      1.0  0.67470  0.24142  0.59977  1.0000
  C   C771      1.0  0.88109  0.46938  0.57511  1.0000
  H   H918      1.0  0.52221  0.48104  0.58935  1.0000
  H   H919      1.0  0.68607  0.37379  0.54570  1.0000
  C   C772      1.0  0.87027  0.44101  0.52265  1.0000
  H   H920      1.0  0.87863  0.42429  0.52082  1.0000
  C   C773      1.0  0.74772  0.26038  0.53298  1.0000
  S   S225      1.0  0.48184  0.45046  0.55977  1.0000
  C   C774      1.0  0.50202  0.05584  0.59453  1.0000
  C   C775      1.0  0.57360  0.35616  0.56742  1.0000
  H   H921      1.0  0.52762  0.09783  0.58274  1.0000
  C   C776      1.0  0.51648  0.26209  0.53488  1.0000
  C   C777      1.0  0.61944  0.29910  0.52619  1.0000
  C   C778      1.0  0.51468  0.30967  0.53518  1.0000
  H   H922      1.0  0.53139  0.06728  0.51488  1.0000
  C   C779      1.0  0.70498  0.21858  0.55254  1.0000
  H   H923      1.0  0.58825  0.35216  0.61223  1.0000
  C   C780      1.0  0.65500  0.31005  0.58001  1.0000
  C   C781      1.0  0.57881  0.25876  0.58633  1.0000
  H   H924      1.0  0.61103  0.29795  0.51189  1.0000
  H   H925      1.0  0.57654  0.37919  0.56740  1.0000
  C   C782      1.0  0.54940  0.99558  0.68145  1.0000
  N   N49       1.0  0.49477  0.07297  0.50105  1.0000
  H   H926      1.0  0.64331  0.37173  0.52902  1.0000
  H   H927      1.0  0.67718  0.32169  0.52148  1.0000
  C   C783      1.0  0.89101  0.44731  0.57483  1.0000
  H   H928      1.0  0.69359  0.16635  0.52285  1.0000
  H   H929      1.0  0.73094  0.23907  0.57592  1.0000
  N   N50       1.0  0.58811  0.34784  0.58360  1.0000
  C   C784      1.0  0.70144  0.21873  0.53347  1.0000
  H   H930      1.0  0.59974  0.26765  0.61264  1.0000
  H   H931      1.0  0.68836  0.33656  0.59843  1.0000
  H   H932      1.0  0.60043  0.29313  0.53419  1.0000
  H   H933      1.0  0.55342  0.33901  0.60044  1.0000
  H   H934      1.0  0.67138  0.43351  0.57589  1.0000
  C   C785      1.0  0.96071  0.47030  0.53677  1.0000
  H   H935      1.0  0.55852  0.25602  0.55978  1.0000
  H   H936      1.0  0.60543  0.31813  0.61116  1.0000
  H   H937      1.0  0.59143  0.00346  0.69398  1.0000
  H   H938      1.0  0.53955  0.10020  0.50161  1.0000
  H   H939      1.0  0.64584  0.19316  0.54339  1.0000
  C   C786      1.0  0.52362  0.08447  0.51047  1.0000
  C   C787      1.0  0.66321  0.21427  0.51059  1.0000
  H   H940      1.0  0.96601  0.39912  0.64015  1.0000
  H   H941      1.0  0.50864  0.23957  0.53939  1.0000
  C   C788      1.0  0.57125  0.29854  0.56991  1.0000
  C   C789      1.0  0.67663  0.35568  0.55494  1.0000
  H   H942      1.0  0.70685  0.37748  0.57643  1.0000
  H   H943      1.0  0.51747  0.05744  0.60569  1.0000
  H   H944      1.0  0.48843  0.27208  0.55055  1.0000
  C   C790      1.0  0.61903  0.36658  0.58364  1.0000
  S   S226      1.0  0.49325  0.10661  0.55092  1.0000
  S   S227      1.0  0.49980  0.33208  0.54337  1.0000
  H   H945      1.0  0.49193  0.01704  0.65151  1.0000
  C   C791      1.0  0.91895  0.45165  0.58186  1.0000
  N   N51       1.0  0.67577  0.19819  0.52359  1.0000
  C   C792      1.0  0.62789  0.34921  0.52666  1.0000
  H   H946      1.0  0.76815  0.27655  0.55863  1.0000
  H   H947      1.0  0.63143  0.36217  0.59559  1.0000
  H   H948      1.0  0.70864  0.42778  0.55928  1.0000
  N   N52       1.0  0.88966  0.47035  0.51652  1.0000
  H   H949      1.0  0.62817  0.28213  0.52866  1.0000
  H   H950      1.0  0.52398  0.09585  0.52274  1.0000
  C   C793      1.0  0.59168  0.27636  0.60075  1.0000
  C   C794      1.0  0.72393  0.23984  0.52398  1.0000
  C   C795      1.0  0.75017  0.26005  0.55165  1.0000
  H   H951      1.0  0.51466  0.02734  0.67171  1.0000
  C   C796      1.0  0.93737  0.47799  0.58937  1.0000
  H   H952      1.0  0.66010  0.16554  0.54486  1.0000
  H   H953      1.0  0.62526  0.28717  0.55948  1.0000
  H   H954      1.0  0.52741  0.01940  0.65172  1.0000
  H   H955      1.0  0.55701  0.01725  0.67554  1.0000
  C   C797      1.0  0.68391  0.17874  0.51358  1.0000
  H   H956      1.0  0.48411  0.10660  0.51053  1.0000
  C   C798      1.0  0.50500  0.28050  0.54114  1.0000
  C   C799      1.0  0.58433  0.31714  0.58437  1.0000
  H   H957      1.0  0.97872  0.44709  0.67853  1.0000
  H   H958      1.0  0.58231  0.35410  0.55482  1.0000
  H   H959      1.0  0.86660  0.44041  0.53714  1.0000
  H   H960      1.0  0.60992  0.34435  0.53534  1.0000
  S   S228      1.0  0.49896  0.40942  0.52673  1.0000
  H   H961      1.0  0.56274  0.30557  0.55765  1.0000
  N   N53       1.0  0.64143  0.32820  0.53039  1.0000
  H   H962      1.0  0.64248  0.19968  0.50403  1.0000
  S   S229      1.0  0.97259  0.48216  0.59774  1.0000
  C   C800      1.0  0.48780  0.07756  0.56724  1.0000
  H   H963      1.0  0.62283  0.38986  0.58373  1.0000
  H   H964      1.0  0.57693  0.23653  0.58701  1.0000
  C   C801      1.0  0.56858  0.26982  0.57097  1.0000
  C   C802      1.0  0.59467  0.30518  0.59979  1.0000
  C   C803      1.0  0.50890  0.01285  0.66023  1.0000
  H   H965      1.0  0.95035  0.42400  0.64321  1.0000
  C   C804      1.0  0.50787  0.07884  0.58150  1.0000
  C   C805      1.0  0.64252  0.30759  0.56248  1.0000
  H   H966      1.0  0.63368  0.16513  0.52762  1.0000
  C   C806      1.0  0.50230  0.48353  0.59014  1.0000
  C   C807      1.0  0.65297  0.17980  0.53544  1.0000
  H   H967      1.0  0.67977  0.35819  0.51818  1.0000
  H   H968      1.0  0.69970  0.19079  0.50355  1.0000
  H   H969      1.0  0.95464  0.40102  0.66185  1.0000
  C   C808      1.0  0.66457  0.33511  0.51798  1.0000
  C   C809      1.0  0.93469  0.46300  0.52654  1.0000
  H   H970      1.0  0.61916  0.34887  0.51247  1.0000
  H   H971      1.0  0.97325  0.45742  0.53642  1.0000
  H   H972      1.0  0.92786  0.44435  0.51839  1.0000
  H   H973      1.0  0.97505  0.46744  0.65854  1.0000
  H   H974      1.0  0.85419  0.48308  0.50967  1.0000
  C   C810      1.0  0.91737  0.47892  0.52724  1.0000
  H   H975      1.0  0.72310  0.24089  0.50950  1.0000
  C   C811      1.0  0.96492  0.41415  0.64987  1.0000
  H   H976      1.0  0.65599  0.33138  0.50377  1.0000
  H   H977      1.0  0.66494  0.16282  0.50607  1.0000
  C   C812      1.0  0.82581  0.03515  0.94686  1.0000
  H   H978      1.0  0.94006  0.19542  0.85242  1.0000
  H   H979      1.0  0.74178  0.01820  0.98326  1.0000
  C   C813      1.0  0.79540  0.99500  0.91971  1.0000
  H   H980      1.0  0.97102  0.16662  0.85780  1.0000
  C   C814      1.0  0.94400  0.19714  0.83790  1.0000
  C   C815      1.0  0.81768  0.99662  0.96967  1.0000
  C   C816      1.0  0.97203  0.16835  0.84296  1.0000
  C   C817      1.0  0.94813  0.17904  0.97906  1.0000
  H   H981      1.0  0.96220  0.09615  0.78150  1.0000
  C   C818      1.0  0.96410  0.17797  0.78603  1.0000
  H   H982      1.0  0.93629  0.16418  0.96871  1.0000
  N   N54       1.0  0.97272  0.99514  0.78923  1.0000
  H   H983      1.0  0.94292  0.21767  0.83215  1.0000
  H   H984      1.0  0.78461  0.01035  0.91868  1.0000
  C   C819      1.0  0.81372  0.00501  0.95145  1.0000
  C   C820      1.0  0.90411  0.03466  0.79143  1.0000
  C   C821      1.0  0.90520  0.03728  0.80997  1.0000
  C   C822      1.0  0.92651  0.06152  0.81816  1.0000
  C   C823      1.0  0.94723  0.08282  0.80795  1.0000
  C   C824      1.0  0.94648  0.07982  0.78951  1.0000
  C   C825      1.0  0.92479  0.05606  0.78127  1.0000
  H   H985      1.0  0.88939  0.02089  0.81791  1.0000
  H   H986      1.0  0.92692  0.06373  0.83244  1.0000
  C   C826      1.0  0.97613  0.19911  0.81572  1.0000
  S   S230      1.0  0.87819  0.00476  0.78029  1.0000
  H   H987      1.0  0.85514  0.06221  0.98766  1.0000
  H   H988      1.0  0.82375  0.04371  0.93342  1.0000
  S   S231      1.0  0.90019  0.15126  0.99790  1.0000
  H   H989      1.0  0.93623  0.00587  0.78265  1.0000
  H   H990      1.0  0.92408  0.05413  0.76693  1.0000
  C   C827      1.0  0.97550  0.20027  0.97584  1.0000
  C   C828      1.0  0.96000  0.17600  0.80435  1.0000
  C   C829      1.0  0.84068  0.05541  0.95983  1.0000
  C   C830      1.0  0.95890  0.26717  0.98049  1.0000
  C   C831      1.0  0.84404  0.04639  0.97759  1.0000
  C   C832      1.0  0.93721  0.24405  0.97210  1.0000
  H   H991      1.0  0.94438  0.15588  0.80951  1.0000
  H   H992      1.0  0.89576  0.21111  0.97302  1.0000
  H   H993      1.0  0.94940  0.01083  0.80547  1.0000
  H   H994      1.0  0.94125  0.23633  0.95994  1.0000
  C   C833      1.0  0.75275  0.00638  0.99106  1.0000
  H   H995      1.0  0.95335  0.14929  0.83797  1.0000
  H   H996      1.0  0.84941  0.07835  0.95620  1.0000
  N   N55       1.0  0.97197  0.19628  0.83522  1.0000
  S   S232      1.0  0.97315  0.11343  0.81845  1.0000
  H   H997      1.0  0.92601  0.17905  0.83128  1.0000
  C   C834      1.0  0.91100  0.22972  0.97983  1.0000
  C   C835      1.0  0.94582  0.99661  0.79404  1.0000
  C   C836      1.0  0.83276  0.01705  0.98246  1.0000
  H   H998      1.0  0.95229  0.15958  0.77781  1.0000
  H   H999      1.0  0.81714  0.00595  0.91465  1.0000
  C   C837      1.0  0.90567  0.23854  0.99624  1.0000
  C   C838      1.0  0.93582  0.17705  0.99542  1.0000
  C   C839      1.0  0.85624  0.20083  0.99411  1.0000
  H   H1000     1.0  0.86309  0.25657  0.99691  1.0000
  H   H1001     1.0  0.86283  0.18288  0.99184  1.0000
  H   H1002     1.0  0.85135  0.21000  0.98089  1.0000
  C   C840      1.0  0.95451  0.27617  0.99666  1.0000
  H   H1003     1.0  0.97959  0.27732  0.97482  1.0000
  H   H1004     1.0  0.83513  0.01016  0.99636  1.0000
  C   C841      1.0  0.63512  0.89653  0.00517  1.0000
  Fe  Fe118     1.0  0.88040  0.81765  0.21853  1.0000
  S   S233      1.0  0.83945  0.81806  0.20545  1.0000
  H   H1005     1.0  0.63081  0.89424  0.01963  1.0000
  Fe  Fe119     1.0  0.91690  0.87159  0.19654  1.0000
  S   S234      1.0  0.87820  0.87449  0.18130  1.0000
  Fe  Fe120     1.0  0.85986  0.86621  0.20808  1.0000
  S   S235      1.0  0.83342  0.89121  0.21316  1.0000
  Fe  Fe121     1.0  0.86152  0.82644  0.17983  1.0000
  S   S236      1.0  0.83390  0.80183  0.15638  1.0000
  S   S237      1.0  0.89933  0.86566  0.22373  1.0000
  S   S238      1.0  0.90179  0.82377  0.19267  1.0000
  Fe  Fe122     1.0  0.87310  0.73342  0.03431  1.0000
  S   S239      1.0  0.87634  0.77224  0.04847  1.0000
  C   C842      1.0  0.80010  0.71855  0.23901  1.0000
  Fe  Fe123     1.0  0.81703  0.69367  0.05183  1.0000
  S   S240      1.0  0.81695  0.73064  0.06668  1.0000
  S   S241      1.0  0.77607  0.65330  0.05607  1.0000
  Fe  Fe124     1.0  0.82918  0.75733  0.04110  1.0000
  S   S242      1.0  0.81033  0.79058  0.03288  1.0000
  Fe  Fe125     1.0  0.86366  0.74176  0.07261  1.0000
  S   S243      1.0  0.88647  0.75266  0.10006  1.0000
  S   S244      1.0  0.82624  0.71994  0.02556  1.0000
  S   S245      1.0  0.86359  0.70339  0.05910  1.0000
  H   H1006     1.0  0.71212  0.92226  0.02953  1.0000
  H   H1007     1.0  0.79681  0.83792  0.23112  1.0000
  S   S246      1.0  0.68810  0.52267  0.16794  1.0000
  Fe  Fe126     1.0  0.72507  0.50202  0.11421  1.0000
  S   S247      1.0  0.76227  0.53445  0.09882  1.0000
  H   H1008     1.0  0.87019  0.82659  0.02069  1.0000
  H   H1009     1.0  0.83874  0.49173  0.10697  1.0000
  C   C843      1.0  0.73364  0.50696  0.21167  1.0000
  H   H1010     1.0  0.71582  0.66450  0.04402  1.0000
  H   H1011     1.0  0.70089  0.67073  0.02259  1.0000
  C   C844      1.0  0.70841  0.68004  0.03600  1.0000
  C   C845      1.0  0.70809  0.72442  0.00736  1.0000
  C   C846      1.0  0.94589  0.79210  0.01917  1.0000
  H   H1012     1.0  0.82473  0.74701  0.17907  1.0000
  H   H1013     1.0  0.93472  0.79202  0.03077  1.0000
  H   H1014     1.0  0.88477  0.74413  0.20976  1.0000
  C   C847      1.0  0.77297  0.62098  0.06865  1.0000
  C   C848      1.0  0.79631  0.61325  0.07260  1.0000
  C   C849      1.0  0.79258  0.58667  0.08176  1.0000
  C   C850      1.0  0.76560  0.56767  0.08731  1.0000
  C   C851      1.0  0.74232  0.57557  0.08359  1.0000
  C   C852      1.0  0.74598  0.60197  0.07420  1.0000
  H   H1015     1.0  0.81713  0.62749  0.06826  1.0000
  H   H1016     1.0  0.81073  0.58080  0.08451  1.0000
  H   H1017     1.0  0.72138  0.56108  0.08759  1.0000
  H   H1018     1.0  0.72772  0.60758  0.07107  1.0000
  C   C853      1.0  0.84910  0.78887  0.14072  1.0000
  C   C854      1.0  0.83170  0.77365  0.12622  1.0000
  C   C855      1.0  0.84304  0.76273  0.11357  1.0000
  C   C856      1.0  0.87179  0.76668  0.11547  1.0000
  C   C857      1.0  0.88909  0.78146  0.13017  1.0000
  C   C858      1.0  0.87787  0.79279  0.14268  1.0000
  H   H1019     1.0  0.80945  0.77060  0.12464  1.0000
  H   H1020     1.0  0.82948  0.75120  0.10242  1.0000
  H   H1021     1.0  0.91138  0.78461  0.13167  1.0000
  H   H1022     1.0  0.89153  0.80473  0.15371  1.0000
  C   C859      1.0  0.85118  0.92789  0.21825  1.0000
  C   C860      1.0  0.75078  0.76799  0.23155  1.0000
  C   C861      1.0  0.88961  0.97670  0.17578  1.0000
  H   H1023     1.0  0.71951  0.48989  0.18529  1.0000
  H   H1024     1.0  0.66285  0.49946  0.23076  1.0000
  C   C862      1.0  0.87579  0.93723  0.22989  1.0000
  H   H1025     1.0  0.72643  0.71884  0.06176  1.0000
  H   H1026     1.0  0.86232  0.69648  0.21874  1.0000
  C   C863      1.0  0.93568  0.76793  0.00853  1.0000
  C   C864      1.0  0.78096  0.81589  0.01037  1.0000
  C   C865      1.0  0.70590  0.52407  0.18933  1.0000
  S   S248      1.0  0.73754  0.49765  0.14349  1.0000
  C   C866      1.0  0.97079  0.81635  0.01489  1.0000
  C   C867      1.0  0.73406  0.52708  0.22374  1.0000
  C   C868      1.0  0.72046  0.54583  0.21852  1.0000
  C   C869      1.0  0.70627  0.54420  0.20139  1.0000
  H   H1027     1.0  0.89092  0.93144  0.16232  1.0000
  H   H1028     1.0  0.92242  0.97064  0.20492  1.0000
  H   H1029     1.0  0.72090  0.56160  0.22761  1.0000
  H   H1030     1.0  0.69564  0.55863  0.19745  1.0000
  H   H1031     1.0  0.90698  0.97312  0.24418  1.0000
  H   H1032     1.0  0.96213  0.92087  0.22379  1.0000
  S   S249      1.0  0.95870  0.90472  0.18667  1.0000
  H   H1033     1.0  0.77617  0.63579  0.22058  1.0000
  H   H1034     1.0  0.84337  0.85813  0.24240  1.0000
  H   H1035     1.0  0.89841  0.93647  0.19623  1.0000
  C   C870      1.0  0.82359  0.74433  0.23503  1.0000
  H   H1036     1.0  0.74411  0.49238  0.21562  1.0000
  C   C871      1.0  0.77984  0.97531  0.01166  1.0000
  H   H1037     1.0  0.76236  0.65776  0.19265  1.0000
  H   H1038     1.0  0.71646  0.79565  0.02796  1.0000
  H   H1039     1.0  0.89934  0.85536  0.00990  1.0000
  C   C872      1.0  0.88855  0.96625  0.23469  1.0000
  H   H1040     1.0  0.82610  0.65524  0.23304  1.0000
  C   C873      1.0  0.91829  0.95591  0.19373  1.0000
  N   N56       1.0  0.73155  0.70942  0.03497  1.0000
  H   H1041     1.0  0.90383  0.82405  0.01982  1.0000
  H   H1042     1.0  0.77923  0.71497  0.23257  1.0000
  C   C874      1.0  0.75502  0.70810  0.02536  1.0000
  H   H1043     1.0  0.73237  0.75359  0.22373  1.0000
  N   N57       1.0  0.91581  0.97064  0.17616  1.0000
  H   H1044     1.0  0.88451  0.92194  0.23559  1.0000
  H   H1045     1.0  0.76181  0.73876  0.05383  1.0000
  S   S250      1.0  0.90402  0.73704  0.01312  1.0000
  H   H1046     1.0  0.66941  0.54453  0.24101  1.0000
  H   H1047     1.0  0.97056  0.97383  0.17614  1.0000
  H   H1048     1.0  0.79808  0.69883  0.17707  1.0000
  N   N58       1.0  0.75446  0.59578  0.14473  1.0000
  C   C875      1.0  0.73767  0.60276  0.15743  1.0000
  C   C876      1.0  0.73397  0.57750  0.13087  1.0000
  C   C877      1.0  0.76887  0.57852  0.15497  1.0000
  C   C878      1.0  0.77587  0.62168  0.13593  1.0000
  C   C879      1.0  0.79404  0.61857  0.12374  1.0000
  C   C880      1.0  0.77890  0.65040  0.13872  1.0000
  C   C881      1.0  0.81400  0.64258  0.11494  1.0000
  C   C882      1.0  0.79885  0.67426  0.12973  1.0000
  C   C883      1.0  0.81636  0.67036  0.11789  1.0000
  H   H1049     1.0  0.72474  0.61414  0.15045  1.0000
  H   H1050     1.0  0.72210  0.58285  0.16399  1.0000
  H   H1051     1.0  0.75174  0.61597  0.16847  1.0000
  H   H1052     1.0  0.72416  0.59010  0.12190  1.0000
  H   H1053     1.0  0.74432  0.56808  0.12224  1.0000
  H   H1054     1.0  0.78542  0.59174  0.16504  1.0000
  H   H1055     1.0  0.75333  0.55946  0.16231  1.0000
  H   H1056     1.0  0.77940  0.56955  0.14615  1.0000
  H   H1057     1.0  0.79260  0.59744  0.12065  1.0000
  H   H1058     1.0  0.76587  0.65502  0.14754  1.0000
  H   H1059     1.0  0.82739  0.63962  0.10550  1.0000
  H   H1060     1.0  0.80053  0.69597  0.13169  1.0000
  H   H1061     1.0  0.83162  0.68889  0.11081  1.0000
  H   H1062     1.0  0.89963  0.75686  0.18866  1.0000
  H   H1063     1.0  0.82053  0.94062  0.20233  1.0000
  C   C884      1.0  0.71919  0.96575  0.03287  1.0000
  S   S251      1.0  0.88116  0.78116  0.23824  1.0000
  H   H1064     1.0  0.78524  0.83068  0.02103  1.0000
  H   H1065     1.0  0.93571  0.94795  0.19461  1.0000
  H   H1066     1.0  0.86107  0.77114  0.17929  1.0000
  H   H1067     1.0  0.92853  0.94156  0.16270  1.0000
  S   S252      1.0  0.68162  0.50054  0.11881  1.0000
  C   C885      1.0  0.72072  0.72992  0.02511  1.0000
  H   H1068     1.0  0.76326  0.69230  0.03204  1.0000
  C   C886      1.0  0.78774  0.81573  0.23617  1.0000
  N   N59       1.0  0.85510  0.72737  0.18690  1.0000
  C   C887      1.0  0.88439  0.73746  0.19584  1.0000
  C   C888      1.0  0.85694  0.72065  0.16821  1.0000
  C   C889      1.0  0.84591  0.75176  0.18636  1.0000
  C   C890      1.0  0.83400  0.70179  0.19608  1.0000
  C   C891      1.0  0.80507  0.68964  0.18910  1.0000
  C   C892      1.0  0.84113  0.68848  0.21212  1.0000
  C   C893      1.0  0.78451  0.66603  0.19780  1.0000
  C   C894      1.0  0.82047  0.66459  0.22053  1.0000
  C   C895      1.0  0.79222  0.65355  0.21350  1.0000
  H   H1069     1.0  0.89319  0.72052  0.19631  1.0000
  H   H1070     1.0  0.83690  0.71704  0.15977  1.0000
  H   H1071     1.0  0.86175  0.70107  0.16790  1.0000
  H   H1072     1.0  0.87403  0.73879  0.16128  1.0000
  H   H1073     1.0  0.84476  0.75793  0.20012  1.0000
  H   H1074     1.0  0.71633  0.55881  0.13696  1.0000
  C   C896      1.0  0.74301  0.71759  0.05362  1.0000
  C   C897      1.0  0.72328  0.75616  0.03235  1.0000
  H   H1075     1.0  0.68968  0.68034  0.04234  1.0000
  C   C898      1.0  0.68997  0.98566  0.01427  1.0000
  C   C899      1.0  0.85311  0.97707  0.21550  1.0000
  C   C900      1.0  0.79113  0.79374  0.01250  1.0000
  C   C901      1.0  0.91170  0.95047  0.16173  1.0000
  C   C902      1.0  0.83977  0.94782  0.21118  1.0000
  C   C903      1.0  0.71974  0.50554  0.19447  1.0000
  H   H1076     1.0  0.81730  0.50900  0.09490  1.0000
  H   H1077     1.0  0.73702  0.96885  0.04267  1.0000
  C   C904      1.0  0.71350  0.77536  0.02242  1.0000
  C   C905      1.0  0.70456  0.93894  0.02514  1.0000
  C   C906      1.0  0.70129  0.76929  0.00503  1.0000
  C   C907      1.0  0.85084  0.74898  0.24292  1.0000
  H   H1078     1.0  0.79020  0.96326  0.01985  1.0000
  H   H1079     1.0  0.77321  0.72954  0.02503  1.0000
  H   H1080     1.0  0.69837  0.88910  0.00792  1.0000
  H   H1081     1.0  0.82047  0.76057  0.22592  1.0000
  H   H1082     1.0  0.75076  0.70155  0.06065  1.0000
  H   H1083     1.0  0.78248  0.49393  0.11749  1.0000
  H   H1084     1.0  0.67232  0.87898  0.02471  1.0000
  C   C908      1.0  0.68187  0.93468  0.01170  1.0000
  H   H1085     1.0  0.87939  0.77786  0.00750  1.0000
  H   H1086     1.0  0.75554  0.80529  0.21421  1.0000
  C   C909      1.0  0.67545  0.88349  0.01012  1.0000
  H   H1087     1.0  0.63216  0.53249  0.24449  1.0000
  N   N60       1.0  0.66622  0.90682  0.00291  1.0000
  H   H1088     1.0  0.88536  0.98636  0.16256  1.0000
  H   H1089     1.0  0.74840  0.70157  0.01129  1.0000
  H   H1090     1.0  0.66314  0.86282  0.00330  1.0000
  C   C910      1.0  0.67506  0.95893  0.00651  1.0000
  S   S253      1.0  0.75118  0.52764  0.24534  1.0000
  H   H1091     1.0  0.84513  0.78000  0.00614  1.0000
  H   H1092     1.0  0.85484  0.85669  0.00227  1.0000
  H   H1093     1.0  0.91199  0.96136  0.14823  1.0000
  C   C911      1.0  0.88830  0.83153  0.01197  1.0000
  Fe  Fe127     1.0  0.69357  0.49399  0.14805  1.0000
  C   C912      1.0  0.76169  0.75736  0.24680  1.0000
  C   C913      1.0  0.76382  0.79708  0.22622  1.0000
  H   H1094     1.0  0.87021  0.95658  0.17809  1.0000
  H   H1095     1.0  0.73352  0.76285  0.04544  1.0000
  H   H1096     1.0  0.97843  0.83487  0.02323  1.0000
  H   H1097     1.0  0.85363  0.81495  0.24754  1.0000
  C   C914      1.0  0.87738  0.98628  0.22743  1.0000
  H   H1098     1.0  0.70619  0.70542  0.00073  1.0000
  H   H1099     1.0  0.79366  0.75800  0.99979  1.0000
  C   C915      1.0  0.82018  0.48820  0.09707  1.0000
  C   C916      1.0  0.55316  0.97065  0.36570  1.0000
  S   S254      1.0  0.86976  0.49518  0.33995  1.0000
  H   H1100     1.0  0.50362  0.52007  0.46610  1.0000
  Fe  Fe128     1.0  0.75389  0.56050  0.26507  1.0000
  S   S255      1.0  0.72713  0.58654  0.26224  1.0000
  Fe  Fe129     1.0  0.78136  0.58454  0.30105  1.0000
  S   S256      1.0  0.75679  0.61313  0.30059  1.0000
  S   S257      1.0  0.80768  0.58270  0.32687  1.0000
  Fe  Fe130     1.0  0.71887  0.57403  0.29124  1.0000
  S   S258      1.0  0.67437  0.56414  0.30038  1.0000
  Fe  Fe131     1.0  0.76732  0.62358  0.27167  1.0000
  H   H1101     1.0  0.84288  0.79196  0.26712  1.0000
  S   S259      1.0  0.74271  0.54499  0.29344  1.0000
  S   S260      1.0  0.79487  0.59797  0.27276  1.0000
  N   N61       1.0  0.65207  0.50482  0.25714  1.0000
  C   C917      1.0  0.74109  0.55593  0.37057  1.0000
  C   C918      1.0  0.94592  0.52936  0.45957  1.0000
  H   H1102     1.0  0.50984  0.50105  0.44869  1.0000
  H   H1103     1.0  0.91136  0.50768  0.44023  1.0000
  C   C919      1.0  0.65308  0.53670  0.31540  1.0000
  C   C920      1.0  0.62861  0.53871  0.32128  1.0000
  C   C921      1.0  0.61119  0.51772  0.33339  1.0000
  H   H1104     1.0  0.77169  0.52596  0.41365  1.0000
  H   H1105     1.0  0.49602  0.97766  0.42048  1.0000
  C   C922      1.0  0.65980  0.51323  0.32160  1.0000
  H   H1106     1.0  0.62310  0.55668  0.31647  1.0000
  H   H1107     1.0  0.93616  0.54338  0.46343  1.0000
  H   H1108     1.0  0.81936  0.86443  0.25613  1.0000
  C   C923      1.0  0.61829  0.49464  0.33995  1.0000
  H   H1109     1.0  0.85475  0.86921  0.26471  1.0000
  H   H1110     1.0  0.75068  0.55150  0.33576  1.0000
  C   C924      1.0  0.81833  0.82317  0.28153  1.0000
  H   H1111     1.0  0.72021  0.55724  0.32617  1.0000
  H   H1112     1.0  0.75275  0.61128  0.36197  1.0000
  H   H1113     1.0  0.48130  0.95149  0.48840  1.0000
  C   C925      1.0  0.93192  0.50932  0.44647  1.0000
  H   H1114     1.0  0.51168  0.48886  0.47151  1.0000
  C   C926      1.0  0.52644  0.93282  0.39697  1.0000
  C   C927      1.0  0.51196  0.90713  0.40676  1.0000
  H   H1115     1.0  0.69369  0.57522  0.34229  1.0000
  H   H1116     1.0  0.52327  0.89933  0.41738  1.0000
  C   C928      1.0  0.83053  0.70193  0.25911  1.0000
  C   C929      1.0  0.85112  0.51835  0.33690  1.0000
  C   C930      1.0  0.84783  0.53299  0.35110  1.0000
  C   C931      1.0  0.83442  0.55259  0.34786  1.0000
  C   C932      1.0  0.82354  0.55716  0.33051  1.0000
  C   C933      1.0  0.82611  0.54189  0.31642  1.0000
  C   C934      1.0  0.84017  0.52288  0.31958  1.0000
  H   H1117     1.0  0.86845  0.82835  0.26925  1.0000
  H   H1118     1.0  0.83291  0.56461  0.35879  1.0000
  H   H1119     1.0  0.81803  0.54538  0.30299  1.0000
  N   N62       1.0  0.52771  0.97144  0.37337  1.0000
  H   H1120     1.0  0.79973  0.82904  0.28255  1.0000
  N   N63       1.0  0.73027  0.56733  0.35405  1.0000
  H   H1121     1.0  0.83336  0.68578  0.26848  1.0000
  H   H1122     1.0  0.54895  0.94434  0.40053  1.0000
  H   H1123     1.0  0.68498  0.54417  0.35714  1.0000
  C   C935      1.0  0.74983  0.59778  0.35028  1.0000
  C   C936      1.0  0.70109  0.56665  0.35504  1.0000
  H   H1124     1.0  0.54696  0.95192  0.35696  1.0000
  N   N64       1.0  0.82505  0.82451  0.26254  1.0000
  C   C937      1.0  0.77927  0.54409  0.38681  1.0000
  H   H1125     1.0  0.71583  0.52663  0.34140  1.0000
  H   H1126     1.0  0.58201  0.49844  0.29580  1.0000
  H   H1127     1.0  0.61616  0.52455  0.27383  1.0000
  C   C938      1.0  0.48272  0.89173  0.40324  1.0000
  H   H1128     1.0  0.81314  0.80131  0.28802  1.0000
  C   C939      1.0  0.68047  0.50882  0.26587  1.0000
  H   H1129     1.0  0.84291  0.51198  0.30845  1.0000
  S   S261      1.0  0.77244  0.66580  0.25595  1.0000
  H   H1130     1.0  0.65916  0.54877  0.26232  1.0000
  C   C940      1.0  0.84844  0.81450  0.26168  1.0000
  S   S262      1.0  0.49707  0.51841  0.37685  1.0000
  H   H1131     1.0  0.70409  0.54555  0.38665  1.0000
  H   H1132     1.0  0.72381  0.52740  0.41313  1.0000
  H   H1133     1.0  0.48908  0.93460  0.44085  1.0000
  C   C941      1.0  0.51199  0.94380  0.38323  1.0000
  H   H1134     1.0  0.67798  0.51086  0.31675  1.0000
  H   H1135     1.0  0.78193  0.56244  0.36026  1.0000
  H   H1136     1.0  0.85645  0.52993  0.36446  1.0000
  H   H1137     1.0  0.83676  0.83824  0.28979  1.0000
  H   H1138     1.0  0.56940  0.96920  0.37617  1.0000
  C   C942      1.0  0.51017  0.97838  0.35830  1.0000
  H   H1139     1.0  0.87514  0.73099  0.26117  1.0000
  C   C943      1.0  0.64272  0.49255  0.33402  1.0000
  C   C944      1.0  0.73618  0.53500  0.40141  1.0000
  H   H1140     1.0  0.70041  0.58027  0.36584  1.0000
  C   C945      1.0  0.76852  0.55489  0.37148  1.0000
  C   C946      1.0  0.72920  0.54991  0.33872  1.0000
  H   H1141     1.0  0.74160  0.60763  0.33848  1.0000
  H   H1142     1.0  0.80028  0.54344  0.38705  1.0000
  C   C947      1.0  0.72512  0.54561  0.38606  1.0000
  H   H1143     1.0  0.77141  0.59982  0.34708  1.0000
  C   C948      1.0  0.97277  0.53193  0.46728  1.0000
  H   H1144     1.0  0.50155  0.96086  0.34855  1.0000
  H   H1145     1.0  0.48927  0.56359  0.39396  1.0000
  H   H1146     1.0  0.59254  0.51969  0.33788  1.0000
  S   S263      1.0  0.90547  0.49649  0.39198  1.0000
  H   H1147     1.0  0.79398  0.76615  0.26807  1.0000
  H   H1148     1.0  0.68436  0.52044  0.27853  1.0000
  C   C949      1.0  0.76316  0.53420  0.40177  1.0000
  C   C950      1.0  0.83595  0.85536  0.25618  1.0000
  H   H1149     1.0  0.49198  0.98205  0.36320  1.0000
  C   C951      1.0  0.85417  0.72762  0.25495  1.0000
  H   H1150     1.0  0.91052  0.49096  0.49249  1.0000
  C   C952      1.0  0.61357  0.50256  0.27733  1.0000
  C   C953      1.0  0.78580  0.77573  0.25671  1.0000
  C   C954      1.0  0.79946  0.80558  0.25181  1.0000
  C   C955      1.0  0.49982  0.49824  0.46168  1.0000
  H   H1151     1.0  0.51356  0.56298  0.48796  1.0000
  H   H1152     1.0  0.62464  0.48964  0.41724  1.0000
  C   C956      1.0  0.80330  0.69732  0.25118  1.0000
  H   H1153     1.0  0.69797  0.52152  0.25702  1.0000
  C   C957      1.0  0.65306  0.53385  0.25101  1.0000
  C   C958      1.0  0.94471  0.49186  0.44104  1.0000
  C   C959      1.0  0.97146  0.49414  0.44869  1.0000
  C   C960      1.0  0.48205  0.92772  0.38016  1.0000
  H   H1154     1.0  0.75181  0.73459  0.25079  1.0000
  H   H1155     1.0  0.53390  0.52667  0.49778  1.0000
  C   C961      1.0  0.62997  0.48942  0.27004  1.0000
  H   H1156     1.0  0.57746  0.95407  0.70777  1.0000
  Fe  Fe132     1.0  0.54774  0.82249  0.70964  1.0000
  S   S264      1.0  0.57994  0.80485  0.70375  1.0000
  C   C962      1.0  0.95394  0.50984  0.54881  1.0000
  H   H1157     1.0  0.94119  0.52038  0.59546  1.0000
  S   S265      1.0  0.55287  0.75473  0.73407  1.0000
  Fe  Fe133     1.0  0.58701  0.80003  0.73369  1.0000
  H   H1158     1.0  0.52577  0.55826  0.65367  1.0000
  Fe  Fe134     1.0  0.54292  0.76148  0.70471  1.0000
  S   S266      1.0  0.53675  0.73262  0.68129  1.0000
  S   S267      1.0  0.55743  0.82094  0.73967  1.0000
  S   S268      1.0  0.51054  0.77942  0.70916  1.0000
  C   C963      1.0  0.50660  0.69998  0.67702  1.0000
  H   H1159     1.0  0.49164  0.60723  0.68887  1.0000
  C   C964      1.0  0.50394  0.68615  0.66092  1.0000
  H   H1160     1.0  0.52939  0.79047  0.66974  1.0000
  H   H1161     1.0  0.51990  0.69591  0.65122  1.0000
  H   H1162     1.0  0.66118  0.82862  0.71259  1.0000
  C   C965      1.0  0.49324  0.85435  0.69315  1.0000
  C   C966      1.0  0.49279  0.88639  0.66093  1.0000
  C   C967      1.0  0.51562  0.60486  0.64109  1.0000
  H   H1163     1.0  0.91569  0.51532  0.54081  1.0000
  C   C968      1.0  0.71914  0.82000  0.73373  1.0000
  H   H1164     1.0  0.48306  0.94098  0.65387  1.0000
  H   H1165     1.0  0.52122  0.78184  0.63135  1.0000
  C   C969      1.0  0.70322  0.86243  0.71610  1.0000
  H   H1166     1.0  0.49198  0.50931  0.54649  1.0000
  H   H1167     1.0  0.56856  0.64005  0.65917  1.0000
  C   C970      1.0  0.92774  0.50258  0.53880  1.0000
  H   H1168     1.0  0.53578  0.88927  0.65928  1.0000
  H   H1169     1.0  0.52987  0.81941  0.65407  1.0000
  H   H1170     1.0  0.48557  0.56426  0.67768  1.0000
  H   H1171     1.0  0.52225  0.49985  0.52688  1.0000
  C   C971      1.0  0.51747  0.86513  0.68322  1.0000
  H   H1172     1.0  0.58780  0.68211  0.67790  1.0000
  H   H1173     1.0  0.50325  0.57310  0.55866  1.0000
  H   H1174     1.0  0.49216  0.93090  0.68510  1.0000
  C   C972      1.0  0.96220  0.94112  0.74482  1.0000
  S   S269      1.0  0.54903  0.86056  0.69112  1.0000
  H   H1175     1.0  0.91906  0.84606  0.74509  1.0000
  C   C973      1.0  0.52814  0.61907  0.67200  1.0000
  C   C974      1.0  0.51709  0.88095  0.66704  1.0000
  C   C975      1.0  0.49261  0.96454  0.65043  1.0000
  H   H1176     1.0  0.89211  0.51295  0.58295  1.0000
  H   H1177     1.0  0.53604  0.56966  0.67640  1.0000
  H   H1178     1.0  0.48398  0.74464  0.67083  1.0000
  C   C976      1.0  0.56709  0.66510  0.68032  1.0000
  C   C977      1.0  0.48101  0.65949  0.65742  1.0000
  C   C978      1.0  0.55162  0.66771  0.69396  1.0000
  H   H1179     1.0  0.51216  0.96904  0.64323  1.0000
  C   C979      1.0  0.68321  0.83404  0.71760  1.0000
  H   H1180     1.0  0.51642  0.75406  0.64837  1.0000
  C   C980      1.0  0.51303  0.62230  0.68617  1.0000
  H   H1181     1.0  0.86910  0.48996  0.53204  1.0000
  C   C981      1.0  0.78986  0.88563  0.73583  1.0000
  C   C982      1.0  0.52483  0.64621  0.69700  1.0000
  H   H1182     1.0  0.74533  0.89238  0.72224  1.0000
  C   C983      1.0  0.87480  0.48998  0.51802  1.0000
  N   N65       1.0  0.51628  0.59427  0.66008  1.0000
  N   N66       1.0  0.49218  0.77995  0.65108  1.0000
  N   N67       1.0  0.49917  0.98199  0.66649  1.0000
  H   H1183     1.0  0.69663  0.87901  0.70982  1.0000
  H   H1184     1.0  0.88807  0.51253  0.51353  1.0000
  H   H1185     1.0  0.56004  0.68681  0.70190  1.0000
  C   C984      1.0  0.56174  0.96016  0.69986  1.0000
  H   H1186     1.0  0.50335  0.61887  0.63918  1.0000
  C   C985      1.0  0.53373  0.94002  0.69732  1.0000
  C   C986      1.0  0.55573  0.64106  0.66958  1.0000
  H   H1187     1.0  0.49336  0.84221  0.70566  1.0000
  C   C987      1.0  0.52063  0.97543  0.67854  1.0000
  C   C988      1.0  0.53452  0.57749  0.66221  1.0000
  C   C989      1.0  0.92741  0.50001  0.58973  1.0000
  C   C990      1.0  0.74025  0.84863  0.73223  1.0000
  C   C991      1.0  0.48578  0.68721  0.68943  1.0000
  H   H1188     1.0  0.95956  0.92672  0.73414  1.0000
  H   H1189     1.0  0.53728  0.61763  0.63641  1.0000
  C   C992      1.0  0.73130  0.86981  0.72336  1.0000
  H   H1190     1.0  0.64716  0.86628  0.74219  1.0000
  C   C993      1.0  0.51344  0.94750  0.68691  1.0000
  H   H1191     1.0  0.81195  0.88996  0.74174  1.0000
  C   C994      1.0  0.50878  0.55148  0.50086  1.0000
  C   C995      1.0  0.49932  0.49981  0.60377  1.0000
  H   H1192     1.0  0.52781  0.91824  0.70318  1.0000
  C   C996      1.0  0.78162  0.83578  0.73421  1.0000
  N   N68       1.0  0.76966  0.85567  0.74034  1.0000
  H   H1193     1.0  0.96109  0.52741  0.55796  1.0000
  C   C997      1.0  0.97027  0.49365  0.54791  1.0000
  Fe  Fe135     1.0  0.52309  0.77595  0.73860  1.0000
  C   C998      1.0  0.48671  0.57406  0.66382  1.0000
  H   H1194     1.0  0.50767  0.80974  0.67259  1.0000
  C   C999      1.0  0.51575  0.80074  0.66230  1.0000
  H   H1195     1.0  0.78070  0.83604  0.71931  1.0000
  C   C1000     1.0  0.52021  0.53110  0.50631  1.0000
  H   H1196     1.0  0.51260  0.64869  0.70738  1.0000
  H   H1197     1.0  0.78359  0.90196  0.74138  1.0000
  C   C1001     1.0  0.51387  0.51616  0.52278  1.0000
  C   C1002     1.0  0.49125  0.55725  0.51196  1.0000
  H   H1198     1.0  0.48752  0.69761  0.70186  1.0000
  H   H1199     1.0  0.50533  0.58667  0.63183  1.0000
  H   H1200     1.0  0.79117  0.88974  0.72108  1.0000
  H   H1201     1.0  0.80442  0.84189  0.73929  1.0000
  C   C1003     1.0  0.50501  0.76576  0.63992  1.0000
  C   C1004     1.0  0.89952  0.49573  0.58259  1.0000
  H   H1202     1.0  0.55663  0.59050  0.65827  1.0000
  H   H1203     1.0  0.91816  0.93549  0.74261  1.0000
  C   C1005     1.0  0.49651  0.52183  0.53398  1.0000
  H   H1204     1.0  0.49278  0.89865  0.64847  1.0000
  H   H1205     1.0  0.48515  0.53608  0.56622  1.0000
  H   H1206     1.0  0.48836  0.74936  0.63136  1.0000
  C   C1006     1.0  0.69112  0.81290  0.72646  1.0000
  H   H1207     1.0  0.77020  0.81314  0.73923  1.0000
  H   H1208     1.0  0.48507  0.78805  0.61345  1.0000
  H   H1209     1.0  0.51705  0.50958  0.61347  1.0000
  H   H1210     1.0  0.67504  0.79116  0.72831  1.0000
  H   H1211     1.0  0.72390  0.80303  0.74102  1.0000
  H   H1212     1.0  0.48288  0.57306  0.50682  1.0000
  C   C1007     1.0  0.48498  0.54287  0.52909  1.0000
  C   C1008     1.0  0.48189  0.55497  0.55947  1.0000
  C   C1009     1.0  0.56953  0.98792  0.69202  1.0000
  H   H1213     1.0  0.87073  0.84297  0.74933  1.0000
  H   H1214     1.0  0.94318  0.74975  0.98535  1.0000
  C   C1010     1.0  0.50007  0.79523  0.78188  1.0000
  Fe  Fe136     1.0  0.83673  0.89941  0.78757  1.0000
  S   S270      1.0  0.82338  0.93140  0.77145  1.0000
  S   S271      1.0  0.84890  0.86971  0.77222  1.0000
  Fe  Fe137     1.0  0.82289  0.91655  0.82219  1.0000
  S   S272      1.0  0.80883  0.95055  0.80855  1.0000
  S   S273      1.0  0.82548  0.90329  0.85165  1.0000
  Fe  Fe138     1.0  0.78534  0.91659  0.78812  1.0000
  H   H1215     1.0  0.92113  0.87612  0.86218  1.0000
  Fe  Fe139     1.0  0.84792  0.96242  0.79283  1.0000
  S   S274      1.0  0.79698  0.88203  0.80288  1.0000
  S   S275      1.0  0.86369  0.93095  0.80789  1.0000
  Fe  Fe140     1.0  0.72528  0.84028  0.95589  1.0000
  S   S276      1.0  0.69954  0.85119  0.97465  1.0000
  S   S277      1.0  0.73862  0.80246  0.96100  1.0000
  Fe  Fe141     1.0  0.72817  0.88977  0.92942  1.0000
  S   S278      1.0  0.70288  0.90454  0.94635  1.0000
  S   S279      1.0  0.74190  0.91784  0.90420  1.0000
  Fe  Fe142     1.0  0.73023  0.89734  0.96969  1.0000
  C   C1011     1.0  0.55756  0.78143  0.81226  1.0000
  Fe  Fe143     1.0  0.67410  0.85734  0.94960  1.0000
  S   S280      1.0  0.62620  0.84718  0.94863  1.0000
  S   S281      1.0  0.75771  0.88585  0.95255  1.0000
  S   S282      1.0  0.69766  0.84310  0.93104  1.0000
  C   C1012     1.0  0.76682  0.96878  0.94387  1.0000
  H   H1216     1.0  0.96738  0.90294  0.83037  1.0000
  S   S283      1.0  0.75303  0.92535  0.99340  1.0000
  S   S284      1.0  0.52411  0.74758  0.90603  1.0000
  C   C1013     1.0  0.91750  0.85899  0.83569  1.0000
  C   C1014     1.0  0.59887  0.82051  0.93542  1.0000
  C   C1015     1.0  0.60259  0.79682  0.92930  1.0000
  C   C1016     1.0  0.57966  0.77497  0.92012  1.0000
  C   C1017     1.0  0.55291  0.77682  0.91652  1.0000
  C   C1018     1.0  0.54941  0.80090  0.92221  1.0000
  C   C1019     1.0  0.57213  0.82238  0.93178  1.0000
  H   H1217     1.0  0.62293  0.79493  0.93204  1.0000
  H   H1218     1.0  0.58268  0.75647  0.91586  1.0000
  H   H1219     1.0  0.52897  0.80262  0.91967  1.0000
  H   H1220     1.0  0.56892  0.84052  0.93647  1.0000
  H   H1221     1.0  0.91395  0.84647  0.98034  1.0000
  C   C1020     1.0  0.49690  0.80547  0.79816  1.0000
  C   C1021     1.0  0.71040  0.88162  0.76763  1.0000
  H   H1222     1.0  0.56719  0.82652  0.78821  1.0000
  C   C1022     1.0  0.75911  0.79977  0.98083  1.0000
  H   H1223     1.0  0.89866  0.81046  0.97219  1.0000
  H   H1224     1.0  0.84262  0.86427  0.83206  1.0000
  H   H1225     1.0  0.54908  0.79711  0.81632  1.0000
  N   N69       1.0  0.87827  0.81700  0.99463  1.0000
  C   C1023     1.0  0.80136  0.90655  0.86591  1.0000
  C   C1024     1.0  0.78532  0.92293  0.86056  1.0000
  C   C1025     1.0  0.76706  0.92606  0.87242  1.0000
  C   C1026     1.0  0.76426  0.91237  0.88957  1.0000
  C   C1027     1.0  0.78004  0.89570  0.89489  1.0000
  C   C1028     1.0  0.79873  0.89301  0.88313  1.0000
  H   H1226     1.0  0.78726  0.93351  0.84736  1.0000
  H   H1227     1.0  0.75496  0.93904  0.86825  1.0000
  H   H1228     1.0  0.77803  0.88510  0.90809  1.0000
  H   H1229     1.0  0.81107  0.88029  0.88733  1.0000
  H   H1230     1.0  0.69213  0.90761  0.75119  1.0000
  C   C1029     1.0  0.95081  0.76835  0.99364  1.0000
  H   H1231     1.0  0.60954  0.78222  0.78681  1.0000
  C   C1030     1.0  0.57347  0.80880  0.78498  1.0000
  H   H1232     1.0  0.80743  0.94829  0.95091  1.0000
  C   C1031     1.0  0.63256  0.83503  0.80230  1.0000
  H   H1233     1.0  0.76541  0.95590  0.95672  1.0000
  C   C1032     1.0  0.94188  0.96343  0.76399  1.0000
  H   H1234     1.0  0.67520  0.86840  0.80400  1.0000
  C   C1033     1.0  0.87166  0.85195  0.81905  1.0000
  C   C1034     1.0  0.68889  0.88596  0.75621  1.0000
  C   C1035     1.0  0.49012  0.76549  0.77967  1.0000
  C   C1036     1.0  0.93970  0.87609  0.76592  1.0000
  C   C1037     1.0  0.95327  0.84772  0.82102  1.0000
  S   S285      1.0  0.62777  0.80378  0.75081  1.0000
  C   C1038     1.0  0.88437  0.87323  0.77042  1.0000
  C   C1039     1.0  0.90790  0.89106  0.78121  1.0000
  H   H1235     1.0  0.51158  0.65330  0.92580  1.0000
  C   C1040     1.0  0.80855  0.96070  0.93792  1.0000
  H   H1236     1.0  0.56260  0.76999  0.82450  1.0000
  C   C1041     1.0  0.85764  0.82636  0.98367  1.0000
  C   C1042     1.0  0.88133  0.87126  0.84850  1.0000
  C   C1043     1.0  0.81786  0.84320  0.96204  1.0000
  H   H1237     1.0  0.57426  0.75576  0.78913  1.0000
  C   C1044     1.0  0.90382  0.82315  0.98446  1.0000
  C   C1045     1.0  0.93561  0.89225  0.77909  1.0000
  H   H1238     1.0  0.76510  0.76299  0.97219  1.0000
  C   C1046     1.0  0.65908  0.83438  0.75719  1.0000
  H   H1239     1.0  0.90353  0.84215  0.80860  1.0000
  C   C1047     1.0  0.88869  0.85685  0.75765  1.0000
  C   C1048     1.0  0.90799  0.86933  0.84989  1.0000
  H   H1240     1.0  0.75396  0.83061  0.76472  1.0000
  C   C1049     1.0  0.50901  0.66213  0.91201  1.0000
  C   C1050     1.0  0.86323  0.86260  0.83310  1.0000
  H   H1241     1.0  0.93815  0.82532  0.81793  1.0000
  C   C1051     1.0  0.96849  0.88676  0.84102  1.0000
  H   H1242     1.0  0.93036  0.81548  0.85055  1.0000
  C   C1052     1.0  0.76044  0.96199  0.99728  1.0000
  H   H1243     1.0  0.75260  0.95361  0.93370  1.0000
  H   H1244     1.0  0.81741  0.81275  0.94346  1.0000
  H   H1245     1.0  0.50383  0.82848  0.79965  1.0000
  H   H1246     1.0  0.96844  0.83543  0.85386  1.0000
  H   H1247     1.0  0.95323  0.86226  0.80909  1.0000
  Fe  Fe144     1.0  0.48336  0.74853  0.89105  1.0000
  C   C1053     1.0  0.60680  0.82482  0.82927  1.0000
  C   C1054     1.0  0.63050  0.84601  0.83796  1.0000
  C   C1055     1.0  0.65507  0.86164  0.82890  1.0000
  H   H1248     1.0  0.59038  0.81782  0.77525  1.0000
  H   H1249     1.0  0.58852  0.81362  0.83712  1.0000
  H   H1250     1.0  0.62987  0.85033  0.85186  1.0000
  H   H1251     1.0  0.67341  0.87797  0.83570  1.0000
  H   H1252     1.0  0.83132  0.97066  0.93455  1.0000
  H   H1253     1.0  0.69019  0.73995  0.98369  1.0000
  H   H1254     1.0  0.69408  0.91952  0.98135  1.0000
  C   C1056     1.0  0.74708  0.97777  0.98687  1.0000
  H   H1255     1.0  0.75729  0.83608  0.99314  1.0000
  N   N70       1.0  0.94607  0.85768  0.83737  1.0000
  C   C1057     1.0  0.76948  0.77776  0.98286  1.0000
  H   H1256     1.0  0.96669  0.89468  0.85410  1.0000
  H   H1257     1.0  0.62291  0.87516  0.99910  1.0000
  S   S286      1.0  0.97360  0.87789  0.76114  1.0000
  C   C1058     1.0  0.48416  0.78608  0.81234  1.0000
  H   H1258     1.0  0.52282  0.68577  0.91212  1.0000
  C   C1059     1.0  0.94738  0.83746  0.85250  1.0000
  C   C1060     1.0  0.76509  0.81899  0.99459  1.0000
  H   H1259     1.0  0.72149  0.84983  0.78347  1.0000
  H   H1260     1.0  0.85205  0.79825  0.96161  1.0000
  H   H1261     1.0  0.75770  0.98498  0.94567  1.0000
  N   N71       1.0  0.79656  0.98298  0.93835  1.0000
  C   C1061     1.0  0.84621  0.81444  0.96670  1.0000
  N   N72       1.0  0.58289  0.79597  0.80147  1.0000
  C   C1062     1.0  0.82654  0.82271  0.95613  1.0000
  H   H1262     1.0  0.94466  0.84471  0.86560  1.0000
  C   C1063     1.0  0.60719  0.81864  0.81109  1.0000
  C   C1064     1.0  0.84817  0.84710  0.98936  1.0000
  C   C1065     1.0  0.68032  0.83008  0.76889  1.0000
  H   H1263     1.0  0.63445  0.83150  0.78855  1.0000
  H   H1264     1.0  0.80189  0.84885  0.95408  1.0000
  C   C1066     1.0  0.70568  0.85352  0.77421  1.0000
  H   H1265     1.0  0.90473  0.90384  0.79110  1.0000
  C   C1067     1.0  0.86474  0.78549  0.99885  1.0000
  H   H1266     1.0  0.97501  0.84735  0.82259  1.0000
  H   H1267     1.0  0.60014  0.76374  0.80815  1.0000
  H   H1268     1.0  0.50934  0.81026  0.77087  1.0000
  H   H1269     1.0  0.79030  0.85595  0.76674  1.0000
  C   C1068     1.0  0.96862  0.97656  0.77395  1.0000
  C   C1069     1.0  0.65606  0.85620  0.81107  1.0000
  H   H1270     1.0  0.95382  0.90635  0.78712  1.0000
  S   S287      1.0  0.74259  0.91200  0.77308  1.0000
  H   H1271     1.0  0.79651  0.94435  0.92772  1.0000
  H   H1272     1.0  0.85747  0.84532  0.80708  1.0000
  H   H1273     1.0  0.55479  0.79236  0.77764  1.0000
  H   H1274     1.0  0.69489  0.78480  0.99707  1.0000
  C   C1070     1.0  0.59210  0.77345  0.79621  1.0000
  H   H1275     1.0  0.73187  0.96782  0.97590  1.0000
  C   C1071     1.0  0.82872  0.85543  0.97857  1.0000
  H   H1276     1.0  0.92030  0.81740  0.99256  1.0000
  H   H1277     1.0  0.65854  0.95757  0.99613  1.0000
  H   H1278     1.0  0.53961  0.76482  0.80453  1.0000
  H   H1279     1.0  0.66229  0.92628  0.97655  1.0000
  H   H1280     1.0  0.67712  0.80844  0.77390  1.0000
  C   C1072     1.0  0.89838  0.85019  0.82019  1.0000
  S   S288      1.0  0.49097  0.75148  0.75903  1.0000
  H   H1281     1.0  0.92275  0.96586  0.76711  1.0000
  H   H1282     1.0  0.87451  0.87966  0.85932  1.0000
  H   H1283     1.0  0.62576  0.91142  0.99849  1.0000
  C   C1073     1.0  0.66333  0.86255  0.75108  1.0000
  H   H1284     1.0  0.66018  0.89025  0.97640  1.0000
  C   C1074     1.0  0.67085  0.91093  0.98348  1.0000
  C   C1075     1.0  0.78562  0.77486  0.99856  1.0000
  H   H1285     1.0  0.49368  0.69412  0.88843  1.0000
  H   H1286     1.0  0.82112  0.87064  0.98337  1.0000
  H   H1287     1.0  0.76209  0.86847  0.76535  1.0000
  H   H1288     1.0  0.85874  0.77243  0.98672  1.0000
  H   H1289     1.0  0.97122  0.96098  0.80856  1.0000
  H   H1290     1.0  0.51792  0.65271  0.90239  1.0000
  C   C1076     1.0  0.97580  0.79257  0.98939  1.0000
  H   H1291     1.0  0.78285  0.97768  0.91018  1.0000
  C   C1077     1.0  0.69866  0.74392  0.99750  1.0000
  H   H1292     1.0  0.49045  0.60724  0.91562  1.0000
  C   C1078     1.0  0.76890  0.85240  0.76011  1.0000
  H   H1293     1.0  0.80848  0.97419  0.97432  1.0000
  H   H1294     1.0  0.92967  0.97491  0.79793  1.0000
  C   C1079     1.0  0.91611  0.85851  0.75530  1.0000
  H   H1295     1.0  0.48287  0.65992  0.87827  1.0000
  H   H1296     1.0  0.48289  0.69444  0.92076  1.0000
  C   C1080     1.0  0.93890  0.94601  0.74966  1.0000
