data_image0
_chemical_formula_structural       CH2CHFeS2CFeSFeSFeSFeS3H2CFeS2H2CS2FeS2FeS2FeHFeS3FeS2FeS2FeSFeS2HC6H4C7H4C2H2C2HCSC7HSH2C6H5CH2SC6H5C2H8CSCS2CH4NC9HC2H4C2HCHCHNC2FeHSHCH3NCHNHSH2CH4CH2C3HCH4CH2CH2FeHC4H3C2HCH9CHCH6C2SH3C2NCH2C3HC2H2CH2CH2SHC3H3CHCNH4CH2CH2CSH2CH4CFeHCNHCFeC2H2CH2CNC2HC2HSFeHCHCHCH4CHFeSCFeSFeSFeHSFeS2FeS2FeCFeS3CSFeS2FeSHFeSFeS3FeSHFeS2FeSFeS3C2SHCHCH4C7H5CHC2HCHCH2CH3C8H4CH2C6H4C6H4SH3CH2C3H4CHC2HCNC9H14C2H5CNC2HC3H4C2HCHC3HC2HNC9H16C3HCH2SH2CH5C2HNHCSH3NSHCHC2H2CNSNCHCHCHCH3CH2CHCH2CH5SC3HCH5CFeS2FeS2FeHFeS3FeS2FeS2FeHFeS3FeS2FeS2FeCFeS3HSHFeSHFeHFeS2H2C2H3C7H3C4H2NH2C7H4C2H5C2H3C6H5CHC7H4C2HC6SHCH3CH3CHC3H2C2SCH2NC3HNCH2CH2NC9H14SHCHCH2CH2CH2CH2C3H2NSCNC4SHC2HCHCH6FeHC2H3CH2CH5CH3C5H3C2HCHNHC2NHCHCHCSCH7CHCHCHCHC2HSC3H3C3HCFeS2FeH2C2FeS2FeS2FeSFeS3H2SFeS2FeS2FeSFeS2FeS2FeS2FeSFeS3CS2CH6FeS2C2HC2H2C11H4CSHC6H4C6H6C6H4CH2C4H6C8H4C5H2C2NC9H14CH2CNHCFeH2CH4C5H2C2HCH2CH2CHNHCH2CHC2H4CH2NC9H14NC2HCNH2C2H2CHCHCH2CHCHCH2C2HFeSH4CHC2H4CH5FeH4CH2NH2CSH2CH2Fe2SCH2CH2CHCHCSHCHFeS2HC3HSFeCSFeS2HC2S2HCFeS2FeHFeHSH3FeC2HC4SFeC6H6C2H4CSC2HSH4CH2NCH5SCSFeHCFeH3CH3CFeS2FeS2FeSFeS3FeS2FeS2FeSFeS3C2H3C4H2C2NCH2C6H5NC2HC2HC4H4C3HC2H2CHCHC2H3C3H2CHCHCH3C2H2C2NCHC2HCSH2CH3N2HC3HC2HCHCHC2H4C2H2CHC2H2CHCHCH2CH3CH3C2H2CHCHCHC2H3C2HC4NHCH4C2H2C2H6CNSHC4HC2H2SH10C2H2SH2C3H2C2H3FeSHFeS2FeSFeS3FeS2FeS2FeSFeS3CH2CHCHNCHC3H4CHC2HC7H4SC2H2C4H2C6H2C6H5CNH8CH3C2H2NC2HC3H2NHCH2CH2CHC2H3SC2H4NCHC5HCHCH9CSCNC9H13CHC2HC3H2CHC2H2C2H3C6H5C2H3C3H4C3HC2HCH5FeS2Fe2SHSFeS2FeS2FeSFeS3FeS2Fe2S2HFeS2FeS2FeSFeS3FeHSHNSCHCHC6H2CHC4HCH2C6H4CHC4H4C6H4C6H4C3H2C2H3NC7H15CH2C4HCH2C3H4FeHNC6HC2H6CHCH3CHCHCH5C2HCH3SH2C2HC4HSHCH2C2NHCHSCHNHSHC5HCH2NH5CHCHC5H2C2H13SC3H4SHSHCSCHCH3CH2CNHCSC2H3FeSFeS2Fe2S2FeS2FeSFeSFeSFeS2CS2C2H3CH2CHC7H4C6H4CHC5H2C5H2C3H2C3HC2SHC5HSC5NC2HC4H5CNCSCH6NCH2C7SHC2HCH8CFeH4NHCH2C3HCH2FeH2CH2CHSH3CH2SH4FeH2C2H2SFeH7C3HC2H2C2SNC5HCSHCSHC4HCHCHSHC2HC2HC3HSH3CN2H6CHNC2H4CFeH3CHC2HCHCHSH2CHCH7CH3CSCHCHFeC3HC2H4FeS2FeSFeSFeS2FeS2FeSFeCFeS2H3C7H4CHC3H2C2HC4H3C6H7C2H2C6H3CH5CH3CH3NHCHSCH12C2HCNC2H2CHSH2CHNH2SH4CHC3H4CH4C2HC2HCHCHCNC2HC2H2CHC2SHNHC6HNC8H7C2H2CH6CH2C2HSCH7CSHCHC3HCHSCSFeSFeSCHSHSFeSFeS2HC7H4C6HSHC2HC4HCHC7H5CH3C2H2CFeH2CH2CH2SH3CH4C2HC2H2C2FeH2C2HCHSCH2NC6HC2H13CH2CH3SHCNC2HCH3CNH2SHCH2C3HCHCH3C2NH3CH3FeHCNHCNCH2NHSH5C2H2FeCH4CH5CH2CHSCH3CFeHSC3FeHSC2H4SH3NCNHSCHCHC8HCH2CHSH4C4HSH2S2HC3HC2H2CNCHSH6CFeC3H3CHCH2CH4C3H6CH2CNC4H2CHSH3S2FeS2HSFeSFeSFeHFeS2FeH6NHSHFeS2FeSFeSFeS3FeS2FeS2FeSFeHS2C6H4SC6H3SH3CH3C6H4C6H4CH2C6H10CH2C2H2CNC7H14FeNH3CH2CSHC2H2SH2NC9H4C2H5SH3CH3NC9H12C3HCHSCHC2HC5HCHC3SCHC3H2CH2CH2C3HC2H2CH3CHNHCHCHC2HSC2HNHCHCH4FeHCH2CHCHSH2FeHCFeS2FeS2FeCFeS3CSFeHSHCFeS2C2FeS2FeS2FeSFeS3FeSHFeSHFeSFeS3HC2HCH4C6H4C3H4SH2SH3C2HC6H4C6H4CHNC6H4CHC6H6CH2C2HNHC3HCH4CH2CH4C2H3C4H8C2SH2N2CHCH2CH2C2H2CHCNC2H2NCH4CHC2HC2H3C4H2CN2C9H18SCHCH2C3H2CFeC3H2C2HC3HCH5CHC2HCHFeCHSH2CS2HCH2FeS2FeS2FeSFeS3FeS2FeS2FeCFeS3FeSCHSCFeCFeS2FeS2FeS2FeCFeS3HCHCHCHC2H2C6H6C4NCHC4HC3HC7H4C6H9C6H5C2HC4H2FeNH11C2H3C2H2SCNH4CH2CH2SCHC2H2CNC9H12CHNC9H13C3HC3HC3HSH3CH2C3NC2H3C2HCHNC9H11CHC3H4CHCH2SC2SCSC2HCH2CH4NH2NCH7C2H3CFeS2H2FeS2FeS2FeSFeS3C2SFeS2FeS2Fe2S3FeS2FeS2FeSFeS3HSH5CHCHC3FeS2HC2H4C2H2C6H4C6H4NCHC6H4C6H6CHC2HC12H4C4H3NC9H13SCH2CHCHCHCH6CH2C2HCSH4SNC2HNHNC2HCH2CNC6H11CH2CH3CH4C2H2CHC2FeHC2NC6H2FeH4FeCH8NC9H14SH2CFeH3SH2SC2H2CH3C3H5CFeSCSHCH2CH4CHFe
_chemical_formula_sum              "C1620 H1944 Fe216 S432 N108"
_cell_length_a       47.747
_cell_length_b       47.3425
_cell_length_c       110.216
_cell_angle_alpha    91.0073
_cell_angle_beta     90.9461
_cell_angle_gamma    114.044

_space_group_name_H-M_alt    "P 1"
_space_group_IT_number       1

loop_
  _space_group_symop_operation_xyz
  'x, y, z'

loop_
  _atom_site_type_symbol
  _atom_site_label
  _atom_site_symmetry_multiplicity
  _atom_site_fract_x
  _atom_site_fract_y
  _atom_site_fract_z
  _atom_site_occupancy
  C   C1        1.0  0.07070  0.27945  0.16368  1.0000
  H   H1        1.0  0.47288  0.99172  0.10524  1.0000
  H   H2        1.0  0.34575  0.35838  0.12485  1.0000
  C   C2        1.0  0.29057  0.12757  0.01303  1.0000
  H   H3        1.0  0.37300  0.03422  0.15091  1.0000
  Fe  Fe1       1.0  0.27772  0.24603  0.99113  1.0000
  S   S1        1.0  0.30093  0.24196  0.00897  1.0000
  S   S2        1.0  0.22705  0.21631  0.98927  1.0000
  C   C3        1.0  0.28041  0.05827  0.99758  1.0000
  Fe  Fe2       1.0  0.37818  0.03526  0.07206  1.0000
  S   S3        1.0  0.41274  0.08263  0.07808  1.0000
  Fe  Fe3       1.0  0.36505  0.01562  0.09871  1.0000
  S   S4        1.0  0.39900  0.06115  0.10611  1.0000
  Fe  Fe4       1.0  0.37885  0.08153  0.09203  1.0000
  S   S5        1.0  0.36226  0.11804  0.09774  1.0000
  Fe  Fe5       1.0  0.42980  0.05762  0.09146  1.0000
  S   S6        1.0  0.34285  0.03595  0.08523  1.0000
  S   S7        1.0  0.29829  0.01728  0.19691  1.0000
  S   S8        1.0  0.22407  0.03113  0.19272  1.0000
  H   H4        1.0  0.23442  0.05448  0.02124  1.0000
  H   H5        1.0  0.45731  0.05761  0.06995  1.0000
  C   C4        1.0  0.26854  0.02797  0.15324  1.0000
  Fe  Fe6       1.0  0.03404  0.25512  0.20017  1.0000
  S   S9        1.0  0.01091  0.28794  0.20310  1.0000
  S   S10       1.0  0.08637  0.27852  0.19870  1.0000
  H   H6        1.0  0.23375  0.28735  0.00090  1.0000
  H   H7        1.0  0.31931  0.08645  0.01579  1.0000
  C   C5        1.0  0.23567  0.29984  0.04046  1.0000
  S   S11       1.0  0.00441  0.23205  0.18370  1.0000
  S   S12       1.0  0.01723  0.26560  0.98026  1.0000
  Fe  Fe7       1.0  0.37398  0.32129  0.07330  1.0000
  S   S13       1.0  0.42443  0.33191  0.07451  1.0000
  S   S14       1.0  0.35117  0.33003  0.05622  1.0000
  Fe  Fe8       1.0  0.36505  0.30567  0.10048  1.0000
  S   S15       1.0  0.41453  0.31432  0.10347  1.0000
  S   S16       1.0  0.32827  0.29522  0.11484  1.0000
  Fe  Fe9       1.0  0.42590  0.35678  0.09221  1.0000
  H   H8        1.0  0.21418  0.27372  0.21521  1.0000
  Fe  Fe10      1.0  0.40946  0.28893  0.08560  1.0000
  S   S17       1.0  0.43388  0.25742  0.08240  1.0000
  S   S18       1.0  0.37647  0.34970  0.09029  1.0000
  S   S19       1.0  0.35885  0.27666  0.08330  1.0000
  Fe  Fe11      1.0  0.28087  0.20549  0.20667  1.0000
  S   S20       1.0  0.32072  0.25066  0.20411  1.0000
  S   S21       1.0  0.29393  0.16794  0.21383  1.0000
  Fe  Fe12      1.0  0.23465  0.23272  0.19997  1.0000
  S   S22       1.0  0.27183  0.28012  0.19684  1.0000
  S   S23       1.0  0.18236  0.21571  0.19963  1.0000
  Fe  Fe13      1.0  0.29609  0.25439  0.18700  1.0000
  S   S24       1.0  0.32961  0.26651  0.17127  1.0000
  Fe  Fe14      1.0  0.29359  0.27201  0.21409  1.0000
  S   S25       1.0  0.25757  0.20736  0.18904  1.0000
  S   S26       1.0  0.25516  0.22656  0.21777  1.0000
  H   H9        1.0  0.31747  0.17353  0.18964  1.0000
  C   C6        1.0  0.32813  0.28466  0.13027  1.0000
  C   C7        1.0  0.35339  0.28192  0.13587  1.0000
  C   C8        1.0  0.35321  0.27611  0.14839  1.0000
  C   C9        1.0  0.32765  0.27243  0.15543  1.0000
  C   C10       1.0  0.30213  0.27445  0.14978  1.0000
  C   C11       1.0  0.30246  0.28066  0.13728  1.0000
  H   H10       1.0  0.37327  0.28480  0.13061  1.0000
  H   H11       1.0  0.37317  0.27478  0.15267  1.0000
  H   H12       1.0  0.28234  0.27176  0.15506  1.0000
  H   H13       1.0  0.28280  0.28274  0.13306  1.0000
  C   C12       1.0  0.11267  0.26057  0.19877  1.0000
  C   C13       1.0  0.14403  0.27881  0.19706  1.0000
  C   C14       1.0  0.16571  0.26554  0.19710  1.0000
  C   C15       1.0  0.15624  0.23383  0.19896  1.0000
  C   C16       1.0  0.12488  0.21565  0.20063  1.0000
  C   C17       1.0  0.10321  0.22888  0.20053  1.0000
  C   C18       1.0  0.14918  0.25286  0.98010  1.0000
  H   H14       1.0  0.18966  0.27981  0.19566  1.0000
  H   H15       1.0  0.11726  0.19110  0.20205  1.0000
  H   H16       1.0  0.07921  0.21452  0.20185  1.0000
  H   H17       1.0  0.32983  0.99879  0.01048  1.0000
  C   C19       1.0  0.04817  0.29368  0.14148  1.0000
  C   C20       1.0  0.25240  0.04561  0.15642  1.0000
  H   H18       1.0  0.08138  0.26135  0.98092  1.0000
  H   H19       1.0  0.44041  0.99712  0.14439  1.0000
  C   C21       1.0  0.23279  0.27717  0.03130  1.0000
  C   C22       1.0  0.29574  0.07098  0.01848  1.0000
  H   H20       1.0  0.34001  0.06862  0.11452  1.0000
  C   C23       1.0  0.19608  0.24466  0.01583  1.0000
  S   S27       1.0  0.98479  0.30227  0.05827  1.0000
  C   C24       1.0  0.20220  0.29719  0.01833  1.0000
  C   C25       1.0  0.24272  0.06878  0.19907  1.0000
  C   C26       1.0  0.26842  0.07661  0.20681  1.0000
  C   C27       1.0  0.28380  0.10709  0.21134  1.0000
  C   C28       1.0  0.27340  0.12985  0.20826  1.0000
  C   C29       1.0  0.24748  0.12202  0.20064  1.0000
  C   C30       1.0  0.23218  0.09151  0.19605  1.0000
  H   H21       1.0  0.27650  0.05921  0.20930  1.0000
  S   S28       1.0  0.28870  0.22662  0.97389  1.0000
  H   H22       1.0  0.23917  0.13940  0.19831  1.0000
  H   H23       1.0  0.21217  0.08550  0.19013  1.0000
  C   C31       1.0  0.38242  0.15655  0.09325  1.0000
  C   C32       1.0  0.41033  0.16585  0.08732  1.0000
  C   C33       1.0  0.42598  0.19688  0.08403  1.0000
  C   C34       1.0  0.41373  0.21865  0.08658  1.0000
  C   C35       1.0  0.38584  0.20932  0.09250  1.0000
  C   C36       1.0  0.37030  0.17838  0.09585  1.0000
  H   H24       1.0  0.41993  0.14921  0.08536  1.0000
  H   H25       1.0  0.27070  0.01168  0.15962  1.0000
  H   H26       1.0  0.37627  0.22594  0.09456  1.0000
  H   H27       1.0  0.34875  0.17136  0.10045  1.0000
  H   H28       1.0  0.37537  0.02695  0.12865  1.0000
  C   C37       1.0  0.28801  0.15550  0.01087  1.0000
  H   H29       1.0  0.40758  0.36677  0.11480  1.0000
  H   H30       1.0  0.22755  0.12990  0.99092  1.0000
  S   S29       1.0  0.27437  0.28636  0.98167  1.0000
  C   C38       1.0  0.33922  0.30597  0.04288  1.0000
  C   C39       1.0  0.33903  0.27634  0.04234  1.0000
  C   C40       1.0  0.32774  0.25736  0.03181  1.0000
  C   C41       1.0  0.31675  0.26780  0.02165  1.0000
  C   C42       1.0  0.31783  0.29778  0.02205  1.0000
  C   C43       1.0  0.32870  0.31659  0.03265  1.0000
  H   H31       1.0  0.34707  0.26784  0.05011  1.0000
  H   H32       1.0  0.32722  0.23431  0.03159  1.0000
  H   H33       1.0  0.31041  0.30652  0.01422  1.0000
  H   H34       1.0  0.32897  0.33955  0.03294  1.0000
  H   H35       1.0  0.13768  0.29193  0.98317  1.0000
  C   C44       1.0  0.09688  0.33461  0.16592  1.0000
  C   C45       1.0  0.24774  0.10117  0.99902  1.0000
  H   H36       1.0  0.31037  0.00347  0.05451  1.0000
  H   H37       1.0  0.00375  0.27172  0.01734  1.0000
  H   H38       1.0  0.11294  0.33621  0.15850  1.0000
  H   H39       1.0  0.09528  0.35734  0.16678  1.0000
  H   H40       1.0  0.38720  0.34171  0.12649  1.0000
  H   H41       1.0  0.44142  0.04500  0.05500  1.0000
  H   H42       1.0  0.23205  0.08098  0.99397  1.0000
  H   H43       1.0  0.43887  0.42524  0.12777  1.0000
  C   C46       1.0  0.36989  0.36108  0.14791  1.0000
  S   S30       1.0  0.46294  0.40173  0.10031  1.0000
  C   C47       1.0  0.36777  0.35892  0.16051  1.0000
  S   S31       1.0  0.39727  0.01027  0.08490  1.0000
  S   S32       1.0  0.00405  0.22020  0.21340  1.0000
  C   C48       1.0  0.02653  0.32344  0.12996  1.0000
  H   H44       1.0  0.07971  0.27598  0.17268  1.0000
  H   H45       1.0  0.37343  0.01927  0.02549  1.0000
  H   H46       1.0  0.10750  0.33135  0.17459  1.0000
  H   H47       1.0  0.33396  0.21073  0.18319  1.0000
  N   N1        1.0  0.39317  0.38924  0.12899  1.0000
  C   C49       1.0  0.40396  0.36562  0.12475  1.0000
  C   C50       1.0  0.36267  0.38236  0.12322  1.0000
  C   C51       1.0  0.41492  0.41961  0.12454  1.0000
  C   C52       1.0  0.39075  0.38817  0.14237  1.0000
  C   C53       1.0  0.40935  0.41309  0.15028  1.0000
  C   C54       1.0  0.42783  0.12179  0.05017  1.0000
  C   C55       1.0  0.98850  0.47056  0.07077  1.0000
  C   C56       1.0  0.99572  0.28629  0.03523  1.0000
  C   C57       1.0  0.43983  0.14833  0.05760  1.0000
  H   H48       1.0  0.44762  0.20411  0.07951  1.0000
  C   C58       1.0  0.08512  0.21809  0.97763  1.0000
  C   C59       1.0  0.98764  0.27608  0.02305  1.0000
  H   H49       1.0  0.46402  0.05009  0.13712  1.0000
  H   H50       1.0  0.26260  0.06785  0.11119  1.0000
  H   H51       1.0  0.40814  0.43859  0.12734  1.0000
  H   H52       1.0  0.42606  0.43454  0.14696  1.0000
  C   C60       1.0  0.42753  0.99900  0.11414  1.0000
  C   C61       1.0  0.26364  0.07040  0.13693  1.0000
  H   H53       1.0  0.23757  0.08061  0.15088  1.0000
  C   C62       1.0  0.28220  0.03136  0.14193  1.0000
  H   H54       1.0  0.24673  0.23944  0.02719  1.0000
  C   C63       1.0  0.10555  0.20370  0.97644  1.0000
  H   H55       1.0  0.08760  0.27902  0.15693  1.0000
  N   N2        1.0  0.27235  0.06940  0.00911  1.0000
  C   C64       1.0  0.31477  0.00267  0.04495  1.0000
  C   C65       1.0  0.27032  0.09941  0.00716  1.0000
  Fe  Fe15      1.0  0.24717  0.99853  0.19566  1.0000
  H   H56       1.0  0.25844  0.01303  0.11438  1.0000
  S   S33       1.0  0.33102  0.00014  0.16878  1.0000
  H   H57       1.0  0.33533  0.05339  0.12939  1.0000
  C   C66       1.0  0.24636  0.25619  0.03391  1.0000
  H   H58       1.0  0.27562  0.15645  0.17476  1.0000
  H   H59       1.0  0.30865  0.12873  0.01929  1.0000
  H   H60       1.0  0.30373  0.17690  0.01532  1.0000
  N   N3        1.0  0.21861  0.27648  0.01918  1.0000
  C   C67       1.0  0.24514  0.12913  0.99709  1.0000
  H   H61       1.0  0.04853  0.25908  0.16199  1.0000
  N   N4        1.0  0.29451  0.05516  0.12140  1.0000
  H   H62       1.0  0.28291  0.03605  0.99873  1.0000
  S   S34       1.0  0.37700  0.02710  0.05146  1.0000
  H   H63       1.0  0.40582  0.98867  0.13588  1.0000
  H   H64       1.0  0.40488  0.00025  0.11524  1.0000
  C   C68       1.0  0.27989  0.05235  0.13334  1.0000
  H   H65       1.0  0.01817  0.28985  0.03882  1.0000
  H   H66       1.0  0.02472  0.36283  0.13925  1.0000
  H   H67       1.0  0.18413  0.24395  0.00696  1.0000
  H   H68       1.0  0.01518  0.32635  0.12177  1.0000
  C   C69       1.0  0.09687  0.25004  0.97991  1.0000
  H   H69       1.0  0.35287  0.39852  0.12668  1.0000
  H   H70       1.0  0.26356  0.17795  0.00127  1.0000
  C   C70       1.0  0.35556  0.01436  0.14627  1.0000
  C   C71       1.0  0.46330  0.05517  0.06039  1.0000
  C   C72       1.0  0.97462  0.29108  0.04285  1.0000
  H   H71       1.0  0.29061  0.19274  0.16747  1.0000
  C   C73       1.0  0.34321  0.13416  0.16142  1.0000
  H   H72       1.0  0.29467  0.01735  0.13997  1.0000
  H   H73       1.0  0.42615  0.36895  0.12927  1.0000
  H   H74       1.0  0.28285  0.15769  0.15878  1.0000
  H   H75       1.0  0.98846  0.42921  0.07792  1.0000
  C   C74       1.0  0.29179  0.16968  0.16768  1.0000
  H   H76       1.0  0.24350  0.02376  0.01525  1.0000
  H   H77       1.0  0.00058  0.39655  0.03925  1.0000
  C   C75       1.0  0.12877  0.26730  0.98121  1.0000
  H   H78       1.0  0.29610  0.04786  0.01986  1.0000
  H   H79       1.0  0.35185  0.33773  0.16450  1.0000
  Fe  Fe16      1.0  0.01058  0.21683  0.97555  1.0000
  H   H80       1.0  0.35849  0.09940  0.15515  1.0000
  C   C76       1.0  0.34396  0.10488  0.16136  1.0000
  C   C77       1.0  0.25130  0.30126  0.05147  1.0000
  C   C78       1.0  0.26146  0.25755  0.04502  1.0000
  C   C79       1.0  0.26425  0.28025  0.05372  1.0000
  H   H81       1.0  0.32706  0.06002  0.16941  1.0000
  H   H82       1.0  0.04870  0.35572  0.15799  1.0000
  H   H83       1.0  0.05348  0.27360  0.14149  1.0000
  C   C80       1.0  0.04599  0.30823  0.17352  1.0000
  C   C81       1.0  0.28770  0.07589  0.11299  1.0000
  H   H84       1.0  0.29170  0.12251  0.18396  1.0000
  C   C82       1.0  0.35705  0.01023  0.13365  1.0000
  H   H85       1.0  0.03004  0.28245  0.12308  1.0000
  H   H86       1.0  0.35765  0.15034  0.15502  1.0000
  H   H87       1.0  0.42784  0.16343  0.05834  1.0000
  H   H88       1.0  0.34259  0.21768  0.16208  1.0000
  H   H89       1.0  0.25412  0.31924  0.05821  1.0000
  H   H90       1.0  0.27236  0.24182  0.04668  1.0000
  H   H91       1.0  0.27731  0.28213  0.06208  1.0000
  H   H92       1.0  0.21822  0.32199  0.01943  1.0000
  H   H93       1.0  0.40637  0.11611  0.04519  1.0000
  C   C83       1.0  0.03495  0.29862  0.13074  1.0000
  H   H94       1.0  0.26263  0.05404  0.99032  1.0000
  C   C84       1.0  0.32826  0.06770  0.12325  1.0000
  H   H95       1.0  0.02229  0.29081  0.17153  1.0000
  H   H96       1.0  0.33748  0.09162  0.12723  1.0000
  H   H97       1.0  0.05400  0.30240  0.18229  1.0000
  H   H98       1.0  0.29157  0.00818  0.12007  1.0000
  H   H99       1.0  0.04447  0.33073  0.17520  1.0000
  H   H100      1.0  0.33696  0.18628  0.15184  1.0000
  C   C85       1.0  0.30742  0.08930  0.17738  1.0000
  C   C86       1.0  0.32453  0.14190  0.16963  1.0000
  S   S35       1.0  0.04517  0.19525  0.97641  1.0000
  H   H101      1.0  0.43187  0.08100  0.04389  1.0000
  H   H102      1.0  0.99226  0.14144  0.98267  1.0000
  H   H103      1.0  0.15296  0.20964  0.97675  1.0000
  C   C87       1.0  0.44271  0.10177  0.04949  1.0000
  C   C88       1.0  0.04525  0.33933  0.15058  1.0000
  N   N5        1.0  0.06650  0.30889  0.16347  1.0000
  C   C89       1.0  0.38625  0.38371  0.16801  1.0000
  H   H104      1.0  0.42136  0.42994  0.16881  1.0000
  H   H105      1.0  0.42990  0.04425  0.12866  1.0000
  C   C90       1.0  0.30651  0.11843  0.17752  1.0000
  C   C91       1.0  0.33333  0.18693  0.18253  1.0000
  C   C92       1.0  0.98722  0.44059  0.06964  1.0000
  H   H106      1.0  0.15161  0.30334  0.19566  1.0000
  C   C93       1.0  0.26534  0.15624  0.00294  1.0000
  C   C94       1.0  0.45191  0.04150  0.12824  1.0000
  H   H107      1.0  0.30234  0.07548  0.99406  1.0000
  H   H108      1.0  0.29340  0.07176  0.18352  1.0000
  C   C95       1.0  0.32628  0.08261  0.16939  1.0000
  H   H109      1.0  0.36831  0.19922  0.16307  1.0000
  H   H110      1.0  0.22405  0.04027  0.00584  1.0000
  C   C96       1.0  0.98048  0.38164  0.04453  1.0000
  H   H111      1.0  0.99106  0.48165  0.07967  1.0000
  H   H112      1.0  0.35657  0.18852  0.18509  1.0000
  S   S36       1.0  0.22308  0.98616  0.98567  1.0000
  H   H113      1.0  0.01056  0.36932  0.06204  1.0000
  C   C97       1.0  0.40695  0.41075  0.16291  1.0000
  C   C98       1.0  0.05337  0.31378  0.15182  1.0000
  C   C99       1.0  0.03176  0.34382  0.13984  1.0000
  H   H114      1.0  0.29853  0.07683  0.10402  1.0000
  H   H115      1.0  0.03143  0.40975  0.05913  1.0000
  H   H116      1.0  0.35520  0.34115  0.14251  1.0000
  C   C100      1.0  0.28392  0.02426  0.11522  1.0000
  H   H117      1.0  0.30400  0.11310  0.21714  1.0000
  C   C101      1.0  0.34380  0.19473  0.16138  1.0000
  N   N6        1.0  0.32356  0.17280  0.17021  1.0000
  H   H118      1.0  0.26093  0.08723  0.13109  1.0000
  H   H119      1.0  0.20699  0.22812  0.01466  1.0000
  H   H120      1.0  0.29326  0.02574  0.10594  1.0000
  H   H121      1.0  0.38459  0.38184  0.17779  1.0000
  C   C102      1.0  0.34499  0.01283  0.04109  1.0000
  H   H122      1.0  0.01138  0.39741  0.07306  1.0000
  H   H123      1.0  0.26090  0.30992  0.01245  1.0000
  C   C103      1.0  0.24230  0.04613  0.01302  1.0000
  H   H124      1.0  0.41581  0.41960  0.11442  1.0000
  H   H125      1.0  0.17833  0.23554  0.02284  1.0000
  C   C104      1.0  0.24306  0.28644  0.01012  1.0000
  S   S37       1.0  0.18900  0.27525  0.98219  1.0000
  H   H126      1.0  0.18404  0.29151  0.02522  1.0000
  H   H127      1.0  0.29089  0.07889  0.02746  1.0000
  C   C105      1.0  0.35017  0.01151  0.02858  1.0000
  H   H128      1.0  0.19074  0.29503  0.00923  1.0000
  H   H129      1.0  0.25485  0.27048  0.00950  1.0000
  H   H130      1.0  0.22675  0.31720  0.03925  1.0000
  H   H131      1.0  0.36397  0.38410  0.11316  1.0000
  C   C106      1.0  0.47009  0.10765  0.05633  1.0000
  Fe  Fe17      1.0  0.22413  0.25516  0.97872  1.0000
  H   H132      1.0  0.29724  0.10026  0.11652  1.0000
  C   C107      1.0  0.98371  0.42543  0.05812  1.0000
  N   N7        1.0  0.44692  0.00902  0.12541  1.0000
  H   H133      1.0  0.46595  0.05729  0.12117  1.0000
  C   C108      1.0  0.25010  0.06690  0.14831  1.0000
  Fe  Fe18      1.0  0.97927  0.25183  0.21535  1.0000
  C   C109      1.0  0.01014  0.39263  0.06311  1.0000
  C   C110      1.0  0.33150  0.99320  0.15293  1.0000
  H   H134      1.0  0.47091  0.01688  0.08192  1.0000
  H   H135      1.0  0.24183  0.04288  0.16523  1.0000
  C   C111      1.0  0.13746  0.22101  0.97761  1.0000
  H   H136      1.0  0.47340  0.03774  0.06015  1.0000
  H   H137      1.0  0.43869  0.01409  0.10645  1.0000
  C   C112      1.0  0.33476  0.98462  0.12754  1.0000
  N   N8        1.0  0.98238  0.39364  0.05721  1.0000
  C   C113      1.0  0.32549  0.99988  0.02004  1.0000
  C   C114      1.0  0.98097  0.44196  0.04783  1.0000
  H   H138      1.0  0.09666  0.17900  0.97468  1.0000
  C   C115      1.0  0.29525  0.98922  0.02393  1.0000
  C   C116      1.0  0.98188  0.47182  0.04910  1.0000
  H   H139      1.0  0.98021  0.35793  0.04423  1.0000
  S   S38       1.0  0.29160  0.98985  0.97861  1.0000
  Fe  Fe19      1.0  0.97935  0.26209  0.18748  1.0000
  H   H140      1.0  0.97716  0.24432  0.15741  1.0000
  C   C117      1.0  0.42930  0.98909  0.13530  1.0000
  H   H141      1.0  0.47075  0.06966  0.03721  1.0000
  C   C118      1.0  0.29011  0.99091  0.03641  1.0000
  H   H142      1.0  0.97355  0.23672  0.13497  1.0000
  C   C119      1.0  0.46683  0.15502  0.06433  1.0000
  H   H143      1.0  0.97370  0.10256  0.98732  1.0000
  H   H144      1.0  0.26682  0.98278  0.03953  1.0000
  H   H145      1.0  0.47299  0.31541  0.09318  1.0000
  H   H146      1.0  0.97785  0.43230  0.03872  1.0000
  C   C120      1.0  0.00189  0.33087  0.35587  1.0000
  H   H147      1.0  0.28831  0.10437  0.23908  1.0000
  Fe  Fe20      1.0  0.35848  0.00840  0.29892  1.0000
  S   S39       1.0  0.40085  0.05158  0.29635  1.0000
  C   C121      1.0  0.00041  0.34580  0.24961  1.0000
  Fe  Fe21      1.0  0.37591  0.00353  0.32635  1.0000
  S   S40       1.0  0.41895  0.04743  0.32551  1.0000
  Fe  Fe22      1.0  0.39025  0.06686  0.31457  1.0000
  S   S41       1.0  0.37754  0.10833  0.31652  1.0000
  Fe  Fe23      1.0  0.42573  0.02862  0.30733  1.0000
  H   H148      1.0  0.18089  0.22838  0.24253  1.0000
  S   S42       1.0  0.34674  0.02393  0.31678  1.0000
  Fe  Fe24      1.0  0.38493  0.30508  0.29683  1.0000
  S   S43       1.0  0.43520  0.31607  0.29555  1.0000
  S   S44       1.0  0.35046  0.27798  0.28171  1.0000
  Fe  Fe25      1.0  0.39186  0.32232  0.32450  1.0000
  S   S45       1.0  0.44232  0.33291  0.32497  1.0000
  S   S46       1.0  0.36592  0.33501  0.33943  1.0000
  Fe  Fe26      1.0  0.44402  0.35789  0.30765  1.0000
  C   C122      1.0  0.98728  0.28808  0.46986  1.0000
  Fe  Fe27      1.0  0.42905  0.28987  0.31288  1.0000
  S   S47       1.0  0.45057  0.25477  0.31330  1.0000
  S   S48       1.0  0.39382  0.34883  0.30755  1.0000
  S   S49       1.0  0.37853  0.27740  0.31383  1.0000
  C   C123      1.0  0.12435  0.36167  0.46245  1.0000
  S   S50       1.0  0.46468  0.01602  0.30143  1.0000
  Fe  Fe28      1.0  0.31039  0.36370  0.42669  1.0000
  S   S51       1.0  0.33251  0.32963  0.42626  1.0000
  S   S52       1.0  0.25810  0.34108  0.42381  1.0000
  Fe  Fe29      1.0  0.37266  0.41807  0.42834  1.0000
  S   S53       1.0  0.39864  0.38800  0.42768  1.0000
  H   H149      1.0  0.35507  0.01129  0.38147  1.0000
  Fe  Fe30      1.0  0.36476  0.36112  0.41286  1.0000
  S   S54       1.0  0.37960  0.33819  0.39722  1.0000
  Fe  Fe31      1.0  0.36455  0.35892  0.44112  1.0000
  S   S55       1.0  0.38602  0.33984  0.45584  1.0000
  S   S56       1.0  0.34122  0.39371  0.41246  1.0000
  S   S57       1.0  0.34013  0.39067  0.44269  1.0000
  Fe  Fe32      1.0  0.05791  0.35814  0.40790  1.0000
  S   S58       1.0  0.09253  0.40602  0.41321  1.0000
  H   H150      1.0  0.33865  0.16700  0.23611  1.0000
  Fe  Fe33      1.0  0.04490  0.34076  0.43481  1.0000
  S   S59       1.0  0.07838  0.38723  0.44165  1.0000
  S   S60       1.0  0.01574  0.30406  0.44789  1.0000
  Fe  Fe34      1.0  0.05834  0.40584  0.42690  1.0000
  S   S61       1.0  0.03780  0.44063  0.42970  1.0000
  Fe  Fe35      1.0  0.10976  0.38264  0.42733  1.0000
  S   S62       1.0  0.16069  0.39998  0.43261  1.0000
  S   S63       1.0  0.02264  0.35952  0.42080  1.0000
  S   S64       1.0  0.07737  0.33459  0.42128  1.0000
  C   C124      1.0  0.02874  0.41987  0.39732  1.0000
  C   C125      1.0  0.05945  0.48030  0.42784  1.0000
  S   S65       1.0  0.31893  0.98781  0.28494  1.0000
  H   H151      1.0  0.04712  0.35644  0.46473  1.0000
  C   C126      1.0  0.22446  0.28557  0.22402  1.0000
  H   H152      1.0  0.16348  0.26208  0.22255  1.0000
  C   C127      1.0  0.01021  0.31118  0.46338  1.0000
  H   H153      1.0  0.12541  0.33569  0.44039  1.0000
  H   H154      1.0  0.44786  0.43784  0.38982  1.0000
  H   H155      1.0  0.13618  0.37960  0.45568  1.0000
  H   H156      1.0  0.23027  0.31071  0.22314  1.0000
  C   C128      1.0  0.35518  0.99133  0.37656  1.0000
  C   C129      1.0  0.23167  0.35848  0.42586  1.0000
  C   C130      1.0  0.24043  0.38786  0.43128  1.0000
  C   C131      1.0  0.21848  0.40033  0.43307  1.0000
  C   C132      1.0  0.18762  0.38384  0.42933  1.0000
  C   C133      1.0  0.17889  0.35455  0.42380  1.0000
  C   C134      1.0  0.20077  0.34192  0.42215  1.0000
  H   H157      1.0  0.26406  0.40089  0.43420  1.0000
  H   H158      1.0  0.22551  0.42296  0.43739  1.0000
  H   H159      1.0  0.15530  0.34158  0.42083  1.0000
  H   H160      1.0  0.19372  0.31918  0.41794  1.0000
  H   H161      1.0  0.42606  0.38028  0.33967  1.0000
  C   C135      1.0  0.35429  0.25773  0.46845  1.0000
  H   H162      1.0  0.45895  0.46572  0.33578  1.0000
  C   C136      1.0  0.98702  0.34521  0.23824  1.0000
  C   C137      1.0  0.44428  0.40878  0.47129  1.0000
  H   H163      1.0  0.44077  0.22016  0.28902  1.0000
  C   C138      1.0  0.98875  0.27058  0.25292  1.0000
  H   H164      1.0  0.44516  0.01869  0.40159  1.0000
  C   C139      1.0  0.44368  0.47167  0.41587  1.0000
  H   H165      1.0  0.06063  0.40974  0.37865  1.0000
  H   H166      1.0  0.98675  0.32896  0.39051  1.0000
  C   C140      1.0  0.99114  0.32966  0.38090  1.0000
  H   H167      1.0  0.17410  0.35162  0.46756  1.0000
  H   H168      1.0  0.09990  0.35824  0.46217  1.0000
  H   H169      1.0  0.00628  0.33124  0.34626  1.0000
  C   C141      1.0  0.35168  0.17732  0.24441  1.0000
  C   C142      1.0  0.06335  0.43393  0.38063  1.0000
  C   C143      1.0  0.37272  0.33800  0.35539  1.0000
  C   C144      1.0  0.38694  0.32126  0.36129  1.0000
  C   C145      1.0  0.38892  0.32179  0.37408  1.0000
  C   C146      1.0  0.37724  0.33944  0.38112  1.0000
  C   C147      1.0  0.36436  0.35737  0.37519  1.0000
  C   C148      1.0  0.36170  0.35624  0.36241  1.0000
  H   H170      1.0  0.39537  0.30699  0.35603  1.0000
  H   H171      1.0  0.39924  0.30809  0.37857  1.0000
  H   H172      1.0  0.35638  0.37205  0.38039  1.0000
  H   H173      1.0  0.35079  0.36940  0.35792  1.0000
  C   C149      1.0  0.02939  0.33848  0.46955  1.0000
  H   H174      1.0  0.11442  0.29710  0.44575  1.0000
  H   H175      1.0  0.15681  0.26474  0.23825  1.0000
  C   C150      1.0  0.43006  0.21409  0.31439  1.0000
  C   C151      1.0  0.39851  0.20059  0.31634  1.0000
  C   C152      1.0  0.38293  0.16820  0.31690  1.0000
  C   C153      1.0  0.39865  0.14889  0.31555  1.0000
  C   C154      1.0  0.43015  0.16231  0.31347  1.0000
  C   C155      1.0  0.44576  0.19477  0.31294  1.0000
  H   H176      1.0  0.38615  0.21512  0.31757  1.0000
  H   H177      1.0  0.35861  0.15807  0.31859  1.0000
  H   H178      1.0  0.44254  0.14775  0.31245  1.0000
  H   H179      1.0  0.39732  0.23320  0.29504  1.0000
  C   C156      1.0  0.32653  0.30017  0.24331  1.0000
  C   C157      1.0  0.34592  0.32423  0.25116  1.0000
  C   C158      1.0  0.35406  0.31797  0.26287  1.0000
  C   C159      1.0  0.34222  0.28760  0.26695  1.0000
  C   C160      1.0  0.32254  0.26365  0.25914  1.0000
  C   C161      1.0  0.31515  0.26977  0.24733  1.0000
  H   H180      1.0  0.35472  0.34784  0.24816  1.0000
  H   H181      1.0  0.36908  0.33667  0.26879  1.0000
  H   H182      1.0  0.31293  0.24012  0.26225  1.0000
  H   H183      1.0  0.30008  0.25104  0.24145  1.0000
  S   S66       1.0  0.31534  0.30904  0.22891  1.0000
  H   H184      1.0  0.25959  0.33107  0.27606  1.0000
  H   H185      1.0  0.21764  0.23490  0.23663  1.0000
  H   H186      1.0  0.37254  0.01465  0.24609  1.0000
  C   C162      1.0  0.45189  0.43569  0.38027  1.0000
  H   H187      1.0  0.43112  0.44694  0.41469  1.0000
  H   H188      1.0  0.16579  0.31956  0.45676  1.0000
  C   C163      1.0  0.38428  0.21941  0.28694  1.0000
  C   C164      1.0  0.11358  0.31984  0.44780  1.0000
  C   C165      1.0  0.24809  0.31934  0.26770  1.0000
  H   H189      1.0  0.01493  0.27905  0.26981  1.0000
  H   H190      1.0  0.47019  0.20499  0.31144  1.0000
  H   H191      1.0  0.36802  0.14166  0.24672  1.0000
  H   H192      1.0  0.37071  0.01246  0.26859  1.0000
  C   C166      1.0  0.24668  0.28861  0.24976  1.0000
  H   H193      1.0  0.21014  0.33222  0.26962  1.0000
  C   C167      1.0  0.43411  0.40420  0.33632  1.0000
  C   C168      1.0  0.36834  0.16320  0.25039  1.0000
  H   H194      1.0  0.00788  0.39205  0.37561  1.0000
  C   C169      1.0  0.20548  0.30495  0.25321  1.0000
  N   N9        1.0  0.31461  0.07792  0.28427  1.0000
  C   C170      1.0  0.29039  0.04736  0.28719  1.0000
  C   C171      1.0  0.34475  0.07579  0.28482  1.0000
  C   C172      1.0  0.31513  0.10037  0.29397  1.0000
  C   C173      1.0  0.30855  0.08639  0.27193  1.0000
  C   C174      1.0  0.30889  0.06795  0.26166  1.0000
  C   C175      1.0  0.30115  0.11211  0.26971  1.0000
  C   C176      1.0  0.30184  0.07451  0.24997  1.0000
  C   C177      1.0  0.29396  0.11836  0.25797  1.0000
  C   C178      1.0  0.29418  0.09955  0.24814  1.0000
  H   H195      1.0  0.26733  0.04793  0.28710  1.0000
  H   H196      1.0  0.28932  0.02886  0.28061  1.0000
  H   H197      1.0  0.29460  0.03965  0.29629  1.0000
  H   H198      1.0  0.34533  0.05670  0.27896  1.0000
  H   H199      1.0  0.35042  0.07090  0.29418  1.0000
  H   H200      1.0  0.36357  0.09777  0.28211  1.0000
  H   H201      1.0  0.29264  0.10207  0.29463  1.0000
  H   H202      1.0  0.32001  0.09329  0.30310  1.0000
  H   H203      1.0  0.33353  0.12376  0.29256  1.0000
  H   H204      1.0  0.31418  0.04796  0.26261  1.0000
  H   H205      1.0  0.30048  0.12763  0.27688  1.0000
  H   H206      1.0  0.30200  0.05982  0.24230  1.0000
  H   H207      1.0  0.28812  0.13794  0.25645  1.0000
  H   H208      1.0  0.18409  0.30647  0.25090  1.0000
  C   C179      1.0  0.34962  0.00430  0.26321  1.0000
  C   C180      1.0  0.21833  0.28874  0.24572  1.0000
  H   H209      1.0  0.35474  0.26636  0.45935  1.0000
  H   H210      1.0  0.17193  0.35718  0.45174  1.0000
  H   H211      1.0  0.36469  0.01440  0.35932  1.0000
  H   H212      1.0  0.13404  0.37151  0.47159  1.0000
  H   H213      1.0  0.01912  0.33849  0.25043  1.0000
  C   C181      1.0  0.02121  0.33851  0.37700  1.0000
  N   N10       1.0  0.40501  0.22081  0.27689  1.0000
  C   C182      1.0  0.42611  0.20683  0.28114  1.0000
  C   C183      1.0  0.37492  0.24523  0.47193  1.0000
  H   H214      1.0  0.36735  0.22896  0.28439  1.0000
  C   C184      1.0  0.38645  0.20517  0.26591  1.0000
  C   C185      1.0  0.36844  0.21833  0.25978  1.0000
  C   C186      1.0  0.38541  0.17671  0.26102  1.0000
  H   H215      1.0  0.08916  0.31650  0.44711  1.0000
  H   H216      1.0  0.33841  0.21557  0.24452  1.0000
  H   H217      1.0  0.98900  0.44333  0.44640  1.0000
  H   H218      1.0  0.41344  0.18295  0.28442  1.0000
  C   C187      1.0  0.98106  0.42975  0.45446  1.0000
  C   C188      1.0  0.42412  0.25384  0.27444  1.0000
  H   H219      1.0  0.98653  0.41321  0.38038  1.0000
  C   C189      1.0  0.08068  0.29967  0.47096  1.0000
  H   H220      1.0  0.37111  0.19524  0.28979  1.0000
  C   C190      1.0  0.46834  0.45894  0.36079  1.0000
  C   C191      1.0  0.16136  0.34036  0.45903  1.0000
  C   C192      1.0  0.99361  0.27703  0.26554  1.0000
  H   H221      1.0  0.39779  0.16460  0.26518  1.0000
  C   C193      1.0  0.46042  0.42935  0.35509  1.0000
  C   C194      1.0  0.26127  0.30371  0.26057  1.0000
  H   H222      1.0  0.43530  0.40207  0.32627  1.0000
  N   N11       1.0  0.27664  0.30289  0.39047  1.0000
  C   C195      1.0  0.29260  0.33684  0.39233  1.0000
  C   C196      1.0  0.24303  0.29422  0.39019  1.0000
  C   C197      1.0  0.28383  0.28829  0.40122  1.0000
  C   C198      1.0  0.28628  0.29378  0.37886  1.0000
  C   C199      1.0  0.27878  0.30375  0.36766  1.0000
  C   C200      1.0  0.30426  0.27611  0.37829  1.0000
  C   C201      1.0  0.28829  0.29615  0.35660  1.0000
  C   C202      1.0  0.31347  0.26850  0.36717  1.0000
  C   C203      1.0  0.30548  0.27845  0.35636  1.0000
  H   H223      1.0  0.28501  0.34486  0.40071  1.0000
  H   H224      1.0  0.31779  0.34396  0.39329  1.0000
  H   H225      1.0  0.28845  0.34978  0.38470  1.0000
  H   H226      1.0  0.23599  0.30738  0.38345  1.0000
  H   H227      1.0  0.23506  0.29932  0.39911  1.0000
  H   H228      1.0  0.23016  0.26910  0.38802  1.0000
  H   H229      1.0  0.30906  0.29578  0.40258  1.0000
  H   H230      1.0  0.27568  0.29510  0.40976  1.0000
  H   H231      1.0  0.27275  0.26262  0.40038  1.0000
  H   H232      1.0  0.26623  0.31824  0.36737  1.0000
  H   H233      1.0  0.31234  0.26862  0.38630  1.0000
  H   H234      1.0  0.28321  0.30479  0.34817  1.0000
  H   H235      1.0  0.32791  0.25579  0.36694  1.0000
  H   H236      1.0  0.31370  0.27353  0.34780  1.0000
  H   H237      1.0  0.36744  0.23948  0.26315  1.0000
  H   H238      1.0  0.25802  0.27702  0.24452  1.0000
  C   C204      1.0  0.02639  0.33915  0.36445  1.0000
  C   C205      1.0  0.00921  0.41596  0.37690  1.0000
  C   C206      1.0  0.03839  0.46738  0.38690  1.0000
  H   H239      1.0  0.44230  0.38006  0.35900  1.0000
  C   C207      1.0  0.44469  0.40655  0.37504  1.0000
  H   H240      1.0  0.04792  0.43153  0.40399  1.0000
  H   H241      1.0  0.45955  0.99498  0.41985  1.0000
  S   S67       1.0  0.38371  0.98415  0.30855  1.0000
  H   H242      1.0  0.10390  0.47890  0.42940  1.0000
  H   H243      1.0  0.41585  0.41246  0.33825  1.0000
  C   C208      1.0  0.99466  0.41019  0.45811  1.0000
  H   H244      1.0  0.97801  0.41843  0.26962  1.0000
  H   H245      1.0  0.18572  0.22609  0.22642  1.0000
  H   H246      1.0  0.17758  0.29940  0.22982  1.0000
  H   H247      1.0  0.00626  0.26777  0.24756  1.0000
  H   H248      1.0  0.99725  0.46362  0.37648  1.0000
  C   C209      1.0  0.11274  0.31010  0.46938  1.0000
  C   C210      1.0  0.01725  0.47839  0.38178  1.0000
  H   H249      1.0  0.33935  0.34670  0.47108  1.0000
  N   N12       1.0  0.03479  0.43488  0.38539  1.0000
  H   H250      1.0  0.41022  0.26776  0.27352  1.0000
  C   C211      1.0  0.32142  0.99163  0.26893  1.0000
  S   S68       1.0  0.32647  0.99473  0.22715  1.0000
  H   H251      1.0  0.01318  0.40877  0.45289  1.0000
  H   H252      1.0  0.40564  0.99455  0.40348  1.0000
  H   H253      1.0  0.44196  0.20658  0.27389  1.0000
  N   N13       1.0  0.20348  0.27250  0.23421  1.0000
  S   S69       1.0  0.05318  0.34957  0.38732  1.0000
  H   H254      1.0  0.08300  0.44361  0.38723  1.0000
  C   C212      1.0  0.35154  0.20470  0.24916  1.0000
  H   H255      1.0  0.44314  0.40588  0.46147  1.0000
  C   C213      1.0  0.44875  0.40329  0.36265  1.0000
  C   C214      1.0  0.35057  0.00548  0.25043  1.0000
  H   H256      1.0  0.43553  0.38630  0.38062  1.0000
  H   H257      1.0  0.04954  0.34590  0.36132  1.0000
  C   C215      1.0  0.22027  0.31995  0.26404  1.0000
  N   N14       1.0  0.12798  0.33251  0.45986  1.0000
  S   S70       1.0  0.39730  0.47007  0.43079  1.0000
  N   N15       1.0  0.46405  0.42507  0.34195  1.0000
  C   C216      1.0  0.19667  0.23909  0.23500  1.0000
  H   H258      1.0  0.24652  0.28316  0.22519  1.0000
  C   C217      1.0  0.98871  0.35394  0.26001  1.0000
  H   H259      1.0  0.28307  0.30341  0.26338  1.0000
  C   C218      1.0  0.32345  0.99443  0.24323  1.0000
  H   H260      1.0  0.01224  0.42602  0.36771  1.0000
  C   C219      1.0  0.36064  0.99320  0.36398  1.0000
  H   H261      1.0  0.06686  0.30703  0.46504  1.0000
  H   H262      1.0  0.00779  0.42043  0.40141  1.0000
  H   H263      1.0  0.39111  0.24380  0.46542  1.0000
  C   C220      1.0  0.37948  0.33680  0.47165  1.0000
  H   H264      1.0  0.99948  0.35254  0.26854  1.0000
  H   H265      1.0  0.02561  0.39522  0.39656  1.0000
  C   C221      1.0  0.17412  0.27496  0.23116  1.0000
  H   H266      1.0  0.00101  0.47418  0.30230  1.0000
  C   C222      1.0  0.42703  0.99538  0.39926  1.0000
  H   H267      1.0  0.44098  0.26533  0.28200  1.0000
  H   H268      1.0  0.98786  0.38150  0.28269  1.0000
  C   C223      1.0  0.46399  0.46187  0.37321  1.0000
  H   H269      1.0  0.99554  0.37718  0.47072  1.0000
  H   H270      1.0  0.43727  0.25620  0.26600  1.0000
  H   H271      1.0  0.07007  0.44688  0.37208  1.0000
  H   H272      1.0  0.99522  0.33731  0.23031  1.0000
  H   H273      1.0  0.42224  0.99326  0.38928  1.0000
  S   S71       1.0  0.97894  0.29068  0.28841  1.0000
  C   C224      1.0  0.97624  0.46511  0.30209  1.0000
  C   C225      1.0  0.98423  0.39203  0.46831  1.0000
  C   C226      1.0  0.45481  0.98339  0.33742  1.0000
  H   H274      1.0  0.43795  0.98560  0.33120  1.0000
  C   C227      1.0  0.29520  0.98276  0.24898  1.0000
  H   H275      1.0  0.45145  0.47534  0.47109  1.0000
  H   H276      1.0  0.44660  0.47829  0.44885  1.0000
  H   H277      1.0  0.07976  0.48219  0.39848  1.0000
  H   H278      1.0  0.39886  0.40713  0.47219  1.0000
  H   H279      1.0  0.43210  0.43437  0.66911  1.0000
  C   C228      1.0  0.14992  0.32535  0.71304  1.0000
  Fe  Fe36      1.0  0.03938  0.39319  0.64971  1.0000
  S   S72       1.0  0.00816  0.34226  0.64856  1.0000
  S   S73       1.0  0.01969  0.42855  0.65367  1.0000
  Fe  Fe37      1.0  0.09617  0.38196  0.64487  1.0000
  S   S74       1.0  0.06969  0.33074  0.64313  1.0000
  S   S75       1.0  0.14724  0.40779  0.64244  1.0000
  Fe  Fe38      1.0  0.03523  0.34141  0.63210  1.0000
  H   H280      1.0  0.20990  0.22341  0.71676  1.0000
  Fe  Fe39      1.0  0.04486  0.33561  0.65973  1.0000
  S   S76       1.0  0.03979  0.29954  0.67408  1.0000
  S   S77       1.0  0.06381  0.39264  0.63255  1.0000
  S   S78       1.0  0.07402  0.38662  0.66216  1.0000
  Fe  Fe40      1.0  0.33814  0.36840  0.66720  1.0000
  S   S79       1.0  0.31486  0.39949  0.66216  1.0000
  S   S80       1.0  0.34679  0.36750  0.68762  1.0000
  Fe  Fe41      1.0  0.34629  0.35505  0.64011  1.0000
  S   S81       1.0  0.32235  0.38418  0.63350  1.0000
  S   S82       1.0  0.37299  0.33692  0.62755  1.0000
  Fe  Fe42      1.0  0.35096  0.41835  0.64802  1.0000
  H   H281      1.0  0.43406  0.45224  0.70192  1.0000
  Fe  Fe43      1.0  0.28875  0.36237  0.64832  1.0000
  S   S83       1.0  0.23663  0.33933  0.64757  1.0000
  S   S84       1.0  0.37620  0.39025  0.65405  1.0000
  S   S85       1.0  0.31068  0.33024  0.65393  1.0000
  Fe  Fe44      1.0  0.38788  0.31601  0.52848  1.0000
  S   S86       1.0  0.43558  0.31776  0.52905  1.0000
  S   S87       1.0  0.36097  0.32310  0.51246  1.0000
  Fe  Fe45      1.0  0.38107  0.30842  0.55622  1.0000
  S   S88       1.0  0.42803  0.30888  0.55876  1.0000
  S   S89       1.0  0.34753  0.30873  0.57061  1.0000
  Fe  Fe46      1.0  0.44299  0.34802  0.54574  1.0000
  C   C229      1.0  0.22129  0.29004  0.70232  1.0000
  Fe  Fe47      1.0  0.41643  0.27798  0.54188  1.0000
  S   S90       1.0  0.43498  0.24114  0.53853  1.0000
  S   S91       1.0  0.39690  0.34945  0.54422  1.0000
  S   S92       1.0  0.36799  0.27437  0.54027  1.0000
  H   H282      1.0  0.04195  0.36297  0.48684  1.0000
  S   S93       1.0  0.39480  0.03540  0.55534  1.0000
  H   H283      1.0  0.40813  0.47099  0.70102  1.0000
  Fe  Fe48      1.0  0.38916  0.00698  0.52143  1.0000
  S   S94       1.0  0.42304  0.05445  0.52793  1.0000
  H   H284      1.0  0.23879  0.24485  0.70634  1.0000
  Fe  Fe49      1.0  0.43104  0.02982  0.54406  1.0000
  H   H285      1.0  0.16105  0.33002  0.72191  1.0000
  Fe  Fe50      1.0  0.38384  0.05638  0.53867  1.0000
  S   S95       1.0  0.36543  0.09386  0.54116  1.0000
  S   S96       1.0  0.34935  0.01029  0.53112  1.0000
  H   H286      1.0  0.04131  0.27276  0.48134  1.0000
  H   H287      1.0  0.45531  0.19229  0.53512  1.0000
  C   C230      1.0  0.34981  0.33701  0.48934  1.0000
  C   C231      1.0  0.33403  0.25061  0.48871  1.0000
  H   H288      1.0  0.97908  0.27350  0.59499  1.0000
  H   H289      1.0  0.08137  0.29547  0.69725  1.0000
  H   H290      1.0  0.07831  0.46204  0.64230  1.0000
  C   C232      1.0  0.16917  0.33459  0.70308  1.0000
  C   C233      1.0  0.41505  0.20023  0.53924  1.0000
  C   C234      1.0  0.38381  0.18597  0.54176  1.0000
  C   C235      1.0  0.36903  0.15342  0.54224  1.0000
  C   C236      1.0  0.38522  0.13475  0.54023  1.0000
  C   C237      1.0  0.41640  0.14902  0.53763  1.0000
  C   C238      1.0  0.43117  0.18156  0.53712  1.0000
  H   H291      1.0  0.37110  0.19998  0.54345  1.0000
  H   H292      1.0  0.34491  0.14264  0.54427  1.0000
  H   H293      1.0  0.42916  0.13501  0.53604  1.0000
  C   C239      1.0  0.06580  0.27986  0.48026  1.0000
  C   C240      1.0  0.36947  0.32914  0.49687  1.0000
  C   C241      1.0  0.02289  0.47532  0.61565  1.0000
  C   C242      1.0  0.21486  0.23960  0.70908  1.0000
  H   H294      1.0  0.33111  0.17937  0.50027  1.0000
  H   H295      1.0  0.40968  0.31927  0.49739  1.0000
  N   N16       1.0  0.44691  0.41480  0.51051  1.0000
  H   H296      1.0  0.28978  0.01010  0.55766  1.0000
  H   H297      1.0  0.10643  0.44688  0.67751  1.0000
  C   C243      1.0  0.44056  0.45861  0.59332  1.0000
  C   C244      1.0  0.35555  0.31733  0.58637  1.0000
  C   C245      1.0  0.38237  0.31817  0.59200  1.0000
  C   C246      1.0  0.38730  0.32410  0.60462  1.0000
  C   C247      1.0  0.36570  0.32960  0.61171  1.0000
  C   C248      1.0  0.33916  0.32932  0.60604  1.0000
  C   C249      1.0  0.33405  0.32300  0.59346  1.0000
  H   H298      1.0  0.39900  0.31365  0.58668  1.0000
  H   H299      1.0  0.40786  0.32420  0.60893  1.0000
  H   H300      1.0  0.32224  0.33327  0.61140  1.0000
  H   H301      1.0  0.31315  0.32220  0.58919  1.0000
  C   C250      1.0  0.42255  0.39951  0.58277  1.0000
  C   C251      1.0  0.44591  0.41375  0.49705  1.0000
  H   H302      1.0  0.41545  0.37653  0.57865  1.0000
  H   H303      1.0  0.38800  0.24098  0.52041  1.0000
  H   H304      1.0  0.42594  0.44941  0.64811  1.0000
  H   H305      1.0  0.39199  0.22624  0.48609  1.0000
  H   H306      1.0  0.35444  0.07814  0.58185  1.0000
  C   C252      1.0  0.35465  0.23752  0.49255  1.0000
  C   C253      1.0  0.01556  0.35180  0.59741  1.0000
  H   H307      1.0  0.40562  0.24594  0.50603  1.0000
  H   H308      1.0  0.02922  0.37010  0.60376  1.0000
  H   H309      1.0  0.38909  0.38378  0.59636  1.0000
  C   C254      1.0  0.17225  0.38922  0.64485  1.0000
  C   C255      1.0  0.20370  0.40540  0.64280  1.0000
  C   C256      1.0  0.22399  0.39076  0.64403  1.0000
  C   C257      1.0  0.21281  0.35970  0.64720  1.0000
  C   C258      1.0  0.18144  0.34367  0.64945  1.0000
  C   C259      1.0  0.16125  0.35844  0.64840  1.0000
  H   H310      1.0  0.21238  0.42924  0.64008  1.0000
  H   H311      1.0  0.24809  0.40326  0.64223  1.0000
  H   H312      1.0  0.17264  0.31959  0.65186  1.0000
  H   H313      1.0  0.13713  0.34582  0.65009  1.0000
  H   H314      1.0  0.19952  0.22688  0.70131  1.0000
  C   C260      1.0  0.36174  0.99859  0.71446  1.0000
  H   H315      1.0  0.44619  0.42960  0.68378  1.0000
  C   C261      1.0  0.40496  0.42289  0.61949  1.0000
  C   C262      1.0  0.30538  0.28249  0.71179  1.0000
  C   C263      1.0  0.31875  0.31241  0.71692  1.0000
  C   C264      1.0  0.33118  0.33818  0.70940  1.0000
  C   C265      1.0  0.32980  0.33439  0.69667  1.0000
  C   C266      1.0  0.31562  0.30454  0.69154  1.0000
  C   C267      1.0  0.30381  0.27874  0.69907  1.0000
  H   H316      1.0  0.37207  0.19192  0.50072  1.0000
  H   H317      1.0  0.34212  0.36116  0.71347  1.0000
  H   H318      1.0  0.31441  0.30124  0.68178  1.0000
  H   H319      1.0  0.29360  0.25571  0.69500  1.0000
  C   C268      1.0  0.39448  0.32554  0.49177  1.0000
  C   C269      1.0  0.37518  0.23525  0.48379  1.0000
  H   H320      1.0  0.41600  0.43723  0.51297  1.0000
  C   C270      1.0  0.00396  0.26381  0.70642  1.0000
  C   C271      1.0  0.01779  0.26842  0.69501  1.0000
  C   C272      1.0  0.02024  0.29382  0.68797  1.0000
  C   C273      1.0  0.00804  0.31421  0.69235  1.0000
  C   C274      1.0  0.33169  0.22952  0.51293  1.0000
  C   C275      1.0  0.98361  0.29214  0.48237  1.0000
  S   S97       1.0  0.29066  0.24909  0.72083  1.0000
  H   H321      1.0  0.00965  0.33376  0.68701  1.0000
  C   C276      1.0  0.24136  0.32904  0.68206  1.0000
  H   H322      1.0  0.45029  0.38653  0.52508  1.0000
  H   H323      1.0  0.33274  0.22107  0.52223  1.0000
  H   H324      1.0  0.16279  0.24782  0.70752  1.0000
  C   C277      1.0  0.01341  0.44348  0.61373  1.0000
  H   H325      1.0  0.46772  0.01488  0.49209  1.0000
  H   H326      1.0  0.00227  0.24422  0.71174  1.0000
  H   H327      1.0  0.20242  0.29547  0.67240  1.0000
  C   C278      1.0  0.36980  0.98650  0.70407  1.0000
  H   H328      1.0  0.11536  0.31243  0.68024  1.0000
  C   C279      1.0  0.33385  0.26030  0.47680  1.0000
  C   C280      1.0  0.00471  0.32096  0.60088  1.0000
  C   C281      1.0  0.30657  0.03543  0.59427  1.0000
  H   H329      1.0  0.38940  0.27225  0.51098  1.0000
  H   H330      1.0  0.01792  0.38279  0.58292  1.0000
  C   C282      1.0  0.06821  0.47817  0.64448  1.0000
  C   C283      1.0  0.09288  0.46106  0.67642  1.0000
  S   S98       1.0  0.40010  0.98271  0.53695  1.0000
  C   C284      1.0  0.08233  0.26949  0.48820  1.0000
  H   H331      1.0  0.39905  0.41084  0.49413  1.0000
  H   H332      1.0  0.38610  0.00268  0.69815  1.0000
  N   N17       1.0  0.09620  0.30042  0.72168  1.0000
  C   C285      1.0  0.00909  0.35892  0.58559  1.0000
  C   C286      1.0  0.00342  0.31910  0.48859  1.0000
  C   C287      1.0  0.98075  0.30457  0.58063  1.0000
  H   H333      1.0  0.36487  0.99307  0.57656  1.0000
  N   N18       1.0  0.39824  0.43785  0.60879  1.0000
  C   C288      1.0  0.20489  0.28251  0.69100  1.0000
  H   H334      1.0  0.36317  0.99049  0.59900  1.0000
  H   H335      1.0  0.18479  0.26115  0.68962  1.0000
  C   C289      1.0  0.24835  0.31800  0.70300  1.0000
  H   H336      1.0  0.27932  0.35777  0.69359  1.0000
  H   H337      1.0  0.02681  0.25231  0.69161  1.0000
  N   N19       1.0  0.10518  0.32447  0.60788  1.0000
  C   C290      1.0  0.08592  0.31823  0.59659  1.0000
  C   C291      1.0  0.08973  0.29850  0.61612  1.0000
  C   C292      1.0  0.10598  0.35342  0.61359  1.0000
  C   C293      1.0  0.13688  0.32757  0.60583  1.0000
  C   C294      1.0  0.14769  0.32440  0.59415  1.0000
  C   C295      1.0  0.15796  0.33357  0.61578  1.0000
  C   C296      1.0  0.17769  0.32693  0.59265  1.0000
  C   C297      1.0  0.18783  0.33599  0.61419  1.0000
  C   C298      1.0  0.19767  0.33264  0.60265  1.0000
  H   H338      1.0  0.08319  0.29607  0.59203  1.0000
  H   H339      1.0  0.06225  0.31595  0.59849  1.0000
  H   H340      1.0  0.09549  0.33742  0.59011  1.0000
  H   H341      1.0  0.08963  0.27648  0.61237  1.0000
  H   H342      1.0  0.06541  0.29469  0.61757  1.0000
  H   H343      1.0  0.10096  0.30266  0.62529  1.0000
  H   H344      1.0  0.11861  0.37377  0.60795  1.0000
  H   H345      1.0  0.08241  0.35226  0.61485  1.0000
  H   H346      1.0  0.11738  0.35836  0.62274  1.0000
  H   H347      1.0  0.13345  0.31990  0.58602  1.0000
  H   H348      1.0  0.15144  0.33632  0.62490  1.0000
  H   H349      1.0  0.18550  0.32433  0.58369  1.0000
  H   H350      1.0  0.20342  0.34039  0.62198  1.0000
  H   H351      1.0  0.22084  0.33442  0.60149  1.0000
  S   S99       1.0  0.00119  0.32527  0.50441  1.0000
  H   H352      1.0  0.40703  0.40791  0.67968  1.0000
  C   C299      1.0  0.13762  0.48178  0.65790  1.0000
  H   H353      1.0  0.12655  0.27063  0.49301  1.0000
  C   C300      1.0  0.21481  0.30185  0.68106  1.0000
  H   H354      1.0  0.98063  0.45023  0.51921  1.0000
  H   H355      1.0  0.42985  0.43327  0.62196  1.0000
  C   C301      1.0  0.45573  0.45390  0.58322  1.0000
  H   H356      1.0  0.08800  0.34191  0.72226  1.0000
  H   H357      1.0  0.39422  0.42966  0.69887  1.0000
  C   C302      1.0  0.25806  0.33708  0.69299  1.0000
  H   H358      1.0  0.37153  0.02335  0.71629  1.0000
  H   H359      1.0  0.42092  0.41754  0.52605  1.0000
  C   C303      1.0  0.17860  0.26040  0.71517  1.0000
  H   H360      1.0  0.98435  0.32519  0.70699  1.0000
  H   H361      1.0  0.36150  0.07428  0.56629  1.0000
  C   C304      1.0  0.97358  0.38092  0.49502  1.0000
  C   C305      1.0  0.40732  0.40395  0.59286  1.0000
  C   C306      1.0  0.40626  0.47085  0.61214  1.0000
  H   H362      1.0  0.36242  0.04600  0.57681  1.0000
  H   H363      1.0  0.37026  0.42942  0.67968  1.0000
  N   N20       1.0  0.41846  0.45626  0.68374  1.0000
  S   S100      1.0  0.37626  0.46964  0.64422  1.0000
  C   C307      1.0  0.12512  0.31578  0.68940  1.0000
  N   N21       1.0  0.31704  0.04173  0.57194  1.0000
  C   C308      1.0  0.35020  0.06080  0.57435  1.0000
  C   C309      1.0  0.31418  0.02385  0.56043  1.0000
  C   C310      1.0  0.30135  0.06268  0.56999  1.0000
  C   C311      1.0  0.30378  0.02195  0.58244  1.0000
  S   S101      1.0  0.01353  0.31048  0.61540  1.0000
  H   H364      1.0  0.98138  0.40545  0.49820  1.0000
  C   C312      1.0  0.11380  0.27883  0.48682  1.0000
  C   C313      1.0  0.41979  0.41172  0.49006  1.0000
  H   H365      1.0  0.35222  0.18641  0.51452  1.0000
  C   C314      1.0  0.99160  0.33538  0.57715  1.0000
  H   H366      1.0  0.15334  0.30535  0.47707  1.0000
  C   C315      1.0  0.35269  0.19497  0.50512  1.0000
  H   H367      1.0  0.31759  0.06020  0.59577  1.0000
  H   H368      1.0  0.32478  0.03926  0.55274  1.0000
  H   H369      1.0  0.29888  0.02783  0.61342  1.0000
  H   H370      1.0  0.30431  0.07858  0.57792  1.0000
  H   H371      1.0  0.31062  0.07759  0.56201  1.0000
  H   H372      1.0  0.27627  0.04927  0.56833  1.0000
  Fe  Fe51      1.0  0.36323  0.98960  0.54719  1.0000
  H   H373      1.0  0.07684  0.45502  0.68411  1.0000
  C   C316      1.0  0.39937  0.32929  0.47921  1.0000
  C   C317      1.0  0.38878  0.45250  0.67794  1.0000
  H   H374      1.0  0.32597  0.00795  0.56122  1.0000
  H   H375      1.0  0.35550  0.39745  0.60553  1.0000
  H   H376      1.0  0.24941  0.34355  0.67424  1.0000
  C   C318      1.0  0.41360  0.45219  0.69696  1.0000
  H   H377      1.0  0.33416  0.25387  0.51416  1.0000
  H   H378      1.0  0.46997  0.38397  0.51171  1.0000
  C   C319      1.0  0.02637  0.34212  0.48211  1.0000
  H   H379      1.0  0.39810  0.39532  0.51353  1.0000
  H   H380      1.0  0.06318  0.25967  0.71219  1.0000
  H   H381      1.0  0.33036  0.33977  0.49319  1.0000
  H   H382      1.0  0.39231  0.42522  0.62758  1.0000
  H   H383      1.0  0.17175  0.33740  0.68360  1.0000
  C   C320      1.0  0.41536  0.43372  0.59830  1.0000
  H   H384      1.0  0.39818  0.39768  0.61782  1.0000
  H   H385      1.0  0.07070  0.25422  0.49544  1.0000
  H   H386      1.0  0.99798  0.40572  0.60067  1.0000
  C   C321      1.0  0.36467  0.42315  0.60607  1.0000
  C   C322      1.0  0.99205  0.28440  0.71084  1.0000
  C   C323      1.0  0.44920  0.38649  0.51497  1.0000
  C   C324      1.0  0.99385  0.30937  0.70370  1.0000
  C   C325      1.0  0.15680  0.32989  0.69130  1.0000
  H   H387      1.0  0.26304  0.32524  0.71103  1.0000
  H   H388      1.0  0.31853  0.27098  0.47412  1.0000
  H   H389      1.0  0.45823  0.42088  0.57005  1.0000
  C   C326      1.0  0.10574  0.30619  0.69927  1.0000
  C   C327      1.0  0.41929  0.40955  0.47738  1.0000
  H   H390      1.0  0.39159  0.47326  0.61949  1.0000
  C   C328      1.0  0.00661  0.44924  0.59233  1.0000
  H   H391      1.0  0.39052  0.45436  0.66791  1.0000
  N   N22       1.0  0.35601  0.22757  0.50515  1.0000
  H   H392      1.0  0.35137  0.42850  0.61330  1.0000
  C   C329      1.0  0.11744  0.31069  0.71142  1.0000
  C   C330      1.0  0.00515  0.43043  0.60210  1.0000
  N   N23       1.0  0.21130  0.26836  0.71250  1.0000
  H   H393      1.0  0.31835  0.25450  0.49477  1.0000
  C   C331      1.0  0.38607  0.24755  0.51088  1.0000
  H   H394      1.0  0.35894  0.43120  0.59732  1.0000
  C   C332      1.0  0.41927  0.41640  0.51593  1.0000
  H   H395      1.0  0.07844  0.45322  0.66795  1.0000
  C   C333      1.0  0.07509  0.31636  0.72144  1.0000
  S   S102      1.0  0.39337  0.98628  0.50295  1.0000
  C   C334      1.0  0.29576  0.01716  0.60443  1.0000
  H   H396      1.0  0.38062  0.46986  0.68151  1.0000
  H   H397      1.0  0.19389  0.34573  0.70448  1.0000
  H   H398      1.0  0.41849  0.32602  0.47528  1.0000
  H   H399      1.0  0.06101  0.31145  0.71292  1.0000
  H   H400      1.0  0.00093  0.43905  0.58325  1.0000
  H   H401      1.0  0.30838  0.21524  0.50906  1.0000
  H   H402      1.0  0.16023  0.47376  0.64228  1.0000
  C   C335      1.0  0.35483  0.34095  0.47680  1.0000
  H   H403      1.0  0.99389  0.37776  0.49160  1.0000
  C   C336      1.0  0.98744  0.29744  0.59241  1.0000
  H   H404      1.0  0.12820  0.45735  0.65970  1.0000
  C   C337      1.0  0.12896  0.29889  0.47757  1.0000
  H   H405      1.0  0.42891  0.36547  0.51184  1.0000
  C   C338      1.0  0.42636  0.43106  0.67887  1.0000
  H   H406      1.0  0.01281  0.42893  0.62134  1.0000
  C   C339      1.0  0.44662  0.42445  0.57792  1.0000
  C   C340      1.0  0.03948  0.46764  0.64980  1.0000
  H   H407      1.0  0.09285  0.25365  0.72054  1.0000
  S   S103      1.0  0.98416  0.34597  0.56245  1.0000
  C   C341      1.0  0.28830  0.98916  0.58138  1.0000
  C   C342      1.0  0.28144  0.98508  0.60310  1.0000
  C   C343      1.0  0.07782  0.26650  0.72059  1.0000
  H   H408      1.0  0.33143  0.98368  0.49782  1.0000
  H   H409      1.0  0.00432  0.48082  0.65660  1.0000
  H   H410      1.0  0.17491  0.28158  0.71739  1.0000
  C   C344      1.0  0.47033  0.41105  0.47784  1.0000
  C   C345      1.0  0.43588  0.47388  0.64643  1.0000
  C   C346      1.0  0.01573  0.48116  0.59418  1.0000
  H   H411      1.0  0.44890  0.48195  0.59700  1.0000
  C   C347      1.0  0.47127  0.41358  0.49052  1.0000
  Fe  Fe52      1.0  0.01501  0.21560  0.75060  1.0000
  S   S104      1.0  0.02641  0.26653  0.75006  1.0000
  S   S105      1.0  0.04683  0.19388  0.74454  1.0000
  Fe  Fe53      1.0  0.00044  0.25931  0.76748  1.0000
  H   H412      1.0  0.35919  0.22957  0.76801  1.0000
  H   H413      1.0  0.05849  0.30904  0.72896  1.0000
  C   C348      1.0  0.34937  0.47040  0.86312  1.0000
  C   C349      1.0  0.25070  0.15734  0.93008  1.0000
  Fe  Fe54      1.0  0.06317  0.34569  0.85326  1.0000
  S   S106      1.0  0.09545  0.39596  0.85662  1.0000
  S   S107      1.0  0.05972  0.31249  0.83731  1.0000
  Fe  Fe55      1.0  0.04128  0.33815  0.87990  1.0000
  S   S108      1.0  0.07149  0.38738  0.88508  1.0000
  S   S109      1.0  0.00868  0.30127  0.89208  1.0000
  Fe  Fe56      1.0  0.05673  0.39988  0.86719  1.0000
  S   S110      1.0  0.03514  0.43526  0.86710  1.0000
  Fe  Fe57      1.0  0.10751  0.37974  0.87431  1.0000
  S   S111      1.0  0.15284  0.38996  0.88397  1.0000
  S   S112      1.0  0.02370  0.35046  0.86259  1.0000
  S   S113      1.0  0.07820  0.32973  0.87035  1.0000
  H   H414      1.0  0.29771  0.20075  0.94217  1.0000
  H   H415      1.0  0.33647  0.20882  0.80867  1.0000
  S   S114      1.0  0.25438  0.03547  0.74624  1.0000
  Fe  Fe58      1.0  0.22477  0.24944  0.75542  1.0000
  S   S115      1.0  0.27148  0.28507  0.75119  1.0000
  S   S116      1.0  0.18937  0.26975  0.75417  1.0000
  Fe  Fe59      1.0  0.24963  0.20019  0.76068  1.0000
  S   S117      1.0  0.29798  0.23279  0.75662  1.0000
  S   S118      1.0  0.23808  0.15292  0.76902  1.0000
  Fe  Fe60      1.0  0.28782  0.26808  0.76764  1.0000
  S   S119      1.0  0.32121  0.30379  0.78098  1.0000
  Fe  Fe61      1.0  0.27687  0.24694  0.74062  1.0000
  S   S120      1.0  0.24079  0.23502  0.77259  1.0000
  S   S121      1.0  0.22891  0.21172  0.74395  1.0000
  Fe  Fe62      1.0  0.30043  0.38635  0.86097  1.0000
  S   S122      1.0  0.28481  0.33535  0.86235  1.0000
  S   S123      1.0  0.26969  0.40782  0.85341  1.0000
  Fe  Fe63      1.0  0.36565  0.39943  0.86921  1.0000
  S   S124      1.0  0.35480  0.34822  0.87099  1.0000
  S   S125      1.0  0.40846  0.44069  0.87663  1.0000
  Fe  Fe64      1.0  0.32840  0.34199  0.85309  1.0000
  S   S126      1.0  0.31854  0.30338  0.83875  1.0000
  Fe  Fe65      1.0  0.31157  0.34484  0.88004  1.0000
  S   S127      1.0  0.28395  0.31335  0.89502  1.0000
  S   S128      1.0  0.34278  0.39314  0.85066  1.0000
  S   S129      1.0  0.32357  0.39578  0.87929  1.0000
  C   C350      1.0  0.99116  0.36650  0.88977  1.0000
  S   S130      1.0  0.21389  0.14921  0.96553  1.0000
  S   S131      1.0  0.01646  0.30473  0.94993  1.0000
  C   C351      1.0  0.25285  0.19981  0.90935  1.0000
  H   H416      1.0  0.36322  0.20036  0.75039  1.0000
  H   H417      1.0  0.03333  0.25968  0.79731  1.0000
  H   H418      1.0  0.27927  0.17390  0.79150  1.0000
  H   H419      1.0  0.28957  0.21086  0.79881  1.0000
  H   H420      1.0  0.28454  0.20664  0.78258  1.0000
  H   H421      1.0  0.09963  0.48023  0.86782  1.0000
  Fe  Fe66      1.0  0.28090  0.26455  0.96418  1.0000
  S   S132      1.0  0.31458  0.29204  0.94986  1.0000
  S   S133      1.0  0.23060  0.23629  0.96066  1.0000
  C   C352      1.0  0.27804  0.11300  0.96591  1.0000
  C   C353      1.0  0.22811  0.07023  0.96578  1.0000
  H   H422      1.0  0.34014  0.25197  0.79725  1.0000
  C   C354      1.0  0.35065  0.18811  0.75814  1.0000
  C   C355      1.0  0.33775  0.19558  0.80039  1.0000
  H   H423      1.0  0.30263  0.14297  0.78488  1.0000
  H   H424      1.0  0.33815  0.14313  0.74966  1.0000
  C   C356      1.0  0.16630  0.09033  0.75981  1.0000
  C   C357      1.0  0.99327  0.27635  0.91460  1.0000
  C   C358      1.0  0.29945  0.23176  0.92058  1.0000
  C   C359      1.0  0.33659  0.15590  0.75770  1.0000
  C   C360      1.0  0.34805  0.20467  0.76839  1.0000
  C   C361      1.0  0.29283  0.31017  0.91053  1.0000
  C   C362      1.0  0.32276  0.32413  0.91539  1.0000
  C   C363      1.0  0.32893  0.31878  0.92751  1.0000
  C   C364      1.0  0.30528  0.29987  0.93496  1.0000
  C   C365      1.0  0.27524  0.28667  0.93020  1.0000
  C   C366      1.0  0.26914  0.29157  0.91803  1.0000
  H   H425      1.0  0.34122  0.33839  0.90974  1.0000
  H   H426      1.0  0.35224  0.32915  0.93111  1.0000
  H   H427      1.0  0.25680  0.27244  0.93584  1.0000
  H   H428      1.0  0.24594  0.28068  0.91435  1.0000
  C   C367      1.0  0.99252  0.37870  0.92200  1.0000
  S   S134      1.0  0.01070  0.29709  0.78219  1.0000
  H   H429      1.0  0.29698  0.07131  0.92646  1.0000
  C   C368      1.0  0.31697  0.30541  0.82270  1.0000
  C   C369      1.0  0.33547  0.33189  0.81657  1.0000
  C   C370      1.0  0.33598  0.33129  0.80377  1.0000
  C   C371      1.0  0.31730  0.30462  0.79697  1.0000
  C   C372      1.0  0.29751  0.27874  0.80308  1.0000
  C   C373      1.0  0.29788  0.27891  0.81588  1.0000
  H   H430      1.0  0.35045  0.35235  0.82169  1.0000
  H   H431      1.0  0.35137  0.35144  0.79913  1.0000
  H   H432      1.0  0.28266  0.25831  0.79795  1.0000
  H   H433      1.0  0.28347  0.25831  0.82054  1.0000
  C   C374      1.0  0.25073  0.06820  0.75301  1.0000
  C   C375      1.0  0.25677  0.09448  0.74597  1.0000
  C   C376      1.0  0.25359  0.12081  0.75078  1.0000
  C   C377      1.0  0.24403  0.12105  0.76269  1.0000
  C   C378      1.0  0.23825  0.09489  0.76978  1.0000
  C   C379      1.0  0.24176  0.06868  0.76501  1.0000
  H   H434      1.0  0.26388  0.09446  0.73670  1.0000
  H   H435      1.0  0.25821  0.14076  0.74522  1.0000
  H   H436      1.0  0.23085  0.09483  0.77900  1.0000
  H   H437      1.0  0.23752  0.04894  0.77063  1.0000
  H   H438      1.0  0.31126  0.06405  0.94054  1.0000
  H   H439      1.0  0.31500  0.03285  0.90952  1.0000
  C   C380      1.0  0.18430  0.39334  0.87510  1.0000
  C   C381      1.0  0.18686  0.40397  0.86324  1.0000
  C   C382      1.0  0.21325  0.40850  0.85665  1.0000
  C   C383      1.0  0.23668  0.40150  0.86176  1.0000
  C   C384      1.0  0.23380  0.39015  0.87350  1.0000
  C   C385      1.0  0.20788  0.38658  0.88023  1.0000
  H   H440      1.0  0.16886  0.40946  0.85927  1.0000
  H   H441      1.0  0.21540  0.41733  0.84757  1.0000
  H   H442      1.0  0.25172  0.38458  0.87750  1.0000
  H   H443      1.0  0.20596  0.37830  0.88939  1.0000
  C   C386      1.0  0.01204  0.30236  0.90815  1.0000
  H   H444      1.0  0.12551  0.33223  0.73549  1.0000
  H   H445      1.0  0.29478  0.47150  0.86063  1.0000
  C   C387      1.0  0.01514  0.30270  0.93384  1.0000
  C   C388      1.0  0.03420  0.32857  0.92739  1.0000
  C   C389      1.0  0.03270  0.32844  0.91461  1.0000
  C   C390      1.0  0.31679  0.15637  0.77772  1.0000
  H   H446      1.0  0.22806  0.30303  0.72698  1.0000
  H   H447      1.0  0.04998  0.34899  0.93230  1.0000
  H   H448      1.0  0.04747  0.34851  0.90976  1.0000
  H   H449      1.0  0.30279  0.12148  0.96589  1.0000
  H   H450      1.0  0.33436  0.07039  0.92734  1.0000
  H   H451      1.0  0.05171  0.26645  0.81884  1.0000
  C   C391      1.0  0.33792  0.45245  0.90152  1.0000
  C   C392      1.0  0.29504  0.45789  0.88523  1.0000
  C   C393      1.0  0.08630  0.21424  0.74785  1.0000
  C   C394      1.0  0.09756  0.24358  0.75345  1.0000
  C   C395      1.0  0.12925  0.26007  0.75552  1.0000
  C   C396      1.0  0.14981  0.24711  0.75223  1.0000
  C   C397      1.0  0.13857  0.21750  0.74682  1.0000
  C   C398      1.0  0.10685  0.20120  0.74455  1.0000
  H   H452      1.0  0.08189  0.25356  0.75622  1.0000
  H   H453      1.0  0.13787  0.28290  0.75978  1.0000
  H   H454      1.0  0.15430  0.20736  0.74426  1.0000
  H   H455      1.0  0.09818  0.17841  0.74027  1.0000
  C   C399      1.0  0.02586  0.30155  0.79731  1.0000
  C   C400      1.0  0.04526  0.28365  0.81480  1.0000
  C   C401      1.0  0.04735  0.30957  0.82185  1.0000
  C   C402      1.0  0.03926  0.33182  0.81648  1.0000
  C   C403      1.0  0.02854  0.32776  0.80429  1.0000
  H   H456      1.0  0.04095  0.35196  0.82176  1.0000
  H   H457      1.0  0.02202  0.34497  0.80028  1.0000
  C   C404      1.0  0.03465  0.27965  0.80260  1.0000
  C   C405      1.0  0.15803  0.02803  0.75556  1.0000
  N   N24       1.0  0.23343  0.32095  0.82585  1.0000
  C   C406      1.0  0.23194  0.29236  0.83164  1.0000
  C   C407      1.0  0.24265  0.32076  0.81304  1.0000
  C   C408      1.0  0.25815  0.34761  0.83221  1.0000
  C   C409      1.0  0.20286  0.32201  0.82640  1.0000
  C   C410      1.0  0.17746  0.30012  0.81963  1.0000
  C   C411      1.0  0.19691  0.34339  0.83404  1.0000
  C   C412      1.0  0.14818  0.30008  0.82029  1.0000
  C   C413      1.0  0.16749  0.34295  0.83470  1.0000
  C   C414      1.0  0.14321  0.32144  0.82782  1.0000
  H   H458      1.0  0.21545  0.27112  0.82683  1.0000
  H   H459      1.0  0.25467  0.29097  0.83180  1.0000
  H   H460      1.0  0.22473  0.29156  0.84124  1.0000
  H   H461      1.0  0.22815  0.29914  0.80794  1.0000
  H   H462      1.0  0.26659  0.32251  0.81242  1.0000
  H   H463      1.0  0.24148  0.34060  0.80811  1.0000
  H   H464      1.0  0.25405  0.34789  0.84210  1.0000
  H   H465      1.0  0.28101  0.34664  0.83145  1.0000
  H   H466      1.0  0.26012  0.37007  0.82852  1.0000
  H   H467      1.0  0.17993  0.28260  0.81389  1.0000
  H   H468      1.0  0.21448  0.36057  0.83971  1.0000
  H   H469      1.0  0.12908  0.28325  0.81503  1.0000
  H   H470      1.0  0.16336  0.35922  0.84070  1.0000
  H   H471      1.0  0.12043  0.32117  0.82842  1.0000
  C   C415      1.0  0.27532  0.20268  0.94277  1.0000
  H   H472      1.0  0.98663  0.30398  0.83871  1.0000
  H   H473      1.0  0.36864  0.24713  0.78819  1.0000
  C   C416      1.0  0.30681  0.43900  0.90408  1.0000
  N   N25       1.0  0.25586  0.19028  0.93164  1.0000
  H   H474      1.0  0.99834  0.37987  0.88131  1.0000
  C   C417      1.0  0.34011  0.99885  0.95064  1.0000
  Fe  Fe67      1.0  0.99405  0.26327  0.96200  1.0000
  H   H475      1.0  0.23021  0.18132  0.90861  1.0000
  H   H476      1.0  0.32738  0.99317  0.91576  1.0000
  C   C418      1.0  0.16159  0.98856  0.74130  1.0000
  H   H477      1.0  0.19828  0.00331  0.76108  1.0000
  H   H478      1.0  0.18652  0.00161  0.73957  1.0000
  H   H479      1.0  0.30859  0.11500  0.76704  1.0000
  H   H480      1.0  0.36205  0.19879  0.79947  1.0000
  C   C419      1.0  0.11200  0.30699  0.73379  1.0000
  C   C420      1.0  0.99490  0.27641  0.92738  1.0000
  C   C421      1.0  0.31113  0.24812  0.91006  1.0000
  C   C422      1.0  0.33066  0.99603  0.92549  1.0000
  C   C423      1.0  0.97667  0.36651  0.91076  1.0000
  H   H481      1.0  0.24076  0.14404  0.93838  1.0000
  H   H482      1.0  0.37197  0.47707  0.88895  1.0000
  C   C424      1.0  0.15334  0.06844  0.76864  1.0000
  C   C425      1.0  0.31624  0.01118  0.93275  1.0000
  H   H483      1.0  0.18666  0.09916  0.74231  1.0000
  C   C426      1.0  0.43677  0.47223  0.86915  1.0000
  H   H484      1.0  0.26116  0.43049  0.89780  1.0000
  H   H485      1.0  0.01486  0.42730  0.89197  1.0000
  C   C427      1.0  0.29360  0.24094  0.89933  1.0000
  H   H486      1.0  0.26613  0.01628  0.94269  1.0000
  H   H487      1.0  0.09534  0.29899  0.74128  1.0000
  C   C428      1.0  0.32666  0.47212  0.88238  1.0000
  H   H488      1.0  0.27706  0.45813  0.87921  1.0000
  N   N26       1.0  0.29662  0.02565  0.92753  1.0000
  H   H489      1.0  0.33523  0.24973  0.78121  1.0000
  C   C429      1.0  0.26563  0.01181  0.93275  1.0000
  H   H490      1.0  0.18058  0.04651  0.73843  1.0000
  H   H491      1.0  0.21591  0.18117  0.94250  1.0000
  C   C430      1.0  0.32173  0.01233  0.94549  1.0000
  H   H492      1.0  0.25362  0.28478  0.72313  1.0000
  C   C431      1.0  0.05323  0.47641  0.86643  1.0000
  C   C432      1.0  0.33072  0.18922  0.77849  1.0000
  H   H493      1.0  0.35439  0.44934  0.90765  1.0000
  H   H494      1.0  0.32391  0.17078  0.80220  1.0000
  H   H495      1.0  0.42767  0.45081  0.85131  1.0000
  H   H496      1.0  0.26411  0.18982  0.95093  1.0000
  C   C433      1.0  0.29267  0.02179  0.91411  1.0000
  H   H497      1.0  0.99311  0.09235  0.95570  1.0000
  H   H498      1.0  0.99839  0.37033  0.94089  1.0000
  N   N27       1.0  0.09659  0.28586  0.94221  1.0000
  C   C434      1.0  0.12149  0.27596  0.94544  1.0000
  C   C435      1.0  0.09811  0.31093  0.95082  1.0000
  C   C436      1.0  0.06694  0.25902  0.94400  1.0000
  C   C437      1.0  0.10044  0.29747  0.92966  1.0000
  C   C438      1.0  0.07737  0.28477  0.92036  1.0000
  C   C439      1.0  0.12793  0.32263  0.92647  1.0000
  C   C440      1.0  0.08187  0.29648  0.90864  1.0000
  C   C441      1.0  0.13204  0.33426  0.91474  1.0000
  C   C442      1.0  0.10905  0.32122  0.90585  1.0000
  H   H499      1.0  0.14452  0.29550  0.94573  1.0000
  H   H500      1.0  0.11844  0.26564  0.95460  1.0000
  H   H501      1.0  0.12216  0.25831  0.93878  1.0000
  H   H502      1.0  0.08081  0.32013  0.94826  1.0000
  H   H503      1.0  0.12094  0.33072  0.95107  1.0000
  H   H504      1.0  0.27755  0.03254  0.91046  1.0000
  H   H505      1.0  0.06438  0.23903  0.93793  1.0000
  H   H506      1.0  0.06485  0.25069  0.95349  1.0000
  H   H507      1.0  0.04711  0.26523  0.94234  1.0000
  H   H508      1.0  0.05537  0.26618  0.92192  1.0000
  H   H509      1.0  0.14638  0.33368  0.93306  1.0000
  H   H510      1.0  0.06385  0.28678  0.90170  1.0000
  H   H511      1.0  0.15307  0.35365  0.91246  1.0000
  H   H512      1.0  0.11225  0.33052  0.89679  1.0000
  N   N28       1.0  0.32666  0.20590  0.78937  1.0000
  C   C443      1.0  0.34350  0.24007  0.78894  1.0000
  C   C444      1.0  0.29367  0.19902  0.79066  1.0000
  H   H513      1.0  0.29916  0.42573  0.91222  1.0000
  C   C445      1.0  0.31996  0.14007  0.76751  1.0000
  N   N29       1.0  0.98357  0.38422  0.89942  1.0000
  H   H514      1.0  0.17032  0.11433  0.76155  1.0000
  H   H515      1.0  0.34315  0.99910  0.96042  1.0000
  C   C446      1.0  0.26461  0.21667  0.89894  1.0000
  C   C447      1.0  0.22593  0.19192  0.93379  1.0000
  H   H516      1.0  0.33340  0.26752  0.91038  1.0000
  H   H517      1.0  0.30220  0.25482  0.89139  1.0000
  C   C448      1.0  0.22919  0.28097  0.72398  1.0000
  H   H518      1.0  0.31388  0.23966  0.92867  1.0000
  C   C449      1.0  0.23227  0.12347  0.96596  1.0000
  H   H519      1.0  0.21402  0.04561  0.96556  1.0000
  C   C450      1.0  0.44200  0.47096  0.85674  1.0000
  H   H520      1.0  0.17108  0.24508  0.72314  1.0000
  H   H521      1.0  0.20838  0.17955  0.92662  1.0000
  C   C451      1.0  0.17544  0.08170  0.74894  1.0000
  H   H522      1.0  0.99309  0.15568  0.96223  1.0000
  C   C452      1.0  0.31043  0.05930  0.93057  1.0000
  H   H523      1.0  0.13974  0.02180  0.77383  1.0000
  C   C453      1.0  0.28545  0.44171  0.89595  1.0000
  H   H524      1.0  0.22854  0.21639  0.93417  1.0000
  H   H525      1.0  0.18954  0.08297  0.96558  1.0000
  C   C454      1.0  0.26006  0.08098  0.96568  1.0000
  C   C455      1.0  0.14925  0.03774  0.76659  1.0000
  H   H526      1.0  0.46653  0.42939  0.89086  1.0000
  Fe  Fe68      1.0  0.98081  0.25120  0.74037  1.0000
  S   S135      1.0  0.27833  0.05527  0.96453  1.0000
  H   H527      1.0  0.14705  0.07553  0.77720  1.0000
  H   H528      1.0  0.27977  0.22738  0.94456  1.0000
  H   H529      1.0  0.01021  0.36049  0.89289  1.0000
  H   H530      1.0  0.31153  0.02333  0.95161  1.0000
  C   C456      1.0  0.17171  0.05114  0.74683  1.0000
  H   H531      1.0  0.97724  0.25607  0.90968  1.0000
  C   C457      1.0  0.34778  0.46860  0.89081  1.0000
  C   C458      1.0  0.99475  0.10096  0.96526  1.0000
  H   H532      1.0  0.32026  0.31565  0.72669  1.0000
  H   H533      1.0  0.27263  0.15515  0.92833  1.0000
  H   H534      1.0  0.25098  0.21148  0.89058  1.0000
  H   H535      1.0  0.23448  0.14566  0.92241  1.0000
  C   C459      1.0  0.26962  0.20731  0.92058  1.0000
  H   H536      1.0  0.09344  0.30265  0.96028  1.0000
  H   H537      1.0  0.16867  0.99197  0.77206  1.0000
  H   H538      1.0  0.01092  0.40143  0.92290  1.0000
  H   H539      1.0  0.98000  0.25640  0.93223  1.0000
  H   H540      1.0  0.27838  0.15877  0.96653  1.0000
  Fe  Fe69      1.0  0.24692  0.98778  0.75330  1.0000
  H   H541      1.0  0.01014  0.48087  0.86491  1.0000
  H   H542      1.0  0.97814  0.23466  0.79243  1.0000
  H   H543      1.0  0.33112  0.44703  0.86102  1.0000
  H   H544      1.0  0.22037  0.26470  0.73156  1.0000
  C   C460      1.0  0.00992  0.41490  0.90072  1.0000
  H   H545      1.0  0.01708  0.12151  0.96652  1.0000
  H   H546      1.0  0.24993  0.02145  0.92876  1.0000
  N   N30       1.0  0.15377  0.99544  0.75369  1.0000
  H   H547      1.0  0.28182  0.99682  0.91126  1.0000
  H   H548      1.0  0.36879  0.46693  0.86753  1.0000
  C   C461      1.0  0.21430  0.09144  0.96575  1.0000
  S   S136      1.0  0.99285  0.20933  0.76879  1.0000
  H   H549      1.0  0.00540  0.43032  0.90739  1.0000
  H   H550      1.0  0.12744  0.29474  0.73483  1.0000
  C   C462      1.0  0.98544  0.36115  0.93249  1.0000
  H   H551      1.0  0.14799  0.99419  0.73420  1.0000
  H   H552      1.0  0.03137  0.41242  0.90346  1.0000
  Fe  Fe70      1.0  0.23797  0.19977  0.97147  1.0000
  Fe  Fe71      1.0  0.25672  0.00573  0.97086  1.0000
  S   S137      1.0  0.98995  0.21570  0.95699  1.0000
  C   C463      1.0  0.97527  0.28842  0.83110  1.0000
  H   H553      1.0  0.98162  0.25014  0.83878  1.0000
  H   H554      1.0  0.06205  0.25771  0.72831  1.0000
  C   C464      1.0  0.17365  0.98838  0.76249  1.0000
  H   H555      1.0  0.99599  0.08281  0.97123  1.0000
  H   H556      1.0  0.33452  0.98830  0.73049  1.0000
  C   C465      1.0  0.26425  0.13420  0.96622  1.0000
  H   H557      1.0  0.25494  0.98632  0.93114  1.0000
  C   C466      1.0  0.34920  0.98286  0.93076  1.0000
  H   H558      1.0  0.35763  0.48168  0.85433  1.0000
  C   C467      1.0  0.35372  0.98405  0.94330  1.0000
  S   S138      1.0  0.97358  0.27898  0.72494  1.0000
  H   H559      1.0  0.25157  0.85502  0.21919  1.0000
  C   C468      1.0  0.30904  0.96761  0.14684  1.0000
  H   H560      1.0  0.08873  0.77767  0.21407  1.0000
  Fe  Fe72      1.0  0.03326  0.74550  0.98384  1.0000
  S   S139      1.0  0.07550  0.78349  0.99264  1.0000
  S   S140      1.0  0.03222  0.69759  0.98225  1.0000
  H   H561      1.0  0.42241  0.97454  0.11154  1.0000
  C   C469      1.0  0.99138  0.66043  0.02332  1.0000
  C   C470      1.0  0.02629  0.67173  0.09363  1.0000
  C   C471      1.0  0.02557  0.72283  0.09566  1.0000
  H   H562      1.0  0.97639  0.65936  0.07980  1.0000
  S   S141      1.0  0.33593  0.97870  0.11163  1.0000
  Fe  Fe73      1.0  0.25710  0.96833  0.99302  1.0000
  C   C472      1.0  0.99673  0.65684  0.03572  1.0000
  S   S142      1.0  0.98327  0.62911  0.05793  1.0000
  Fe  Fe74      1.0  0.23930  0.93177  0.19638  1.0000
  S   S143      1.0  0.29080  0.94644  0.19733  1.0000
  S   S144      1.0  0.21088  0.87932  0.19737  1.0000
  H   H563      1.0  0.04885  0.61045  0.10977  1.0000
  C   C473      1.0  0.13284  0.87662  0.97538  1.0000
  C   C474      1.0  0.12504  0.83933  0.99126  1.0000
  S   S145      1.0  0.00438  0.73293  0.21167  1.0000
  S   S146      1.0  0.24248  0.96340  0.18083  1.0000
  H   H564      1.0  0.97537  0.69677  0.08095  1.0000
  C   C475      1.0  0.02718  0.64211  0.11163  1.0000
  Fe  Fe75      1.0  0.03235  0.75128  0.19498  1.0000
  S   S147      1.0  0.04438  0.71014  0.19283  1.0000
  S   S148      1.0  0.06467  0.80293  0.19521  1.0000
  Fe  Fe76      1.0  0.00132  0.68949  0.18093  1.0000
  H   H565      1.0  0.12338  0.77842  0.22062  1.0000
  Fe  Fe77      1.0  0.01340  0.69056  0.20863  1.0000
  H   H566      1.0  0.01804  0.67230  0.04011  1.0000
  S   S149      1.0  0.99074  0.73172  0.18211  1.0000
  H   H567      1.0  0.05025  0.73217  0.09850  1.0000
  H   H568      1.0  0.01179  0.71838  0.10400  1.0000
  H   H569      1.0  0.04675  0.65902  0.07785  1.0000
  Fe  Fe78      1.0  0.98371  0.68094  0.98871  1.0000
  C   C476      1.0  0.98352  0.68073  0.08560  1.0000
  C   C477      1.0  0.97493  0.63326  0.04242  1.0000
  H   H570      1.0  0.16424  0.88329  0.99049  1.0000
  C   C478      1.0  0.04974  0.63413  0.09319  1.0000
  C   C479      1.0  0.04153  0.65576  0.08736  1.0000
  C   C480      1.0  0.03185  0.70487  0.07586  1.0000
  C   C481      1.0  0.01865  0.66358  0.10587  1.0000
  S   S150      1.0  0.99675  0.65641  0.16488  1.0000
  Fe  Fe79      1.0  0.20383  0.94198  0.97435  1.0000
  C   C482      1.0  0.17017  0.85862  0.19624  1.0000
  C   C483      1.0  0.15022  0.87355  0.19673  1.0000
  C   C484      1.0  0.11813  0.85612  0.19626  1.0000
  C   C485      1.0  0.10544  0.82359  0.19520  1.0000
  C   C486      1.0  0.12540  0.80867  0.19456  1.0000
  C   C487      1.0  0.15751  0.82607  0.19519  1.0000
  H   H571      1.0  0.15949  0.89853  0.19753  1.0000
  H   H572      1.0  0.10301  0.86800  0.19672  1.0000
  H   H573      1.0  0.11613  0.78373  0.19357  1.0000
  H   H574      1.0  0.17265  0.81424  0.19472  1.0000
  H   H575      1.0  0.31685  0.92918  0.22059  1.0000
  H   H576      1.0  0.98597  0.50905  0.06152  1.0000
  C   C488      1.0  0.30337  0.90364  0.22089  1.0000
  C   C489      1.0  0.04277  0.62748  0.10532  1.0000
  H   H577      1.0  0.06107  0.62202  0.08820  1.0000
  H   H578      1.0  0.02595  0.72330  0.07191  1.0000
  H   H579      1.0  0.29046  0.95108  0.15185  1.0000
  H   H580      1.0  0.29350  0.94326  0.12958  1.0000
  C   C490      1.0  0.31085  0.96324  0.13421  1.0000
  S   S151      1.0  0.24009  0.96587  0.21113  1.0000
  C   C491      1.0  0.97640  0.62614  0.14290  1.0000
  C   C492      1.0  0.14293  0.86787  0.98608  1.0000
  H   H581      1.0  0.02144  0.74152  0.09100  1.0000
  S   S152      1.0  0.23517  0.92259  0.98264  1.0000
  H   H582      1.0  0.02118  0.63641  0.12100  1.0000
  H   H583      1.0  0.05729  0.71408  0.07676  1.0000
  H   H584      1.0  0.13281  0.83292  0.99963  1.0000
  H   H585      1.0  0.02380  0.68569  0.06891  1.0000
  C   C493      1.0  0.09713  0.81912  0.98574  1.0000
  H   H586      1.0  0.00538  0.67315  0.11103  1.0000
  H   H587      1.0  0.06574  0.80955  0.22134  1.0000
  N   N31       1.0  0.01716  0.69469  0.08773  1.0000
  C   C494      1.0  0.97968  0.65213  0.15014  1.0000
  H   H588      1.0  0.29336  0.89611  0.21157  1.0000
  H   H589      1.0  0.00848  0.67853  0.01828  1.0000
  H   H590      1.0  0.98487  0.60972  0.14633  1.0000
  H   H591      1.0  0.42655  0.96476  0.13381  1.0000
  H   H592      1.0  0.24993  0.90681  0.21787  1.0000
  S   S153      1.0  0.98611  0.72893  0.99166  1.0000
  C   C495      1.0  0.08730  0.82764  0.97492  1.0000
  S   S154      1.0  0.26305  0.97446  0.01368  1.0000
  Fe  Fe80      1.0  0.29377  0.98051  0.18291  1.0000
  H   H593      1.0  0.12058  0.77187  0.97760  1.0000
  C   C496      1.0  0.98561  0.48606  0.06054  1.0000
  Fe  Fe81      1.0  0.29150  0.98211  0.21126  1.0000
  H   H594      1.0  0.97949  0.48399  0.04117  1.0000
  H   H595      1.0  0.16277  0.82046  0.97355  1.0000
  H   H596      1.0  0.27554  0.86370  0.39897  1.0000
  C   C497      1.0  0.10736  0.77775  0.24384  1.0000
  H   H597      1.0  0.21130  0.66408  0.42938  1.0000
  H   H598      1.0  0.17445  0.67867  0.41806  1.0000
  H   H599      1.0  0.11465  0.80280  0.24612  1.0000
  C   C498      1.0  0.25965  0.91213  0.22730  1.0000
  Fe  Fe82      1.0  0.04280  0.62657  0.40278  1.0000
  S   S155      1.0  0.09412  0.64620  0.40625  1.0000
  S   S156      1.0  0.01881  0.59926  0.38552  1.0000
  Fe  Fe83      1.0  0.02957  0.62626  0.43052  1.0000
  S   S157      1.0  0.07968  0.64575  0.43561  1.0000
  S   S158      1.0  0.99026  0.60088  0.44320  1.0000
  Fe  Fe84      1.0  0.08626  0.67796  0.41999  1.0000
  S   S159      1.0  0.11702  0.72923  0.42408  1.0000
  Fe  Fe85      1.0  0.08370  0.61293  0.42156  1.0000
  S   S160      1.0  0.11189  0.58538  0.42571  1.0000
  S   S161      1.0  0.03498  0.66028  0.41565  1.0000
  S   S162      1.0  0.03357  0.59168  0.41733  1.0000
  Fe  Fe86      1.0  0.33011  0.92531  0.41289  1.0000
  S   S163      1.0  0.33715  0.88130  0.41134  1.0000
  S   S164      1.0  0.34027  0.96234  0.39846  1.0000
  Fe  Fe87      1.0  0.31263  0.91443  0.43998  1.0000
  S   S165      1.0  0.31735  0.86909  0.43998  1.0000
  S   S166      1.0  0.30062  0.93398  0.45726  1.0000
  Fe  Fe88      1.0  0.36038  0.89459  0.42973  1.0000
  S   S167      1.0  0.40674  0.89938  0.43682  1.0000
  Fe  Fe89      1.0  0.29287  0.85963  0.42167  1.0000
  S   S168      1.0  0.25850  0.81256  0.41392  1.0000
  S   S169      1.0  0.35658  0.94018  0.43061  1.0000
  S   S170      1.0  0.28481  0.90338  0.42230  1.0000
  C   C499      1.0  0.43154  0.88880  0.42808  1.0000
  C   C500      1.0  0.42164  0.87120  0.41730  1.0000
  H   H600      1.0  0.29338  0.96682  0.36400  1.0000
  H   H601      1.0  0.04067  0.59207  0.45351  1.0000
  H   H602      1.0  0.39797  0.86332  0.41422  1.0000
  C   C501      1.0  0.06652  0.62047  0.35640  1.0000
  C   C502      1.0  0.04614  0.52984  0.39040  1.0000
  C   C503      1.0  0.05370  0.57739  0.45461  1.0000
  C   C504      1.0  0.03160  0.53013  0.32802  1.0000
  H   H603      1.0  0.47056  0.73905  0.40219  1.0000
  H   H604      1.0  0.03797  0.57013  0.31118  1.0000
  C   C505      1.0  0.09172  0.54484  0.42625  1.0000
  C   C506      1.0  0.05973  0.53129  0.42552  1.0000
  N   N32       1.0  0.25046  0.87407  0.38463  1.0000
  C   C507      1.0  0.10767  0.52581  0.42756  1.0000
  H   H605      1.0  0.04716  0.54536  0.42445  1.0000
  H   H606      1.0  0.13249  0.53604  0.42807  1.0000
  C   C508      1.0  0.15625  0.75226  0.42094  1.0000
  C   C509      1.0  0.17242  0.74314  0.41235  1.0000
  C   C510      1.0  0.20363  0.76186  0.41038  1.0000
  C   C511      1.0  0.21911  0.79003  0.41688  1.0000
  C   C512      1.0  0.20291  0.79929  0.42539  1.0000
  C   C513      1.0  0.17169  0.78053  0.42738  1.0000
  H   H607      1.0  0.16079  0.72185  0.40712  1.0000
  H   H608      1.0  0.21584  0.75454  0.40370  1.0000
  H   H609      1.0  0.21438  0.82090  0.43045  1.0000
  H   H610      1.0  0.15942  0.78797  0.43399  1.0000
  H   H611      1.0  0.17931  0.63476  0.43609  1.0000
  N   N33       1.0  0.27920  0.89544  0.23013  1.0000
  C   C514      1.0  0.31395  0.91902  0.26708  1.0000
  C   C515      1.0  0.10360  0.78446  0.22244  1.0000
  H   H612      1.0  0.04883  0.55357  0.39188  1.0000
  C   C516      1.0  0.02594  0.80244  0.23112  1.0000
  C   C517      1.0  0.29424  0.98114  0.26175  1.0000
  H   H613      1.0  0.01332  0.53111  0.44198  1.0000
  C   C518      1.0  0.43198  0.48860  0.42314  1.0000
  C   C519      1.0  0.00154  0.64828  0.35840  1.0000
  C   C520      1.0  0.01157  0.64091  0.36954  1.0000
  C   C521      1.0  0.00454  0.61002  0.37222  1.0000
  H   H614      1.0  0.06482  0.72044  0.23854  1.0000
  H   H615      1.0  0.24860  0.91004  0.39669  1.0000
  H   H616      1.0  0.12837  0.77363  0.24220  1.0000
  H   H617      1.0  0.02525  0.65911  0.37594  1.0000
  C   C522      1.0  0.16001  0.67627  0.44825  1.0000
  C   C523      1.0  0.47313  0.87359  0.41458  1.0000
  C   C524      1.0  0.26023  0.86169  0.22875  1.0000
  H   H618      1.0  0.08014  0.56151  0.36818  1.0000
  C   C525      1.0  0.34943  0.93823  0.37627  1.0000
  C   C526      1.0  0.35460  0.94002  0.36366  1.0000
  H   H619      1.0  0.34502  0.91692  0.38086  1.0000
  H   H620      1.0  0.35396  0.91987  0.35867  1.0000
  C   C527      1.0  0.00685  0.66010  0.23818  1.0000
  H   H621      1.0  0.24337  0.82877  0.37743  1.0000
  C   C528      1.0  0.00650  0.78702  0.24037  1.0000
  H   H622      1.0  0.30454  0.87484  0.46996  1.0000
  C   C529      1.0  0.47189  0.48435  0.46572  1.0000
  C   C530      1.0  0.26165  0.89481  0.35111  1.0000
  H   H623      1.0  0.46303  0.93068  0.40824  1.0000
  H   H624      1.0  0.98885  0.54630  0.33868  1.0000
  H   H625      1.0  0.01795  0.51353  0.33490  1.0000
  C   C531      1.0  0.46918  0.48604  0.45320  1.0000
  C   C532      1.0  0.02121  0.50919  0.38356  1.0000
  C   C533      1.0  0.28266  0.90280  0.26466  1.0000
  H   H626      1.0  0.99987  0.62021  0.26441  1.0000
  H   H627      1.0  0.07180  0.53671  0.46645  1.0000
  C   C534      1.0  0.07609  0.73473  0.23069  1.0000
  H   H628      1.0  0.01884  0.48915  0.42595  1.0000
  C   C535      1.0  0.03915  0.76053  0.24506  1.0000
  H   H629      1.0  0.45052  0.76331  0.40366  1.0000
  C   C536      1.0  0.33423  0.92791  0.25754  1.0000
  H   H630      1.0  0.46419  0.80396  0.41761  1.0000
  H   H631      1.0  0.09552  0.72855  0.22836  1.0000
  H   H632      1.0  0.99212  0.54490  0.45190  1.0000
  C   C537      1.0  0.99354  0.68005  0.24200  1.0000
  C   C538      1.0  0.44245  0.86352  0.41057  1.0000
  H   H633      1.0  0.27874  0.93737  0.38243  1.0000
  H   H634      1.0  0.98080  0.56269  0.36587  1.0000
  C   C539      1.0  0.20357  0.71282  0.43751  1.0000
  C   C540      1.0  0.98553  0.65744  0.26212  1.0000
  N   N34       1.0  0.17977  0.68056  0.43760  1.0000
  C   C541      1.0  0.27155  0.89513  0.25269  1.0000
  H   H635      1.0  0.23989  0.90612  0.23340  1.0000
  C   C542      1.0  0.00261  0.63765  0.46427  1.0000
  C   C543      1.0  0.27255  0.92465  0.37385  1.0000
  H   H636      1.0  0.20916  0.83659  0.37781  1.0000
  C   C544      1.0  0.05921  0.56018  0.35055  1.0000
  S   S171      1.0  0.02256  0.66259  0.22359  1.0000
  H   H637      1.0  0.29444  0.90160  0.39310  1.0000
  H   H638      1.0  0.25806  0.88340  0.34225  1.0000
  C   C545      1.0  0.06730  0.51985  0.39548  1.0000
  H   H639      1.0  0.02056  0.81835  0.22556  1.0000
  H   H640      1.0  0.41236  0.92040  0.40456  1.0000
  H   H641      1.0  0.43481  0.84987  0.40223  1.0000
  N   N35       1.0  0.03443  0.54689  0.45971  1.0000
  N   N36       1.0  0.08614  0.76841  0.23312  1.0000
  H   H642      1.0  0.08658  0.53596  0.40088  1.0000
  C   C546      1.0  0.14577  0.69689  0.45059  1.0000
  C   C547      1.0  0.01320  0.76625  0.24738  1.0000
  C   C548      1.0  0.05918  0.77542  0.23555  1.0000
  H   H643      1.0  0.03878  0.50311  0.46123  1.0000
  C   C549      1.0  0.34912  0.96377  0.38276  1.0000
  C   C550      1.0  0.40951  0.94042  0.40050  1.0000
  H   H644      1.0  0.04313  0.74395  0.25067  1.0000
  C   C551      1.0  0.46216  0.89874  0.43207  1.0000
  H   H645      1.0  0.02017  0.52029  0.31908  1.0000
  C   C552      1.0  0.25759  0.89183  0.37331  1.0000
  H   H646      1.0  0.21976  0.71636  0.42995  1.0000
  C   C553      1.0  0.16055  0.67450  0.42638  1.0000
  C   C554      1.0  0.28140  0.94183  0.36334  1.0000
  H   H647      1.0  0.09659  0.76455  0.25200  1.0000
  H   H648      1.0  0.07451  0.59015  0.46039  1.0000
  H   H649      1.0  0.40672  0.93632  0.39048  1.0000
  H   H650      1.0  0.14320  0.65019  0.42585  1.0000
  C   C555      1.0  0.23400  0.88635  0.39312  1.0000
  C   C556      1.0  0.05275  0.52793  0.45953  1.0000
  H   H651      1.0  0.21721  0.71908  0.44619  1.0000
  H   H652      1.0  0.27370  0.84817  0.23132  1.0000
  C   C557      1.0  0.12060  0.66840  0.46814  1.0000
  H   H653      1.0  0.14874  0.71580  0.44466  1.0000
  C   C558      1.0  0.04366  0.49927  0.42641  1.0000
  C   C559      1.0  0.00084  0.55901  0.33060  1.0000
  H   H654      1.0  0.06859  0.64354  0.35885  1.0000
  H   H655      1.0  0.36358  0.94052  0.46185  1.0000
  C   C560      1.0  0.32724  0.95010  0.46963  1.0000
  H   H656      1.0  0.01920  0.62296  0.24345  1.0000
  C   C561      1.0  0.35989  0.96736  0.35739  1.0000
  H   H657      1.0  0.32241  0.92583  0.27634  1.0000
  C   C562      1.0  0.04863  0.58109  0.32009  1.0000
  H   H658      1.0  0.46527  0.78235  0.43078  1.0000
  H   H659      1.0  0.11548  0.70880  0.46180  1.0000
  C   C563      1.0  0.46401  0.97067  0.39842  1.0000
  H   H660      1.0  0.08580  0.61457  0.37342  1.0000
  H   H661      1.0  0.21017  0.66223  0.44561  1.0000
  H   H662      1.0  0.38750  0.93993  0.40388  1.0000
  C   C564      1.0  0.25229  0.87735  0.36157  1.0000
  H   H663      1.0  0.23944  0.85396  0.23434  1.0000
  H   H664      1.0  0.22527  0.82811  0.39138  1.0000
  H   H665      1.0  0.41871  0.97520  0.42132  1.0000
  C   C565      1.0  0.98591  0.60871  0.45869  1.0000
  C   C566      1.0  0.44856  0.52075  0.42461  1.0000
  H   H666      1.0  0.06326  0.52828  0.45057  1.0000
  H   H667      1.0  0.45920  0.95228  0.36448  1.0000
  C   C567      1.0  0.35649  0.94994  0.46965  1.0000
  H   H668      1.0  0.29304  0.86866  0.38442  1.0000
  C   C568      1.0  0.29161  0.90349  0.24274  1.0000
  H   H669      1.0  0.43961  0.53394  0.43025  1.0000
  C   C569      1.0  0.32338  0.92057  0.24552  1.0000
  H   H670      1.0  0.21323  0.88703  0.38864  1.0000
  C   C570      1.0  0.07625  0.60416  0.36462  1.0000
  C   C571      1.0  0.12641  0.69294  0.46038  1.0000
  H   H671      1.0  0.19368  0.73013  0.43614  1.0000
  H   H672      1.0  0.26694  0.89691  0.27212  1.0000
  H   H673      1.0  0.22657  0.87194  0.40134  1.0000
  C   C572      1.0  0.15322  0.65117  0.45624  1.0000
  C   C573      1.0  0.27963  0.87715  0.39053  1.0000
  H   H674      1.0  0.99972  0.58203  0.33074  1.0000
  C   C574      1.0  0.07275  0.57415  0.36169  1.0000
  C   C575      1.0  0.98663  0.58665  0.36382  1.0000
  C   C576      1.0  0.23116  0.84049  0.38262  1.0000
  C   C577      1.0  0.06335  0.48904  0.39393  1.0000
  N   N37       1.0  0.43549  0.97030  0.40365  1.0000
  H   H675      1.0  0.24152  0.85256  0.36022  1.0000
  C   C578      1.0  0.98429  0.62493  0.34988  1.0000
  H   H676      1.0  0.05689  0.53678  0.34894  1.0000
  H   H677      1.0  0.04432  0.61988  0.33949  1.0000
  H   H678      1.0  0.04749  0.60407  0.32035  1.0000
  H   H679      1.0  0.06173  0.57496  0.44537  1.0000
  C   C579      1.0  0.00890  0.63845  0.24633  1.0000
  C   C580      1.0  0.19583  0.65947  0.43724  1.0000
  H   H680      1.0  0.01917  0.65595  0.45913  1.0000
  H   H681      1.0  0.24703  0.88326  0.25127  1.0000
  C   C581      1.0  0.00700  0.53190  0.45161  1.0000
  C   C582      1.0  0.46681  0.96473  0.35616  1.0000
  H   H682      1.0  0.27309  0.93757  0.22812  1.0000
  H   H683      1.0  0.07324  0.58500  0.32002  1.0000
  H   H684      1.0  0.11310  0.81011  0.22362  1.0000
  H   H685      1.0  0.35841  0.94165  0.25946  1.0000
  H   H686      1.0  0.14764  0.68933  0.42596  1.0000
  H   H687      1.0  0.05499  0.53041  0.32773  1.0000
  C   C583      1.0  0.13399  0.64758  0.46609  1.0000
  N   N38       1.0  0.03283  0.56163  0.33040  1.0000
  S   S172      1.0  0.36425  0.96734  0.34135  1.0000
  H   H688      1.0  0.98611  0.79105  0.24204  1.0000
  C   C584      1.0  0.04866  0.57609  0.34201  1.0000
  C   C585      1.0  0.99798  0.63686  0.25821  1.0000
  C   C586      1.0  0.05271  0.60668  0.34530  1.0000
  C   C587      1.0  0.27633  0.92695  0.35200  1.0000
  H   H689      1.0  0.98723  0.54627  0.32246  1.0000
  C   C588      1.0  0.05203  0.79702  0.22876  1.0000
  C   C589      1.0  0.09155  0.49348  0.42827  1.0000
  H   H690      1.0  0.45339  0.93539  0.46448  1.0000
  H   H691      1.0  0.16225  0.63382  0.45503  1.0000
  S   S173      1.0  0.99165  0.60905  0.30413  1.0000
  H   H692      1.0  0.00471  0.51720  0.37974  1.0000
  H   H693      1.0  0.44714  0.73615  0.41530  1.0000
  H   H694      1.0  0.27411  0.97463  0.24362  1.0000
  H   H695      1.0  0.00751  0.67228  0.35633  1.0000
  H   H696      1.0  0.99802  0.75422  0.25456  1.0000
  H   H697      1.0  0.27229  0.97142  0.26609  1.0000
  H   H698      1.0  0.12932  0.62844  0.47212  1.0000
  H   H699      1.0  0.99170  0.69672  0.23580  1.0000
  H   H700      1.0  0.99276  0.50777  0.45417  1.0000
  H   H701      1.0  0.34028  0.92939  0.23860  1.0000
  C   C590      1.0  0.46346  0.75245  0.40895  1.0000
  C   C591      1.0  0.44537  0.96831  0.34830  1.0000
  H   H702      1.0  0.46980  0.48453  0.37743  1.0000
  H   H703      1.0  0.05938  0.72681  0.22290  1.0000
  S   S174      1.0  0.98388  0.52532  0.29896  1.0000
  H   H704      1.0  0.46989  0.91248  0.44037  1.0000
  H   H705      1.0  0.28444  0.94040  0.34392  1.0000
  C   C592      1.0  0.47171  0.48679  0.41010  1.0000
  C   C593      1.0  0.43910  0.97373  0.41707  1.0000
  C   C594      1.0  0.98324  0.67892  0.25395  1.0000
  H   H706      1.0  0.42125  0.95903  0.35051  1.0000
  H   H707      1.0  0.44171  0.95374  0.42130  1.0000
  C   C595      1.0  0.97617  0.59403  0.35279  1.0000
  C   C596      1.0  0.02431  0.54914  0.47219  1.0000
  H   H708      1.0  0.31937  0.89236  0.22264  1.0000
  H   H709      1.0  0.99561  0.55290  0.50509  1.0000
  H   H710      1.0  0.30003  0.88498  0.53487  1.0000
  Fe  Fe90      1.0  0.02471  0.61717  0.62564  1.0000
  S   S175      1.0  0.07336  0.62455  0.62222  1.0000
  H   H711      1.0  0.27393  0.97086  0.61102  1.0000
  Fe  Fe91      1.0  0.04174  0.64582  0.65192  1.0000
  S   S176      1.0  0.09111  0.65311  0.65017  1.0000
  S   S177      1.0  0.02737  0.67143  0.66673  1.0000
  Fe  Fe92      1.0  0.08750  0.67089  0.63175  1.0000
  S   S178      1.0  0.11878  0.71829  0.62517  1.0000
  Fe  Fe93      1.0  0.07224  0.60582  0.64093  1.0000
  S   S179      1.0  0.09341  0.57080  0.64258  1.0000
  S   S180      1.0  0.03867  0.66507  0.63363  1.0000
  S   S181      1.0  0.02299  0.59680  0.64416  1.0000
  Fe  Fe94      1.0  0.28869  0.90197  0.65680  1.0000
  S   S182      1.0  0.30469  0.86492  0.66105  1.0000
  S   S183      1.0  0.27098  0.92599  0.67096  1.0000
  Fe  Fe95      1.0  0.31140  0.90697  0.63005  1.0000
  S   S184      1.0  0.32831  0.86942  0.63271  1.0000
  S   S185      1.0  0.32885  0.94346  0.61535  1.0000
  Fe  Fe96      1.0  0.28398  0.84500  0.64263  1.0000
  S   S186      1.0  0.25825  0.79273  0.64224  1.0000
  Fe  Fe97      1.0  0.34708  0.89235  0.65082  1.0000
  S   S187      1.0  0.39600  0.91105  0.65830  1.0000
  S   S188      1.0  0.26550  0.88103  0.63881  1.0000
  S   S189      1.0  0.33239  0.93089  0.64778  1.0000
  C   C597      1.0  0.43276  0.85217  0.64618  1.0000
  H   H712      1.0  0.01628  0.70489  0.70814  1.0000
  H   H713      1.0  0.07880  0.50868  0.66859  1.0000
  C   C598      1.0  0.27732  0.97118  0.59159  1.0000
  H   H714      1.0  0.10487  0.53651  0.67919  1.0000
  C   C599      1.0  0.35690  0.95420  0.70132  1.0000
  H   H715      1.0  0.02198  0.60105  0.49398  1.0000
  N   N39       1.0  0.36588  0.94206  0.69025  1.0000
  C   C600      1.0  0.43033  0.52103  0.64179  1.0000
  H   H716      1.0  0.01058  0.65386  0.57620  1.0000
  C   C601      1.0  0.33002  0.94310  0.59922  1.0000
  C   C602      1.0  0.31187  0.91730  0.59199  1.0000
  C   C603      1.0  0.31220  0.91917  0.57920  1.0000
  H   H717      1.0  0.00912  0.66612  0.48049  1.0000
  H   H718      1.0  0.29688  0.89625  0.59623  1.0000
  H   H719      1.0  0.29742  0.89938  0.57370  1.0000
  H   H720      1.0  0.17484  0.56816  0.64934  1.0000
  C   C604      1.0  0.00170  0.62488  0.59183  1.0000
  H   H721      1.0  0.35339  0.91499  0.53297  1.0000
  C   C605      1.0  0.00836  0.52191  0.47878  1.0000
  C   C606      1.0  0.13356  0.50298  0.68704  1.0000
  H   H722      1.0  0.01849  0.64265  0.59761  1.0000
  C   C607      1.0  0.16465  0.54403  0.65181  1.0000
  C   C608      1.0  0.15744  0.73867  0.63013  1.0000
  C   C609      1.0  0.17346  0.72400  0.63625  1.0000
  C   C610      1.0  0.20434  0.74091  0.63989  1.0000
  C   C611      1.0  0.21930  0.77267  0.63762  1.0000
  C   C612      1.0  0.20307  0.78748  0.63174  1.0000
  C   C613      1.0  0.17234  0.77046  0.62792  1.0000
  H   H723      1.0  0.16227  0.69953  0.63797  1.0000
  H   H724      1.0  0.21679  0.72930  0.64442  1.0000
  H   H725      1.0  0.21432  0.81190  0.62996  1.0000
  H   H726      1.0  0.16010  0.78197  0.62319  1.0000
  S   S190      1.0  0.97588  0.58366  0.52599  1.0000
  C   C614      1.0  0.42188  0.89506  0.65373  1.0000
  C   C615      1.0  0.41151  0.86468  0.64915  1.0000
  H   H727      1.0  0.03551  0.62666  0.68297  1.0000
  H   H728      1.0  0.38714  0.85056  0.64820  1.0000
  C   C616      1.0  0.44092  0.92397  0.61437  1.0000
  C   C617      1.0  0.08420  0.50979  0.64217  1.0000
  C   C618      1.0  0.07165  0.53113  0.64510  1.0000
  C   C619      1.0  0.04260  0.52050  0.65016  1.0000
  H   H729      1.0  0.10650  0.51777  0.63812  1.0000
  H   H730      1.0  0.03271  0.53672  0.65249  1.0000
  C   C620      1.0  0.25338  0.90388  0.71148  1.0000
  C   C621      1.0  0.25642  0.88201  0.70339  1.0000
  C   C622      1.0  0.26223  0.88853  0.69101  1.0000
  C   C623      1.0  0.26484  0.91698  0.68656  1.0000
  C   C624      1.0  0.26176  0.93880  0.69465  1.0000
  C   C625      1.0  0.25623  0.93240  0.70705  1.0000
  H   H731      1.0  0.25426  0.85988  0.70671  1.0000
  H   H732      1.0  0.26423  0.87137  0.68489  1.0000
  C   C626      1.0  0.02423  0.66332  0.70835  1.0000
  C   C627      1.0  0.02977  0.64140  0.70114  1.0000
  C   C628      1.0  0.03145  0.64381  0.68841  1.0000
  C   C629      1.0  0.02727  0.66806  0.68274  1.0000
  C   C630      1.0  0.02194  0.69011  0.68997  1.0000
  C   C631      1.0  0.02060  0.68789  0.70270  1.0000
  H   H733      1.0  0.42458  0.82844  0.64288  1.0000
  H   H734      1.0  0.01864  0.70893  0.68567  1.0000
  H   H735      1.0  0.29808  0.85689  0.52326  1.0000
  H   H736      1.0  0.35510  0.88705  0.52221  1.0000
  H   H737      1.0  0.32439  0.91000  0.70840  1.0000
  C   C632      1.0  0.99716  0.63117  0.57967  1.0000
  N   N40       1.0  0.41285  0.93002  0.61492  1.0000
  H   H738      1.0  0.33465  0.95263  0.51493  1.0000
  H   H739      1.0  0.37233  0.98181  0.67930  1.0000
  H   H740      1.0  0.10546  0.66542  0.47570  1.0000
  H   H741      1.0  0.02992  0.48430  0.62478  1.0000
  H   H742      1.0  0.35688  0.89968  0.68005  1.0000
  H   H743      1.0  0.39665  0.90559  0.63150  1.0000
  H   H744      1.0  0.41983  0.87758  0.62172  1.0000
  H   H745      1.0  0.18376  0.52885  0.63680  1.0000
  C   C633      1.0  0.40338  0.92894  0.62770  1.0000
  H   H746      1.0  0.07325  0.53139  0.61941  1.0000
  H   H747      1.0  0.29434  0.93223  0.51709  1.0000
  H   H748      1.0  0.02341  0.52679  0.62735  1.0000
  C   C634      1.0  0.02888  0.57784  0.47800  1.0000
  C   C635      1.0  0.44039  0.89528  0.61821  1.0000
  H   H749      1.0  0.38319  0.93489  0.62865  1.0000
  H   H750      1.0  0.40665  0.94007  0.68285  1.0000
  N   N41       1.0  0.03468  0.52893  0.60826  1.0000
  C   C636      1.0  0.46251  0.53748  0.64194  1.0000
  C   C637      1.0  0.44380  0.48666  0.68154  1.0000
  H   H751      1.0  0.99317  0.52498  0.61699  1.0000
  C   C638      1.0  0.99835  0.52339  0.49053  1.0000
  C   C639      1.0  0.43962  0.51027  0.67493  1.0000
  C   C640      1.0  0.33117  0.94654  0.57351  1.0000
  H   H752      1.0  0.02566  0.56053  0.62030  1.0000
  H   H753      1.0  0.46565  0.86701  0.62093  1.0000
  N   N42       1.0  0.11275  0.49474  0.67622  1.0000
  H   H754      1.0  0.38085  0.88246  0.61133  1.0000
  C   C641      1.0  0.02381  0.49514  0.60599  1.0000
  H   H755      1.0  0.32439  0.90072  0.68749  1.0000
  H   H756      1.0  0.46079  0.55576  0.66746  1.0000
  C   C642      1.0  0.34963  0.90797  0.68847  1.0000
  H   H757      1.0  0.03663  0.57085  0.60004  1.0000
  H   H758      1.0  0.36492  0.94710  0.67088  1.0000
  C   C643      1.0  0.01846  0.53531  0.61864  1.0000
  H   H759      1.0  0.14354  0.55339  0.66719  1.0000
  C   C644      1.0  0.37639  0.96138  0.47987  1.0000
  C   C645      1.0  0.09227  0.51136  0.67716  1.0000
  H   H760      1.0  0.08115  0.53800  0.60365  1.0000
  H   H761      1.0  0.40545  0.94013  0.69915  1.0000
  H   H762      1.0  0.32026  0.94076  0.52982  1.0000
  S   S191      1.0  0.32931  0.94881  0.55742  1.0000
  C   C646      1.0  0.38758  0.90599  0.60768  1.0000
  C   C647      1.0  0.35908  0.95638  0.67936  1.0000
  H   H763      1.0  0.14929  0.49090  0.68671  1.0000
  H   H764      1.0  0.41769  0.50746  0.67104  1.0000
  H   H765      1.0  0.07733  0.56731  0.61325  1.0000
  H   H766      1.0  0.00513  0.53651  0.59488  1.0000
  N   N43       1.0  0.32066  0.90422  0.51795  1.0000
  C   C648      1.0  0.16958  0.52195  0.64471  1.0000
  H   H767      1.0  0.01656  0.49440  0.58622  1.0000
  C   C649      1.0  0.35115  0.90857  0.52310  1.0000
  C   C650      1.0  0.31663  0.89572  0.50483  1.0000
  C   C651      1.0  0.33994  0.89231  0.49786  1.0000
  C   C652      1.0  0.28866  0.89077  0.49860  1.0000
  C   C653      1.0  0.33524  0.88425  0.48548  1.0000
  H   H768      1.0  0.00324  0.49923  0.47485  1.0000
  C   C654      1.0  0.30758  0.87973  0.47967  1.0000
  H   H769      1.0  0.39515  0.96416  0.61075  1.0000
  C   C655      1.0  0.02978  0.54581  0.59775  1.0000
  H   H770      1.0  0.26366  0.96085  0.69130  1.0000
  H   H771      1.0  0.39411  0.90530  0.59807  1.0000
  H   H772      1.0  0.04381  0.54516  0.58988  1.0000
  H   H773      1.0  0.35455  0.89541  0.69608  1.0000
  H   H774      1.0  0.37002  0.92772  0.51860  1.0000
  H   H775      1.0  0.26336  0.88065  0.48148  1.0000
  H   H776      1.0  0.42229  0.94531  0.63367  1.0000
  H   H777      1.0  0.36230  0.89647  0.50164  1.0000
  H   H778      1.0  0.27007  0.89346  0.50320  1.0000
  C   C656      1.0  0.46446  0.87016  0.64746  1.0000
  S   S192      1.0  0.98625  0.58819  0.61212  1.0000
  C   C657      1.0  0.00361  0.55188  0.49601  1.0000
  N   N44       1.0  0.11398  0.76085  0.66053  1.0000
  C   C658      1.0  0.11491  0.72988  0.66029  1.0000
  C   C659      1.0  0.09370  0.76113  0.67057  1.0000
  C   C660      1.0  0.09987  0.76423  0.64887  1.0000
  C   C661      1.0  0.14464  0.78674  0.66215  1.0000
  C   C662      1.0  0.17245  0.78249  0.66164  1.0000
  C   C663      1.0  0.14742  0.81762  0.66378  1.0000
  C   C664      1.0  0.20103  0.80756  0.66295  1.0000
  C   C665      1.0  0.17614  0.84250  0.66513  1.0000
  C   C666      1.0  0.20288  0.83747  0.66471  1.0000
  H   H779      1.0  0.12605  0.72604  0.66867  1.0000
  H   H780      1.0  0.09142  0.71099  0.65960  1.0000
  H   H781      1.0  0.12708  0.72651  0.65225  1.0000
  H   H782      1.0  0.10439  0.76034  0.67954  1.0000
  H   H783      1.0  0.07110  0.74073  0.66990  1.0000
  H   H784      1.0  0.08830  0.78180  0.67060  1.0000
  H   H785      1.0  0.11511  0.76543  0.64116  1.0000
  H   H786      1.0  0.07756  0.74421  0.64686  1.0000
  H   H787      1.0  0.09554  0.78556  0.64875  1.0000
  H   H788      1.0  0.17287  0.76013  0.65996  1.0000
  H   H789      1.0  0.12742  0.82284  0.66381  1.0000
  H   H790      1.0  0.22195  0.80383  0.66230  1.0000
  H   H791      1.0  0.17785  0.86595  0.66633  1.0000
  C   C667      1.0  0.31723  0.93366  0.52002  1.0000
  H   H792      1.0  0.39872  0.96067  0.47981  1.0000
  C   C668      1.0  0.46431  0.53835  0.67277  1.0000
  C   C669      1.0  0.45356  0.91309  0.65496  1.0000
  H   H793      1.0  0.47260  0.56204  0.64027  1.0000
  C   C670      1.0  0.29700  0.87969  0.52490  1.0000
  C   C671      1.0  0.13158  0.50365  0.66522  1.0000
  C   C672      1.0  0.34921  0.97031  0.59351  1.0000
  H   H794      1.0  0.41582  0.53313  0.63996  1.0000
  H   H795      1.0  0.46176  0.93663  0.65848  1.0000
  C   C673      1.0  0.46799  0.49032  0.64669  1.0000
  H   H796      1.0  0.29594  0.96273  0.47995  1.0000
  C   C674      1.0  0.46656  0.88901  0.61786  1.0000
  C   C675      1.0  0.28438  0.88308  0.48620  1.0000
  H   H797      1.0  0.12055  0.49657  0.69558  1.0000
  H   H798      1.0  0.28516  0.97660  0.57283  1.0000
  C   C676      1.0  0.33578  0.93479  0.70972  1.0000
  C   C677      1.0  0.41685  0.48924  0.64416  1.0000
  H   H799      1.0  0.41333  0.97508  0.69106  1.0000
  H   H800      1.0  0.98623  0.50241  0.49548  1.0000
  H   H801      1.0  0.27338  0.87704  0.52244  1.0000
  C   C678      1.0  0.41681  0.96062  0.61023  1.0000
  C   C679      1.0  0.97497  0.61999  0.48312  1.0000
  C   C680      1.0  0.31845  0.96237  0.47989  1.0000
  C   C681      1.0  0.14625  0.53518  0.66199  1.0000
  C   C682      1.0  0.39926  0.94973  0.69088  1.0000
  C   C683      1.0  0.98367  0.59613  0.59657  1.0000
  H   H802      1.0  0.26651  0.94615  0.59064  1.0000
  H   H803      1.0  0.22510  0.85688  0.66558  1.0000
  H   H804      1.0  0.14820  0.52827  0.68764  1.0000
  H   H805      1.0  0.25406  0.94951  0.71316  1.0000
  H   H806      1.0  0.36634  0.91036  0.60767  1.0000
  C   C684      1.0  0.06800  0.54196  0.61124  1.0000
  C   C685      1.0  0.01875  0.57900  0.48976  1.0000
  H   H807      1.0  0.07550  0.50247  0.68454  1.0000
  H   H808      1.0  0.33428  0.95181  0.67872  1.0000
  H   H809      1.0  0.03262  0.62232  0.70542  1.0000
  C   C686      1.0  0.15621  0.49094  0.64778  1.0000
  C   C687      1.0  0.46945  0.94612  0.61030  1.0000
  C   C688      1.0  0.35010  0.97192  0.58076  1.0000
  H   H810      1.0  0.13364  0.80753  0.71927  1.0000
  H   H811      1.0  0.03958  0.59971  0.47358  1.0000
  H   H812      1.0  0.43432  0.97994  0.61569  1.0000
  H   H813      1.0  0.35356  0.88264  0.48022  1.0000
  C   C689      1.0  0.97504  0.60866  0.57206  1.0000
  C   C690      1.0  0.36751  0.97335  0.49018  1.0000
  C   C691      1.0  0.02658  0.48884  0.65250  1.0000
  H   H814      1.0  0.45429  0.96925  0.48141  1.0000
  C   C692      1.0  0.33849  0.97408  0.49008  1.0000
  C   C693      1.0  0.32821  0.94714  0.72016  1.0000
  H   H815      1.0  0.42317  0.96278  0.60051  1.0000
  C   C694      1.0  0.99682  0.64335  0.47637  1.0000
  H   H816      1.0  0.46993  0.75864  0.66781  1.0000
  H   H817      1.0  0.40285  0.48371  0.60431  1.0000
  H   H818      1.0  0.45554  0.98230  0.50205  1.0000
  H   H819      1.0  0.43026  0.48269  0.61576  1.0000
  H   H820      1.0  0.47225  0.96867  0.60732  1.0000
  Fe  Fe98      1.0  0.02271  0.75636  0.74535  1.0000
  S   S193      1.0  0.05039  0.72846  0.74793  1.0000
  S   S194      1.0  0.04732  0.80416  0.73788  1.0000
  Fe  Fe99      1.0  0.01190  0.69053  0.73785  1.0000
  Fe  Fe100     1.0  0.02369  0.71216  0.76500  1.0000
  S   S195      1.0  0.05357  0.71085  0.78129  1.0000
  H   H821      1.0  0.15889  0.85534  0.73847  1.0000
  S   S196      1.0  0.99819  0.74295  0.76304  1.0000
  Fe  Fe101     1.0  0.07724  0.61904  0.86383  1.0000
  S   S197      1.0  0.02695  0.60860  0.86220  1.0000
  S   S198      1.0  0.09811  0.58335  0.86533  1.0000
  Fe  Fe102     1.0  0.09550  0.68903  0.86570  1.0000
  S   S199      1.0  0.04635  0.68277  0.86448  1.0000
  S   S200      1.0  0.12668  0.73973  0.86871  1.0000
  Fe  Fe103     1.0  0.03671  0.64419  0.87740  1.0000
  S   S201      1.0  0.00302  0.63637  0.89275  1.0000
  Fe  Fe104     1.0  0.04136  0.64859  0.84934  1.0000
  S   S202      1.0  0.01232  0.65149  0.83308  1.0000
  S   S203      1.0  0.08622  0.65271  0.87973  1.0000
  S   S204      1.0  0.09124  0.65679  0.84985  1.0000
  Fe  Fe105     1.0  0.20002  0.92728  0.76244  1.0000
  S   S205      1.0  0.23130  0.90305  0.76053  1.0000
  S   S206      1.0  0.15383  0.90213  0.77084  1.0000
  Fe  Fe106     1.0  0.24374  0.92611  0.74251  1.0000
  Fe  Fe107     1.0  0.26745  0.94625  0.76899  1.0000
  S   S207      1.0  0.30027  0.93821  0.78240  1.0000
  S   S208      1.0  0.20916  0.94689  0.74382  1.0000
  H   H822      1.0  0.25563  0.88769  0.81107  1.0000
  Fe  Fe108     1.0  0.29341  0.85365  0.86377  1.0000
  S   S209      1.0  0.27326  0.88864  0.86524  1.0000
  S   S210      1.0  0.26826  0.80386  0.85728  1.0000
  Fe  Fe109     1.0  0.35797  0.90068  0.87012  1.0000
  S   S211      1.0  0.34278  0.94004  0.87187  1.0000
  S   S212      1.0  0.40292  0.89821  0.87626  1.0000
  Fe  Fe110     1.0  0.30289  0.90677  0.88216  1.0000
  S   S213      1.0  0.28096  0.92337  0.89749  1.0000
  Fe  Fe111     1.0  0.31397  0.91931  0.85480  1.0000
  S   S214      1.0  0.29992  0.94540  0.84036  1.0000
  S   S215      1.0  0.31955  0.86868  0.88148  1.0000
  S   S216      1.0  0.33250  0.88298  0.85227  1.0000
  Fe  Fe112     1.0  0.01283  0.69647  0.96333  1.0000
  H   H823      1.0  0.03757  0.52491  0.90204  1.0000
  S   S217      1.0  0.03819  0.68634  0.94752  1.0000
  H   H824      1.0  0.44956  0.95967  0.89119  1.0000
  N   N45       1.0  0.22789  0.84886  0.82953  1.0000
  S   S218      1.0  0.28806  0.92086  0.95539  1.0000
  C   C695      1.0  0.28282  0.95489  0.81739  1.0000
  H   H825      1.0  0.07700  0.54005  0.90720  1.0000
  C   C696      1.0  0.42138  0.83511  0.85074  1.0000
  H   H826      1.0  0.06481  0.74075  0.81408  1.0000
  C   C697      1.0  0.28211  0.91996  0.91350  1.0000
  C   C698      1.0  0.30162  0.90888  0.91944  1.0000
  C   C699      1.0  0.30280  0.90862  0.93227  1.0000
  C   C700      1.0  0.28475  0.91965  0.93926  1.0000
  C   C701      1.0  0.26451  0.92958  0.93326  1.0000
  C   C702      1.0  0.26329  0.92984  0.92050  1.0000
  H   H827      1.0  0.31612  0.90102  0.91418  1.0000
  H   H828      1.0  0.31830  0.90051  0.93680  1.0000
  C   C703      1.0  0.17642  0.79448  0.73185  1.0000
  H   H829      1.0  0.45657  0.93311  0.90932  1.0000
  C   C704      1.0  0.29987  0.94044  0.79850  1.0000
  C   C705      1.0  0.31795  0.92902  0.80537  1.0000
  C   C706      1.0  0.31822  0.93020  0.81818  1.0000
  C   C707      1.0  0.30072  0.94330  0.82426  1.0000
  H   H830      1.0  0.04929  0.57477  0.88278  1.0000
  C   C708      1.0  0.28212  0.95320  0.80459  1.0000
  H   H831      1.0  0.33184  0.91920  0.80074  1.0000
  H   H832      1.0  0.33230  0.92143  0.82333  1.0000
  C   C709      1.0  0.16628  0.75605  0.86592  1.0000
  C   C710      1.0  0.18404  0.78611  0.87042  1.0000
  C   C711      1.0  0.21551  0.80052  0.86812  1.0000
  C   C712      1.0  0.22932  0.78523  0.86105  1.0000
  C   C713      1.0  0.21157  0.75516  0.85650  1.0000
  C   C714      1.0  0.18010  0.74049  0.85898  1.0000
  H   H833      1.0  0.17348  0.79820  0.87583  1.0000
  H   H834      1.0  0.22900  0.82356  0.87176  1.0000
  H   H835      1.0  0.22215  0.74317  0.85104  1.0000
  H   H836      1.0  0.16655  0.71731  0.85546  1.0000
  C   C715      1.0  0.01317  0.65065  0.90791  1.0000
  H   H837      1.0  0.36702  0.97266  0.94738  1.0000
  C   C716      1.0  0.10882  0.75878  0.95885  1.0000
  C   C717      1.0  0.02758  0.67245  0.93233  1.0000
  C   C718      1.0  0.05089  0.67614  0.92406  1.0000
  C   C719      1.0  0.04378  0.66543  0.91191  1.0000
  H   H838      1.0  0.00571  0.70568  0.89032  1.0000
  H   H839      1.0  0.24773  0.93791  0.91600  1.0000
  H   H840      1.0  0.07465  0.68741  0.92708  1.0000
  H   H841      1.0  0.06198  0.66856  0.90566  1.0000
  C   C720      1.0  0.07638  0.83155  0.74720  1.0000
  C   C721      1.0  0.07800  0.82738  0.75968  1.0000
  C   C722      1.0  0.10130  0.84972  0.76692  1.0000
  C   C723      1.0  0.12389  0.87554  0.76164  1.0000
  C   C724      1.0  0.12234  0.87971  0.74916  1.0000
  C   C725      1.0  0.09837  0.85796  0.74199  1.0000
  H   H842      1.0  0.06108  0.80713  0.76376  1.0000
  H   H843      1.0  0.10221  0.84656  0.77658  1.0000
  H   H844      1.0  0.13948  0.89972  0.74505  1.0000
  H   H845      1.0  0.09708  0.86133  0.73235  1.0000
  C   C726      1.0  0.04083  0.69153  0.79513  1.0000
  C   C727      1.0  0.01082  0.68307  0.79901  1.0000
  C   C728      1.0  0.00237  0.67020  0.81054  1.0000
  C   C729      1.0  0.02369  0.66546  0.81829  1.0000
  C   C730      1.0  0.05349  0.67316  0.81427  1.0000
  C   C731      1.0  0.06205  0.68635  0.80280  1.0000
  H   H846      1.0  0.24116  0.89844  0.82926  1.0000
  H   H847      1.0  0.09702  0.86295  0.96154  1.0000
  H   H848      1.0  0.06991  0.66893  0.82000  1.0000
  H   H849      1.0  0.08528  0.69262  0.79986  1.0000
  C   C732      1.0  0.08000  0.54214  0.86553  1.0000
  C   C733      1.0  0.04807  0.52583  0.86496  1.0000
  C   C734      1.0  0.09837  0.52536  0.86665  1.0000
  H   H850      1.0  0.03357  0.53827  0.86399  1.0000
  H   H851      1.0  0.12307  0.53767  0.86711  1.0000
  C   C735      1.0  0.44477  0.92321  0.85800  1.0000
  C   C736      1.0  0.43674  0.90466  0.86819  1.0000
  H   H852      1.0  0.99583  0.59536  0.92895  1.0000
  H   H853      1.0  0.42944  0.93301  0.85452  1.0000
  H   H854      1.0  0.16532  0.84462  0.75828  1.0000
  N   N46       1.0  0.37126  0.80591  0.86158  1.0000
  C   C737      1.0  0.37007  0.81072  0.87486  1.0000
  C   C738      1.0  0.36005  0.82716  0.85546  1.0000
  C   C739      1.0  0.34952  0.77386  0.85816  1.0000
  C   C740      1.0  0.40291  0.81088  0.85833  1.0000
  C   C741      1.0  0.11566  0.76711  0.94685  1.0000
  C   C742      1.0  0.41646  0.79151  0.86304  1.0000
  C   C743      1.0  0.15077  0.80628  0.96576  1.0000
  H   H855      1.0  0.22594  0.86151  0.94065  1.0000
  H   H856      1.0  0.45634  0.78085  0.86393  1.0000
  H   H857      1.0  0.38724  0.83404  0.87786  1.0000
  H   H858      1.0  0.34712  0.80920  0.87760  1.0000
  H   H859      1.0  0.37491  0.79342  0.88017  1.0000
  H   H860      1.0  0.35993  0.82459  0.84541  1.0000
  H   H861      1.0  0.37425  0.85171  0.85815  1.0000
  H   H862      1.0  0.33610  0.82261  0.85799  1.0000
  H   H863      1.0  0.35395  0.75615  0.86335  1.0000
  H   H864      1.0  0.32529  0.77004  0.85993  1.0000
  H   H865      1.0  0.35086  0.76891  0.84832  1.0000
  H   H866      1.0  0.17981  0.84981  0.72611  1.0000
  H   H867      1.0  0.40404  0.77296  0.86903  1.0000
  H   H868      1.0  0.26589  0.85533  0.84176  1.0000
  H   H869      1.0  0.17410  0.78971  0.79522  1.0000
  C   C744      1.0  0.20893  0.83407  0.79092  1.0000
  H   H870      1.0  0.18342  0.79678  0.81700  1.0000
  H   H871      1.0  0.06805  0.53937  0.89140  1.0000
  C   C745      1.0  0.12743  0.77806  0.77275  1.0000
  C   C746      1.0  0.05984  0.58433  0.93620  1.0000
  C   C747      1.0  0.20780  0.82324  0.83713  1.0000
  C   C748      1.0  0.02371  0.58458  0.91604  1.0000
  H   H872      1.0  0.14194  0.84899  0.81821  1.0000
  C   C749      1.0  0.14008  0.79507  0.94423  1.0000
  H   H873      1.0  0.12632  0.81872  0.83644  1.0000
  H   H874      1.0  0.18325  0.81893  0.83588  1.0000
  C   C750      1.0  0.23169  0.86156  0.79550  1.0000
  C   C751      1.0  0.01575  0.72301  0.90876  1.0000
  C   C752      1.0  0.09051  0.78225  0.80513  1.0000
  H   H875      1.0  0.03725  0.75561  0.83653  1.0000
  H   H876      1.0  0.04063  0.72699  0.84629  1.0000
  H   H877      1.0  0.04057  0.72157  0.83052  1.0000
  H   H878      1.0  0.15681  0.96363  0.73998  1.0000
  Fe  Fe113     1.0  0.26637  0.94609  0.96734  1.0000
  H   H879      1.0  0.01680  0.55925  0.89222  1.0000
  N   N47       1.0  0.08295  0.75711  0.83802  1.0000
  C   C753      1.0  0.09722  0.73460  0.83792  1.0000
  C   C754      1.0  0.09169  0.77503  0.84971  1.0000
  C   C755      1.0  0.04901  0.73982  0.83779  1.0000
  C   C756      1.0  0.09301  0.77665  0.82722  1.0000
  C   C757      1.0  0.08128  0.76437  0.81546  1.0000
  C   C758      1.0  0.11566  0.80761  0.82793  1.0000
  H   H880      1.0  0.00346  0.76333  0.93980  1.0000
  C   C759      1.0  0.12497  0.82528  0.81751  1.0000
  C   C760      1.0  0.11224  0.81270  0.80615  1.0000
  H   H881      1.0  0.12267  0.74636  0.83876  1.0000
  H   H882      1.0  0.08938  0.71855  0.84560  1.0000
  H   H883      1.0  0.09139  0.72013  0.82945  1.0000
  H   H884      1.0  0.08312  0.79363  0.85005  1.0000
  H   H885      1.0  0.11694  0.78522  0.85148  1.0000
  H   H886      1.0  0.08207  0.75996  0.85761  1.0000
  C   C761      1.0  0.14346  0.80953  0.77077  1.0000
  H   H887      1.0  0.32235  0.50720  0.85562  1.0000
  C   C762      1.0  0.45130  0.83926  0.84799  1.0000
  H   H888      1.0  0.11915  0.82661  0.79813  1.0000
  H   H889      1.0  0.00887  0.58553  0.90869  1.0000
  H   H890      1.0  0.01923  0.73588  0.92744  1.0000
  C   C763      1.0  0.17307  0.84289  0.73560  1.0000
  H   H891      1.0  0.26932  0.96521  0.82200  1.0000
  C   C764      1.0  0.19731  0.81560  0.81140  1.0000
  H   H892      1.0  0.10173  0.75177  0.93960  1.0000
  C   C765      1.0  0.25996  0.85278  0.83189  1.0000
  H   H893      1.0  0.21215  0.84998  0.96664  1.0000
  H   H894      1.0  0.12546  0.74942  0.74433  1.0000
  H   H895      1.0  0.11725  0.94951  0.75375  1.0000
  H   H896      1.0  0.45219  0.49971  0.88569  1.0000
  H   H897      1.0  0.99427  0.68697  0.79324  1.0000
  C   C766      1.0  0.99695  0.65743  0.92836  1.0000
  C   C767      1.0  0.23747  0.86616  0.80800  1.0000
  H   H898      1.0  0.11896  0.76998  0.78165  1.0000
  C   C768      1.0  0.08513  0.49273  0.86706  1.0000
  H   H899      1.0  0.22083  0.88513  0.95881  1.0000
  H   H900      1.0  0.09976  0.59729  0.89063  1.0000
  H   H901      1.0  0.18910  0.88826  0.94245  1.0000
  S   S219      1.0  0.24619  0.89443  0.72699  1.0000
  H   H902      1.0  0.11571  0.77344  0.72789  1.0000
  H   H903      1.0  0.38398  0.51775  0.87723  1.0000
  C   C769      1.0  0.05036  0.57888  0.91411  1.0000
  C   C770      1.0  0.03483  0.49321  0.86546  1.0000
  H   H904      1.0  0.11176  0.80803  0.73232  1.0000
  C   C771      1.0  0.13137  0.76686  0.75151  1.0000
  C   C772      1.0  0.19168  0.81118  0.79885  1.0000
  C   C773      1.0  0.09207  0.59819  0.90006  1.0000
  C   C774      1.0  0.47053  0.95626  0.89251  1.0000
  H   H905      1.0  0.10859  0.73232  0.76472  1.0000
  S   S220      1.0  0.01649  0.74529  0.96477  1.0000
  H   H906      1.0  0.31190  0.93195  0.72641  1.0000
  C   C775      1.0  0.22056  0.84340  0.81636  1.0000
  H   H907      1.0  0.09333  0.62191  0.90185  1.0000
  H   H908      1.0  0.21075  0.80143  0.83521  1.0000
  C   C776      1.0  0.03402  0.59060  0.93774  1.0000
  C   C777      1.0  0.46380  0.81974  0.85272  1.0000
  N   N48       1.0  0.15623  0.80886  0.73657  1.0000
  H   H909      1.0  0.21356  0.82872  0.84696  1.0000
  C   C778      1.0  0.01583  0.59032  0.92771  1.0000
  H   H910      1.0  0.47094  0.49357  0.84191  1.0000
  S   S221      1.0  0.98712  0.67171  0.75511  1.0000
  C   C779      1.0  0.14737  0.79878  0.74911  1.0000
  H   H911      1.0  0.35911  0.97054  0.92509  1.0000
  N   N49       1.0  0.18383  0.84527  0.95059  1.0000
  H   H912      1.0  0.08826  0.57394  0.92384  1.0000
  S   S222      1.0  0.98561  0.71940  0.73400  1.0000
  H   H913      1.0  0.14752  0.82625  0.77816  1.0000
  C   C780      1.0  0.06786  0.57836  0.92458  1.0000
  C   C781      1.0  0.04062  0.57734  0.89187  1.0000
  C   C782      1.0  0.12823  0.79902  0.72866  1.0000
  C   C783      1.0  0.15848  0.81552  0.95361  1.0000
  C   C784      1.0  0.20578  0.83962  0.94255  1.0000
  H   H914      1.0  0.08970  0.73727  0.96089  1.0000
  C   C785      1.0  0.12164  0.75678  0.76316  1.0000
  H   H915      1.0  0.15338  0.86838  0.94981  1.0000
  H   H916      1.0  0.22981  0.88210  0.84359  1.0000
  N   N50       1.0  0.06054  0.57451  0.90185  1.0000
  H   H917      1.0  0.03967  0.60042  0.89215  1.0000
  H   H918      1.0  0.14425  0.80072  0.93479  1.0000
  H   H919      1.0  0.21475  0.82373  0.94683  1.0000
  H   H920      1.0  0.15997  0.85456  0.93535  1.0000
  H   H921      1.0  0.10942  0.59512  0.90609  1.0000
  C   C786      1.0  0.15351  0.81988  0.75916  1.0000
  H   H922      1.0  0.26823  0.96220  0.79944  1.0000
  C   C787      1.0  0.36289  0.51949  0.87359  1.0000
  H   H923      1.0  0.10543  0.97983  0.74970  1.0000
  C   C788      1.0  0.06079  0.54336  0.90062  1.0000
  C   C789      1.0  0.00393  0.72894  0.91956  1.0000
  C   C790      1.0  0.45708  0.89235  0.87266  1.0000
  C   C791      1.0  0.12637  0.77825  0.96826  1.0000
  C   C792      1.0  0.22478  0.87744  0.83367  1.0000
  H   H924      1.0  0.02820  0.59597  0.94672  1.0000
  H   H925      1.0  0.24978  0.93707  0.93845  1.0000
  C   C793      1.0  0.17104  0.86489  0.94423  1.0000
  C   C794      1.0  0.44641  0.79590  0.86023  1.0000
  H   H926      1.0  0.20130  0.87595  0.83173  1.0000
  H   H927      1.0  0.08050  0.77227  0.79631  1.0000
  H   H928      1.0  0.41359  0.85166  0.84699  1.0000
  H   H929      1.0  0.45109  0.87802  0.88055  1.0000
  H   H930      1.0  0.19479  0.85181  0.74115  1.0000
  H   H931      1.0  0.35580  0.53294  0.88034  1.0000
  H   H932      1.0  0.20493  0.83051  0.78119  1.0000
  H   H933      1.0  0.27695  0.87376  0.82765  1.0000
  H   H934      1.0  0.26374  0.83241  0.82841  1.0000
  H   H935      1.0  0.19535  0.82935  0.93358  1.0000
  H   H936      1.0  0.19711  0.80044  0.73789  1.0000
  H   H937      1.0  0.97921  0.66418  0.81352  1.0000
  H   H938      1.0  0.24524  0.87941  0.78933  1.0000
  S   S223      1.0  0.23417  0.96366  0.95871  1.0000
  C   C795      1.0  0.20163  0.86322  0.96140  1.0000
  C   C796      1.0  0.98982  0.64660  0.91620  1.0000
  C   C797      1.0  0.10501  0.85636  0.96981  1.0000
  H   H939      1.0  0.37006  0.53339  0.86527  1.0000
  H   H940      1.0  0.97881  0.65357  0.93469  1.0000
  H   H941      1.0  0.03944  0.72584  0.90850  1.0000
  H   H942      1.0  0.46518  0.85824  0.84236  1.0000
  S   S224      1.0  0.28241  0.96795  0.75076  1.0000
  H   H943      1.0  0.18707  0.87011  0.96752  1.0000
  S   S225      1.0  0.23520  0.96938  0.77214  1.0000
  H   H944      1.0  0.07394  0.58458  0.94405  1.0000
  C   C798      1.0  0.12135  0.97414  0.75567  1.0000
  S   S226      1.0  0.15440  0.91249  0.96863  1.0000
  C   C799      1.0  0.45587  0.49858  0.87607  1.0000
  H   H945      1.0  0.06589  0.81230  0.97058  1.0000
  C   C800      1.0  0.31330  0.49377  0.86392  1.0000
  H   H946      1.0  0.16462  0.76886  0.73110  1.0000
  H   H947      1.0  0.30280  0.50660  0.86947  1.0000
  H   H948      1.0  0.17064  0.96386  0.76156  1.0000
  C   C801      1.0  0.47344  0.93041  0.85267  1.0000
  H   H949      1.0  0.98413  0.70733  0.94243  1.0000
  H   H950      1.0  0.11453  0.97486  0.76521  1.0000
  C   C802      1.0  0.46669  0.49524  0.85145  1.0000
  N   N51       1.0  0.33763  0.48868  0.87095  1.0000
  H   H951      1.0  0.98208  0.77919  0.93069  1.0000
  C   C803      1.0  0.99676  0.71166  0.89850  1.0000
  S   S227      1.0  0.02048  0.65813  0.72425  1.0000
  C   C804      1.0  0.97998  0.76082  0.93722  1.0000
  C   C805      1.0  0.34095  0.97893  0.72248  1.0000
  H   H952      1.0  0.18465  0.80269  0.72262  1.0000
  H   H953      1.0  0.50310  0.33950  0.10325  1.0000
  H   H954      1.0  0.90827  0.15793  0.05855  1.0000
  Fe  Fe114     1.0  0.62454  0.03599  0.08169  1.0000
  S   S228      1.0  0.57250  0.01467  0.07844  1.0000
  Fe  Fe115     1.0  0.68632  0.09052  0.08406  1.0000
  S   S229      1.0  0.71265  0.06083  0.08329  1.0000
  S   S230      1.0  0.71114  0.14197  0.08779  1.0000
  Fe  Fe116     1.0  0.67973  0.03472  0.06813  1.0000
  Fe  Fe117     1.0  0.67804  0.03097  0.09633  1.0000
  S   S231      1.0  0.65586  0.06704  0.06781  1.0000
  S   S232      1.0  0.65314  0.06218  0.09800  1.0000
  Fe  Fe118     1.0  0.77499  0.03578  0.20303  1.0000
  S   S233      1.0  0.81518  0.07734  0.21088  1.0000
  S   S234      1.0  0.73137  0.04164  0.20024  1.0000
  Fe  Fe119     1.0  0.94849  0.29410  0.07249  1.0000
  S   S235      1.0  0.90144  0.29067  0.06810  1.0000
  Fe  Fe120     1.0  0.93431  0.28168  0.09975  1.0000
  S   S236      1.0  0.88580  0.27792  0.09707  1.0000
  Fe  Fe121     1.0  0.88424  0.24988  0.08018  1.0000
  S   S237      1.0  0.85047  0.20311  0.07292  1.0000
  Fe  Fe122     1.0  0.90747  0.31974  0.08517  1.0000
  S   S238      1.0  0.89102  0.35786  0.08141  1.0000
  S   S239      1.0  0.93119  0.25129  0.08338  1.0000
  C   C806      1.0  0.76326  0.12183  0.13131  1.0000
  S   S240      1.0  0.94594  0.22871  0.19987  1.0000
  S   S241      1.0  0.94757  0.15044  0.19024  1.0000
  C   C807      1.0  0.49546  0.42925  0.09302  1.0000
  C   C808      1.0  0.51677  0.45445  0.09989  1.0000
  H   H955      1.0  0.89991  0.00877  0.97733  1.0000
  H   H956      1.0  0.90062  0.02503  0.19770  1.0000
  H   H957      1.0  0.86409  0.13393  0.21822  1.0000
  C   C809      1.0  0.50074  0.42653  0.08069  1.0000
  H   H958      1.0  0.93351  0.37289  0.05963  1.0000
  H   H959      1.0  0.79180  0.09062  0.98098  1.0000
  C   C810      1.0  0.96793  0.25731  0.15188  1.0000
  H   H960      1.0  0.87236  0.40005  0.10750  1.0000
  C   C811      1.0  0.94460  0.29122  0.13726  1.0000
  C   C812      1.0  0.85085  0.09810  0.20426  1.0000
  C   C813      1.0  0.87101  0.12563  0.21008  1.0000
  C   C814      1.0  0.90038  0.14228  0.20561  1.0000
  C   C815      1.0  0.90997  0.13116  0.19539  1.0000
  C   C816      1.0  0.88962  0.10398  0.18936  1.0000
  C   C817      1.0  0.85993  0.08764  0.19370  1.0000
  H   H961      1.0  0.95277  0.34799  0.06275  1.0000
  H   H962      1.0  0.91595  0.16313  0.21034  1.0000
  H   H963      1.0  0.89691  0.09544  0.18139  1.0000
  H   H964      1.0  0.84426  0.06704  0.18889  1.0000
  C   C818      1.0  0.74954  0.15945  0.08327  1.0000
  C   C819      1.0  0.76183  0.14340  0.07582  1.0000
  C   C820      1.0  0.79284  0.15713  0.07276  1.0000
  C   C821      1.0  0.81178  0.18703  0.07709  1.0000
  C   C822      1.0  0.79954  0.20322  0.08450  1.0000
  C   C823      1.0  0.76841  0.18946  0.08755  1.0000
  H   H965      1.0  0.74741  0.12046  0.07235  1.0000
  H   H966      1.0  0.80219  0.14449  0.06704  1.0000
  H   H967      1.0  0.81399  0.22634  0.08783  1.0000
  H   H968      1.0  0.75898  0.20202  0.09329  1.0000
  C   C824      1.0  0.67873  0.02551  0.13290  1.0000
  H   H969      1.0  0.66390  0.03305  0.12760  1.0000
  C   C825      1.0  0.61025  0.99864  0.04949  1.0000
  C   C826      1.0  0.87886  0.03503  0.21353  1.0000
  C   C827      1.0  0.90949  0.39838  0.08437  1.0000
  C   C828      1.0  0.90148  0.41830  0.07715  1.0000
  C   C829      1.0  0.91330  0.45033  0.07986  1.0000
  H   H970      1.0  0.88581  0.40884  0.06946  1.0000
  H   H971      1.0  0.82154  0.10662  0.99232  1.0000
  C   C830      1.0  0.54739  0.03151  0.08332  1.0000
  C   C831      1.0  0.55790  0.05905  0.09025  1.0000
  C   C832      1.0  0.53711  0.07137  0.09414  1.0000
  C   C833      1.0  0.50566  0.05640  0.09113  1.0000
  C   C834      1.0  0.51589  0.01651  0.08030  1.0000
  H   H972      1.0  0.58204  0.07077  0.09269  1.0000
  H   H973      1.0  0.54552  0.09268  0.09952  1.0000
  C   C835      1.0  0.68799  0.01380  0.01080  1.0000
  C   C836      1.0  0.67944  0.03229  0.03074  1.0000
  C   C837      1.0  0.67638  0.03128  0.01796  1.0000
  H   H974      1.0  0.67056  0.04599  0.03611  1.0000
  H   H975      1.0  0.66478  0.04397  0.01360  1.0000
  C   C838      1.0  0.77478  0.05653  0.00026  1.0000
  C   C839      1.0  0.70594  0.99850  0.02930  1.0000
  C   C840      1.0  0.92898  0.06887  0.20561  1.0000
  H   H976      1.0  0.50439  0.06561  0.04238  1.0000
  C   C841      1.0  0.93896  0.20985  0.04663  1.0000
  C   C842      1.0  0.94675  0.29554  0.15000  1.0000
  S   S242      1.0  0.68287  0.01244  0.99475  1.0000
  H   H977      1.0  0.88300  0.20489  0.17862  1.0000
  C   C843      1.0  0.79617  0.13505  0.03449  1.0000
  C   C844      1.0  0.81365  0.14933  0.02458  1.0000
  C   C845      1.0  0.80043  0.45599  0.08057  1.0000
  C   C846      1.0  0.90260  0.04120  0.20504  1.0000
  C   C847      1.0  0.52533  0.31497  0.08588  1.0000
  H   H978      1.0  0.87520  0.17933  0.14604  1.0000
  S   S243      1.0  0.95498  0.26560  0.11573  1.0000
  C   C848      1.0  0.93275  0.05452  0.97306  1.0000
  C   C849      1.0  0.80758  0.13436  0.01316  1.0000
  C   C850      1.0  0.88532  0.11671  0.97589  1.0000
  C   C851      1.0  0.91025  0.16280  0.16104  1.0000
  C   C852      1.0  0.85372  0.40008  0.10175  1.0000
  N   N52       1.0  0.90523  0.19160  0.04622  1.0000
  C   C853      1.0  0.88987  0.21324  0.04608  1.0000
  C   C854      1.0  0.89713  0.17438  0.05770  1.0000
  H   H979      1.0  0.50219  0.14139  0.06947  1.0000
  C   C855      1.0  0.89609  0.17146  0.03513  1.0000
  C   C856      1.0  0.90362  0.18451  0.02349  1.0000
  C   C857      1.0  0.87946  0.13879  0.03543  1.0000
  C   C858      1.0  0.89581  0.16613  0.01287  1.0000
  H   H980      1.0  0.73090  0.99424  0.12967  1.0000
  H   H981      1.0  0.95625  0.45222  0.10496  1.0000
  H   H982      1.0  0.86449  0.20056  0.04638  1.0000
  H   H983      1.0  0.89712  0.22960  0.05407  1.0000
  H   H984      1.0  0.89510  0.22756  0.03789  1.0000
  C   C859      1.0  0.87999  0.13417  0.01349  1.0000
  N   N53       1.0  0.82742  0.45890  0.08825  1.0000
  C   C860      1.0  0.51371  0.09546  0.06311  1.0000
  S   S244      1.0  0.96473  0.19505  0.98454  1.0000
  C   C861      1.0  0.49182  0.08087  0.04303  1.0000
  H   H985      1.0  0.80066  0.44546  0.07149  1.0000
  H   H986      1.0  0.91579  0.20918  0.02247  1.0000
  H   H987      1.0  0.53069  0.39150  0.10113  1.0000
  H   H988      1.0  0.84810  0.00794  0.19294  1.0000
  H   H989      1.0  0.85214  0.15738  0.18614  1.0000
  H   H990      1.0  0.93947  0.31222  0.15416  1.0000
  N   N54       1.0  0.51587  0.34096  0.08447  1.0000
  C   C862      1.0  0.83393  0.00540  0.20107  1.0000
  H   H991      1.0  0.73779  0.07277  0.98637  1.0000
  H   H992      1.0  0.74512  0.10910  0.99408  1.0000
  C   C863      1.0  0.54320  0.37082  0.08518  1.0000
  C   C864      1.0  0.54737  0.39406  0.09425  1.0000
  C   C865      1.0  0.56663  0.37750  0.07653  1.0000
  C   C866      1.0  0.57322  0.42219  0.09448  1.0000
  C   C867      1.0  0.59221  0.40588  0.07678  1.0000
  C   C868      1.0  0.59539  0.42826  0.08570  1.0000
  C   C869      1.0  0.85737  0.14688  0.16697  1.0000
  S   S245      1.0  0.69701  0.01408  0.05253  1.0000
  H   H993      1.0  0.57568  0.43981  0.10134  1.0000
  C   C870      1.0  0.85176  0.42797  0.09909  1.0000
  C   C871      1.0  0.82674  0.47603  0.09958  1.0000
  H   H994      1.0  0.66496  0.03737  0.15015  1.0000
  C   C872      1.0  0.84268  0.14200  0.17836  1.0000
  H   H995      1.0  0.78108  0.07393  0.17241  1.0000
  H   H996      1.0  0.95571  0.37807  0.07334  1.0000
  H   H997      1.0  0.47859  0.31567  0.07182  1.0000
  H   H998      1.0  0.56514  0.36092  0.06942  1.0000
  H   H999      1.0  0.90772  0.46546  0.07401  1.0000
  H   H1000     1.0  0.60956  0.41074  0.06996  1.0000
  H   H1001     1.0  0.61489  0.45053  0.08576  1.0000
  H   H1002     1.0  0.93620  0.39590  0.09990  1.0000
  C   C873      1.0  0.49318  0.33807  0.09394  1.0000
  Fe  Fe123     1.0  0.96946  0.24399  0.98768  1.0000
  H   H1003     1.0  0.79133  0.09251  0.11835  1.0000
  H   H1004     1.0  0.85718  0.46501  0.07319  1.0000
  H   H1005     1.0  0.92097  0.21468  0.17354  1.0000
  H   H1006     1.0  0.86362  0.20046  0.15715  1.0000
  N   N55       1.0  0.77580  0.08819  0.99934  1.0000
  H   H1007     1.0  0.90458  0.14979  0.15222  1.0000
  C   C874      1.0  0.95864  0.27883  0.15736  1.0000
  H   H1008     1.0  0.87393  0.08021  0.98886  1.0000
  H   H1009     1.0  0.76381  0.07981  0.10584  1.0000
  C   C875      1.0  0.96575  0.25297  0.13916  1.0000
  C   C876      1.0  0.77715  0.13870  0.11020  1.0000
  C   C877      1.0  0.78186  0.15230  0.13575  1.0000
  H   H1010     1.0  0.92952  0.29073  0.04378  1.0000
  C   C878      1.0  0.83282  0.37239  0.09651  1.0000
  H   H1011     1.0  0.52390  0.07807  0.06269  1.0000
  H   H1012     1.0  0.83526  0.35099  0.09821  1.0000
  Fe  Fe124     1.0  0.70968  0.00106  0.21218  1.0000
  H   H1013     1.0  0.87184  0.16161  0.05847  1.0000
  H   H1014     1.0  0.80076  0.14685  0.04331  1.0000
  C   C879      1.0  0.77244  0.10574  0.03302  1.0000
  H   H1015     1.0  0.50978  0.09829  0.07290  1.0000
  H   H1016     1.0  0.79363  0.35077  0.08456  1.0000
  C   C880      1.0  0.80952  0.37240  0.08874  1.0000
  H   H1017     1.0  0.79839  0.12716  0.98780  1.0000
  S   S246      1.0  0.95609  0.32538  0.08899  1.0000
  H   H1018     1.0  0.87410  0.11997  0.00523  1.0000
  H   H1019     1.0  0.74696  0.06824  0.02095  1.0000
  H   H1020     1.0  0.91321  0.14730  0.16797  1.0000
  C   C881      1.0  0.89901  0.19472  0.17549  1.0000
  H   H1021     1.0  0.94644  0.07358  0.19884  1.0000
  H   H1022     1.0  0.53058  0.44650  0.06577  1.0000
  S   S247      1.0  0.69930  0.02330  0.16878  1.0000
  H   H1023     1.0  0.94699  0.22522  0.03879  1.0000
  H   H1024     1.0  0.72708  0.07343  0.00174  1.0000
  H   H1025     1.0  0.90467  0.19034  0.06582  1.0000
  H   H1026     1.0  0.75600  0.04138  0.00600  1.0000
  Fe  Fe125     1.0  0.76972  0.00008  0.97372  1.0000
  H   H1027     1.0  0.50504  0.29219  0.08570  1.0000
  H   H1028     1.0  0.50622  0.10340  0.03897  1.0000
  C   C882      1.0  0.94112  0.44286  0.09711  1.0000
  C   C883      1.0  0.49997  0.33741  0.07249  1.0000
  H   H1029     1.0  0.94669  0.22534  0.05488  1.0000
  H   H1030     1.0  0.90230  0.17692  0.00413  1.0000
  S   S248      1.0  0.75403  0.99704  0.21588  1.0000
  Fe  Fe126     1.0  0.72103  0.00770  0.18455  1.0000
  H   H1031     1.0  0.49346  0.35715  0.07090  1.0000
  H   H1032     1.0  0.80487  0.11250  0.18902  1.0000
  H   H1033     1.0  0.77023  0.15848  0.11082  1.0000
  H   H1034     1.0  0.82608  0.02448  0.20114  1.0000
  H   H1035     1.0  0.95144  0.19448  0.04660  1.0000
  H   H1036     1.0  0.90315  0.21345  0.15319  1.0000
  H   H1037     1.0  0.77053  0.04438  0.99125  1.0000
  C   C884      1.0  0.95857  0.27116  0.01837  1.0000
  C   C885      1.0  0.93253  0.09117  0.21460  1.0000
  C   C886      1.0  0.67935  0.02787  0.14569  1.0000
  H   H1038     1.0  0.90596  0.13192  0.98073  1.0000
  C   C887      1.0  0.85533  0.47753  0.08157  1.0000
  C   C888      1.0  0.49510  0.02885  0.08419  1.0000
  H   H1039     1.0  0.51298  0.45683  0.10943  1.0000
  H   H1040     1.0  0.79418  0.17091  0.12978  1.0000
  C   C889      1.0  0.92997  0.41094  0.09422  1.0000
  C   C890      1.0  0.74779  0.09959  0.14008  1.0000
  S   S249      1.0  0.94566  0.25580  0.00355  1.0000
  N   N56       1.0  0.85078  0.00586  0.21252  1.0000
  C   C891      1.0  0.69846  0.01816  0.15276  1.0000
  C   C892      1.0  0.84286  0.12433  0.15761  1.0000
  C   C893      1.0  0.95442  0.27013  0.13175  1.0000
  C   C894      1.0  0.93795  0.27701  0.02590  1.0000
  C   C895      1.0  0.69384  0.01545  0.03649  1.0000
  H   H1041     1.0  0.75249  0.06561  0.12049  1.0000
  C   C896      1.0  0.84007  0.06753  0.97429  1.0000
  S   S250      1.0  0.76707  0.00502  0.18642  1.0000
  H   H1042     1.0  0.77062  0.14308  0.16615  1.0000
  C   C897      1.0  0.76608  0.09065  0.02164  1.0000
  S   S251      1.0  0.64696  0.00222  0.08112  1.0000
  H   H1043     1.0  0.95255  0.11304  0.21474  1.0000
  C   C898      1.0  0.95497  0.37227  0.06349  1.0000
  C   C899      1.0  0.69744  0.01352  0.12704  1.0000
  C   C900      1.0  0.82830  0.42889  0.09122  1.0000
  C   C901      1.0  0.78455  0.15970  0.14820  1.0000
  H   H1044     1.0  0.85262  0.12650  0.14873  1.0000
  C   C902      1.0  0.70309  0.99768  0.01655  1.0000
  H   H1045     1.0  0.47579  0.17543  0.07025  1.0000
  C   C903      1.0  0.88183  0.19243  0.15483  1.0000
  H   H1046     1.0  0.90413  0.18234  0.18313  1.0000
  S   S252      1.0  0.69898  0.01147  0.11098  1.0000
  H   H1047     1.0  0.53800  0.31718  0.09466  1.0000
  C   C904      1.0  0.94581  0.28670  0.03809  1.0000
  C   C905      1.0  0.78359  0.10437  0.01136  1.0000
  H   H1048     1.0  0.93309  0.18237  0.16006  1.0000
  C   C906      1.0  0.74521  0.08583  0.99520  1.0000
  C   C907      1.0  0.76704  0.08678  0.11566  1.0000
  H   H1049     1.0  0.91551  0.27352  0.02231  1.0000
  C   C908      1.0  0.52688  0.44882  0.07532  1.0000
  C   C909      1.0  0.75033  0.10726  0.15246  1.0000
  C   C910      1.0  0.81536  0.11609  0.18018  1.0000
  H   H1050     1.0  0.78874  0.39850  0.07991  1.0000
  S   S253      1.0  0.48075  0.07348  0.09600  1.0000
  H   H1051     1.0  0.80029  0.47907  0.07876  1.0000
  H   H1052     1.0  0.80215  0.14709  0.11229  1.0000
  H   H1053     1.0  0.95897  0.37958  0.03976  1.0000
  C   C911      1.0  0.80709  0.40015  0.08612  1.0000
  N   N57       1.0  0.88654  0.17378  0.16471  1.0000
  N   N58       1.0  0.75867  0.11322  0.11822  1.0000
  H   H1054     1.0  0.77378  0.13102  0.10047  1.0000
  H   H1055     1.0  0.87222  0.12676  0.04381  1.0000
  H   H1056     1.0  0.51422  0.33615  0.06483  1.0000
  H   H1057     1.0  0.73780  0.08973  0.15892  1.0000
  H   H1058     1.0  0.72177  0.09911  0.10485  1.0000
  H   H1059     1.0  0.83193  0.17226  0.02573  1.0000
  C   C912      1.0  0.86699  0.08756  0.98053  1.0000
  H   H1060     1.0  0.82193  0.14685  0.00589  1.0000
  N   N59       1.0  0.48468  0.08539  0.05578  1.0000
  C   C913      1.0  0.79796  0.10402  0.98978  1.0000
  C   C914      1.0  0.76872  0.13727  0.15653  1.0000
  H   H1061     1.0  0.79858  0.18311  0.15141  1.0000
  H   H1062     1.0  0.49213  0.02261  0.14309  1.0000
  H   H1063     1.0  0.80515  0.08121  0.15237  1.0000
  H   H1064     1.0  0.75858  0.09469  0.04071  1.0000
  C   C915      1.0  0.80206  0.09417  0.17087  1.0000
  Fe  Fe127     1.0  0.70612  0.99098  0.98183  1.0000
  H   H1065     1.0  0.95127  0.12395  0.98368  1.0000
  H   H1066     1.0  0.73314  0.07609  0.13740  1.0000
  H   H1067     1.0  0.54032  0.31370  0.07848  1.0000
  C   C916      1.0  0.81574  0.09832  0.15959  1.0000
  H   H1068     1.0  0.71059  0.08248  0.11929  1.0000
  C   C917      1.0  0.47704  0.00715  0.12439  1.0000
  C   C918      1.0  0.87165  0.12056  0.02473  1.0000
  H   H1069     1.0  0.71814  0.12253  0.11707  1.0000
  C   C919      1.0  0.72591  0.10391  0.11477  1.0000
  H   H1070     1.0  0.48451  0.40745  0.07526  1.0000
  C   C920      1.0  0.93238  0.46265  0.09010  1.0000
  H   H1071     1.0  0.86950  0.44894  0.10294  1.0000
  S   S254      1.0  0.81872  0.03040  0.98005  1.0000
  H   H1072     1.0  0.63571  0.00882  0.04956  1.0000
  H   H1073     1.0  0.85905  0.09568  0.02516  1.0000
  C   C921      1.0  0.54820  0.47404  0.08218  1.0000
  H   H1074     1.0  0.77851  0.44217  0.08506  1.0000
  C   C922      1.0  0.54297  0.47671  0.09452  1.0000
  H   H1075     1.0  0.71721  0.98547  0.03364  1.0000
  H   H1076     1.0  0.79684  0.05709  0.00395  1.0000
  H   H1077     1.0  0.93597  0.30467  0.13170  1.0000
  H   H1078     1.0  0.55850  0.00584  0.12211  1.0000
  H   H1079     1.0  0.71198  0.98397  0.01121  1.0000
  H   H1080     1.0  0.80710  0.46191  0.10524  1.0000
  H   H1081     1.0  0.54254  0.02124  0.14148  1.0000
  C   C923      1.0  0.71643  0.00365  0.13412  1.0000
  H   H1082     1.0  0.52326  0.99114  0.10424  1.0000
  H   H1083     1.0  0.53129  0.11768  0.05992  1.0000
  H   H1084     1.0  0.73178  0.99840  0.15222  1.0000
  C   C924      1.0  0.49792  0.01531  0.13450  1.0000
  S   S255      1.0  0.96153  0.28576  0.17331  1.0000
  C   C925      1.0  0.71698  0.00595  0.14690  1.0000
  H   H1085     1.0  0.60247  0.01120  0.04273  1.0000
  C   C926      1.0  0.53591  0.00598  0.12279  1.0000
  H   H1086     1.0  0.94899  0.05361  0.97981  1.0000
  Fe  Fe128     1.0  0.97260  0.19995  0.19703  1.0000
  C   C927      1.0  0.51596  0.99763  0.11272  1.0000
  C   C928      1.0  0.48692  0.99811  0.11345  1.0000
  C   C929      1.0  0.52688  0.01469  0.13367  1.0000
  H   H1087     1.0  0.50750  0.99506  0.07502  1.0000
  C   C930      1.0  0.48184  0.13509  0.06377  1.0000
  C   C931      1.0  0.97149  0.11954  0.98098  1.0000
  H   H1088     1.0  0.48410  0.35619  0.09311  1.0000
  H   H1089     1.0  0.81317  0.98338  0.19974  1.0000
  H   H1090     1.0  0.60333  0.00399  0.05853  1.0000
  H   H1091     1.0  0.58462  0.98312  0.02472  1.0000
  Fe  Fe129     1.0  0.66569  0.01849  0.29825  1.0000
  S   S256      1.0  0.68164  0.07009  0.29826  1.0000
  S   S257      1.0  0.68023  0.01082  0.22637  1.0000
  Fe  Fe130     1.0  0.64643  0.01421  0.32521  1.0000
  S   S258      1.0  0.66242  0.06581  0.32722  1.0000
  Fe  Fe131     1.0  0.63921  0.06193  0.30894  1.0000
  S   S259      1.0  0.60942  0.08833  0.30617  1.0000
  Fe  Fe132     1.0  0.70345  0.06931  0.31641  1.0000
  S   S260      1.0  0.75445  0.09672  0.32042  1.0000
  S   S261      1.0  0.68929  0.01771  0.31596  1.0000
  Fe  Fe133     1.0  0.88055  0.27136  0.31114  1.0000
  S   S262      1.0  0.92298  0.26489  0.31689  1.0000
  S   S263      1.0  0.82966  0.23937  0.30996  1.0000
  Fe  Fe134     1.0  0.91675  0.34175  0.30806  1.0000
  S   S264      1.0  0.90374  0.38096  0.30262  1.0000
  Fe  Fe135     1.0  0.94583  0.29744  0.30172  1.0000
  C   C932      1.0  0.67026  0.03364  0.44903  1.0000
  Fe  Fe136     1.0  0.93541  0.30842  0.32856  1.0000
  S   S265      1.0  0.90249  0.30058  0.29526  1.0000
  S   S266      1.0  0.89164  0.31289  0.32341  1.0000
  H   H1092     1.0  0.58690  0.01839  0.34661  1.0000
  H   H1093     1.0  0.90529  0.35316  0.27868  1.0000
  H   H1094     1.0  0.93168  0.36870  0.24615  1.0000
  C   C933      1.0  0.48163  0.99296  0.38997  1.0000
  C   C934      1.0  0.77520  0.13595  0.31680  1.0000
  C   C935      1.0  0.80740  0.14890  0.31785  1.0000
  C   C936      1.0  0.82463  0.18033  0.31545  1.0000
  C   C937      1.0  0.80968  0.19917  0.31217  1.0000
  C   C938      1.0  0.77752  0.18600  0.31088  1.0000
  C   C939      1.0  0.76032  0.15451  0.31313  1.0000
  H   H1095     1.0  0.81906  0.13463  0.32065  1.0000
  H   H1096     1.0  0.84939  0.18994  0.31621  1.0000
  H   H1097     1.0  0.76580  0.20040  0.30830  1.0000
  H   H1098     1.0  0.73555  0.14483  0.31230  1.0000
  C   C940      1.0  0.78491  0.08519  0.24344  1.0000
  H   H1099     1.0  0.97030  0.41765  0.30431  1.0000
  C   C941      1.0  0.65725  0.99417  0.37263  1.0000
  C   C942      1.0  0.92683  0.42110  0.30255  1.0000
  C   C943      1.0  0.91234  0.44141  0.30109  1.0000
  H   H1100     1.0  0.72128  0.08502  0.46916  1.0000
  H   H1101     1.0  0.88755  0.43227  0.30053  1.0000
  C   C944      1.0  0.80106  0.11168  0.25056  1.0000
  C   C945      1.0  0.57969  0.46443  0.30690  1.0000
  H   H1102     1.0  0.66750  0.04625  0.46771  1.0000
  C   C946      1.0  0.52806  0.46099  0.30301  1.0000
  C   C947      1.0  0.51526  0.42941  0.30577  1.0000
  C   C948      1.0  0.53483  0.41549  0.30929  1.0000
  C   C949      1.0  0.56688  0.43297  0.30988  1.0000
  H   H1103     1.0  0.53846  0.04143  0.32724  1.0000
  H   H1104     1.0  0.52533  0.39122  0.31145  1.0000
  H   H1105     1.0  0.58185  0.42195  0.31253  1.0000
  C   C950      1.0  0.50468  0.03714  0.30302  1.0000
  C   C951      1.0  0.52349  0.02119  0.30124  1.0000
  C   C952      1.0  0.55551  0.03655  0.30250  1.0000
  C   C953      1.0  0.56914  0.06831  0.30513  1.0000
  C   C954      1.0  0.55039  0.08444  0.30678  1.0000
  C   C955      1.0  0.51817  0.06882  0.30590  1.0000
  H   H1106     1.0  0.56080  0.10908  0.30881  1.0000
  H   H1107     1.0  0.50385  0.08135  0.30724  1.0000
  H   H1108     1.0  0.60835  0.04084  0.28404  1.0000
  H   H1109     1.0  0.95192  0.35285  0.22828  1.0000
  H   H1110     1.0  0.72390  0.04932  0.28228  1.0000
  H   H1111     1.0  0.74454  0.13331  0.34347  1.0000
  H   H1112     1.0  0.79162  0.12913  0.35093  1.0000
  C   C956      1.0  0.67817  0.99777  0.26754  1.0000
  C   C957      1.0  0.68204  0.05033  0.45989  1.0000
  H   H1113     1.0  0.78857  0.08513  0.23375  1.0000
  H   H1114     1.0  0.63510  0.99023  0.41775  1.0000
  C   C958      1.0  0.75568  0.10994  0.28409  1.0000
  C   C959      1.0  0.59825  0.01159  0.24841  1.0000
  C   C960      1.0  0.92962  0.47343  0.30026  1.0000
  C   C961      1.0  0.96315  0.36208  0.25926  1.0000
  C   C962      1.0  0.96317  0.36564  0.28173  1.0000
  C   C963      1.0  0.95708  0.43142  0.46106  1.0000
  H   H1115     1.0  0.80856  0.13332  0.26810  1.0000
  H   H1116     1.0  0.94345  0.31421  0.37543  1.0000
  H   H1117     1.0  0.82055  0.02031  0.22278  1.0000
  C   C964      1.0  0.95328  0.40244  0.26972  1.0000
  H   H1118     1.0  0.75535  0.03825  0.28522  1.0000
  H   H1119     1.0  0.53083  0.98788  0.32077  1.0000
  H   H1120     1.0  0.83964  0.17517  0.35350  1.0000
  H   H1121     1.0  0.79248  0.23068  0.34030  1.0000
  H   H1122     1.0  0.53792  0.01451  0.26452  1.0000
  C   C965      1.0  0.59339  0.01407  0.26102  1.0000
  H   H1123     1.0  0.64662  0.01709  0.44908  1.0000
  H   H1124     1.0  0.58320  0.08226  0.26195  1.0000
  H   H1125     1.0  0.59798  0.02843  0.24199  1.0000
  C   C966      1.0  0.68330  0.00752  0.24227  1.0000
  H   H1126     1.0  0.55016  0.04519  0.27591  1.0000
  H   H1127     1.0  0.49834  0.47076  0.33852  1.0000
  H   H1128     1.0  0.49008  0.40779  0.33046  1.0000
  N   N60       1.0  0.94934  0.36974  0.27008  1.0000
  H   H1129     1.0  0.66955  0.03890  0.26856  1.0000
  C   C967      1.0  0.95890  0.43308  0.30319  1.0000
  H   H1130     1.0  0.57845  0.47215  0.34713  1.0000
  S   S267      1.0  0.62133  0.01032  0.30733  1.0000
  C   C968      1.0  0.56006  0.47838  0.30351  1.0000
  H   H1131     1.0  0.59174  0.99089  0.27816  1.0000
  H   H1132     1.0  0.80954  0.08068  0.28709  1.0000
  H   H1133     1.0  0.77203  0.13387  0.28207  1.0000
  H   H1134     1.0  0.56959  0.02386  0.30122  1.0000
  H   H1135     1.0  0.94638  0.44650  0.45812  1.0000
  H   H1136     1.0  0.55301  0.47408  0.33520  1.0000
  H   H1137     1.0  0.71781  0.01261  0.42401  1.0000
  H   H1138     1.0  0.91209  0.10395  0.22972  1.0000
  H   H1139     1.0  0.47809  0.38731  0.34410  1.0000
  H   H1140     1.0  0.79395  0.09587  0.29903  1.0000
  H   H1141     1.0  0.67333  0.04712  0.24630  1.0000
  H   H1142     1.0  0.55370  0.00981  0.27878  1.0000
  C   C969      1.0  0.96243  0.35371  0.23715  1.0000
  C   C970      1.0  0.71972  0.06002  0.43990  1.0000
  H   H1143     1.0  0.81434  0.12042  0.28729  1.0000
  C   C971      1.0  0.65181  0.99732  0.36021  1.0000
  N   N61       1.0  0.58690  0.03961  0.26641  1.0000
  C   C972      1.0  0.48577  0.99538  0.33443  1.0000
  C   C973      1.0  0.58781  0.06325  0.25755  1.0000
  H   H1144     1.0  0.57004  0.05311  0.25019  1.0000
  H   H1145     1.0  0.84056  0.00196  0.23158  1.0000
  C   C974      1.0  0.69261  0.99987  0.42485  1.0000
  H   H1146     1.0  0.75493  0.09333  0.45154  1.0000
  S   S268      1.0  0.93979  0.31030  0.34942  1.0000
  H   H1147     1.0  0.91198  0.32469  0.26957  1.0000
  H   H1148     1.0  0.86988  0.21903  0.36364  1.0000
  C   C975      1.0  0.48626  0.41080  0.34026  1.0000
  H   H1149     1.0  0.51312  0.99667  0.29898  1.0000
  N   N62       1.0  0.76882  0.08687  0.28189  1.0000
  H   H1150     1.0  0.67361  0.05979  0.41830  1.0000
  H   H1151     1.0  0.74184  0.03759  0.26469  1.0000
  S   S269      1.0  0.96166  0.34071  0.31385  1.0000
  H   H1152     1.0  0.48087  0.47355  0.40462  1.0000
  H   H1153     1.0  0.96089  0.34139  0.28259  1.0000
  H   H1154     1.0  0.84682  0.23923  0.36824  1.0000
  H   H1155     1.0  0.59674  0.99792  0.46979  1.0000
  C   C976      1.0  0.71235  0.07202  0.46074  1.0000
  H   H1156     1.0  0.51313  0.47197  0.30024  1.0000
  C   C977      1.0  0.68345  0.04244  0.41671  1.0000
  C   C978      1.0  0.67725  0.02809  0.25009  1.0000
  C   C979      1.0  0.96149  0.26847  0.24724  1.0000
  H   H1157     1.0  0.75094  0.03842  0.24313  1.0000
  H   H1158     1.0  0.74379  0.05840  0.29658  1.0000
  H   H1159     1.0  0.63032  0.01609  0.42870  1.0000
  H   H1160     1.0  0.73451  0.10446  0.27841  1.0000
  C   C980      1.0  0.59491  0.99054  0.26848  1.0000
  H   H1161     1.0  0.88496  0.25990  0.36272  1.0000
  H   H1162     1.0  0.91786  0.27063  0.25010  1.0000
  H   H1163     1.0  0.94312  0.40893  0.27778  1.0000
  H   H1164     1.0  0.66862  0.01555  0.35512  1.0000
  C   C981      1.0  0.54541  0.98829  0.32878  1.0000
  C   C982      1.0  0.76377  0.05884  0.24876  1.0000
  H   H1165     1.0  0.73537  0.06406  0.43251  1.0000
  C   C983      1.0  0.75867  0.05879  0.26123  1.0000
  C   C984      1.0  0.67498  0.02343  0.26269  1.0000
  H   H1166     1.0  0.74945  0.11048  0.29375  1.0000
  C   C985      1.0  0.76545  0.15405  0.34494  1.0000
  H   H1167     1.0  0.60960  0.98649  0.23414  1.0000
  C   C986      1.0  0.97120  0.28104  0.27265  1.0000
  H   H1168     1.0  0.67836  0.01009  0.37702  1.0000
  C   C987      1.0  0.68870  0.03834  0.43860  1.0000
  N   N63       1.0  0.54123  0.00651  0.33911  1.0000
  C   C988      1.0  0.60985  0.05580  0.27622  1.0000
  C   C989      1.0  0.64351  0.00191  0.42675  1.0000
  H   H1169     1.0  0.92609  0.28079  0.27234  1.0000
  C   C990      1.0  0.50847  0.99318  0.34241  1.0000
  C   C991      1.0  0.94371  0.27824  0.26701  1.0000
  H   H1170     1.0  0.54705  0.05346  0.34283  1.0000
  H   H1171     1.0  0.81740  0.13218  0.24634  1.0000
  C   C992      1.0  0.91602  0.34956  0.27021  1.0000
  H   H1172     1.0  0.90291  0.35402  0.26264  1.0000
  C   C993      1.0  0.95083  0.36238  0.24746  1.0000
  C   C994      1.0  0.55588  0.02675  0.27162  1.0000
  S   S270      1.0  0.95467  0.26273  0.23127  1.0000
  H   H1173     1.0  0.74560  0.18427  0.33828  1.0000
  N   N64       1.0  0.67709  0.02094  0.42697  1.0000
  H   H1174     1.0  0.63363  0.06419  0.27284  1.0000
  C   C995      1.0  0.93902  0.27225  0.25439  1.0000
  C   C996      1.0  0.79795  0.09637  0.28907  1.0000
  C   C997      1.0  0.79594  0.11200  0.26302  1.0000
  C   C998      1.0  0.60462  0.98727  0.24369  1.0000
  C   C999      1.0  0.74707  0.05687  0.28663  1.0000
  C   C1000     1.0  0.77459  0.08553  0.26876  1.0000
  H   H1175     1.0  0.67333  0.02981  0.40797  1.0000
  N   N65       1.0  0.85046  0.23559  0.34890  1.0000
  C   C1001     1.0  0.87257  0.23240  0.34031  1.0000
  C   C1002     1.0  0.84771  0.26507  0.34633  1.0000
  C   C1003     1.0  0.86344  0.23843  0.36143  1.0000
  C   C1004     1.0  0.82097  0.20800  0.34765  1.0000
  C   C1005     1.0  0.79342  0.20944  0.34323  1.0000
  C   C1006     1.0  0.81945  0.17826  0.35050  1.0000
  C   C1007     1.0  0.76611  0.18280  0.34200  1.0000
  C   C1008     1.0  0.79208  0.15176  0.34913  1.0000
  H   H1176     1.0  0.49156  0.00608  0.32572  1.0000
  H   H1177     1.0  0.86424  0.23153  0.33078  1.0000
  H   H1178     1.0  0.89533  0.25230  0.34122  1.0000
  H   H1179     1.0  0.87662  0.21119  0.34172  1.0000
  H   H1180     1.0  0.83130  0.26900  0.35245  1.0000
  H   H1181     1.0  0.84023  0.26556  0.33672  1.0000
  H   H1182     1.0  0.87017  0.28540  0.34760  1.0000
  C   C1009     1.0  0.50889  0.99292  0.38549  1.0000
  C   C1010     1.0  0.73122  0.07672  0.45079  1.0000
  H   H1183     1.0  0.61079  0.07422  0.25342  1.0000
  H   H1184     1.0  0.60663  0.07619  0.28007  1.0000
  C   C1011     1.0  0.55093  0.03916  0.33547  1.0000
  H   H1185     1.0  0.50882  0.42516  0.34468  1.0000
  H   H1186     1.0  0.57569  0.04999  0.33317  1.0000
  H   H1187     1.0  0.70833  0.05502  0.41511  1.0000
  H   H1188     1.0  0.52219  0.01039  0.37919  1.0000
  H   H1189     1.0  0.59128  0.47887  0.33202  1.0000
  H   H1190     1.0  0.94191  0.40703  0.26158  1.0000
  C   C1012     1.0  0.47523  0.45435  0.33518  1.0000
  H   H1191     1.0  0.56967  0.99788  0.32583  1.0000
  H   H1192     1.0  0.95175  0.37070  0.28969  1.0000
  C   C1013     1.0  0.96662  0.32128  0.37231  1.0000
  C   C1014     1.0  0.97180  0.32169  0.35975  1.0000
  H   H1193     1.0  0.97244  0.26678  0.46519  1.0000
  S   S271      1.0  0.67207  0.98870  0.28306  1.0000
  C   C1015     1.0  0.56239  0.00649  0.34916  1.0000
  H   H1194     1.0  0.47763  0.48016  0.35587  1.0000
  H   H1195     1.0  0.55950  0.01870  0.35743  1.0000
  H   H1196     1.0  0.47494  0.01076  0.38672  1.0000
  H   H1197     1.0  0.68400  0.98574  0.41630  1.0000
  H   H1198     1.0  0.47738  0.45014  0.32531  1.0000
  H   H1199     1.0  0.63729  0.98312  0.43340  1.0000
  H   H1200     1.0  0.86592  0.05661  0.22907  1.0000
  C   C1016     1.0  0.68817  0.98287  0.24723  1.0000
  S   S272      1.0  0.47472  0.40901  0.30507  1.0000
  H   H1201     1.0  0.55934  0.98260  0.35145  1.0000
  C   C1017     1.0  0.94639  0.41326  0.47127  1.0000
  H   H1202     1.0  0.54750  0.47955  0.43613  1.0000
  C   C1018     1.0  0.61057  0.98538  0.47207  1.0000
  C   C1019     1.0  0.90967  0.08598  0.22303  1.0000
  C   C1020     1.0  0.88311  0.05846  0.22252  1.0000
  H   H1203     1.0  0.68857  0.98346  0.43241  1.0000
  C   C1021     1.0  0.82937  0.00183  0.22263  1.0000
  H   H1204     1.0  0.51855  0.27137  0.54761  1.0000
  S   S273      1.0  0.90540  0.29862  0.54423  1.0000
  C   C1022     1.0  0.75739  0.02759  0.48114  1.0000
  S   S274      1.0  0.91147  0.28760  0.51462  1.0000
  Fe  Fe137     1.0  0.91302  0.32608  0.52727  1.0000
  S   S275      1.0  0.88698  0.35593  0.52381  1.0000
  Fe  Fe138     1.0  0.90792  0.26128  0.53188  1.0000
  S   S276      1.0  0.87706  0.21037  0.53512  1.0000
  C   C1023     1.0  0.94918  0.39299  0.55333  1.0000
  H   H1205     1.0  0.62270  0.42965  0.53968  1.0000
  S   S277      1.0  0.66388  0.07655  0.53967  1.0000
  H   H1206     1.0  0.51126  0.00366  0.51736  1.0000
  S   S278      1.0  0.66343  0.06148  0.51055  1.0000
  Fe  Fe139     1.0  0.69910  0.08252  0.52551  1.0000
  S   S279      1.0  0.73623  0.12970  0.52068  1.0000
  Fe  Fe140     1.0  0.62858  0.05218  0.52501  1.0000
  S   S280      1.0  0.58931  0.06475  0.51973  1.0000
  S   S281      1.0  0.70154  0.03694  0.52920  1.0000
  H   H1207     1.0  0.92765  0.41555  0.47592  1.0000
  C   C1024     1.0  0.93786  0.44973  0.55639  1.0000
  C   C1025     1.0  0.83698  0.19004  0.53201  1.0000
  C   C1026     1.0  0.82082  0.16175  0.53769  1.0000
  C   C1027     1.0  0.78951  0.14377  0.53488  1.0000
  C   C1028     1.0  0.77418  0.15343  0.52605  1.0000
  C   C1029     1.0  0.79020  0.18194  0.52050  1.0000
  C   C1030     1.0  0.82132  0.20025  0.52351  1.0000
  H   H1208     1.0  0.83268  0.15370  0.54432  1.0000
  H   H1209     1.0  0.77747  0.12213  0.53935  1.0000
  H   H1210     1.0  0.77860  0.18973  0.51368  1.0000
  H   H1211     1.0  0.83339  0.22188  0.51904  1.0000
  C   C1031     1.0  0.50598  0.04024  0.54364  1.0000
  C   C1032     1.0  0.51044  0.06034  0.53404  1.0000
  C   C1033     1.0  0.53663  0.06838  0.52700  1.0000
  C   C1034     1.0  0.55811  0.05583  0.52935  1.0000
  C   C1035     1.0  0.55355  0.03543  0.53887  1.0000
  C   C1036     1.0  0.52750  0.02770  0.54602  1.0000
  H   H1212     1.0  0.57783  0.33479  0.52827  1.0000
  S   S282      1.0  0.67049  0.01353  0.56166  1.0000
  H   H1213     1.0  0.56985  0.02536  0.54062  1.0000
  C   C1037     1.0  0.95951  0.39268  0.47514  1.0000
  C   C1038     1.0  0.94104  0.46059  0.52143  1.0000
  H   H1214     1.0  0.56513  0.00212  0.59964  1.0000
  C   C1039     1.0  0.93952  0.40861  0.52081  1.0000
  C   C1040     1.0  0.90787  0.39610  0.52244  1.0000
  C   C1041     1.0  0.89269  0.41594  0.52326  1.0000
  C   C1042     1.0  0.90927  0.44820  0.52282  1.0000
  H   H1215     1.0  0.61245  0.03999  0.59180  1.0000
  C   C1043     1.0  0.91586  0.24319  0.70164  1.0000
  H   H1216     1.0  0.86813  0.40639  0.52444  1.0000
  C   C1044     1.0  0.72098  0.04541  0.48950  1.0000
  C   C1045     1.0  0.51194  0.41302  0.54098  1.0000
  C   C1046     1.0  0.51718  0.39806  0.53078  1.0000
  C   C1047     1.0  0.54318  0.41336  0.52378  1.0000
  C   C1048     1.0  0.56379  0.44372  0.52692  1.0000
  C   C1049     1.0  0.55783  0.45898  0.53686  1.0000
  C   C1050     1.0  0.53201  0.44364  0.54387  1.0000
  H   H1217     1.0  0.51112  0.32282  0.56051  1.0000
  H   H1218     1.0  0.54787  0.40146  0.51613  1.0000
  H   H1219     1.0  0.70917  0.00813  0.47633  1.0000
  H   H1220     1.0  0.52791  0.45548  0.55166  1.0000
  H   H1221     1.0  0.52383  0.01169  0.55331  1.0000
  C   C1051     1.0  0.53571  0.01409  0.58773  1.0000
  H   H1222     1.0  0.82849  0.06768  0.50627  1.0000
  H   H1223     1.0  0.93090  0.32389  0.48967  1.0000
  H   H1224     1.0  0.93501  0.27688  0.68781  1.0000
  C   C1052     1.0  0.55665  0.37425  0.54997  1.0000
  C   C1053     1.0  0.72751  0.02553  0.48173  1.0000
  H   H1225     1.0  0.57362  0.48235  0.53936  1.0000
  H   H1226     1.0  0.52550  0.45813  0.61209  1.0000
  C   C1054     1.0  0.78082  0.04920  0.48848  1.0000
  Fe  Fe141     1.0  0.66383  0.02937  0.54264  1.0000
  H   H1227     1.0  0.76223  0.01182  0.47514  1.0000
  H   H1228     1.0  0.68118  0.99849  0.58590  1.0000
  C   C1055     1.0  0.89562  0.38141  0.55588  1.0000
  H   H1229     1.0  0.78374  0.05938  0.51970  1.0000
  H   H1230     1.0  0.84169  0.18449  0.71919  1.0000
  C   C1056     1.0  0.92178  0.37499  0.49165  1.0000
  H   H1231     1.0  0.80330  0.04916  0.48771  1.0000
  H   H1232     1.0  0.88903  0.35684  0.55290  1.0000
  S   S283      1.0  0.59765  0.46165  0.51879  1.0000
  H   H1233     1.0  0.49413  0.07038  0.53225  1.0000
  H   H1234     1.0  0.93361  0.23496  0.70024  1.0000
  H   H1235     1.0  0.73765  0.08152  0.50292  1.0000
  C   C1057     1.0  0.93418  0.42757  0.56544  1.0000
  H   H1236     1.0  0.55494  0.29167  0.54087  1.0000
  H   H1237     1.0  0.89754  0.46344  0.52366  1.0000
  H   H1238     1.0  0.55120  0.03199  0.49522  1.0000
  H   H1239     1.0  0.85368  0.23650  0.71822  1.0000
  C   C1058     1.0  0.56402  0.01703  0.59245  1.0000
  C   C1059     1.0  0.89308  0.23094  0.71056  1.0000
  H   H1240     1.0  0.92746  0.39879  0.49533  1.0000
  C   C1060     1.0  0.52791  0.03201  0.49547  1.0000
  C   C1061     1.0  0.47472  0.00475  0.50002  1.0000
  H   H1241     1.0  0.54035  0.08458  0.51977  1.0000
  H   H1242     1.0  0.52872  0.30411  0.52393  1.0000
  C   C1062     1.0  0.78874  0.08396  0.51780  1.0000
  C   C1063     1.0  0.91562  0.19409  0.71630  1.0000
  Fe  Fe142     1.0  0.96262  0.30647  0.51806  1.0000
  H   H1243     1.0  0.60302  0.98589  0.56309  1.0000
  H   H1244     1.0  0.85636  0.27893  0.70532  1.0000
  C   C1064     1.0  0.64457  0.99410  0.57328  1.0000
  C   C1065     1.0  0.93905  0.33969  0.48189  1.0000
  H   H1245     1.0  0.51472  0.99696  0.59122  1.0000
  C   C1066     1.0  0.74414  0.06710  0.49686  1.0000
  H   H1246     1.0  0.95139  0.39366  0.51999  1.0000
  S   S284      1.0  0.62561  0.00457  0.52893  1.0000
  C   C1067     1.0  0.53496  0.47023  0.60391  1.0000
  H   H1247     1.0  0.52930  0.04930  0.50266  1.0000
  H   H1248     1.0  0.47462  0.47322  0.57945  1.0000
  N   N66       1.0  0.61981  0.08068  0.57326  1.0000
  C   C1068     1.0  0.61546  0.09627  0.56223  1.0000
  C   C1069     1.0  0.63562  0.10482  0.58274  1.0000
  C   C1070     1.0  0.64019  0.06519  0.56997  1.0000
  C   C1071     1.0  0.59072  0.05794  0.57808  1.0000
  C   C1072     1.0  0.56140  0.05486  0.57368  1.0000
  C   C1073     1.0  0.59115  0.03873  0.58778  1.0000
  H   H1249     1.0  0.49392  0.33530  0.54812  1.0000
  C   C1074     1.0  0.53440  0.03316  0.57846  1.0000
  C   C1075     1.0  0.53803  0.29456  0.54703  1.0000
  H   H1250     1.0  0.60250  0.11069  0.56416  1.0000
  H   H1251     1.0  0.63777  0.11213  0.55849  1.0000
  H   H1252     1.0  0.60316  0.07912  0.55482  1.0000
  H   H1253     1.0  0.62078  0.11660  0.58567  1.0000
  H   H1254     1.0  0.65740  0.12278  0.57942  1.0000
  H   H1255     1.0  0.64170  0.09496  0.59095  1.0000
  H   H1256     1.0  0.62869  0.04606  0.56317  1.0000
  H   H1257     1.0  0.66200  0.08146  0.56603  1.0000
  H   H1258     1.0  0.64740  0.05523  0.57785  1.0000
  H   H1259     1.0  0.55853  0.06862  0.56645  1.0000
  H   H1260     1.0  0.94866  0.38356  0.57715  1.0000
  H   H1261     1.0  0.90164  0.36822  0.48528  1.0000
  H   H1262     1.0  0.49213  0.28668  0.53049  1.0000
  C   C1076     1.0  0.55385  0.34859  0.54234  1.0000
  H   H1263     1.0  0.69755  0.04328  0.49011  1.0000
  H   H1264     1.0  0.95817  0.33518  0.47801  1.0000
  C   C1077     1.0  0.65658  0.98992  0.58453  1.0000
  H   H1265     1.0  0.96599  0.27412  0.48725  1.0000
  H   H1266     1.0  0.97280  0.40307  0.55742  1.0000
  H   H1267     1.0  0.92030  0.33246  0.47484  1.0000
  S   S285      1.0  0.95963  0.27784  0.53461  1.0000
  H   H1268     1.0  0.92108  0.35082  0.56920  1.0000
  C   C1078     1.0  0.53602  0.46709  0.58196  1.0000
  N   N67       1.0  0.89132  0.20543  0.71855  1.0000
  C   C1079     1.0  0.60253  0.38219  0.53330  1.0000
  C   C1080     1.0  0.77475  0.06944  0.49670  1.0000
  H   H1269     1.0  0.81915  0.14068  0.50913  1.0000
  C   C1081     1.0  0.82916  0.09080  0.50405  1.0000
  H   H1270     1.0  0.50888  0.42923  0.59300  1.0000
  H   H1271     1.0  0.84630  0.10786  0.51047  1.0000
  H   H1272     1.0  0.90782  0.37321  0.57883  1.0000
  C   C1082     1.0  0.52513  0.45327  0.59297  1.0000
  N   N68       1.0  0.94849  0.37256  0.48573  1.0000
  H   H1273     1.0  0.49180  0.41469  0.49519  1.0000
  H   H1274     1.0  0.94397  0.36860  0.55065  1.0000
  S   S286      1.0  0.96382  0.34634  0.52967  1.0000
  H   H1275     1.0  0.93495  0.42320  0.58525  1.0000
  C   C1083     1.0  0.57796  0.35330  0.53417  1.0000
  H   H1276     1.0  0.53949  0.37320  0.55642  1.0000
  H   H1277     1.0  0.48967  0.41030  0.47304  1.0000
  C   C1084     1.0  0.92595  0.37500  0.57230  1.0000
  C   C1085     1.0  0.87155  0.24447  0.71162  1.0000
  C   C1086     1.0  0.60418  0.40699  0.54068  1.0000
  H   H1278     1.0  0.89686  0.29941  0.69011  1.0000
  C   C1087     1.0  0.95604  0.44071  0.52030  1.0000
  H   H1279     1.0  0.76766  0.08754  0.51981  1.0000
  C   C1088     1.0  0.93776  0.43838  0.57774  1.0000
  H   H1280     1.0  0.50679  0.32662  0.52646  1.0000
  H   H1281     1.0  0.48299  0.29499  0.55073  1.0000
  H   H1282     1.0  0.58264  0.42254  0.55464  1.0000
  C   C1089     1.0  0.80206  0.12350  0.50272  1.0000
  C   C1090     1.0  0.91701  0.26754  0.69438  1.0000
  N   N69       1.0  0.92639  0.39483  0.56193  1.0000
  H   H1283     1.0  0.83831  0.09702  0.49479  1.0000
  H   H1284     1.0  0.67328  0.99666  0.68454  1.0000
  H   H1285     1.0  0.85755  0.17073  0.70696  1.0000
  C   C1091     1.0  0.58151  0.40293  0.54909  1.0000
  H   H1286     1.0  0.62018  0.38564  0.52671  1.0000
  H   H1287     1.0  0.50185  0.37445  0.52855  1.0000
  H   H1288     1.0  0.52345  0.04071  0.48665  1.0000
  Fe  Fe143     1.0  0.66297  0.01564  0.51526  1.0000
  H   H1289     1.0  0.80964  0.13017  0.49332  1.0000
  C   C1092     1.0  0.86124  0.17877  0.71665  1.0000
  N   N70       1.0  0.79844  0.09146  0.50510  1.0000
  H   H1290     1.0  0.93474  0.44317  0.54686  1.0000
  C   C1093     1.0  0.50290  0.31797  0.55088  1.0000
  N   N71       1.0  0.52741  0.31811  0.54271  1.0000
  C   C1094     1.0  0.62630  0.99118  0.48340  1.0000
  H   H1291     1.0  0.51229  0.03087  0.57479  1.0000
  H   H1292     1.0  0.62447  0.00797  0.48976  1.0000
  N   N72       1.0  0.50374  0.00101  0.49789  1.0000
  H   H1293     1.0  0.91405  0.35935  0.49951  1.0000
  S   S287      1.0  0.48177  0.39379  0.55079  1.0000
  H   H1294     1.0  0.96734  0.28622  0.57424  1.0000
  H   H1295     1.0  0.87767  0.38220  0.56201  1.0000
  H   H1296     1.0  0.78037  0.12653  0.50383  1.0000
  H   H1297     1.0  0.80666  0.09883  0.52448  1.0000
  H   H1298     1.0  0.54918  0.30106  0.55621  1.0000
  C   C1095     1.0  0.51327  0.30858  0.53038  1.0000
  C   C1096     1.0  0.89562  0.28034  0.69570  1.0000
  H   H1299     1.0  0.89460  0.39390  0.54756  1.0000
  H   H1300     1.0  0.52839  0.45375  0.57352  1.0000
  Fe  Fe144     1.0  0.95680  0.31665  0.54599  1.0000
  C   C1097     1.0  0.87288  0.26878  0.70428  1.0000
  H   H1301     1.0  0.49617  0.44086  0.51280  1.0000
  H   H1302     1.0  0.91408  0.18483  0.70684  1.0000
  H   H1303     1.0  0.94956  0.40488  0.54475  1.0000
  H   H1304     1.0  0.93891  0.21288  0.71794  1.0000
  C   C1098     1.0  0.94518  0.46957  0.58067  1.0000
  H   H1305     1.0  0.68517  0.98480  0.70541  1.0000
  H   H1306     1.0  0.85948  0.15879  0.72227  1.0000
  H   H1307     1.0  0.96625  0.36608  0.50310  1.0000
  H   H1308     1.0  0.47887  0.47661  0.69120  1.0000
  H   H1309     1.0  0.48247  0.47833  0.64873  1.0000
  C   C1099     1.0  0.51205  0.98958  0.50927  1.0000
  H   H1310     1.0  0.94774  0.47734  0.59010  1.0000
  H   H1311     1.0  0.53580  0.99075  0.50926  1.0000
  C   C1100     1.0  0.94556  0.48084  0.55941  1.0000
  H   H1312     1.0  0.47692  0.02063  0.50792  1.0000
  S   S288      1.0  0.47458  0.03184  0.55313  1.0000
  C   C1101     1.0  0.47412  0.44215  0.51513  1.0000
  H   H1313     1.0  0.54843  0.98292  0.49002  1.0000
  H   H1314     1.0  0.47466  0.44433  0.52523  1.0000
  H   H1315     1.0  0.47432  0.46392  0.51139  1.0000
  C   C1102     1.0  0.61270  0.98304  0.57168  1.0000
  Fe  Fe145     1.0  0.75102  0.00967  0.74600  1.0000
  H   H1316     1.0  0.92950  0.29496  0.92101  1.0000
  S   S289      1.0  0.78916  0.05457  0.73961  1.0000
  C   C1103     1.0  0.92561  0.24161  0.78980  1.0000
  C   C1104     1.0  0.88896  0.05387  0.95585  1.0000
  C   C1105     1.0  0.90962  0.08436  0.75881  1.0000
  Fe  Fe146     1.0  0.94887  0.19813  0.75799  1.0000
  H   H1317     1.0  0.66119  0.01290  0.81509  1.0000
  S   S290      1.0  0.90487  0.16250  0.76588  1.0000
  C   C1106     1.0  0.90353  0.04335  0.73944  1.0000
  C   C1107     1.0  0.95700  0.21526  0.79543  1.0000
  H   H1318     1.0  0.89008  0.20847  0.80787  1.0000
  H   H1319     1.0  0.94910  0.07539  0.73484  1.0000
  H   H1320     1.0  0.94717  0.19897  0.78753  1.0000
  H   H1321     1.0  0.94056  0.32497  0.90258  1.0000
  S   S291      1.0  0.97051  0.20042  0.73985  1.0000
  H   H1322     1.0  0.91238  0.18651  0.81083  1.0000
  H   H1323     1.0  0.84383  0.11259  0.95008  1.0000
  H   H1324     1.0  0.81424  0.98844  0.73161  1.0000
  N   N73       1.0  0.93477  0.22709  0.80010  1.0000
  C   C1108     1.0  0.88252  0.05761  0.75721  1.0000
  N   N74       1.0  0.85022  0.00777  0.74534  1.0000
  H   H1325     1.0  0.96416  0.20250  0.80230  1.0000
  S   S292      1.0  0.73719  0.02049  0.96762  1.0000
  C   C1109     1.0  0.94858  0.24852  0.81063  1.0000
  H   H1326     1.0  0.81076  0.06186  0.95856  1.0000
  C   C1110     1.0  0.87741  0.12563  0.96477  1.0000
  H   H1327     1.0  0.91577  0.22498  0.78198  1.0000
  C   C1111     1.0  0.83138  0.07708  0.96347  1.0000
  C   C1112     1.0  0.61426  0.04273  0.79426  1.0000
  C   C1113     1.0  0.82157  0.08363  0.74720  1.0000
  C   C1114     1.0  0.82364  0.08773  0.75983  1.0000
  C   C1115     1.0  0.84925  0.11201  0.76536  1.0000
  C   C1116     1.0  0.87325  0.13222  0.75838  1.0000
  C   C1117     1.0  0.87152  0.12766  0.74577  1.0000
  C   C1118     1.0  0.84571  0.10368  0.74022  1.0000
  H   H1328     1.0  0.80523  0.07262  0.76532  1.0000
  C   C1119     1.0  0.95913  0.23820  0.82108  1.0000
  H   H1329     1.0  0.89007  0.14254  0.74032  1.0000
  H   H1330     1.0  0.84442  0.10053  0.73045  1.0000
  C   C1120     1.0  0.93045  0.07027  0.74110  1.0000
  H   H1331     1.0  0.95241  0.14316  0.96244  1.0000
  S   S293      1.0  0.95530  0.24779  0.75765  1.0000
  H   H1332     1.0  0.85151  0.00857  0.72569  1.0000
  H   H1333     1.0  0.85038  0.11521  0.77513  1.0000
  H   H1334     1.0  0.96801  0.32324  0.82099  1.0000
  H   H1335     1.0  0.83200  0.02992  0.73247  1.0000
  C   C1121     1.0  0.88294  0.02839  0.96311  1.0000
  C   C1122     1.0  0.93346  0.09077  0.75075  1.0000
  C   C1123     1.0  0.82648  0.00364  0.75450  1.0000
  C   C1124     1.0  0.87864  0.03621  0.74743  1.0000
  H   H1336     1.0  0.62472  0.06046  0.80167  1.0000
  S   S294      1.0  0.94690  0.24571  0.96973  1.0000
  H   H1337     1.0  0.87156  0.05381  0.94938  1.0000
  H   H1338     1.0  0.95424  0.11177  0.75197  1.0000
  S   S295      1.0  0.75013  0.98452  0.76330  1.0000
  S   S296      1.0  0.90172  0.16011  0.95775  1.0000
  H   H1339     1.0  0.94946  0.40213  0.90244  1.0000
  C   C1125     1.0  0.50239  0.46475  0.90153  1.0000
  C   C1126     1.0  0.65738  0.02916  0.79350  1.0000
  C   C1127     1.0  0.93930  0.08127  0.96605  1.0000
  H   H1340     1.0  0.86093  0.00871  0.96230  1.0000
  C   C1128     1.0  0.48784  0.44999  0.89072  1.0000
  C   C1129     1.0  0.96480  0.29921  0.82108  1.0000
  H   H1341     1.0  0.90787  0.24998  0.79245  1.0000
  H   H1342     1.0  0.66609  0.01076  0.79431  1.0000
  C   C1130     1.0  0.95638  0.38943  0.89533  1.0000
  N   N75       1.0  0.62383  0.01677  0.79550  1.0000
  C   C1131     1.0  0.90697  0.20046  0.80391  1.0000
  H   H1343     1.0  0.94574  0.26140  0.78628  1.0000
  S   S297      1.0  0.69972  0.99705  0.74546  1.0000
  H   H1344     1.0  0.89545  0.18435  0.79609  1.0000
  H   H1345     1.0  0.61630  0.00213  0.77655  1.0000
  H   H1346     1.0  0.86483  0.05456  0.76367  1.0000
  H   H1347     1.0  0.66329  0.03838  0.78422  1.0000
  H   H1348     1.0  0.91590  0.23730  0.73307  1.0000
  H   H1349     1.0  0.58896  0.03492  0.79466  1.0000
  C   C1132     1.0  0.95185  0.27978  0.81093  1.0000
  Fe  Fe147     1.0  0.94460  0.19787  0.96636  1.0000
  C   C1133     1.0  0.91659  0.08005  0.95728  1.0000
  C   C1134     1.0  0.85017  0.10585  0.95868  1.0000
  C   C1135     1.0  0.60833  0.99327  0.78573  1.0000
  H   H1350     1.0  0.83480  0.00189  0.76382  1.0000
  H   H1351     1.0  0.67053  0.04837  0.80004  1.0000
  H   H1352     1.0  0.48855  0.45074  0.87128  1.0000
  C   C1136     1.0  0.63682  0.00338  0.81660  1.0000
  H   H1353     1.0  0.89518  0.19821  0.73775  1.0000
  C   C1137     1.0  0.62761  0.99065  0.82797  1.0000
  H   H1354     1.0  0.96105  0.40318  0.88690  1.0000
  H   H1355     1.0  0.91903  0.09933  0.95164  1.0000
  C   C1138     1.0  0.58356  0.98886  0.81067  1.0000
  H   H1356     1.0  0.95768  0.21488  0.82153  1.0000
  H   H1357     1.0  0.93628  0.36734  0.89319  1.0000
  H   H1358     1.0  0.81875  0.02287  0.75437  1.0000
  H   H1359     1.0  0.94545  0.29013  0.80333  1.0000
  C   C1139     1.0  0.50033  0.46207  0.87967  1.0000
  C   C1140     1.0  0.61498  0.00288  0.80756  1.0000
  C   C1141     1.0  0.83652  0.00870  0.73326  1.0000
  H   H1360     1.0  0.62127  0.05436  0.78543  1.0000
  H   H1361     1.0  0.90223  0.02825  0.73179  1.0000
  H   H1362     1.0  0.49254  0.45520  0.91011  1.0000
  H   H1363     1.0  0.91195  0.10060  0.76623  1.0000
  H   H1364     1.0  0.64463  0.99086  0.83467  1.0000
  H   H1365     1.0  0.91385  0.17502  0.72242  1.0000
  C   C1142     1.0  0.97250  0.25801  0.83109  1.0000
  H   H1366     1.0  0.97169  0.34439  0.88711  1.0000
  H   H1367     1.0  0.87512  0.22176  0.73433  1.0000
  C   C1143     1.0  0.89444  0.21607  0.73145  1.0000
  N   N76       1.0  0.96850  0.10887  0.96809  1.0000
  C   C1144     1.0  0.94664  0.31861  0.92131  1.0000
  C   C1145     1.0  0.95335  0.33597  0.91078  1.0000
  C   C1146     1.0  0.96263  0.33119  0.93214  1.0000
  C   C1147     1.0  0.97098  0.13534  0.96049  1.0000
  H   H1368     1.0  0.97010  0.12954  0.95063  1.0000
  H   H1369     1.0  0.95806  0.31735  0.94020  1.0000
  C   C1148     1.0  0.90486  0.02863  0.97165  1.0000
  H   H1370     1.0  0.70066  0.99304  0.90935  1.0000
  S   S298      1.0  0.70737  0.98542  0.93484  1.0000
  H   H1371     1.0  0.56562  0.98772  0.80432  1.0000
  H   H1372     1.0  0.58302  0.98544  0.78553  1.0000
  H   H1373     1.0  0.56039  0.49805  0.03284  1.0000
  S   S299      1.0  0.69609  0.96663  0.19635  1.0000
  S   S300      1.0  0.69854  0.88333  0.97796  1.0000
  Fe  Fe148     1.0  0.70380  0.68357  0.98550  1.0000
  S   S301      1.0  0.67473  0.66780  0.00247  1.0000
  S   S302      1.0  0.75460  0.71265  0.98581  1.0000
  H   H1374     1.0  0.80869  0.97949  0.22166  1.0000
  S   S303      1.0  0.91635  0.69988  0.20506  1.0000
  Fe  Fe149     1.0  0.94944  0.59695  0.07121  1.0000
  S   S304      1.0  0.91832  0.54649  0.06871  1.0000
  Fe  Fe150     1.0  0.92893  0.60044  0.09752  1.0000
  S   S305      1.0  0.89542  0.55042  0.09690  1.0000
  Fe  Fe151     1.0  0.93270  0.54073  0.08772  1.0000
  H   H1375     1.0  0.78293  0.63613  0.16171  1.0000
  Fe  Fe152     1.0  0.88346  0.55964  0.07800  1.0000
  S   S306      1.0  0.83624  0.54346  0.06929  1.0000
  S   S307      1.0  0.91352  0.61021  0.07922  1.0000
  Fe  Fe153     1.0  0.71842  0.93473  0.97428  1.0000
  H   H1376     1.0  0.85521  0.49987  0.07874  1.0000
  H   H1377     1.0  0.63524  0.76059  0.15323  1.0000
  H   H1378     1.0  0.68633  0.73528  0.01005  1.0000
  H   H1379     1.0  0.59045  0.56719  0.00085  1.0000
  H   H1380     1.0  0.61178  0.49212  0.03532  1.0000
  H   H1381     1.0  0.62945  0.66230  0.15469  1.0000
  N   N77       1.0  0.65438  0.72760  0.15760  1.0000
  H   H1382     1.0  0.57025  0.54185  0.01968  1.0000
  S   S308      1.0  0.76066  0.92762  0.20102  1.0000
  H   H1383     1.0  0.84812  0.48288  0.10521  1.0000
  Fe  Fe154     1.0  0.71354  0.68383  0.18024  1.0000
  S   S309      1.0  0.74020  0.73177  0.17381  1.0000
  S   S310      1.0  0.68619  0.64352  0.16717  1.0000
  Fe  Fe155     1.0  0.73374  0.70251  0.20713  1.0000
  S   S311      1.0  0.76271  0.75188  0.20217  1.0000
  Fe  Fe156     1.0  0.72295  0.74830  0.19019  1.0000
  S   S312      1.0  0.69949  0.78185  0.18931  1.0000
  Fe  Fe157     1.0  0.77744  0.73102  0.18641  1.0000
  S   S313      1.0  0.82539  0.74810  0.17929  1.0000
  S   S314      1.0  0.69298  0.69989  0.19586  1.0000
  S   S315      1.0  0.75182  0.68207  0.19208  1.0000
  Fe  Fe158     1.0  0.67844  0.59258  0.06919  1.0000
  S   S316      1.0  0.66590  0.54201  0.07226  1.0000
  S   S317      1.0  0.70296  0.61238  0.05150  1.0000
  Fe  Fe159     1.0  0.66330  0.60262  0.09585  1.0000
  S   S318      1.0  0.64844  0.55246  0.10033  1.0000
  S   S319      1.0  0.67111  0.64252  0.10939  1.0000
  Fe  Fe160     1.0  0.69046  0.55654  0.09028  1.0000
  S   S320      1.0  0.72412  0.54119  0.09960  1.0000
  Fe  Fe161     1.0  0.62448  0.54189  0.08190  1.0000
  H   H1384     1.0  0.91829  0.66573  0.01764  1.0000
  S   S321      1.0  0.70631  0.60685  0.08662  1.0000
  S   S322      1.0  0.63603  0.59235  0.07800  1.0000
  C   C1149     1.0  0.67735  0.64207  0.12534  1.0000
  C   C1150     1.0  0.66586  0.61462  0.13177  1.0000
  C   C1151     1.0  0.66926  0.61546  0.14453  1.0000
  C   C1152     1.0  0.68468  0.64362  0.15102  1.0000
  C   C1153     1.0  0.69725  0.67096  0.14455  1.0000
  C   C1154     1.0  0.69318  0.67023  0.13181  1.0000
  H   H1385     1.0  0.65346  0.59280  0.12696  1.0000
  H   H1386     1.0  0.65943  0.59415  0.14943  1.0000
  H   H1387     1.0  0.70948  0.69270  0.14938  1.0000
  H   H1388     1.0  0.70202  0.69164  0.12694  1.0000
  S   S323      1.0  0.96714  0.59052  0.08962  1.0000
  C   C1155     1.0  0.71716  0.82251  0.19225  1.0000
  C   C1156     1.0  0.74772  0.83746  0.19631  1.0000
  C   C1157     1.0  0.76053  0.86958  0.19892  1.0000
  C   C1158     1.0  0.74310  0.88723  0.19746  1.0000
  C   C1159     1.0  0.71251  0.87225  0.19342  1.0000
  C   C1160     1.0  0.69962  0.84007  0.19087  1.0000
  H   H1389     1.0  0.76156  0.82434  0.19740  1.0000
  H   H1390     1.0  0.78422  0.88089  0.20202  1.0000
  H   H1391     1.0  0.92132  0.60086  0.01969  1.0000
  S   S324      1.0  0.69326  0.71599  0.97329  1.0000
  H   H1392     1.0  0.87329  0.97924  0.22050  1.0000
  H   H1393     1.0  0.63348  0.96065  0.05793  1.0000
  H   H1394     1.0  0.66982  0.69661  0.16687  1.0000
  C   C1161     1.0  0.63540  0.74485  0.16057  1.0000
  H   H1395     1.0  0.81656  0.66835  0.17837  1.0000
  H   H1396     1.0  0.79992  0.72521  0.02700  1.0000
  H   H1397     1.0  0.60134  0.97428  0.00471  1.0000
  C   C1162     1.0  0.80625  0.54529  0.07783  1.0000
  C   C1163     1.0  0.80823  0.54742  0.09051  1.0000
  C   C1164     1.0  0.78282  0.54598  0.09714  1.0000
  C   C1165     1.0  0.75585  0.54371  0.09111  1.0000
  C   C1166     1.0  0.75431  0.54278  0.07843  1.0000
  C   C1167     1.0  0.77929  0.54301  0.07182  1.0000
  H   H1398     1.0  0.82917  0.54984  0.09521  1.0000
  H   H1399     1.0  0.78417  0.54701  0.10696  1.0000
  H   H1400     1.0  0.73360  0.54104  0.07372  1.0000
  H   H1401     1.0  0.77769  0.54142  0.06200  1.0000
  C   C1168     1.0  0.89263  0.71583  0.19833  1.0000
  C   C1169     1.0  0.86317  0.70790  0.20287  1.0000
  C   C1170     1.0  0.84257  0.71811  0.19719  1.0000
  C   C1171     1.0  0.85130  0.73621  0.18690  1.0000
  C   C1172     1.0  0.88087  0.74440  0.18242  1.0000
  C   C1173     1.0  0.90157  0.73428  0.18814  1.0000
  H   H1402     1.0  0.59937  0.92507  0.05559  1.0000
  H   H1403     1.0  0.81991  0.71190  0.20075  1.0000
  H   H1404     1.0  0.88773  0.75852  0.17449  1.0000
  H   H1405     1.0  0.92426  0.74055  0.18460  1.0000
  C   C1174     1.0  0.74196  0.74875  0.02086  1.0000
  H   H1406     1.0  0.85169  0.60519  0.15128  1.0000
  H   H1407     1.0  0.76322  0.89625  0.97463  1.0000
  C   C1175     1.0  0.68325  0.65284  0.01609  1.0000
  C   C1176     1.0  0.71005  0.64795  0.01766  1.0000
  C   C1177     1.0  0.71555  0.63555  0.02855  1.0000
  C   C1178     1.0  0.69454  0.62808  0.03804  1.0000
  C   C1179     1.0  0.66788  0.63328  0.03652  1.0000
  C   C1180     1.0  0.66227  0.64548  0.02560  1.0000
  H   H1408     1.0  0.72641  0.65352  0.01046  1.0000
  H   H1409     1.0  0.73622  0.63167  0.02963  1.0000
  H   H1410     1.0  0.65167  0.62807  0.04376  1.0000
  H   H1411     1.0  0.64147  0.64918  0.02448  1.0000
  H   H1412     1.0  0.82714  0.60547  0.03325  1.0000
  H   H1413     1.0  0.74242  0.80364  0.02710  1.0000
  H   H1414     1.0  0.65116  0.92628  0.02055  1.0000
  H   H1415     1.0  0.70275  0.77724  0.02551  1.0000
  H   H1416     1.0  0.71881  0.80657  0.01469  1.0000
  H   H1417     1.0  0.86688  0.66818  0.18228  1.0000
  C   C1181     1.0  0.71341  0.76685  0.22076  1.0000
  H   H1418     1.0  0.69778  0.74751  0.21477  1.0000
  H   H1419     1.0  0.78805  0.66185  0.01593  1.0000
  C   C1182     1.0  0.74893  0.81927  0.97467  1.0000
  C   C1183     1.0  0.65540  0.70976  0.16842  1.0000
  H   H1420     1.0  0.91226  0.71508  0.99396  1.0000
  H   H1421     1.0  0.68731  0.76741  0.14857  1.0000
  C   C1184     1.0  0.94234  0.61674  0.02415  1.0000
  N   N78       1.0  0.76498  0.63920  0.12014  1.0000
  C   C1185     1.0  0.75919  0.66075  0.11189  1.0000
  C   C1186     1.0  0.73917  0.60823  0.11876  1.0000
  C   C1187     1.0  0.76480  0.65042  0.13280  1.0000
  C   C1188     1.0  0.79415  0.63723  0.11691  1.0000
  C   C1189     1.0  0.82065  0.64836  0.12475  1.0000
  C   C1190     1.0  0.79697  0.62466  0.10543  1.0000
  C   C1191     1.0  0.84791  0.64637  0.12129  1.0000
  H   H1422     1.0  0.72769  0.78525  0.21457  1.0000
  H   H1423     1.0  0.67592  0.82877  0.18779  1.0000
  H   H1424     1.0  0.77813  0.68428  0.11258  1.0000
  H   H1425     1.0  0.75702  0.65284  0.10223  1.0000
  H   H1426     1.0  0.73742  0.66296  0.11399  1.0000
  H   H1427     1.0  0.74371  0.59052  0.12396  1.0000
  H   H1428     1.0  0.73475  0.59985  0.10919  1.0000
  H   H1429     1.0  0.71713  0.60835  0.12182  1.0000
  H   H1430     1.0  0.78206  0.67461  0.13436  1.0000
  H   H1431     1.0  0.74221  0.65065  0.13501  1.0000
  H   H1432     1.0  0.76894  0.63510  0.13945  1.0000
  H   H1433     1.0  0.82103  0.65889  0.13355  1.0000
  H   H1434     1.0  0.77795  0.61589  0.09892  1.0000
  H   H1435     1.0  0.86794  0.65492  0.12735  1.0000
  Fe  Fe162     1.0  0.96431  0.71021  0.19873  1.0000
  N   N79       1.0  0.73320  0.76895  0.01293  1.0000
  H   H1436     1.0  0.61224  0.65757  0.11658  1.0000
  H   H1437     1.0  0.64425  0.75962  0.16897  1.0000
  H   H1438     1.0  0.95974  0.60091  0.12584  1.0000
  C   C1192     1.0  0.95099  0.64199  0.12677  1.0000
  H   H1439     1.0  0.61118  0.72870  0.16208  1.0000
  H   H1440     1.0  0.67771  0.81764  0.97860  1.0000
  C   C1193     1.0  0.64102  0.72156  0.13524  1.0000
  S   S325      1.0  0.94636  0.50249  0.09443  1.0000
  H   H1441     1.0  0.71282  0.69725  0.04377  1.0000
  C   C1194     1.0  0.96212  0.62105  0.13129  1.0000
  C   C1195     1.0  0.96864  0.67317  0.14560  1.0000
  H   H1442     1.0  0.63958  0.56973  0.04951  1.0000
  H   H1443     1.0  0.69852  0.72975  0.03029  1.0000
  S   S326      1.0  0.93273  0.63666  0.11224  1.0000
  H   H1444     1.0  0.93055  0.59511  0.04159  1.0000
  H   H1445     1.0  0.80112  0.60475  0.14823  1.0000
  N   N80       1.0  0.88798  0.67618  0.00532  1.0000
  C   C1196     1.0  0.89017  0.70417  0.99878  1.0000
  C   C1197     1.0  0.91534  0.68570  0.01361  1.0000
  C   C1198     1.0  0.88930  0.65337  0.99623  1.0000
  C   C1199     1.0  0.85944  0.66172  0.01222  1.0000
  C   C1200     1.0  0.83400  0.66986  0.01070  1.0000
  C   C1201     1.0  0.85586  0.63763  0.02037  1.0000
  C   C1202     1.0  0.80727  0.65549  0.01730  1.0000
  C   C1203     1.0  0.82916  0.62362  0.02700  1.0000
  C   C1204     1.0  0.80497  0.63263  0.02550  1.0000
  H   H1446     1.0  0.88872  0.72206  0.00511  1.0000
  H   H1447     1.0  0.64925  0.74636  0.13452  1.0000
  H   H1448     1.0  0.87192  0.69856  0.99161  1.0000
  H   H1449     1.0  0.91419  0.70110  0.02114  1.0000
  C   C1205     1.0  0.65718  0.57220  0.01383  1.0000
  C   C1206     1.0  0.85894  0.97875  0.21237  1.0000
  H   H1450     1.0  0.89019  0.63268  0.00056  1.0000
  H   H1451     1.0  0.86891  0.64521  0.98993  1.0000
  H   H1452     1.0  0.91019  0.66337  0.99065  1.0000
  H   H1453     1.0  0.83394  0.68693  0.00434  1.0000
  H   H1454     1.0  0.87357  0.62914  0.02160  1.0000
  S   S327      1.0  0.95661  0.64282  0.00172  1.0000
  H   H1455     1.0  0.55556  0.95568  0.05626  1.0000
  H   H1456     1.0  0.56253  0.50537  0.04893  1.0000
  H   H1457     1.0  0.76312  0.69457  0.04228  1.0000
  C   C1207     1.0  0.63710  0.57547  0.00524  1.0000
  H   H1458     1.0  0.83806  0.95650  0.21226  1.0000
  H   H1459     1.0  0.61093  0.63226  0.13607  1.0000
  H   H1460     1.0  0.64591  0.58750  0.99691  1.0000
  N   N81       1.0  0.89524  0.63702  0.16991  1.0000
  C   C1208     1.0  0.89554  0.62478  0.18219  1.0000
  C   C1209     1.0  0.90405  0.61796  0.16117  1.0000
  C   C1210     1.0  0.91909  0.66914  0.16965  1.0000
  C   C1211     1.0  0.86467  0.63687  0.16723  1.0000
  C   C1212     1.0  0.85336  0.65439  0.17469  1.0000
  C   C1213     1.0  0.84509  0.61916  0.15749  1.0000
  C   C1214     1.0  0.82443  0.65438  0.17258  1.0000
  C   C1215     1.0  0.81588  0.61886  0.15557  1.0000
  C   C1216     1.0  0.80559  0.63643  0.16311  1.0000
  H   H1461     1.0  0.87640  0.60162  0.18310  1.0000
  H   H1462     1.0  0.91737  0.62231  0.18418  1.0000
  H   H1463     1.0  0.89348  0.64033  0.18950  1.0000
  H   H1464     1.0  0.88788  0.59316  0.16123  1.0000
  H   H1465     1.0  0.92717  0.61865  0.16349  1.0000
  H   H1466     1.0  0.90547  0.62661  0.15177  1.0000
  H   H1467     1.0  0.91657  0.68429  0.17699  1.0000
  H   H1468     1.0  0.94256  0.66987  0.17094  1.0000
  H   H1469     1.0  0.91839  0.68000  0.16084  1.0000
  H   H1470     1.0  0.69730  0.76402  0.16388  1.0000
  H   H1471     1.0  0.85616  0.69361  0.21074  1.0000
  H   H1472     1.0  0.55407  0.96419  0.04070  1.0000
  C   C1217     1.0  0.84973  0.63370  0.10998  1.0000
  C   C1218     1.0  0.75750  0.70982  0.03643  1.0000
  C   C1219     1.0  0.62696  0.94301  0.03316  1.0000
  H   H1473     1.0  0.63096  0.71449  0.11597  1.0000
  C   C1220     1.0  0.94751  0.61340  0.03659  1.0000
  H   H1474     1.0  0.87090  0.63225  0.10733  1.0000
  S   S328      1.0  0.73949  0.97236  0.98854  1.0000
  C   C1221     1.0  0.60794  0.95058  0.05695  1.0000
  H   H1475     1.0  0.76496  0.77456  0.99849  1.0000
  C   C1222     1.0  0.64161  0.70788  0.14655  1.0000
  C   C1223     1.0  0.68622  0.75024  0.15548  1.0000
  H   H1476     1.0  0.71288  0.73300  0.99937  1.0000
  C   C1224     1.0  0.71869  0.85936  0.97677  1.0000
  C   C1225     1.0  0.61881  0.65722  0.13591  1.0000
  C   C1226     1.0  0.60588  0.56415  0.00752  1.0000
  C   C1227     1.0  0.56979  0.51657  0.04002  1.0000
  C   C1228     1.0  0.70223  0.82718  0.97735  1.0000
  H   H1477     1.0  0.64190  0.52111  0.04439  1.0000
  C   C1229     1.0  0.61414  0.55810  0.04874  1.0000
  H   H1478     1.0  0.70427  0.78246  0.97657  1.0000
  C   C1230     1.0  0.67591  0.78831  0.22163  1.0000
  C   C1231     1.0  0.64628  0.55828  0.02486  1.0000
  C   C1232     1.0  0.59459  0.54963  0.01844  1.0000
  S   S329      1.0  0.76880  0.79500  0.97362  1.0000
  C   C1233     1.0  0.71724  0.80718  0.97624  1.0000
  H   H1479     1.0  0.69878  0.88547  0.19228  1.0000
  C   C1234     1.0  0.62969  0.67499  0.14660  1.0000
  C   C1235     1.0  0.75832  0.78867  0.00509  1.0000
  C   C1236     1.0  0.72390  0.78994  0.02041  1.0000
  H   H1480     1.0  0.82592  0.61333  0.09322  1.0000
  H   H1481     1.0  0.83798  0.63885  0.22068  1.0000
  C   C1237     1.0  0.62624  0.94873  0.01138  1.0000
  H   H1482     1.0  0.78425  0.62152  0.03061  1.0000
  H   H1483     1.0  0.63417  0.94571  0.00247  1.0000
  C   C1238     1.0  0.61952  0.67146  0.12491  1.0000
  H   H1484     1.0  0.75136  0.80420  0.99948  1.0000
  H   H1485     1.0  0.66542  0.72516  0.17652  1.0000
  C   C1239     1.0  0.77059  0.74621  0.02009  1.0000
  C   C1240     1.0  0.61457  0.54617  0.02747  1.0000
  C   C1241     1.0  0.96428  0.64014  0.01742  1.0000
  H   H1486     1.0  0.66318  0.55823  0.03151  1.0000
  C   C1242     1.0  0.72127  0.73029  0.02956  1.0000
  C   C1243     1.0  0.72915  0.71144  0.03730  1.0000
  H   H1487     1.0  0.70002  0.76365  0.99853  1.0000
  H   H1488     1.0  0.63623  0.93494  0.04067  1.0000
  C   C1244     1.0  0.70695  0.74952  0.00490  1.0000
  H   H1489     1.0  0.77900  0.80382  0.01053  1.0000
  H   H1490     1.0  0.70079  0.73835  0.15239  1.0000
  H   H1491     1.0  0.78747  0.75855  0.01351  1.0000
  C   C1245     1.0  0.82438  0.62306  0.10205  1.0000
  H   H1492     1.0  0.63210  0.69329  0.17099  1.0000
  N   N82       1.0  0.60375  0.53279  0.03944  1.0000
  H   H1493     1.0  0.87171  0.97765  0.20418  1.0000
  C   C1246     1.0  0.63036  0.70355  0.12458  1.0000
  H   H1494     1.0  0.93702  0.69815  0.00874  1.0000
  C   C1247     1.0  0.77810  0.72701  0.02780  1.0000
  H   H1495     1.0  0.60570  0.57618  0.04654  1.0000
  C   C1248     1.0  0.56367  0.95240  0.04711  1.0000
  C   C1249     1.0  0.76541  0.85147  0.97410  1.0000
  H   H1496     1.0  0.55320  0.92721  0.04473  1.0000
  S   S330      1.0  0.58060  0.50147  0.07481  1.0000
  C   C1250     1.0  0.75033  0.87148  0.97507  1.0000
  C   C1251     1.0  0.63583  0.93784  0.02159  1.0000
  H   H1497     1.0  0.68155  0.58165  0.01211  1.0000
  N   N83       1.0  0.59766  0.96487  0.04689  1.0000
  H   H1498     1.0  0.55845  0.53286  0.03918  1.0000
  C   C1252     1.0  0.95425  0.66802  0.13400  1.0000
  H   H1499     1.0  0.94585  0.68447  0.13055  1.0000
  C   C1253     1.0  0.60763  0.95899  0.03479  1.0000
  H   H1500     1.0  0.59933  0.95469  0.06586  1.0000
  H   H1501     1.0  0.60706  0.49809  0.05121  1.0000
  H   H1502     1.0  0.65869  0.76849  0.21627  1.0000
  H   H1503     1.0  0.60571  0.54936  0.05786  1.0000
  Fe  Fe163     1.0  0.74291  0.96575  0.19918  1.0000
  H   H1504     1.0  0.68935  0.80597  0.21502  1.0000
  C   C1254     1.0  0.59848  0.96996  0.02418  1.0000
  H   H1505     1.0  0.87668  0.48329  0.08715  1.0000
  H   H1506     1.0  0.55903  0.49598  0.09992  1.0000
  C   C1255     1.0  0.60775  0.96490  0.01267  1.0000
  H   H1507     1.0  0.82443  0.49796  0.09760  1.0000
  C   C1256     1.0  0.61669  0.51008  0.04265  1.0000
  H   H1508     1.0  0.97093  0.67404  0.09421  1.0000
  S   S331      1.0  0.97198  0.66684  0.19664  1.0000
  H   H1509     1.0  0.97144  0.69353  0.15098  1.0000
  H   H1510     1.0  0.78996  0.86097  0.97292  1.0000
  Fe  Fe164     1.0  0.74400  0.74266  0.97245  1.0000
  H   H1511     1.0  0.74410  0.62351  0.24337  1.0000
  C   C1257     1.0  0.61231  0.96330  0.46375  1.0000
  Fe  Fe165     1.0  0.65227  0.60048  0.31267  1.0000
  S   S332      1.0  0.67378  0.56894  0.31885  1.0000
  S   S333      1.0  0.62882  0.62057  0.32604  1.0000
  Fe  Fe166     1.0  0.66164  0.58959  0.28549  1.0000
  S   S334      1.0  0.68252  0.55594  0.29007  1.0000
  S   S335      1.0  0.65433  0.59706  0.26535  1.0000
  Fe  Fe167     1.0  0.64515  0.53683  0.30377  1.0000
  C   C1258     1.0  0.60139  0.96641  0.26367  1.0000
  Fe  Fe168     1.0  0.70887  0.59096  0.30463  1.0000
  S   S336      1.0  0.76074  0.61233  0.30764  1.0000
  S   S337      1.0  0.62210  0.56747  0.29814  1.0000
  S   S338      1.0  0.68952  0.62550  0.29951  1.0000
  C   C1259     1.0  0.47515  0.94830  0.40186  1.0000
  S   S339      1.0  0.93310  0.56832  0.28590  1.0000
  Fe  Fe169     1.0  0.96112  0.61851  0.29049  1.0000
  H   H1512     1.0  0.68796  0.95805  0.26349  1.0000
  S   S340      1.0  0.92826  0.55646  0.31552  1.0000
  H   H1513     1.0  0.55439  0.56899  0.44736  1.0000
  C   C1260     1.0  0.56664  0.51275  0.36190  1.0000
  Fe  Fe170     1.0  0.90290  0.57053  0.30099  1.0000
  S   S341      1.0  0.85148  0.54758  0.29747  1.0000
  S   S342      1.0  0.92913  0.62108  0.30481  1.0000
  C   C1261     1.0  0.55037  0.52011  0.37098  1.0000
  C   C1262     1.0  0.67716  0.75451  0.23772  1.0000
  Fe  Fe171     1.0  0.61846  0.62755  0.39797  1.0000
  S   S343      1.0  0.57048  0.62281  0.39459  1.0000
  S   S344      1.0  0.65276  0.63180  0.38325  1.0000
  Fe  Fe172     1.0  0.60985  0.62222  0.42590  1.0000
  S   S345      1.0  0.56099  0.61774  0.42429  1.0000
  S   S346      1.0  0.63541  0.61297  0.44204  1.0000
  Fe  Fe173     1.0  0.55662  0.58559  0.40837  1.0000
  S   S347      1.0  0.52311  0.53643  0.40400  1.0000
  Fe  Fe174     1.0  0.57958  0.65597  0.41066  1.0000
  S   S348      1.0  0.56317  0.69422  0.40706  1.0000
  S   S349      1.0  0.60419  0.58809  0.41065  1.0000
  S   S350      1.0  0.62883  0.66271  0.41335  1.0000
  Fe  Fe175     1.0  0.61212  0.92972  0.40713  1.0000
  S   S351      1.0  0.58501  0.87896  0.40298  1.0000
  H   H1514     1.0  0.82584  0.57433  0.24875  1.0000
  Fe  Fe176     1.0  0.59111  0.92503  0.43370  1.0000
  S   S352      1.0  0.56177  0.87397  0.43154  1.0000
  H   H1515     1.0  0.93083  0.61727  0.25076  1.0000
  Fe  Fe177     1.0  0.60117  0.87102  0.42138  1.0000
  S   S353      1.0  0.61968  0.83488  0.42590  1.0000
  Fe  Fe178     1.0  0.54773  0.88539  0.41338  1.0000
  S   S354      1.0  0.49901  0.86423  0.40602  1.0000
  S   S355      1.0  0.63171  0.92157  0.42485  1.0000
  S   S356      1.0  0.57348  0.93650  0.41617  1.0000
  H   H1516     1.0  0.68662  0.71535  0.23091  1.0000
  C   C1263     1.0  0.47663  0.53591  0.41880  1.0000
  C   C1264     1.0  0.78665  0.65855  0.23879  1.0000
  H   H1517     1.0  0.63214  0.93050  0.46045  1.0000
  C   C1265     1.0  0.62822  0.60869  0.45783  1.0000
  H   H1518     1.0  0.62929  0.55635  0.34706  1.0000
  H   H1519     1.0  0.90586  0.57784  0.24732  1.0000
  H   H1520     1.0  0.59137  0.62375  0.45782  1.0000
  H   H1521     1.0  0.66391  0.59262  0.46097  1.0000
  C   C1266     1.0  0.58128  0.73374  0.41173  1.0000
  C   C1267     1.0  0.57129  0.75499  0.40646  1.0000
  C   C1268     1.0  0.58363  0.78626  0.41041  1.0000
  C   C1269     1.0  0.60574  0.79649  0.41981  1.0000
  C   C1270     1.0  0.61651  0.77549  0.42479  1.0000
  C   C1271     1.0  0.60443  0.74426  0.42075  1.0000
  H   H1522     1.0  0.55359  0.74709  0.39940  1.0000
  H   H1523     1.0  0.57589  0.80245  0.40632  1.0000
  H   H1524     1.0  0.63378  0.78326  0.43202  1.0000
  H   H1525     1.0  0.61236  0.72819  0.42487  1.0000
  C   C1272     1.0  0.54183  0.73844  0.43774  1.0000
  C   C1273     1.0  0.60522  0.61528  0.46326  1.0000
  C   C1274     1.0  0.51156  0.79573  0.40655  1.0000
  H   H1526     1.0  0.50659  0.89917  0.42847  1.0000
  H   H1527     1.0  0.90633  0.61950  0.27650  1.0000
  H   H1528     1.0  0.52130  0.78226  0.40097  1.0000
  H   H1529     1.0  0.58229  0.93686  0.35670  1.0000
  S   S357      1.0  0.59111  0.95632  0.44980  1.0000
  H   H1530     1.0  0.75813  0.58376  0.34648  1.0000
  H   H1531     1.0  0.63546  0.52695  0.33839  1.0000
  S   S358      1.0  0.73655  0.69654  0.22765  1.0000
  H   H1532     1.0  0.57237  0.51279  0.42797  1.0000
  H   H1533     1.0  0.49201  0.49978  0.43659  1.0000
  H   H1534     1.0  0.54894  0.51458  0.46935  1.0000
  C   C1275     1.0  0.71869  0.80540  0.23598  1.0000
  C   C1276     1.0  0.50705  0.76250  0.42341  1.0000
  H   H1535     1.0  0.83154  0.69431  0.23624  1.0000
  C   C1277     1.0  0.63444  0.62033  0.34196  1.0000
  C   C1278     1.0  0.61154  0.62084  0.34971  1.0000
  C   C1279     1.0  0.61602  0.62247  0.36243  1.0000
  C   C1280     1.0  0.64393  0.62463  0.36749  1.0000
  C   C1281     1.0  0.66665  0.62376  0.35973  1.0000
  C   C1282     1.0  0.66185  0.62128  0.34704  1.0000
  H   H1536     1.0  0.59036  0.62034  0.34586  1.0000
  H   H1537     1.0  0.59830  0.62311  0.36826  1.0000
  H   H1538     1.0  0.68839  0.62566  0.36356  1.0000
  H   H1539     1.0  0.67979  0.62125  0.34118  1.0000
  C   C1283     1.0  0.78537  0.59426  0.30385  1.0000
  C   C1284     1.0  0.81719  0.61211  0.30396  1.0000
  C   C1285     1.0  0.83772  0.59828  0.30166  1.0000
  C   C1286     1.0  0.82655  0.56637  0.29944  1.0000
  C   C1287     1.0  0.79471  0.54869  0.29896  1.0000
  C   C1288     1.0  0.77414  0.56256  0.30114  1.0000
  H   H1540     1.0  0.82598  0.63669  0.30604  1.0000
  H   H1541     1.0  0.86215  0.61221  0.30182  1.0000
  H   H1542     1.0  0.78590  0.52396  0.29720  1.0000
  H   H1543     1.0  0.74968  0.54857  0.30108  1.0000
  C   C1289     1.0  0.50220  0.94825  0.39723  1.0000
  H   H1544     1.0  0.92209  0.62565  0.35166  1.0000
  N   N84       1.0  0.69600  0.77815  0.22915  1.0000
  C   C1290     1.0  0.71267  0.66892  0.23792  1.0000
  C   C1291     1.0  0.68773  0.64200  0.23400  1.0000
  C   C1292     1.0  0.66989  0.62057  0.24253  1.0000
  C   C1293     1.0  0.67665  0.62574  0.25507  1.0000
  C   C1294     1.0  0.70128  0.65292  0.25899  1.0000
  C   C1295     1.0  0.71927  0.67423  0.25047  1.0000
  H   H1545     1.0  0.70768  0.81756  0.24157  1.0000
  H   H1546     1.0  0.65083  0.59966  0.23938  1.0000
  H   H1547     1.0  0.70629  0.65765  0.26860  1.0000
  H   H1548     1.0  0.73838  0.69507  0.25362  1.0000
  C   C1296     1.0  0.72934  0.58498  0.26052  1.0000
  H   H1549     1.0  0.75918  0.56694  0.27607  1.0000
  C   C1297     1.0  0.84111  0.59512  0.24449  1.0000
  C   C1298     1.0  0.76782  0.63540  0.24633  1.0000
  C   C1299     1.0  0.62040  0.53094  0.34523  1.0000
  C   C1300     1.0  0.77930  0.62901  0.25748  1.0000
  C   C1301     1.0  0.50172  0.73066  0.42265  1.0000
  C   C1302     1.0  0.60863  0.94992  0.37355  1.0000
  H   H1550     1.0  0.59691  0.55764  0.32952  1.0000
  H   H1551     1.0  0.88978  0.60475  0.36070  1.0000
  H   H1552     1.0  0.87687  0.60749  0.47042  1.0000
  H   H1553     1.0  0.66039  0.78502  0.24735  1.0000
  H   H1554     1.0  0.84472  0.57562  0.26849  1.0000
  H   H1555     1.0  0.91811  0.48875  0.29908  1.0000
  C   C1303     1.0  0.55439  0.54545  0.34802  1.0000
  H   H1556     1.0  0.68230  0.63754  0.22439  1.0000
  H   H1557     1.0  0.54923  0.51093  0.38001  1.0000
  C   C1304     1.0  0.75398  0.62242  0.27656  1.0000
  C   C1305     1.0  0.63580  0.97038  0.37935  1.0000
  H   H1558     1.0  0.53112  0.81557  0.41089  1.0000
  N   N85       1.0  0.49034  0.77605  0.41563  1.0000
  H   H1559     1.0  0.58278  0.50845  0.45431  1.0000
  C   C1306     1.0  0.53081  0.78168  0.43155  1.0000
  C   C1307     1.0  0.56922  0.52522  0.35012  1.0000
  C   C1308     1.0  0.87213  0.61166  0.24852  1.0000
  H   H1560     1.0  0.91369  0.65253  0.24464  1.0000
  C   C1309     1.0  0.50085  0.49443  0.47131  1.0000
  H   H1561     1.0  0.69254  0.96674  0.24130  1.0000
  H   H1562     1.0  0.87733  0.63206  0.27156  1.0000
  H   H1563     1.0  0.49773  0.81682  0.42684  1.0000
  H   H1564     1.0  0.60380  0.94951  0.26964  1.0000
  C   C1310     1.0  0.67490  0.72358  0.23744  1.0000
  H   H1565     1.0  0.49985  0.80580  0.40023  1.0000
  H   H1566     1.0  0.65615  0.67867  0.24551  1.0000
  C   C1311     1.0  0.96422  0.58527  0.46547  1.0000
  H   H1567     1.0  0.59197  0.93145  0.37859  1.0000
  H   H1568     1.0  0.62994  0.74675  0.26182  1.0000
  H   H1569     1.0  0.53340  0.54997  0.43375  1.0000
  H   H1570     1.0  0.60222  0.54058  0.44472  1.0000
  C   C1312     1.0  0.82901  0.60501  0.23458  1.0000
  C   C1313     1.0  0.64608  0.59782  0.46509  1.0000
  H   H1571     1.0  0.56655  0.78515  0.44444  1.0000
  H   H1572     1.0  0.53940  0.96384  0.33126  1.0000
  H   H1573     1.0  0.62778  0.69358  0.26107  1.0000
  C   C1314     1.0  0.60319  0.95307  0.36114  1.0000
  C   C1315     1.0  0.83402  0.60939  0.35426  1.0000
  C   C1316     1.0  0.91278  0.59630  0.25455  1.0000
  C   C1317     1.0  0.80286  0.60314  0.35526  1.0000
  H   H1574     1.0  0.73826  0.60613  0.28304  1.0000
  H   H1575     1.0  0.53742  0.80633  0.43216  1.0000
  H   H1576     1.0  0.85288  0.68472  0.25557  1.0000
  H   H1577     1.0  0.89777  0.64383  0.35600  1.0000
  H   H1578     1.0  0.87799  0.62293  0.32349  1.0000
  H   H1579     1.0  0.82043  0.64525  0.26922  1.0000
  H   H1580     1.0  0.78169  0.57504  0.26263  1.0000
  H   H1581     1.0  0.73197  0.57310  0.25210  1.0000
  C   C1318     1.0  0.60633  0.96484  0.25131  1.0000
  C   C1319     1.0  0.57706  0.48442  0.33881  1.0000
  S   S359      1.0  0.64383  0.96722  0.39495  1.0000
  H   H1582     1.0  0.95116  0.56282  0.46124  1.0000
  H   H1583     1.0  0.79519  0.59866  0.27632  1.0000
  N   N86       1.0  0.55266  0.52341  0.44402  1.0000
  N   N87       1.0  0.75957  0.60585  0.26599  1.0000
  C   C1320     1.0  0.48815  0.51887  0.41149  1.0000
  H   H1584     1.0  0.53228  0.50099  0.42675  1.0000
  C   C1321     1.0  0.49947  0.93970  0.46771  1.0000
  H   H1585     1.0  0.55568  0.55677  0.33949  1.0000
  H   H1586     1.0  0.55583  0.72949  0.44289  1.0000
  C   C1322     1.0  0.89760  0.62112  0.35310  1.0000
  H   H1587     1.0  0.87220  0.56113  0.34435  1.0000
  H   H1588     1.0  0.56950  0.50248  0.30113  1.0000
  C   C1323     1.0  0.64258  0.74037  0.25500  1.0000
  C   C1324     1.0  0.81050  0.64766  0.26063  1.0000
  H   H1589     1.0  0.84875  0.62140  0.36189  1.0000
  H   H1590     1.0  0.60117  0.52614  0.32216  1.0000
  C   C1325     1.0  0.66017  0.76213  0.24669  1.0000
  H   H1591     1.0  0.52779  0.56878  0.35549  1.0000
  C   C1326     1.0  0.81723  0.67612  0.24208  1.0000
  N   N88       1.0  0.58794  0.51834  0.34088  1.0000
  C   C1327     1.0  0.47890  0.79545  0.42307  1.0000
  C   C1328     1.0  0.48296  0.89125  0.42533  1.0000
  H   H1592     1.0  0.74336  0.63829  0.27370  1.0000
  H   H1593     1.0  0.77544  0.63653  0.28180  1.0000
  N   N89       1.0  0.88602  0.60176  0.25881  1.0000
  C   C1329     1.0  0.55366  0.55317  0.43965  1.0000
  H   H1594     1.0  0.83033  0.57816  0.32576  1.0000
  H   H1595     1.0  0.77634  0.56775  0.32786  1.0000
  H   H1596     1.0  0.88610  0.65291  0.33487  1.0000
  H   H1597     1.0  0.52442  0.54634  0.37583  1.0000
  C   C1330     1.0  0.86473  0.57287  0.26448  1.0000
  H   H1598     1.0  0.56343  0.52333  0.32495  1.0000
  C   C1331     1.0  0.88296  0.58037  0.33798  1.0000
  C   C1332     1.0  0.78218  0.58816  0.34577  1.0000
  H   H1599     1.0  0.71483  0.59762  0.25838  1.0000
  C   C1333     1.0  0.82917  0.67064  0.25297  1.0000
  C   C1334     1.0  0.62480  0.97664  0.35438  1.0000
  H   H1600     1.0  0.57797  0.49792  0.36431  1.0000
  H   H1601     1.0  0.77718  0.66350  0.23046  1.0000
  H   H1602     1.0  0.87613  0.56609  0.27212  1.0000
  C   C1335     1.0  0.64125  0.71042  0.25459  1.0000
  C   C1336     1.0  0.89652  0.62644  0.26842  1.0000
  C   C1337     1.0  0.88979  0.63179  0.33241  1.0000
  C   C1338     1.0  0.58208  0.52991  0.45067  1.0000
  H   H1603     1.0  0.87328  0.57176  0.32872  1.0000
  H   H1604     1.0  0.58614  0.54702  0.45827  1.0000
  C   C1339     1.0  0.79248  0.57911  0.33528  1.0000
  N   N90       1.0  0.87835  0.60832  0.34192  1.0000
  N   N91       1.0  0.64412  0.72416  0.38127  1.0000
  C   C1340     1.0  0.61698  0.69517  0.38343  1.0000
  C   C1341     1.0  0.67136  0.72244  0.38735  1.0000
  C   C1342     1.0  0.63887  0.74996  0.38724  1.0000
  C   C1343     1.0  0.64865  0.72752  0.36803  1.0000
  C   C1344     1.0  0.64494  0.75137  0.36142  1.0000
  C   C1345     1.0  0.65569  0.70561  0.36123  1.0000
  C   C1346     1.0  0.64808  0.75289  0.34881  1.0000
  C   C1347     1.0  0.65852  0.70717  0.34864  1.0000
  C   C1348     1.0  0.65473  0.73077  0.34243  1.0000
  H   H1605     1.0  0.62021  0.67434  0.38019  1.0000
  H   H1606     1.0  0.61208  0.69221  0.39324  1.0000
  H   H1607     1.0  0.59602  0.69497  0.37877  1.0000
  H   H1608     1.0  0.67453  0.70117  0.38468  1.0000
  H   H1609     1.0  0.66930  0.72164  0.39741  1.0000
  H   H1610     1.0  0.69272  0.74276  0.38520  1.0000
  H   H1611     1.0  0.61717  0.75098  0.38389  1.0000
  H   H1612     1.0  0.63635  0.74700  0.39723  1.0000
  H   H1613     1.0  0.65838  0.77265  0.38590  1.0000
  H   H1614     1.0  0.63936  0.76898  0.36576  1.0000
  H   H1615     1.0  0.65858  0.68671  0.36560  1.0000
  H   H1616     1.0  0.64506  0.77118  0.34392  1.0000
  H   H1617     1.0  0.66332  0.68970  0.34365  1.0000
  H   H1618     1.0  0.65678  0.73175  0.33265  1.0000
  H   H1619     1.0  0.92430  0.58935  0.26206  1.0000
  H   H1620     1.0  0.51013  0.93079  0.40004  1.0000
  H   H1621     1.0  0.48915  0.56069  0.41990  1.0000
  H   H1622     1.0  0.91481  0.63906  0.33102  1.0000
  S   S360      1.0  0.62012  0.48574  0.30813  1.0000
  C   C1349     1.0  0.82352  0.58518  0.33418  1.0000
  H   H1623     1.0  0.66331  0.79893  0.22715  1.0000
  C   C1350     1.0  0.87764  0.64821  0.23221  1.0000
  H   H1624     1.0  0.57438  0.56535  0.43421  1.0000
  H   H1625     1.0  0.91498  0.64818  0.26531  1.0000
  C   C1351     1.0  0.77473  0.58591  0.27037  1.0000
  C   C1352     1.0  0.51894  0.71897  0.42975  1.0000
  C   C1353     1.0  0.65727  0.70205  0.24581  1.0000
  H   H1626     1.0  0.90780  0.58513  0.33757  1.0000
  H   H1627     1.0  0.71551  0.56673  0.26684  1.0000
  C   C1354     1.0  0.49791  0.97672  0.35326  1.0000
  Fe  Fe179     1.0  0.95737  0.60737  0.31814  1.0000
  C   C1355     1.0  0.58713  0.53197  0.32891  1.0000
  C   C1356     1.0  0.88992  0.63868  0.24212  1.0000
  C   C1357     1.0  0.84532  0.60056  0.34362  1.0000
  H   H1628     1.0  0.72928  0.75896  0.22578  1.0000
  H   H1629     1.0  0.85648  0.55292  0.25789  1.0000
  C   C1358     1.0  0.53632  0.54013  0.36864  1.0000
  C   C1359     1.0  0.53823  0.55268  0.35719  1.0000
  H   H1630     1.0  0.79469  0.61025  0.36339  1.0000
  C   C1360     1.0  0.54773  0.76972  0.43865  1.0000
  C   C1361     1.0  0.51914  0.97060  0.38910  1.0000
  C   C1362     1.0  0.55105  0.50320  0.43332  1.0000
  H   H1631     1.0  0.48503  0.71437  0.41643  1.0000
  C   C1363     1.0  0.52728  0.50664  0.46440  1.0000
  H   H1632     1.0  0.62349  0.52020  0.35374  1.0000
  H   H1633     1.0  0.73416  0.82298  0.22975  1.0000
  H   H1634     1.0  0.51317  0.97248  0.35958  1.0000
  H   H1635     1.0  0.80534  0.59211  0.23160  1.0000
  H   H1636     1.0  0.49882  0.92460  0.46010  1.0000
  C   C1364     1.0  0.84730  0.63135  0.22841  1.0000
  H   H1637     1.0  0.51539  0.69490  0.42869  1.0000
  C   C1365     1.0  0.52531  0.50890  0.45157  1.0000
  C   C1366     1.0  0.63055  0.94753  0.46676  1.0000
  H   H1638     1.0  0.89188  0.66869  0.22736  1.0000
  C   C1367     1.0  0.68535  0.97790  0.25979  1.0000
  H   H1639     1.0  0.61254  0.94681  0.24767  1.0000
  Fe  Fe180     1.0  0.96079  0.55862  0.30065  1.0000
  C   C1368     1.0  0.96162  0.48536  0.30061  1.0000
  H   H1640     1.0  0.54029  0.97058  0.38564  1.0000
  S   S361      1.0  0.61661  0.97939  0.33878  1.0000
  H   H1641     1.0  0.73335  0.79838  0.24213  1.0000
  H   H1642     1.0  0.96165  0.57581  0.34659  1.0000
  C   C1369     1.0  0.49541  0.49822  0.44622  1.0000
  S   S362      1.0  0.97259  0.65742  0.27708  1.0000
  S   S363      1.0  0.97266  0.63545  0.33590  1.0000
  H   H1643     1.0  0.97346  0.69479  0.25688  1.0000
  C   C1370     1.0  0.47396  0.94583  0.47022  1.0000
  H   H1644     1.0  0.62317  0.88981  0.69922  1.0000
  H   H1645     1.0  0.49949  0.76145  0.67875  1.0000
  Fe  Fe181     1.0  0.60905  0.64750  0.65348  1.0000
  S   S364      1.0  0.55840  0.63572  0.65412  1.0000
  S   S365      1.0  0.64395  0.67397  0.66864  1.0000
  Fe  Fe182     1.0  0.60418  0.62766  0.62603  1.0000
  S   S366      1.0  0.55363  0.61593  0.62489  1.0000
  S   S367      1.0  0.63264  0.61795  0.61130  1.0000
  Fe  Fe183     1.0  0.56510  0.65977  0.63620  1.0000
  S   S368      1.0  0.54228  0.69282  0.63265  1.0000
  Fe  Fe184     1.0  0.55153  0.59308  0.64277  1.0000
  S   S369      1.0  0.52199  0.54183  0.64559  1.0000
  S   S370      1.0  0.61589  0.67328  0.63595  1.0000
  S   S371      1.0  0.60198  0.60313  0.64354  1.0000
  Fe  Fe185     1.0  0.60406  0.92767  0.64980  1.0000
  S   S372      1.0  0.57799  0.87649  0.65171  1.0000
  S   S373      1.0  0.63341  0.95993  0.66513  1.0000
  Fe  Fe186     1.0  0.58520  0.92555  0.62255  1.0000
  S   S374      1.0  0.55784  0.87406  0.62296  1.0000
  S   S375      1.0  0.57943  0.94564  0.60429  1.0000
  Fe  Fe187     1.0  0.54061  0.88270  0.64084  1.0000
  C   C1371     1.0  0.50885  0.79072  0.65046  1.0000
  Fe  Fe188     1.0  0.59713  0.87223  0.63367  1.0000
  S   S376      1.0  0.61840  0.83842  0.62931  1.0000
  S   S377      1.0  0.56513  0.93434  0.63995  1.0000
  S   S378      1.0  0.62609  0.92332  0.63229  1.0000
  Fe  Fe189     1.0  0.94551  0.59414  0.51278  1.0000
  S   S379      1.0  0.91271  0.54460  0.50978  1.0000
  C   C1372     1.0  0.72166  0.65162  0.69575  1.0000
  H   H1646     1.0  0.95484  0.65347  0.69907  1.0000
  S   S380      1.0  0.91352  0.53801  0.53973  1.0000
  C   C1373     1.0  0.66927  0.96656  0.69954  1.0000
  Fe  Fe190     1.0  0.94132  0.53444  0.52399  1.0000
  C   C1374     1.0  0.86134  0.56059  0.48584  1.0000
  Fe  Fe191     1.0  0.88748  0.55285  0.52569  1.0000
  S   S381      1.0  0.83522  0.53162  0.52513  1.0000
  S   S382      1.0  0.91820  0.60336  0.52770  1.0000
  Fe  Fe192     1.0  0.62691  0.56492  0.54077  1.0000
  S   S383      1.0  0.65167  0.53326  0.54043  1.0000
  S   S384      1.0  0.59895  0.57488  0.55570  1.0000
  Fe  Fe193     1.0  0.63273  0.57504  0.51284  1.0000
  S   S385      1.0  0.65817  0.54449  0.51047  1.0000
  S   S386      1.0  0.61280  0.59799  0.49905  1.0000
  Fe  Fe194     1.0  0.62380  0.51269  0.52328  1.0000
  C   C1375     1.0  0.91194  0.67026  0.72034  1.0000
  Fe  Fe195     1.0  0.68452  0.56749  0.52771  1.0000
  S   S387      1.0  0.73696  0.59073  0.52983  1.0000
  S   S388      1.0  0.59686  0.54154  0.52449  1.0000
  S   S389      1.0  0.66132  0.60061  0.52920  1.0000
  H   H1647     1.0  0.93700  0.73417  0.70301  1.0000
  C   C1376     1.0  0.78110  0.57444  0.49619  1.0000
  H   H1648     1.0  0.52220  0.83967  0.66532  1.0000
  C   C1377     1.0  0.67320  0.81467  0.71495  1.0000
  H   H1649     1.0  0.54281  0.75371  0.65604  1.0000
  C   C1378     1.0  0.75231  0.67303  0.71867  1.0000
  H   H1650     1.0  0.94233  0.57248  0.48277  1.0000
  C   C1379     1.0  0.61869  0.60096  0.48314  1.0000
  C   C1380     1.0  0.95905  0.59072  0.47767  1.0000
  H   H1651     1.0  0.71013  0.68316  0.54194  1.0000
  H   H1652     1.0  0.65536  0.58565  0.48311  1.0000
  C   C1381     1.0  0.80849  0.54864  0.52691  1.0000
  C   C1382     1.0  0.77695  0.52941  0.52626  1.0000
  C   C1383     1.0  0.75476  0.54183  0.52721  1.0000
  C   C1384     1.0  0.76390  0.57375  0.52880  1.0000
  C   C1385     1.0  0.79550  0.59301  0.52950  1.0000
  C   C1386     1.0  0.81771  0.58058  0.52854  1.0000
  H   H1653     1.0  0.96095  0.70374  0.69219  1.0000
  H   H1654     1.0  0.73058  0.52674  0.52664  1.0000
  H   H1655     1.0  0.80276  0.61775  0.53065  1.0000
  H   H1656     1.0  0.84184  0.59572  0.52889  1.0000
  H   H1657     1.0  0.94859  0.49727  0.55225  1.0000
  H   H1658     1.0  0.52529  0.81193  0.64611  1.0000
  C   C1387     1.0  0.64407  0.97497  0.48652  1.0000
  C   C1388     1.0  0.56652  0.51519  0.59270  1.0000
  C   C1389     1.0  0.63712  0.97496  0.59408  1.0000
  C   C1390     1.0  0.96186  0.57337  0.58891  1.0000
  N   N92       1.0  0.68581  0.84791  0.71859  1.0000
  C   C1391     1.0  0.75765  0.69647  0.68566  1.0000
  H   H1659     1.0  0.56665  0.56218  0.60809  1.0000
  C   C1392     1.0  0.50808  0.81680  0.66920  1.0000
  C   C1393     1.0  0.68714  0.86868  0.70845  1.0000
  C   C1394     1.0  0.82599  0.61383  0.48110  1.0000
  C   C1395     1.0  0.54764  0.79611  0.66584  1.0000
  H   H1660     1.0  0.95219  0.65195  0.59320  1.0000
  C   C1396     1.0  0.55697  0.54595  0.61558  1.0000
  C   C1397     1.0  0.60985  0.80459  0.66854  1.0000
  C   C1398     1.0  0.87799  0.60179  0.50100  1.0000
  H   H1661     1.0  0.49917  0.91488  0.65272  1.0000
  C   C1399     1.0  0.71388  0.65896  0.67446  1.0000
  C   C1400     1.0  0.60917  0.58731  0.57107  1.0000
  C   C1401     1.0  0.63686  0.58991  0.57645  1.0000
  C   C1402     1.0  0.64378  0.59971  0.58872  1.0000
  C   C1403     1.0  0.62324  0.60717  0.59574  1.0000
  C   C1404     1.0  0.59569  0.60490  0.59031  1.0000
  C   C1405     1.0  0.58863  0.59481  0.57808  1.0000
  H   H1662     1.0  0.65293  0.58434  0.57117  1.0000
  H   H1663     1.0  0.66521  0.60146  0.59281  1.0000
  H   H1664     1.0  0.57976  0.61080  0.59554  1.0000
  H   H1665     1.0  0.56716  0.59293  0.57400  1.0000
  C   C1406     1.0  0.56392  0.73322  0.63160  1.0000
  C   C1407     1.0  0.59597  0.74639  0.63251  1.0000
  C   C1408     1.0  0.61237  0.77864  0.63179  1.0000
  C   C1409     1.0  0.59689  0.79808  0.63039  1.0000
  C   C1410     1.0  0.56484  0.78496  0.62945  1.0000
  C   C1411     1.0  0.54848  0.75263  0.62993  1.0000
  H   H1666     1.0  0.60818  0.73177  0.63374  1.0000
  H   H1667     1.0  0.63717  0.78858  0.63242  1.0000
  H   H1668     1.0  0.55274  0.79967  0.62811  1.0000
  H   H1669     1.0  0.52372  0.74252  0.62899  1.0000
  H   H1670     1.0  0.51452  0.90647  0.61385  1.0000
  H   H1671     1.0  0.79187  0.63074  0.47593  1.0000
  H   H1672     1.0  0.58317  0.61730  0.48002  1.0000
  H   H1673     1.0  0.61044  0.51578  0.61583  1.0000
  H   H1674     1.0  0.56402  0.84020  0.67627  1.0000
  C   C1412     1.0  0.65630  0.65267  0.70859  1.0000
  C   C1413     1.0  0.67202  0.68240  0.70417  1.0000
  C   C1414     1.0  0.66745  0.68862  0.69199  1.0000
  C   C1415     1.0  0.64670  0.66542  0.68416  1.0000
  C   C1416     1.0  0.63027  0.63596  0.68869  1.0000
  C   C1417     1.0  0.63527  0.62960  0.70081  1.0000
  H   H1675     1.0  0.68811  0.70041  0.71004  1.0000
  H   H1676     1.0  0.68037  0.71143  0.68855  1.0000
  H   H1677     1.0  0.61435  0.61788  0.68277  1.0000
  H   H1678     1.0  0.62300  0.60653  0.70414  1.0000
  H   H1679     1.0  0.51152  0.81841  0.67923  1.0000
  C   C1418     1.0  0.65513  0.93647  0.70381  1.0000
  C   C1419     1.0  0.77470  0.59513  0.48905  1.0000
  H   H1680     1.0  0.61692  0.84699  0.67812  1.0000
  C   C1420     1.0  0.64166  0.94995  0.67990  1.0000
  C   C1421     1.0  0.62780  0.91975  0.68412  1.0000
  C   C1422     1.0  0.63443  0.91311  0.69601  1.0000
  C   C1423     1.0  0.66223  0.92909  0.56703  1.0000
  H   H1681     1.0  0.79705  0.67031  0.70471  1.0000
  H   H1682     1.0  0.61166  0.90167  0.67828  1.0000
  Fe  Fe196     1.0  0.94606  0.58826  0.54071  1.0000
  N   N93       1.0  0.76617  0.69211  0.70803  1.0000
  H   H1683     1.0  0.51039  0.77048  0.64578  1.0000
  H   H1684     1.0  0.61206  0.55029  0.60881  1.0000
  H   H1685     1.0  0.94756  0.55118  0.59254  1.0000
  H   H1686     1.0  0.96256  0.61973  0.71185  1.0000
  H   H1687     1.0  0.63375  0.80824  0.66920  1.0000
  H   H1688     1.0  0.70154  0.86647  0.70098  1.0000
  H   H1689     1.0  0.56492  0.50898  0.57323  1.0000
  H   H1690     1.0  0.76957  0.50469  0.52494  1.0000
  H   H1691     1.0  0.75241  0.59609  0.48945  1.0000
  H   H1692     1.0  0.66003  0.94072  0.48042  1.0000
  H   H1693     1.0  0.51732  0.95676  0.60716  1.0000
  C   C1424     1.0  0.79764  0.69359  0.70691  1.0000
  C   C1425     1.0  0.94928  0.49077  0.57153  1.0000
  H   H1694     1.0  0.87760  0.59837  0.71094  1.0000
  H   H1695     1.0  0.70694  0.67805  0.56424  1.0000
  H   H1696     1.0  0.61046  0.54813  0.62478  1.0000
  C   C1426     1.0  0.94317  0.66510  0.70408  1.0000
  C   C1427     1.0  0.48148  0.52224  0.64457  1.0000
  H   H1697     1.0  0.92786  0.61017  0.60760  1.0000
  H   H1698     1.0  0.48537  0.78933  0.64843  1.0000
  S   S390      1.0  0.96313  0.50063  0.52136  1.0000
  C   C1428     1.0  0.64631  0.95334  0.47810  1.0000
  N   N94       1.0  0.56741  0.52048  0.61548  1.0000
  H   H1699     1.0  0.64025  0.94150  0.55214  1.0000
  H   H1700     1.0  0.84223  0.62980  0.47512  1.0000
  H   H1701     1.0  0.95517  0.51493  0.57381  1.0000
  H   H1702     1.0  0.66323  0.81895  0.69568  1.0000
  C   C1429     1.0  0.49374  0.54370  0.67697  1.0000
  H   H1703     1.0  0.65669  0.66114  0.57403  1.0000
  H   H1704     1.0  0.50288  0.49317  0.48107  1.0000
  C   C1430     1.0  0.52717  0.97281  0.48475  1.0000
  H   H1705     1.0  0.77791  0.71789  0.68550  1.0000
  H   H1706     1.0  0.64109  0.72615  0.70611  1.0000
  S   S391      1.0  0.96694  0.62894  0.49801  1.0000
  C   C1431     1.0  0.59324  0.96796  0.58122  1.0000
  H   H1707     1.0  0.58232  0.53916  0.59208  1.0000
  C   C1432     1.0  0.91585  0.69932  0.71618  1.0000
  C   C1433     1.0  0.74038  0.68627  0.67484  1.0000
  H   H1708     1.0  0.81378  0.55713  0.50173  1.0000
  H   H1709     1.0  0.87933  0.62508  0.50373  1.0000
  C   C1434     1.0  0.64124  0.59376  0.47765  1.0000
  N   N95       1.0  0.60422  0.65092  0.53658  1.0000
  C   C1435     1.0  0.60160  0.62588  0.52776  1.0000
  C   C1436     1.0  0.57538  0.63991  0.54347  1.0000
  C   C1437     1.0  0.60627  0.67840  0.52976  1.0000
  C   C1438     1.0  0.63215  0.65901  0.54438  1.0000
  C   C1439     1.0  0.63129  0.65686  0.55724  1.0000
  C   C1440     1.0  0.66150  0.66942  0.53911  1.0000
  C   C1441     1.0  0.65806  0.66386  0.56426  1.0000
  C   C1442     1.0  0.68811  0.67623  0.54622  1.0000
  C   C1443     1.0  0.68637  0.67332  0.55877  1.0000
  H   H1710     1.0  0.60077  0.60504  0.53253  1.0000
  H   H1711     1.0  0.58058  0.61856  0.52185  1.0000
  H   H1712     1.0  0.62112  0.63289  0.52149  1.0000
  H   H1713     1.0  0.57215  0.61863  0.54853  1.0000
  H   H1714     1.0  0.55482  0.63363  0.53735  1.0000
  H   H1715     1.0  0.57513  0.65796  0.55002  1.0000
  H   H1716     1.0  0.60968  0.69825  0.53605  1.0000
  H   H1717     1.0  0.62562  0.68607  0.52337  1.0000
  H   H1718     1.0  0.58515  0.67348  0.52411  1.0000
  H   H1719     1.0  0.61016  0.64892  0.56211  1.0000
  H   H1720     1.0  0.66402  0.67151  0.52940  1.0000
  H   H1721     1.0  0.68511  0.94367  0.56413  1.0000
  C   C1444     1.0  0.49558  0.93966  0.61013  1.0000
  H   H1722     1.0  0.94021  0.56218  0.57099  1.0000
  N   N96       1.0  0.62480  0.87767  0.59351  1.0000
  C   C1445     1.0  0.59232  0.85869  0.59644  1.0000
  C   C1446     1.0  0.64078  0.85656  0.59295  1.0000
  C   C1447     1.0  0.63845  0.90030  0.60368  1.0000
  C   C1448     1.0  0.62842  0.89438  0.58200  1.0000
  C   C1449     1.0  0.60305  0.89391  0.57489  1.0000
  C   C1450     1.0  0.65816  0.91256  0.57773  1.0000
  C   C1451     1.0  0.60743  0.91037  0.56416  1.0000
  C   C1452     1.0  0.60064  0.61160  0.47586  1.0000
  C   C1453     1.0  0.66246  0.97323  0.68769  1.0000
  H   H1723     1.0  0.58063  0.84073  0.58925  1.0000
  H   H1724     1.0  0.59051  0.84626  0.60511  1.0000
  H   H1725     1.0  0.57927  0.87336  0.59770  1.0000
  H   H1726     1.0  0.63224  0.84009  0.58505  1.0000
  H   H1727     1.0  0.63720  0.84266  0.60133  1.0000
  H   H1728     1.0  0.66601  0.86923  0.59223  1.0000
  H   H1729     1.0  0.62630  0.91587  0.60468  1.0000
  H   H1730     1.0  0.63701  0.88848  0.61244  1.0000
  H   H1731     1.0  0.66310  0.91516  0.60246  1.0000
  H   H1732     1.0  0.57960  0.88154  0.57753  1.0000
  H   H1733     1.0  0.67854  0.91472  0.58278  1.0000
  H   H1734     1.0  0.58786  0.91030  0.55901  1.0000
  H   H1735     1.0  0.66381  0.86429  0.70478  1.0000
  C   C1454     1.0  0.49854  0.52130  0.68365  1.0000
  C   C1455     1.0  0.88569  0.61346  0.47995  1.0000
  C   C1456     1.0  0.80989  0.57333  0.49588  1.0000
  H   H1736     1.0  0.92789  0.60111  0.70262  1.0000
  C   C1457     1.0  0.55655  0.49806  0.58181  1.0000
  C   C1458     1.0  0.65154  0.77206  0.69979  1.0000
  C   C1459     1.0  0.49413  0.91120  0.61390  1.0000
  H   H1737     1.0  0.69985  0.65167  0.66620  1.0000
  C   C1460     1.0  0.95767  0.57950  0.57668  1.0000
  C   C1461     1.0  0.79703  0.61467  0.48148  1.0000
  C   C1462     1.0  0.55617  0.50268  0.62668  1.0000
  H   H1738     1.0  0.52153  0.52562  0.68688  1.0000
  S   S392      1.0  0.96785  0.61921  0.55733  1.0000
  H   H1739     1.0  0.51292  0.56511  0.67489  1.0000
  H   H1740     1.0  0.81052  0.70939  0.69969  1.0000
  H   H1741     1.0  0.69747  0.89349  0.71149  1.0000
  C   C1463     1.0  0.55635  0.50175  0.60411  1.0000
  H   H1742     1.0  0.77960  0.73298  0.71968  1.0000
  H   H1743     1.0  0.90172  0.60294  0.50147  1.0000
  C   C1464     1.0  0.94692  0.69420  0.69998  1.0000
  C   C1465     1.0  0.56963  0.82216  0.67235  1.0000
  C   C1466     1.0  0.76824  0.72377  0.71067  1.0000
  N   N97       1.0  0.86407  0.59241  0.48867  1.0000
  C   C1467     1.0  0.50159  0.97956  0.48761  1.0000
  C   C1468     1.0  0.55807  0.77411  0.66111  1.0000
  H   H1744     1.0  0.59616  0.76154  0.65847  1.0000
  H   H1745     1.0  0.64385  0.76402  0.69054  1.0000
  H   H1746     1.0  0.68383  0.62055  0.68454  1.0000
  C   C1469     1.0  0.93730  0.60596  0.71210  1.0000
  C   C1470     1.0  0.60031  0.82634  0.67354  1.0000
  H   H1747     1.0  0.87925  0.56599  0.60185  1.0000
  C   C1471     1.0  0.63693  0.92790  0.56025  1.0000
  H   H1748     1.0  0.53077  0.49391  0.62729  1.0000
  N   N98       1.0  0.87513  0.60370  0.56323  1.0000
  C   C1472     1.0  0.84270  0.59962  0.56411  1.0000
  C   C1473     1.0  0.89105  0.63100  0.55562  1.0000
  C   C1474     1.0  0.87592  0.57630  0.55681  1.0000
  C   C1475     1.0  0.88930  0.60660  0.57552  1.0000
  C   C1476     1.0  0.87590  0.58301  0.58407  1.0000
  C   C1477     1.0  0.91716  0.63175  0.57920  1.0000
  C   C1478     1.0  0.88951  0.58452  0.59555  1.0000
  C   C1479     1.0  0.93044  0.63308  0.59072  1.0000
  C   C1480     1.0  0.91677  0.60948  0.59885  1.0000
  H   H1749     1.0  0.84103  0.61901  0.56947  1.0000
  H   H1750     1.0  0.83188  0.59873  0.55498  1.0000
  H   H1751     1.0  0.82807  0.57766  0.56844  1.0000
  H   H1752     1.0  0.89158  0.65259  0.55999  1.0000
  H   H1753     1.0  0.87952  0.62843  0.54655  1.0000
  H   H1754     1.0  0.91505  0.63419  0.55381  1.0000
  H   H1755     1.0  0.86220  0.55432  0.56133  1.0000
  H   H1756     1.0  0.86654  0.57370  0.54733  1.0000
  H   H1757     1.0  0.89993  0.57823  0.55643  1.0000
  H   H1758     1.0  0.85515  0.56284  0.58184  1.0000
  H   H1759     1.0  0.92985  0.65018  0.57322  1.0000
  C   C1481     1.0  0.52597  0.95310  0.47496  1.0000
  H   H1760     1.0  0.53151  0.53697  0.61487  1.0000
  C   C1482     1.0  0.83333  0.59311  0.48838  1.0000
  C   C1483     1.0  0.60526  0.96380  0.59248  1.0000
  C   C1484     1.0  0.93342  0.71133  0.70605  1.0000
  H   H1761     1.0  0.74712  0.69987  0.66674  1.0000
  H   H1762     1.0  0.72873  0.67149  0.72017  1.0000
  H   H1763     1.0  0.56429  0.56007  0.62414  1.0000
  H   H1764     1.0  0.81137  0.70230  0.71553  1.0000
  C   C1485     1.0  0.58869  0.77836  0.66246  1.0000
  H   H1765     1.0  0.64685  0.97258  0.60273  1.0000
  C   C1486     1.0  0.70484  0.64146  0.68483  1.0000
  H   H1766     1.0  0.76372  0.55942  0.50214  1.0000
  H   H1767     1.0  0.86473  0.58530  0.50799  1.0000
  S   S393      1.0  0.49027  0.85326  0.64389  1.0000
  C   C1487     1.0  0.66287  0.80366  0.70289  1.0000
  C   C1488     1.0  0.64998  0.75061  0.70854  1.0000
  S   S394      1.0  0.66214  0.92666  0.71878  1.0000
  C   C1489     1.0  0.47481  0.90082  0.65170  1.0000
  S   S395      1.0  0.66401  0.98119  0.50074  1.0000
  C   C1490     1.0  0.74845  0.67981  0.69653  1.0000
  C   C1491     1.0  0.92567  0.65231  0.71449  1.0000
  H   H1768     1.0  0.71240  0.63746  0.70351  1.0000
  C   C1492     1.0  0.60147  0.53408  0.61624  1.0000
  H   H1769     1.0  0.56865  0.95954  0.57986  1.0000
  H   H1770     1.0  0.56554  0.51746  0.63503  1.0000
  C   C1493     1.0  0.65967  0.76060  0.72045  1.0000
  H   H1771     1.0  0.74500  0.72396  0.71073  1.0000
  H   H1772     1.0  0.84891  0.54389  0.49291  1.0000
  H   H1773     1.0  0.78186  0.74076  0.70394  1.0000
  H   H1774     1.0  0.75117  0.64918  0.71762  1.0000
  N   N99       1.0  0.51538  0.79176  0.66371  1.0000
  H   H1775     1.0  0.84894  0.55177  0.47700  1.0000
  H   H1776     1.0  0.49602  0.96520  0.51082  1.0000
  N   N100      1.0  0.92218  0.62217  0.71942  1.0000
  C   C1494     1.0  0.47483  0.96544  0.48002  1.0000
  H   H1777     1.0  0.89048  0.63813  0.48202  1.0000
  H   H1778     1.0  0.48381  0.81308  0.66727  1.0000
  H   H1779     1.0  0.93427  0.58341  0.71603  1.0000
  H   H1780     1.0  0.90850  0.61213  0.48037  1.0000
  H   H1781     1.0  0.73285  0.85443  0.71673  1.0000
  H   H1782     1.0  0.49617  0.74175  0.66438  1.0000
  H   H1783     1.0  0.88427  0.55973  0.48529  1.0000
  C   C1495     1.0  0.49437  0.76212  0.66889  1.0000
  C   C1496     1.0  0.88916  0.60132  0.72002  1.0000
  H   H1784     1.0  0.90587  0.71290  0.72108  1.0000
  H   H1785     1.0  0.54578  0.94827  0.47290  1.0000
  H   H1786     1.0  0.56318  0.48302  0.62725  1.0000
  C   C1497     1.0  0.47397  0.49327  0.68600  1.0000
  Fe  Fe197     1.0  0.74181  0.94349  0.75087  1.0000
  S   S396      1.0  0.69073  0.92631  0.75071  1.0000
  S   S397      1.0  0.76923  0.91428  0.75204  1.0000
  H   H1787     1.0  0.92987  0.70824  0.90939  1.0000
  H   H1788     1.0  0.91650  0.72207  0.77997  1.0000
  Fe  Fe198     1.0  0.63076  0.92022  0.84666  1.0000
  S   S398      1.0  0.58368  0.89288  0.83893  1.0000
  S   S399      1.0  0.67139  0.94492  0.83449  1.0000
  Fe  Fe199     1.0  0.61064  0.90094  0.87298  1.0000
  S   S400      1.0  0.56175  0.87157  0.86669  1.0000
  S   S401      1.0  0.61830  0.89577  0.89330  1.0000
  Fe  Fe200     1.0  0.58313  0.85592  0.85147  1.0000
  S   S402      1.0  0.56977  0.80866  0.84286  1.0000
  Fe  Fe201     1.0  0.56656  0.91120  0.85482  1.0000
  S   S403      1.0  0.53085  0.93053  0.85091  1.0000
  S   S404      1.0  0.63134  0.88197  0.85843  1.0000
  S   S405      1.0  0.61428  0.94195  0.86186  1.0000
  C   C1498     1.0  0.71751  0.85768  0.72359  1.0000
  C   C1499     1.0  0.54211  0.50544  0.89022  1.0000
  S   S406      1.0  0.91084  0.68031  0.75387  1.0000
  Fe  Fe202     1.0  0.70654  0.73417  0.75385  1.0000
  S   S407      1.0  0.67073  0.68557  0.75530  1.0000
  S   S408      1.0  0.68833  0.77084  0.75657  1.0000
  Fe  Fe203     1.0  0.75755  0.71263  0.74876  1.0000
  S   S409      1.0  0.72534  0.66262  0.74996  1.0000
  S   S410      1.0  0.80804  0.73155  0.74360  1.0000
  Fe  Fe204     1.0  0.69228  0.67524  0.73876  1.0000
  Fe  Fe205     1.0  0.70652  0.67772  0.76641  1.0000
  S   S411      1.0  0.69725  0.65004  0.78381  1.0000
  S   S412      1.0  0.72552  0.72445  0.73656  1.0000
  S   S413      1.0  0.74129  0.72706  0.76596  1.0000
  Fe  Fe206     1.0  0.60778  0.64959  0.84706  1.0000
  S   S414      1.0  0.55802  0.63971  0.84972  1.0000
  S   S415      1.0  0.62582  0.67263  0.82902  1.0000
  Fe  Fe207     1.0  0.61421  0.63072  0.87344  1.0000
  S   S416      1.0  0.56479  0.61865  0.87744  1.0000
  S   S417      1.0  0.64702  0.62625  0.88779  1.0000
  Fe  Fe208     1.0  0.55447  0.59615  0.85875  1.0000
  S   S418      1.0  0.51822  0.55004  0.85135  1.0000
  Fe  Fe209     1.0  0.57306  0.66302  0.86800  1.0000
  S   S419      1.0  0.56053  0.69926  0.87705  1.0000
  S   S420      1.0  0.60381  0.60495  0.85527  1.0000
  S   S421      1.0  0.62291  0.67607  0.86485  1.0000
  H   H1789     1.0  0.72757  0.88249  0.72666  1.0000
  S   S422      1.0  0.66358  0.64268  0.72344  1.0000
  H   H1790     1.0  0.60020  0.56881  0.87826  1.0000
  H   H1791     1.0  0.66658  0.95907  0.89291  1.0000
  H   H1792     1.0  0.47989  0.94563  0.84504  1.0000
  H   H1793     1.0  0.88265  0.75984  0.96728  1.0000
  H   H1794     1.0  0.49509  0.54283  0.87623  1.0000
  C   C1500     1.0  0.68394  0.97021  0.91146  1.0000
  H   H1795     1.0  0.66652  0.84042  0.73653  1.0000
  C   C1501     1.0  0.48036  0.52303  0.87074  1.0000
  H   H1796     1.0  0.88859  0.67706  0.79255  1.0000
  C   C1502     1.0  0.85740  0.98009  0.74570  1.0000
  C   C1503     1.0  0.52923  0.49196  0.90133  1.0000
  C   C1504     1.0  0.52697  0.48942  0.87934  1.0000
  Fe  Fe210     1.0  0.69818  0.68786  0.95736  1.0000
  S   S423      1.0  0.66193  0.68056  0.94225  1.0000
  S   S424      1.0  0.74883  0.71678  0.95586  1.0000
  H   H1797     1.0  0.51794  0.54519  0.82046  1.0000
  C   C1505     1.0  0.96598  0.70673  0.89894  1.0000
  C   C1506     1.0  0.87653  0.69010  0.78877  1.0000
  H   H1798     1.0  0.64330  0.79194  0.93869  1.0000
  H   H1799     1.0  0.88940  0.75166  0.77099  1.0000
  H   H1800     1.0  0.64324  0.70329  0.89052  1.0000
  H   H1801     1.0  0.48712  0.82329  0.85063  1.0000
  C   C1507     1.0  0.87708  0.73222  0.77668  1.0000
  C   C1508     1.0  0.72529  0.79822  0.94578  1.0000
  H   H1802     1.0  0.55533  0.94405  0.91624  1.0000
  H   H1803     1.0  0.71851  0.84435  0.73163  1.0000
  C   C1509     1.0  0.65104  0.64157  0.90290  1.0000
  C   C1510     1.0  0.62870  0.64980  0.90801  1.0000
  C   C1511     1.0  0.63221  0.66098  0.92014  1.0000
  C   C1512     1.0  0.65828  0.66469  0.92726  1.0000
  C   C1513     1.0  0.68064  0.65648  0.92215  1.0000
  C   C1514     1.0  0.67688  0.64476  0.91007  1.0000
  H   H1804     1.0  0.60849  0.64710  0.90269  1.0000
  H   H1805     1.0  0.61454  0.66672  0.92409  1.0000
  H   H1806     1.0  0.70079  0.65908  0.92751  1.0000
  H   H1807     1.0  0.69424  0.63830  0.90625  1.0000
  C   C1515     1.0  0.67832  0.65718  0.79652  1.0000
  C   C1516     1.0  0.67237  0.63773  0.80654  1.0000
  C   C1517     1.0  0.65675  0.64225  0.81666  1.0000
  C   C1518     1.0  0.64677  0.66626  0.81683  1.0000
  C   C1519     1.0  0.65311  0.68592  0.80686  1.0000
  C   C1520     1.0  0.66881  0.68149  0.79678  1.0000
  H   H1808     1.0  0.67971  0.61893  0.80645  1.0000
  H   H1809     1.0  0.65252  0.62721  0.82431  1.0000
  H   H1810     1.0  0.64558  0.70460  0.80689  1.0000
  H   H1811     1.0  0.67320  0.69665  0.78915  1.0000
  N   N101      1.0  0.96049  0.72961  0.93202  1.0000
  C   C1521     1.0  0.49406  0.91867  0.85730  1.0000
  H   H1812     1.0  0.58962  0.96687  0.83946  1.0000
  C   C1522     1.0  0.88269  0.69473  0.75039  1.0000
  C   C1523     1.0  0.89043  0.72488  0.74649  1.0000
  C   C1524     1.0  0.86726  0.73563  0.74432  1.0000
  C   C1525     1.0  0.83615  0.71640  0.74600  1.0000
  C   C1526     1.0  0.82836  0.68588  0.74944  1.0000
  C   C1527     1.0  0.85151  0.67524  0.75173  1.0000
  H   H1813     1.0  0.91429  0.74012  0.74538  1.0000
  H   H1814     1.0  0.87356  0.75920  0.74154  1.0000
  H   H1815     1.0  0.80453  0.67046  0.75031  1.0000
  H   H1816     1.0  0.84528  0.65179  0.75465  1.0000
  C   C1528     1.0  0.56760  0.77875  0.85254  1.0000
  C   C1529     1.0  0.57074  0.75265  0.84769  1.0000
  C   C1530     1.0  0.56897  0.72837  0.85520  1.0000
  C   C1531     1.0  0.56302  0.72961  0.86752  1.0000
  C   C1532     1.0  0.55931  0.75548  0.87234  1.0000
  C   C1533     1.0  0.56214  0.78028  0.86491  1.0000
  H   H1817     1.0  0.57467  0.75117  0.83811  1.0000
  H   H1818     1.0  0.57186  0.70855  0.85140  1.0000
  H   H1819     1.0  0.55436  0.75639  0.88185  1.0000
  H   H1820     1.0  0.55939  0.80022  0.86868  1.0000
  H   H1821     1.0  0.58201  0.97184  0.88538  1.0000
  H   H1822     1.0  0.97039  0.76592  0.94573  1.0000
  C   C1534     1.0  0.84983  0.67041  0.96754  1.0000
  H   H1823     1.0  0.59882  0.65867  0.78467  1.0000
  C   C1535     1.0  0.52398  0.94439  0.89528  1.0000
  C   C1536     1.0  0.64304  0.92137  0.90469  1.0000
  H   H1824     1.0  0.80559  0.98195  0.75269  1.0000
  C   C1537     1.0  0.66647  0.79456  0.94067  1.0000
  C   C1538     1.0  0.68211  0.96013  0.92349  1.0000
  C   C1539     1.0  0.87357  0.73484  0.96737  1.0000
  C   C1540     1.0  0.66458  0.95099  0.90211  1.0000
  C   C1541     1.0  0.92856  0.72744  0.93105  1.0000
  C   C1542     1.0  0.49318  0.96625  0.88385  1.0000
  C   C1543     1.0  0.74747  0.87443  0.75394  1.0000
  C   C1544     1.0  0.76088  0.85324  0.75220  1.0000
  C   C1545     1.0  0.74318  0.82123  0.75312  1.0000
  C   C1546     1.0  0.71211  0.81047  0.75590  1.0000
  C   C1547     1.0  0.69897  0.83169  0.75784  1.0000
  C   C1548     1.0  0.71654  0.86349  0.75684  1.0000
  H   H1825     1.0  0.78485  0.86154  0.74998  1.0000
  H   H1826     1.0  0.75346  0.80494  0.75162  1.0000
  H   H1827     1.0  0.67502  0.82349  0.76010  1.0000
  H   H1828     1.0  0.70615  0.87948  0.75853  1.0000
  C   C1549     1.0  0.66749  0.95348  0.79286  1.0000
  C   C1550     1.0  0.66927  0.94735  0.81844  1.0000
  C   C1551     1.0  0.64128  0.93493  0.81195  1.0000
  C   C1552     1.0  0.64044  0.93798  0.79927  1.0000
  H   H1829     1.0  0.62018  0.92354  0.81674  1.0000
  H   H1830     1.0  0.61856  0.92855  0.79442  1.0000
  H   H1831     1.0  0.82629  0.72922  0.96782  1.0000
  N   N102      1.0  0.64825  0.74523  0.90017  1.0000
  C   C1553     1.0  0.67363  0.74371  0.90775  1.0000
  C   C1554     1.0  0.61937  0.72972  0.90683  1.0000
  C   C1555     1.0  0.64608  0.72742  0.88874  1.0000
  C   C1556     1.0  0.65256  0.77716  0.89724  1.0000
  C   C1557     1.0  0.67998  0.80363  0.90022  1.0000
  C   C1558     1.0  0.62909  0.78242  0.89089  1.0000
  C   C1559     1.0  0.68319  0.83338  0.89713  1.0000
  C   C1560     1.0  0.63235  0.81225  0.88803  1.0000
  C   C1561     1.0  0.65929  0.83770  0.89120  1.0000
  H   H1832     1.0  0.67666  0.75674  0.91651  1.0000
  H   H1833     1.0  0.66923  0.71943  0.91006  1.0000
  H   H1834     1.0  0.69572  0.75263  0.90291  1.0000
  H   H1835     1.0  0.61910  0.74333  0.91512  1.0000
  H   H1836     1.0  0.61625  0.70623  0.90967  1.0000
  H   H1837     1.0  0.59856  0.72595  0.90117  1.0000
  H   H1838     1.0  0.66697  0.73849  0.88326  1.0000
  H   H1839     1.0  0.62610  0.72554  0.88292  1.0000
  H   H1840     1.0  0.69938  0.80193  0.90480  1.0000
  H   H1841     1.0  0.60810  0.76334  0.88795  1.0000
  H   H1842     1.0  0.70442  0.85328  0.89926  1.0000
  H   H1843     1.0  0.61400  0.81565  0.88321  1.0000
  H   H1844     1.0  0.66168  0.86080  0.88890  1.0000
  S   S425      1.0  0.75184  0.96026  0.95998  1.0000
  C   C1562     1.0  0.59564  0.63642  0.78828  1.0000
  H   H1845     1.0  0.59160  0.52496  0.90600  1.0000
  H   H1846     1.0  0.50088  0.88948  0.87069  1.0000
  C   C1563     1.0  0.57464  0.97601  0.82205  1.0000
  H   H1847     1.0  0.51701  0.55512  0.80479  1.0000
  C   C1564     1.0  0.48621  0.52126  0.85841  1.0000
  H   H1848     1.0  0.62408  0.88863  0.91885  1.0000
  C   C1565     1.0  0.66654  0.85294  0.72809  1.0000
  H   H1849     1.0  0.92667  0.74418  0.92448  1.0000
  C   C1566     1.0  0.96061  0.70595  0.94059  1.0000
  H   H1850     1.0  0.56024  0.89579  0.89830  1.0000
  H   H1851     1.0  0.55982  0.55430  0.90680  1.0000
  H   H1852     1.0  0.53960  0.50260  0.90996  1.0000
  H   H1853     1.0  0.53459  0.49788  0.87042  1.0000
  H   H1854     1.0  0.65830  0.92271  0.93531  1.0000
  H   H1855     1.0  0.57644  0.97757  0.90760  1.0000
  C   C1567     1.0  0.57947  0.54653  0.87791  1.0000
  H   H1856     1.0  0.61732  0.55283  0.89623  1.0000
  H   H1857     1.0  0.89710  0.67602  0.96716  1.0000
  C   C1568     1.0  0.54053  0.90262  0.89776  1.0000
  C   C1569     1.0  0.97272  0.72443  0.92032  1.0000
  H   H1858     1.0  0.66458  0.84561  0.95850  1.0000
  C   C1570     1.0  0.47443  0.94103  0.90267  1.0000
  S   S426      1.0  0.68232  0.95135  0.96847  1.0000
  H   H1859     1.0  0.74800  0.79947  0.94805  1.0000
  H   H1860     1.0  0.61859  0.57834  0.78338  1.0000
  H   H1861     1.0  0.94643  0.68218  0.93697  1.0000
  H   H1862     1.0  0.62384  0.62804  0.77488  1.0000
  S   S427      1.0  0.66448  0.96162  0.77729  1.0000
  N   N103      1.0  0.68492  0.85259  0.94093  1.0000
  C   C1571     1.0  0.66001  0.85129  0.94911  1.0000
  C   C1572     1.0  0.64090  0.91139  0.91674  1.0000
  H   H1863     1.0  0.95121  0.69724  0.89098  1.0000
  N   N104      1.0  0.56979  0.53500  0.89027  1.0000
  H   H1864     1.0  0.87683  0.61021  0.72648  1.0000
  N   N105      1.0  0.55092  0.93661  0.89673  1.0000
  C   C1573     1.0  0.60682  0.59119  0.78757  1.0000
  C   C1574     1.0  0.50083  0.93536  0.90412  1.0000
  H   H1865     1.0  0.67797  0.79849  0.73302  1.0000
  C   C1575     1.0  0.59664  0.97695  0.83067  1.0000
  H   H1866     1.0  0.91190  0.70365  0.92838  1.0000
  H   H1867     1.0  0.86880  0.97924  0.75450  1.0000
  C   C1576     1.0  0.95399  0.71306  0.90964  1.0000
  N   N106      1.0  0.79508  0.68666  0.78649  1.0000
  C   C1577     1.0  0.78099  0.66079  0.79495  1.0000
  C   C1578     1.0  0.78754  0.71256  0.79084  1.0000
  C   C1579     1.0  0.78048  0.67592  0.77435  1.0000
  C   C1580     1.0  0.82869  0.69707  0.78547  1.0000
  C   C1581     1.0  0.84515  0.68089  0.79068  1.0000
  C   C1582     1.0  0.66031  0.93059  0.92609  1.0000
  H   H1868     1.0  0.79134  0.66722  0.80426  1.0000
  H   H1869     1.0  0.75584  0.65425  0.79575  1.0000
  H   H1870     1.0  0.78323  0.63943  0.79170  1.0000
  H   H1871     1.0  0.79945  0.72239  0.79967  1.0000
  H   H1872     1.0  0.76236  0.70487  0.79211  1.0000
  H   H1873     1.0  0.79398  0.73169  0.78432  1.0000
  H   H1874     1.0  0.78624  0.65699  0.77064  1.0000
  H   H1875     1.0  0.75511  0.66684  0.77468  1.0000
  H   H1876     1.0  0.78787  0.69485  0.76771  1.0000
  H   H1877     1.0  0.83428  0.66068  0.79608  1.0000
  H   H1878     1.0  0.83462  0.73576  0.77370  1.0000
  C   C1583     1.0  0.69087  0.82437  0.94217  1.0000
  H   H1879     1.0  0.73126  0.88552  0.93765  1.0000
  H   H1880     1.0  0.96039  0.64388  0.73177  1.0000
  C   C1584     1.0  0.67099  0.79207  0.72364  1.0000
  H   H1881     1.0  0.87270  0.97955  0.73830  1.0000
  H   H1882     1.0  0.65774  0.87379  0.94976  1.0000
  H   H1883     1.0  0.70671  0.90254  0.94318  1.0000
  C   C1585     1.0  0.67525  0.85440  0.92823  1.0000
  H   H1884     1.0  0.63717  0.83370  0.94611  1.0000
  H   H1885     1.0  0.52708  0.89361  0.90601  1.0000
  H   H1886     1.0  0.95111  0.70858  0.94947  1.0000
  H   H1887     1.0  0.67093  0.87553  0.92687  1.0000
  C   C1586     1.0  0.70076  0.76941  0.94452  1.0000
  C   C1587     1.0  0.89241  0.71561  0.78174  1.0000
  H   H1888     1.0  0.53553  0.96800  0.87783  1.0000
  H   H1889     1.0  0.92420  0.63679  0.73831  1.0000
  C   C1588     1.0  0.60976  0.61919  0.78273  1.0000
  H   H1890     1.0  0.74052  0.84682  0.94627  1.0000
  C   C1589     1.0  0.67140  0.76755  0.94198  1.0000
  C   C1590     1.0  0.56383  0.55931  0.89702  1.0000
  Fe  Fe211     1.0  0.69522  0.95501  0.73419  1.0000
  H   H1891     1.0  0.70444  0.74845  0.94569  1.0000
  C   C1591     1.0  0.71211  0.88180  0.94391  1.0000
  C   C1592     1.0  0.72058  0.82539  0.94472  1.0000
  N   N107      1.0  0.55727  0.58526  0.81496  1.0000
  C   C1593     1.0  0.54284  0.60540  0.81989  1.0000
  C   C1594     1.0  0.53235  0.55425  0.81236  1.0000
  C   C1595     1.0  0.57786  0.58245  0.82463  1.0000
  C   C1596     1.0  0.57497  0.59722  0.80387  1.0000
  C   C1597     1.0  0.57864  0.62587  0.79874  1.0000
  C   C1598     1.0  0.58961  0.58022  0.79794  1.0000
  H   H1892     1.0  0.58567  0.53005  0.87244  1.0000
  H   H1893     1.0  0.88582  0.57799  0.72320  1.0000
  Fe  Fe212     1.0  0.71663  0.97875  0.95483  1.0000
  H   H1894     1.0  0.52651  0.60815  0.81319  1.0000
  H   H1895     1.0  0.52958  0.59562  0.82818  1.0000
  H   H1896     1.0  0.56047  0.62876  0.82263  1.0000
  H   H1897     1.0  0.54129  0.53672  0.80983  1.0000
  Fe  Fe213     1.0  0.69870  0.96886  0.76204  1.0000
  C   C1599     1.0  0.51956  0.96049  0.88515  1.0000
  H   H1898     1.0  0.59672  0.60535  0.82690  1.0000
  H   H1899     1.0  0.56527  0.57346  0.83311  1.0000
  H   H1900     1.0  0.58858  0.56647  0.82200  1.0000
  H   H1901     1.0  0.56933  0.64100  0.80278  1.0000
  H   H1902     1.0  0.58835  0.55856  0.80141  1.0000
  H   H1903     1.0  0.65242  0.74491  0.94120  1.0000
  H   H1904     1.0  0.83620  0.95820  0.74469  1.0000
  H   H1905     1.0  0.50273  0.92337  0.91213  1.0000
  N   N108      1.0  0.63923  0.83605  0.81658  1.0000
  C   C1600     1.0  0.65273  0.85365  0.82805  1.0000
  C   C1601     1.0  0.61294  0.84313  0.81270  1.0000
  C   C1602     1.0  0.62705  0.80260  0.81931  1.0000
  C   C1603     1.0  0.66248  0.84520  0.80700  1.0000
  C   C1604     1.0  0.67058  0.82356  0.80043  1.0000
  C   C1605     1.0  0.67739  0.87668  0.80381  1.0000
  C   C1606     1.0  0.69261  0.83321  0.79142  1.0000
  C   C1607     1.0  0.69937  0.88608  0.79481  1.0000
  C   C1608     1.0  0.70716  0.86442  0.78870  1.0000
  H   H1906     1.0  0.65901  0.87890  0.82731  1.0000
  H   H1907     1.0  0.63626  0.84598  0.83561  1.0000
  H   H1908     1.0  0.67377  0.85063  0.83091  1.0000
  H   H1909     1.0  0.61975  0.86830  0.81148  1.0000
  H   H1910     1.0  0.59457  0.83587  0.81956  1.0000
  H   H1911     1.0  0.60260  0.83107  0.80394  1.0000
  H   H1912     1.0  0.64564  0.79574  0.82243  1.0000
  H   H1913     1.0  0.61014  0.79664  0.82671  1.0000
  H   H1914     1.0  0.61467  0.78783  0.81132  1.0000
  H   H1915     1.0  0.66026  0.79905  0.80204  1.0000
  H   H1916     1.0  0.67206  0.89430  0.80824  1.0000
  H   H1917     1.0  0.69838  0.81638  0.78643  1.0000
  H   H1918     1.0  0.71031  0.91030  0.79252  1.0000
  H   H1919     1.0  0.72441  0.87183  0.78180  1.0000
  S   S428      1.0  0.74608  0.96923  0.73371  1.0000
  H   H1920     1.0  0.72056  0.88208  0.95339  1.0000
  H   H1921     1.0  0.93535  0.60548  0.73578  1.0000
  C   C1609     1.0  0.84567  0.72302  0.77838  1.0000
  Fe  Fe214     1.0  0.96301  0.70343  0.75186  1.0000
  H   H1922     1.0  0.96607  0.63498  0.91321  1.0000
  H   H1923     1.0  0.54331  0.56185  0.89315  1.0000
  H   H1924     1.0  0.92064  0.73271  0.93995  1.0000
  S   S429      1.0  0.70451  0.65311  0.96968  1.0000
  H   H1925     1.0  0.65381  0.83427  0.92544  1.0000
  H   H1926     1.0  0.76588  0.68304  0.72719  1.0000
  S   S430      1.0  0.96393  0.67525  0.96954  1.0000
  C   C1610     1.0  0.59591  0.53106  0.89632  1.0000
  C   C1611     1.0  0.93596  0.62721  0.73185  1.0000
  H   H1927     1.0  0.69339  0.85533  0.92186  1.0000
  H   H1928     1.0  0.71823  0.97184  0.81692  1.0000
  C   C1612     1.0  0.82962  0.68524  0.96776  1.0000
  H   H1929     1.0  0.52599  0.89011  0.88975  1.0000
  H   H1930     1.0  0.56111  0.55080  0.87293  1.0000
  H   H1931     1.0  0.58372  0.58227  0.89672  1.0000
  C   C1613     1.0  0.69642  0.96222  0.81201  1.0000
  C   C1614     1.0  0.48544  0.89899  0.86715  1.0000
  C   C1615     1.0  0.69558  0.96524  0.79930  1.0000
  H   H1932     1.0  0.84065  0.64540  0.96753  1.0000
  H   H1933     1.0  0.61327  0.97247  0.78685  1.0000
  H   H1934     1.0  0.58972  0.94723  0.90907  1.0000
  H   H1935     1.0  0.67483  0.87786  0.73080  1.0000
  H   H1936     1.0  0.56020  0.93497  0.87772  1.0000
  C   C1616     1.0  0.88181  0.68770  0.96733  1.0000
  Fe  Fe215     1.0  0.75518  0.68438  0.96930  1.0000
  S   S431      1.0  0.93370  0.74275  0.96696  1.0000
  C   C1617     1.0  0.56878  0.95201  0.90790  1.0000
  S   S432      1.0  0.78966  0.66264  0.96818  1.0000
  H   H1937     1.0  0.55054  0.96516  0.82427  1.0000
  C   C1618     1.0  0.89377  0.72003  0.96727  1.0000
  H   H1938     1.0  0.60073  0.51247  0.89170  1.0000
  H   H1939     1.0  0.48968  0.97746  0.87582  1.0000
  C   C1619     1.0  0.84163  0.71756  0.96770  1.0000
  H   H1940     1.0  0.65837  0.74391  0.72730  1.0000
  H   H1941     1.0  0.64233  0.84529  0.72481  1.0000
  H   H1942     1.0  0.59191  0.93987  0.88771  1.0000
  H   H1943     1.0  0.89879  0.66236  0.72843  1.0000
  C   C1620     1.0  0.57207  0.94630  0.88641  1.0000
  H   H1944     1.0  0.71658  0.97756  0.79455  1.0000
  Fe  Fe216     1.0  0.96899  0.72420  0.97233  1.0000
