data_image0
_chemical_formula_structural       HFeS2FeS2HFeS3FeHFeS2FeCS2FeS2FeS2FeSFeHS2FeSFeS2FeSFeS3C6H4C6H2C7H7C6H3C6H4NC6H5NC9H14CHCH3CNC9H14NC9H13C2HCH2C2HC5SCH2NH3C2H4CHNH2C2H3CHC3H3CH2CH2CHFeH3CH4CHSHFeCSCH3CHCSHC2HNHSCH2CHCHCHCHCH3CSHFeS2FeSHFeSFeS3FeS2FeS2FeSFeS2H2CH2C6H4C6H3C3HCHSCHC5H2C8H4CH3C3HCNHC5H3CHCH2NHSHCH2CHCH2SCHCHCH4C2H2C2H2C3H2C2HCHCHCH3CH5CHCH4C2H2CH2C4HNC3SCNCNC2HCH3CH7CSHFeS2FeS2Fe2S3FeS2FeS2Fe2S3FeS2FeHFeHS2FeS2FeS2FeSFeS2HC6H4C6H4C4HCH3NC4HCH4C6H4CHC7H7SHC4NC2H2CHCH3CHC6H4CH2CH2CH2NC9H16CHCHCH2C4HCSHCHCNH2C2H2CH2C2HCH3C2H4CH5NH3CH3CFeSHCHC2SC2H2CH2CHC2HCH2CHC2HSHC2H8C2H3NH4FeS2FeSFeSFeS3FeSFeS2FeSFeS3C2HS2HC3NHCHCH2C6H4C6H4C6H6C4H2C3HCHCHCH2CH2C3HCHCHCNC2H2CH4CH3C3HC4HCH3NC2H3CHNHCH2C2H7C2H5NC9H15SH2CHCH2C4H2SH3NHFeSFeS2FeSFeS3Fe2CSCHS2FeS2FeSFeSFeS3FeS2FeSHFeSFeCS2HC6H4CHC2HCH2C6H4C6H4C6H4C2H2C4H6NC2H9NC5H9NC8H13SCHC2H3SCH2C3HC2H8SNHFeC2H3CH4CHCHC2H4CH2SC4HC2HC2H5CH4CH3NH4C3HC4SHCSFeS2FeSFeS3FeS2FeS2FeSFeS2H2SCHC3H2C4H2C2HCH3C6H4C6H5C3H2CH2C7H4SHCHC3HCH4C4H2C2HNH4CHNCSH4CH8CH2CH3CHC4HNC6H11C2HC2FeHCN2C3H4CH3C3HCHCHCH2FeC2H3CHC2HCHCH4C4SNCH2C2H3CHNC2SC3HSFeS2FeSFeSFeS3FeS2FeS2Fe2S4FeSHFeSFeSFeSFeS2FeSFeS3H2CHC3H2C6H4C6H5C8H4C6H4C6H4CHCH3CHCHCHCHCHFeHCH4NCHC2HCH3CH2CHC2H3CH2CSH6NC8H12SCNC9H16C2H2CH3SHC2H2NH5NH3CHC4SH3C2FeS2FeSFeSFeS3FeS2FeS2Fe2S3CSCHCH3C2HC3HCH2C6H4C4H3C4HCH3C7H4C6H4NHCHC2NCH3CHNC2HCHC2H3C2H3C2HCH7CNHCHC2HCH2C3H2CHNH2C7HCHC2H2CSHCHC4H4CHNCH2CHC2H2C2H3C2H7CS2H4C2SNHCH2CHCHNH2C6HCH3CH7C2H4CFeSFeS2FeSFeS3FeS2FeS2Fe2S3H5C2HC4H2C6H4C3H2C2H3CHNCHC6H4C6H4C2HCH2SC2H4CH2CHCHCH2NH2NC2HCH2CHC2H3C3H2C2H2CH3CH2C2HC2H2CH4CHSH2CH6NC2H2C2HC3HCHC4H2CH2CSHSH2FeS2FeS2FeSFeS2FeS2FeS2FeSFeS2FeSFe2S2FeSFeS3HSFeSCFeCFeS2C3H2C2H2CHC6H4C6H8C7H3C7H4C6H4CHC3HCH2NH2C4H4CSCH4CHNH5CHC3H4CH2SCHC3H5C2HCH4C4NC5H3CH2CH8CNH6C2H4NCHSH3C2H2CH2CH9C3HCHC2HCHCH2CSNC3H6CH2CHCNCHN2HCH9SHFeS2FeSFeSFeS3FeS2FeS2Fe2S4H2C2H2C2HCH2C2NCH3C6H4C6H5C4H4C7H4C5HCH4CH4CH3CH3CHCHC2HNHSH4N2HCH3CHC3HCH2CH2CHC2H6C2HCHCHC2H3CSCH4C2H2NH2CH2C3HCHCHC2HC3H2C3HCH6CHFeH2C6NFeSFeS2FeSFeS3FeS2FeS2FeSFeS2HSH2SFeCFeS2FeS2FeSFeSFeS4CHC6H4C6H4C4HCH4C4HCH3C7H4C6H4CHCNC3H2FeSHCH3C3H4CNH3NC6H2CH10CHCH5CHCHCHCH3CHC2S2H10C2HNH2C3H9CH2CHNCHC4NH2CH2CH2C2HC2H2C2H5CH5CHCHSHCNHSCHC3HC3HC4HCH2NHFeS2FeSFeSFeS3FeS2FeS2Fe2S3H3C6H4CH4C7H3C3HC2H2CHC6H4C6H5NC9H14C3HSCH4C2NHCSHCHC2H4CHC2HCHC2H2CHCHC2H2CH3CHCH2CHC3HNC4H4SHCSH4CH6CHSFeS2FeS2Fe2S3FeSHFeS2FeSFeS3FeSFeS2FeSFeS3FeS2FeCFeS3C6H4C6H4C6H3C6H2CHCH2CHC6H4C2H3CHC2H2C3H6C3HCH5CH2C2H4C2H2FeHC2HCSH2NC9H16CHNC10H13C2H2CH3NH2CHCHCHSCH5NC3HC2HNHC2NH8C2H4CH3C2H2CH2SH3C2SHFeS2FeS2Fe2S3FeSFeS2FeSFeS3CSCHC6H4C2HCHC4HCHC2HC7H4C6H3C6H4NC7H16NCHSCHC2H2CH3C2H7C5H2NCHCH2CHCH2C3H2C3H2CHC3H2CH3CHC2H2CHC2NH2SH4C2H5CHCHFeSFeS2FeSFeS3FeSFeS2FeSFeS3FeS2Fe2H2S2FeS2FeS2Fe2S3C6H4C3HC3H3C6H5CH3C6H4C6H4C6H4NC9H14CH2CNC9H10CH2CHCH8C2H3CH3CHCSHS2HCHCH2CH7CH2CH2NCH3CH2CHCHNH2C2H2NHNC2H2CHCH2CHCNC3HC3H2CHCH3CH4FeHCHC2H4
_chemical_formula_sum              "H1728 Fe192 S384 C1440 N96"
_cell_length_a       59.5555
_cell_length_b       59.6087
_cell_length_c       59.5986
_cell_angle_alpha    88.4198
_cell_angle_beta     88.7132
_cell_angle_gamma    88.2901

_space_group_name_H-M_alt    "P 1"
_space_group_IT_number       1

loop_
  _space_group_symop_operation_xyz
  'x, y, z'

loop_
  _atom_site_type_symbol
  _atom_site_label
  _atom_site_symmetry_multiplicity
  _atom_site_fract_x
  _atom_site_fract_y
  _atom_site_fract_z
  _atom_site_occupancy
  H   H1        1.0  0.47408  0.34040  0.01826  1.0000
  Fe  Fe1       1.0  0.38307  0.38036  0.07211  1.0000
  S   S1        1.0  0.39044  0.41324  0.05494  1.0000
  S   S2        1.0  0.40969  0.35900  0.09044  1.0000
  Fe  Fe2       1.0  0.33524  0.37992  0.05400  1.0000
  S   S3        1.0  0.33988  0.41291  0.03486  1.0000
  S   S4        1.0  0.29946  0.36632  0.05503  1.0000
  H   H2        1.0  0.13577  0.23605  0.25247  1.0000
  Fe  Fe3       1.0  0.35578  0.42458  0.06623  1.0000
  S   S5        1.0  0.34902  0.46138  0.07459  1.0000
  S   S6        1.0  0.36850  0.36541  0.04145  1.0000
  S   S7        1.0  0.34938  0.39258  0.08605  1.0000
  Fe  Fe4       1.0  0.04891  0.17402  0.23516  1.0000
  H   H3        1.0  0.08815  0.27112  0.04620  1.0000
  Fe  Fe5       1.0  0.07893  0.19804  0.20068  1.0000
  S   S8        1.0  0.10129  0.21115  0.22667  1.0000
  S   S9        1.0  0.08503  0.20080  0.16321  1.0000
  Fe  Fe6       1.0  0.09954  0.17625  0.24174  1.0000
  C   C1        1.0  0.01651  0.06474  0.18945  1.0000
  S   S10       1.0  0.07892  0.16264  0.21455  1.0000
  S   S11       1.0  0.04722  0.20859  0.21921  1.0000
  Fe  Fe7       1.0  0.25818  0.06003  0.21305  1.0000
  S   S12       1.0  0.23001  0.03858  0.20131  1.0000
  S   S13       1.0  0.27773  0.04756  0.24405  1.0000
  Fe  Fe8       1.0  0.24776  0.09685  0.17789  1.0000
  S   S14       1.0  0.21944  0.07848  0.16377  1.0000
  S   S15       1.0  0.25504  0.13242  0.16623  1.0000
  Fe  Fe9       1.0  0.20951  0.07090  0.19950  1.0000
  S   S16       1.0  0.17197  0.07382  0.20617  1.0000
  Fe  Fe10      1.0  0.24198  0.04769  0.16631  1.0000
  H   H4        1.0  0.41407  0.07324  0.26091  1.0000
  S   S17       1.0  0.23631  0.09156  0.21380  1.0000
  S   S18       1.0  0.27169  0.06686  0.17788  1.0000
  Fe  Fe11      1.0  0.18097  0.23794  0.03816  1.0000
  S   S19       1.0  0.19016  0.26773  0.05850  1.0000
  Fe  Fe12      1.0  0.20857  0.20543  0.06795  1.0000
  S   S20       1.0  0.21928  0.23251  0.09037  1.0000
  S   S21       1.0  0.21754  0.16851  0.07276  1.0000
  Fe  Fe13      1.0  0.18342  0.24479  0.08846  1.0000
  S   S22       1.0  0.16489  0.25623  0.11991  1.0000
  Fe  Fe14      1.0  0.22547  0.25290  0.05856  1.0000
  S   S23       1.0  0.26078  0.26700  0.05361  1.0000
  S   S24       1.0  0.17225  0.21622  0.06823  1.0000
  S   S25       1.0  0.21671  0.22469  0.03593  1.0000
  C   C2        1.0  0.22670  0.15868  0.09932  1.0000
  C   C3        1.0  0.22847  0.13549  0.10391  1.0000
  C   C4        1.0  0.23647  0.12722  0.12467  1.0000
  C   C5        1.0  0.24323  0.14213  0.14075  1.0000
  C   C6        1.0  0.24140  0.16529  0.13617  1.0000
  C   C7        1.0  0.23285  0.17355  0.11570  1.0000
  H   H5        1.0  0.22382  0.12386  0.09131  1.0000
  H   H6        1.0  0.23817  0.10931  0.12785  1.0000
  H   H7        1.0  0.24689  0.17690  0.14838  1.0000
  H   H8        1.0  0.23152  0.19140  0.11251  1.0000
  C   C8        1.0  0.14332  0.13669  0.24050  1.0000
  C   C9        1.0  0.12967  0.12376  0.22746  1.0000
  C   C10       1.0  0.13858  0.10438  0.21722  1.0000
  C   C11       1.0  0.16124  0.09791  0.21973  1.0000
  C   C12       1.0  0.17488  0.11078  0.23284  1.0000
  C   C13       1.0  0.16593  0.13008  0.24322  1.0000
  H   H9        1.0  0.11217  0.12844  0.22557  1.0000
  H   H10       1.0  0.12790  0.09439  0.20727  1.0000
  C   C14       1.0  0.50949  0.32551  0.18511  1.0000
  C   C15       1.0  0.14427  0.23921  0.13284  1.0000
  C   C16       1.0  0.13631  0.22047  0.12226  1.0000
  C   C17       1.0  0.11852  0.20840  0.13203  1.0000
  C   C18       1.0  0.10905  0.21454  0.15281  1.0000
  C   C19       1.0  0.11774  0.23258  0.16398  1.0000
  C   C20       1.0  0.13512  0.24505  0.15386  1.0000
  H   H11       1.0  0.14341  0.21558  0.10631  1.0000
  H   H12       1.0  0.11179  0.19452  0.12329  1.0000
  H   H13       1.0  0.11040  0.23756  0.17991  1.0000
  H   H14       1.0  0.14124  0.25949  0.16220  1.0000
  H   H15       1.0  0.04367  0.21475  0.09918  1.0000
  H   H16       1.0  0.50108  0.36674  0.16422  1.0000
  H   H17       1.0  0.31277  0.07775  0.22707  1.0000
  C   C21       1.0  0.33712  0.47190  0.09996  1.0000
  C   C22       1.0  0.33230  0.45785  0.11854  1.0000
  C   C23       1.0  0.32174  0.46678  0.13787  1.0000
  C   C24       1.0  0.31595  0.48977  0.13895  1.0000
  C   C25       1.0  0.43607  0.36759  0.03095  1.0000
  C   C26       1.0  0.33178  0.49499  0.10121  1.0000
  H   H18       1.0  0.33661  0.44011  0.11802  1.0000
  H   H19       1.0  0.50964  0.32495  0.03252  1.0000
  H   H20       1.0  0.42185  0.34933  0.15084  1.0000
  C   C27       1.0  0.28921  0.33847  0.05506  1.0000
  C   C28       1.0  0.26590  0.33536  0.05740  1.0000
  C   C29       1.0  0.25689  0.31369  0.05722  1.0000
  C   C30       1.0  0.27110  0.29479  0.05456  1.0000
  C   C31       1.0  0.29442  0.29789  0.05231  1.0000
  C   C32       1.0  0.30345  0.31954  0.05263  1.0000
  H   H21       1.0  0.25469  0.34982  0.05924  1.0000
  H   H22       1.0  0.23894  0.31165  0.05893  1.0000
  H   H23       1.0  0.30561  0.28345  0.05018  1.0000
  H   H24       1.0  0.32138  0.32160  0.05076  1.0000
  N   N1        1.0  0.49471  0.32107  0.16603  1.0000
  C   C33       1.0  0.48009  0.38432  0.10460  1.0000
  C   C34       1.0  0.47648  0.36132  0.10332  1.0000
  C   C35       1.0  0.45486  0.35374  0.09887  1.0000
  C   C36       1.0  0.43680  0.36910  0.09530  1.0000
  C   C37       1.0  0.44059  0.39208  0.09598  1.0000
  C   C38       1.0  0.46210  0.39962  0.10069  1.0000
  H   H25       1.0  0.49028  0.34946  0.10596  1.0000
  H   H26       1.0  0.45207  0.33593  0.09827  1.0000
  H   H27       1.0  0.42681  0.40406  0.09343  1.0000
  H   H28       1.0  0.46475  0.41745  0.10166  1.0000
  H   H29       1.0  0.10827  0.26468  0.10448  1.0000
  N   N2        1.0  0.17659  0.15259  0.16788  1.0000
  C   C39       1.0  0.15415  0.15440  0.17914  1.0000
  C   C40       1.0  0.17364  0.14942  0.14352  1.0000
  C   C41       1.0  0.18825  0.13204  0.17701  1.0000
  C   C42       1.0  0.18892  0.17341  0.17125  1.0000
  C   C43       1.0  0.20948  0.17368  0.18294  1.0000
  C   C44       1.0  0.18033  0.19435  0.16273  1.0000
  C   C45       1.0  0.22076  0.19367  0.18552  1.0000
  C   C46       1.0  0.19185  0.21419  0.16525  1.0000
  C   C47       1.0  0.21205  0.21384  0.17657  1.0000
  H   H30       1.0  0.15576  0.15776  0.19733  1.0000
  H   H31       1.0  0.14337  0.16815  0.17176  1.0000
  H   H32       1.0  0.14472  0.13864  0.17794  1.0000
  H   H33       1.0  0.16562  0.13322  0.14025  1.0000
  H   H34       1.0  0.19017  0.14934  0.13437  1.0000
  H   H35       1.0  0.16289  0.16286  0.13565  1.0000
  H   H36       1.0  0.19060  0.13292  0.19540  1.0000
  H   H37       1.0  0.17857  0.11663  0.17444  1.0000
  H   H38       1.0  0.20500  0.12924  0.16873  1.0000
  H   H39       1.0  0.21754  0.15861  0.18981  1.0000
  H   H40       1.0  0.16467  0.19553  0.15391  1.0000
  H   H41       1.0  0.23663  0.19331  0.19411  1.0000
  H   H42       1.0  0.18513  0.22991  0.15820  1.0000
  H   H43       1.0  0.22100  0.22924  0.17827  1.0000
  C   C48       1.0  0.06161  0.23692  0.11959  1.0000
  H   H44       1.0  0.31805  0.45582  0.15215  1.0000
  C   C49       1.0  0.48382  0.36216  0.16254  1.0000
  H   H45       1.0  0.15350  0.48500  0.26137  1.0000
  H   H46       1.0  0.34885  0.08850  0.24339  1.0000
  H   H47       1.0  0.46173  0.41758  0.02709  1.0000
  C   C50       1.0  0.44885  0.40523  0.03227  1.0000
  N   N3        1.0  0.28816  0.19968  0.07566  1.0000
  C   C51       1.0  0.28971  0.22004  0.08933  1.0000
  C   C52       1.0  0.30656  0.20011  0.05852  1.0000
  C   C53       1.0  0.26639  0.20142  0.06404  1.0000
  C   C54       1.0  0.28971  0.17838  0.08905  1.0000
  C   C55       1.0  0.29446  0.17755  0.11237  1.0000
  C   C56       1.0  0.28662  0.15752  0.07873  1.0000
  C   C57       1.0  0.29569  0.15711  0.12446  1.0000
  C   C58       1.0  0.28771  0.13722  0.09105  1.0000
  C   C59       1.0  0.29222  0.13703  0.11386  1.0000
  H   H48       1.0  0.30622  0.22075  0.09759  1.0000
  H   H49       1.0  0.28803  0.23577  0.07884  1.0000
  H   H50       1.0  0.27595  0.22091  0.10228  1.0000
  H   H51       1.0  0.32326  0.19846  0.06653  1.0000
  H   H52       1.0  0.30608  0.21611  0.04835  1.0000
  H   H53       1.0  0.30546  0.18623  0.04654  1.0000
  H   H54       1.0  0.25222  0.19960  0.07629  1.0000
  H   H55       1.0  0.26401  0.21789  0.05498  1.0000
  H   H56       1.0  0.26453  0.18837  0.05135  1.0000
  H   H57       1.0  0.29673  0.19244  0.12184  1.0000
  H   H58       1.0  0.28284  0.15675  0.06114  1.0000
  H   H59       1.0  0.29836  0.15680  0.14243  1.0000
  H   H60       1.0  0.28442  0.12158  0.08302  1.0000
  H   H61       1.0  0.29223  0.12136  0.12359  1.0000
  N   N4        1.0  0.27843  0.42870  0.09202  1.0000
  C   C60       1.0  0.29799  0.42730  0.07624  1.0000
  C   C61       1.0  0.25922  0.41777  0.08183  1.0000
  C   C62       1.0  0.27235  0.45289  0.09454  1.0000
  C   C63       1.0  0.28406  0.41693  0.11348  1.0000
  C   C64       1.0  0.29116  0.39397  0.11369  1.0000
  C   C65       1.0  0.28279  0.42761  0.13455  1.0000
  C   C66       1.0  0.29706  0.38257  0.13359  1.0000
  C   C67       1.0  0.28875  0.41604  0.15437  1.0000
  C   C68       1.0  0.29593  0.39360  0.15389  1.0000
  H   H62       1.0  0.30168  0.40994  0.07075  1.0000
  H   H63       1.0  0.29542  0.43767  0.06065  1.0000
  H   H64       1.0  0.31336  0.43310  0.08418  1.0000
  H   H65       1.0  0.24440  0.41759  0.09353  1.0000
  H   H66       1.0  0.26337  0.40003  0.07745  1.0000
  H   H67       1.0  0.25414  0.42649  0.06590  1.0000
  H   H68       1.0  0.28647  0.46213  0.10163  1.0000
  H   H69       1.0  0.26858  0.46134  0.07811  1.0000
  H   H70       1.0  0.25716  0.45530  0.10551  1.0000
  H   H71       1.0  0.29243  0.38468  0.09837  1.0000
  H   H72       1.0  0.27777  0.44507  0.13619  1.0000
  H   H73       1.0  0.06921  0.09842  0.20565  1.0000
  H   H74       1.0  0.47357  0.39686  0.15752  1.0000
  C   C69       1.0  0.03767  0.06146  0.17836  1.0000
  C   C70       1.0  0.05763  0.22596  0.09980  1.0000
  H   H75       1.0  0.47591  0.29273  0.15577  1.0000
  C   C71       1.0  0.43908  0.35283  0.15479  1.0000
  H   H76       1.0  0.30076  0.38479  0.16926  1.0000
  H   H77       1.0  0.06833  0.21980  0.06620  1.0000
  C   C72       1.0  0.09514  0.25404  0.04256  1.0000
  C   C73       1.0  0.33769  0.07779  0.25306  1.0000
  H   H78       1.0  0.08296  0.25924  0.13624  1.0000
  C   C74       1.0  0.51067  0.37639  0.05524  1.0000
  C   C75       1.0  0.09418  0.25405  0.10209  1.0000
  C   C76       1.0  0.11527  0.22113  0.05668  1.0000
  C   C77       1.0  0.07963  0.25117  0.12061  1.0000
  C   C78       1.0  0.07194  0.22887  0.08108  1.0000
  S   S26       1.0  0.30041  0.49962  0.16266  1.0000
  C   C79       1.0  0.30265  0.05766  0.25584  1.0000
  H   H79       1.0  0.12871  0.22158  0.04341  1.0000
  H   H80       1.0  0.43496  0.36496  0.04946  1.0000
  N   N5        1.0  0.10680  0.24402  0.06232  1.0000
  H   H81       1.0  0.08106  0.24371  0.03727  1.0000
  H   H82       1.0  0.13833  0.25843  0.05161  1.0000
  H   H83       1.0  0.02152  0.15485  0.19398  1.0000
  C   C80       1.0  0.47620  0.37298  0.03381  1.0000
  C   C81       1.0  0.41247  0.11543  0.24900  1.0000
  H   H84       1.0  0.03290  0.10497  0.22553  1.0000
  H   H85       1.0  0.19227  0.10575  0.23516  1.0000
  H   H86       1.0  0.49821  0.31668  0.13042  1.0000
  H   H87       1.0  0.05107  0.23395  0.13439  1.0000
  C   C82       1.0  0.09098  0.24261  0.08181  1.0000
  H   H88       1.0  0.07242  0.07074  0.17547  1.0000
  N   N6        1.0  0.45494  0.38233  0.02447  1.0000
  H   H89       1.0  0.48578  0.40221  0.05290  1.0000
  H   H90       1.0  0.44649  0.40535  0.05085  1.0000
  C   C83       1.0  0.03424  0.09262  0.21246  1.0000
  C   C84       1.0  0.31717  0.07179  0.24376  1.0000
  H   H91       1.0  0.12231  0.21217  0.07168  1.0000
  H   H92       1.0  0.13645  0.25103  0.08077  1.0000
  H   H93       1.0  0.30273  0.36512  0.13314  1.0000
  C   C85       1.0  0.48383  0.35088  0.02862  1.0000
  H   H94       1.0  0.49825  0.28554  0.17404  1.0000
  C   C86       1.0  0.05471  0.08899  0.20123  1.0000
  C   C87       1.0  0.12657  0.25788  0.06638  1.0000
  C   C88       1.0  0.45619  0.13403  0.24437  1.0000
  H   H95       1.0  0.44243  0.14314  0.23652  1.0000
  H   H96       1.0  0.49946  0.32894  0.20069  1.0000
  H   H97       1.0  0.43702  0.07697  0.24107  1.0000
  C   C89       1.0  0.22790  0.50210  0.25677  1.0000
  H   H98       1.0  0.12157  0.27562  0.06973  1.0000
  H   H99       1.0  0.36107  0.48359  0.01893  1.0000
  C   C90       1.0  0.48495  0.29867  0.17051  1.0000
  H   H100      1.0  0.40958  0.13346  0.25288  1.0000
  H   H101      1.0  0.17304  0.03355  0.17009  1.0000
  C   C91       1.0  0.46812  0.37964  0.15864  1.0000
  H   H102      1.0  0.03977  0.04979  0.16487  1.0000
  Fe  Fe15      1.0  0.06974  0.21869  0.24708  1.0000
  H   H103      1.0  0.19000  0.02110  0.13418  1.0000
  H   H104      1.0  0.10202  0.21055  0.05005  1.0000
  H   H105      1.0  0.44830  0.31846  0.15820  1.0000
  C   C92       1.0  0.47752  0.33935  0.16311  1.0000
  H   H106      1.0  0.24379  0.49290  0.25846  1.0000
  H   H107      1.0  0.28812  0.42472  0.17015  1.0000
  H   H108      1.0  0.39603  0.10737  0.25253  1.0000
  H   H109      1.0  0.43390  0.38856  0.15074  1.0000
  C   C93       1.0  0.47748  0.14309  0.24117  1.0000
  H   H110      1.0  0.17658  0.13988  0.25339  1.0000
  S   S27       1.0  0.50646  0.39499  0.11142  1.0000
  H   H111      1.0  0.47949  0.15856  0.23143  1.0000
  Fe  Fe16      1.0  0.37409  0.39930  0.02489  1.0000
  C   C94       1.0  0.45460  0.33518  0.15893  1.0000
  S   S28       1.0  0.13273  0.16120  0.25349  1.0000
  C   C95       1.0  0.44581  0.37499  0.15470  1.0000
  H   H112      1.0  0.41622  0.11388  0.23072  1.0000
  H   H113      1.0  0.16408  0.23343  0.26222  1.0000
  H   H114      1.0  0.14922  0.20917  0.25402  1.0000
  C   C96       1.0  0.32130  0.50391  0.12061  1.0000
  H   H115      1.0  0.32894  0.02386  0.22877  1.0000
  C   C97       1.0  0.05645  0.07341  0.18424  1.0000
  S   S29       1.0  0.24270  0.02722  0.13448  1.0000
  H   H116      1.0  0.10683  0.25558  0.02771  1.0000
  C   C98       1.0  0.49621  0.13272  0.25102  1.0000
  C   C99       1.0  0.49024  0.38548  0.04754  1.0000
  H   H117      1.0  0.47330  0.29897  0.18538  1.0000
  N   N7        1.0  0.43068  0.10487  0.26270  1.0000
  H   H118      1.0  0.41958  0.37493  0.02552  1.0000
  S   S30       1.0  0.01773  0.15367  0.24300  1.0000
  C   C100      1.0  0.45310  0.11422  0.25783  1.0000
  H   H119      1.0  0.33555  0.50603  0.08701  1.0000
  H   H120      1.0  0.02155  0.22793  0.26113  1.0000
  C   C101      1.0  0.50419  0.34189  0.03662  1.0000
  H   H121      1.0  0.36007  0.02330  0.25415  1.0000
  C   C102      1.0  0.43106  0.08041  0.25851  1.0000
  H   H122      1.0  0.43764  0.35081  0.02341  1.0000
  C   C103      1.0  0.01536  0.08075  0.20675  1.0000
  H   H123      1.0  0.43272  0.41169  0.02505  1.0000
  C   C104      1.0  0.16606  0.01954  0.16157  1.0000
  H   H124      1.0  0.14051  0.01403  0.18681  1.0000
  C   C105      1.0  0.50866  0.31979  0.14521  1.0000
  H   H125      1.0  0.02149  0.19787  0.26299  1.0000
  H   H126      1.0  0.51254  0.14021  0.24908  1.0000
  H   H127      1.0  0.01518  0.02207  0.17241  1.0000
  C   C106      1.0  0.14742  0.22544  0.26281  1.0000
  S   S31       1.0  0.39497  0.12272  0.49010  1.0000
  H   H128      1.0  0.46199  0.16443  0.30169  1.0000
  Fe  Fe17      1.0  0.43262  0.07574  0.34114  1.0000
  S   S32       1.0  0.39879  0.09371  0.34260  1.0000
  S   S33       1.0  0.46818  0.08910  0.33811  1.0000
  Fe  Fe18      1.0  0.41194  0.02884  0.34382  1.0000
  S   S34       1.0  0.37662  0.04333  0.34538  1.0000
  H   H129      1.0  0.44645  0.13104  0.32189  1.0000
  Fe  Fe19      1.0  0.38735  0.06796  0.31839  1.0000
  S   S35       1.0  0.37053  0.07723  0.28496  1.0000
  Fe  Fe20      1.0  0.39042  0.06778  0.36966  1.0000
  S   S36       1.0  0.36839  0.07470  0.40062  1.0000
  S   S37       1.0  0.42192  0.05199  0.31514  1.0000
  S   S38       1.0  0.42501  0.05136  0.36986  1.0000
  Fe  Fe21      1.0  0.07429  0.32629  0.37787  1.0000
  S   S39       1.0  0.04902  0.32406  0.40674  1.0000
  S   S40       1.0  0.08339  0.29405  0.35881  1.0000
  Fe  Fe22      1.0  0.08680  0.37480  0.38955  1.0000
  S   S41       1.0  0.06225  0.37515  0.41861  1.0000
  S   S42       1.0  0.10977  0.40502  0.38948  1.0000
  Fe  Fe23      1.0  0.07524  0.34026  0.42719  1.0000
  S   S43       1.0  0.08247  0.33443  0.46447  1.0000
  Fe  Fe24      1.0  0.03832  0.35918  0.39590  1.0000
  S   S44       1.0  0.10115  0.34052  0.39933  1.0000
  S   S45       1.0  0.06217  0.36073  0.36573  1.0000
  H   H130      1.0  0.29777  0.03894  0.28694  1.0000
  H   H131      1.0  0.16966  0.40357  0.43989  1.0000
  C   C107      1.0  0.13291  0.31398  0.50604  1.0000
  H   H132      1.0  0.10432  0.22443  0.27684  1.0000
  H   H133      1.0  0.15838  0.48430  0.31289  1.0000
  C   C108      1.0  0.10924  0.43131  0.37456  1.0000
  C   C109      1.0  0.09945  0.43424  0.35351  1.0000
  C   C110      1.0  0.10078  0.45505  0.34172  1.0000
  C   C111      1.0  0.11165  0.47321  0.35090  1.0000
  C   C112      1.0  0.12116  0.47037  0.37207  1.0000
  C   C113      1.0  0.12010  0.44949  0.38372  1.0000
  H   H134      1.0  0.09146  0.42032  0.34599  1.0000
  H   H135      1.0  0.09341  0.45705  0.32534  1.0000
  H   H136      1.0  0.12959  0.48417  0.37935  1.0000
  H   H137      1.0  0.12786  0.44741  0.39990  1.0000
  C   C114      1.0  0.06648  0.26351  0.29077  1.0000
  C   C115      1.0  0.07363  0.24991  0.30889  1.0000
  C   C116      1.0  0.07824  0.25950  0.32966  1.0000
  C   C117      1.0  0.07503  0.28271  0.33294  1.0000
  C   C118      1.0  0.06686  0.29618  0.31512  1.0000
  C   C119      1.0  0.06276  0.28664  0.29418  1.0000
  H   H138      1.0  0.07563  0.23202  0.30696  1.0000
  H   H139      1.0  0.08444  0.24887  0.34330  1.0000
  H   H140      1.0  0.06435  0.31404  0.31727  1.0000
  C   C120      1.0  0.18021  0.34630  0.50013  1.0000
  C   C121      1.0  0.34390  0.06995  0.27461  1.0000
  C   C122      1.0  0.32921  0.05617  0.28689  1.0000
  H   H141      1.0  0.29526  0.12981  0.47633  1.0000
  C   C123      1.0  0.36161  0.14281  0.42423  1.0000
  H   H142      1.0  0.33357  0.05021  0.30356  1.0000
  S   S46       1.0  0.50677  0.17747  0.29041  1.0000
  C   C124      1.0  0.45632  0.15789  0.37871  1.0000
  H   H143      1.0  0.14351  0.38835  0.48598  1.0000
  C   C125      1.0  0.13995  0.29589  0.47068  1.0000
  C   C126      1.0  0.12088  0.30697  0.46155  1.0000
  C   C127      1.0  0.10735  0.32112  0.47484  1.0000
  C   C128      1.0  0.11354  0.32467  0.49707  1.0000
  C   C129      1.0  0.49373  0.16151  0.39306  1.0000
  H   H144      1.0  0.19485  0.32206  0.47780  1.0000
  H   H145      1.0  0.11628  0.30405  0.44443  1.0000
  C   C130      1.0  0.51088  0.13570  0.31217  1.0000
  C   C131      1.0  0.12596  0.26260  0.28844  1.0000
  C   C132      1.0  0.38830  0.10727  0.46622  1.0000
  C   C133      1.0  0.36803  0.09617  0.46490  1.0000
  C   C134      1.0  0.36239  0.08593  0.44482  1.0000
  C   C135      1.0  0.37712  0.08623  0.42603  1.0000
  C   C136      1.0  0.39773  0.09670  0.42759  1.0000
  C   C137      1.0  0.40317  0.10733  0.44753  1.0000
  H   H146      1.0  0.35656  0.09580  0.47919  1.0000
  H   H147      1.0  0.34644  0.07784  0.44376  1.0000
  H   H148      1.0  0.40920  0.09707  0.41327  1.0000
  H   H149      1.0  0.41890  0.11584  0.44842  1.0000
  C   C138      1.0  0.47857  0.11427  0.32573  1.0000
  H   H150      1.0  0.32204  0.11881  0.48524  1.0000
  H   H151      1.0  0.03591  0.46180  0.34691  1.0000
  H   H152      1.0  0.11339  0.29656  0.29248  1.0000
  C   C139      1.0  0.47320  0.15101  0.30753  1.0000
  C   C140      1.0  0.46429  0.13194  0.31859  1.0000
  C   C141      1.0  0.46247  0.17020  0.35947  1.0000
  H   H153      1.0  0.31278  0.12607  0.40291  1.0000
  C   C142      1.0  0.06668  0.49868  0.37417  1.0000
  N   N8        1.0  0.32220  0.15356  0.47470  1.0000
  H   H154      1.0  0.11752  0.26154  0.27264  1.0000
  C   C143      1.0  0.03218  0.42816  0.40976  1.0000
  C   C144      1.0  0.31070  0.13402  0.48518  1.0000
  C   C145      1.0  0.33088  0.14776  0.45202  1.0000
  C   C146      1.0  0.31614  0.13983  0.43578  1.0000
  C   C147      1.0  0.47190  0.15359  0.39547  1.0000
  H   H155      1.0  0.29103  0.16875  0.46294  1.0000
  H   H156      1.0  0.17314  0.36783  0.41714  1.0000
  H   H157      1.0  0.15516  0.18914  0.28748  1.0000
  C   C148      1.0  0.14706  0.24656  0.31957  1.0000
  H   H158      1.0  0.43676  0.09954  0.29808  1.0000
  C   C149      1.0  0.20977  0.49740  0.27134  1.0000
  H   H159      1.0  0.37937  0.14333  0.41990  1.0000
  H   H160      1.0  0.18743  0.49068  0.31308  1.0000
  N   N9        1.0  0.13913  0.22219  0.28634  1.0000
  H   H161      1.0  0.07707  0.49538  0.40833  1.0000
  S   S47       1.0  0.11325  0.49894  0.33517  1.0000
  H   H162      1.0  0.35268  0.14601  0.49255  1.0000
  C   C150      1.0  0.05638  0.46799  0.39945  1.0000
  H   H163      1.0  0.43955  0.15137  0.38048  1.0000
  H   H164      1.0  0.06197  0.41591  0.37812  1.0000
  C   C151      1.0  0.14598  0.29917  0.49300  1.0000
  H   H165      1.0  0.15065  0.34794  0.41952  1.0000
  C   C152      1.0  0.49652  0.15303  0.30433  1.0000
  H   H166      1.0  0.14774  0.19983  0.31422  1.0000
  H   H167      1.0  0.13494  0.49597  0.28302  1.0000
  S   S48       1.0  0.16953  0.28387  0.50394  1.0000
  C   C153      1.0  0.06742  0.48813  0.39528  1.0000
  H   H168      1.0  0.17155  0.21093  0.29840  1.0000
  C   C154      1.0  0.15412  0.20491  0.29720  1.0000
  H   H169      1.0  0.11333  0.38084  0.43085  1.0000
  C   C155      1.0  0.13216  0.28478  0.32099  1.0000
  H   H170      1.0  0.14998  0.28452  0.46043  1.0000
  H   H171      1.0  0.31377  0.18765  0.46480  1.0000
  H   H172      1.0  0.37497  0.02919  0.28937  1.0000
  H   H173      1.0  0.33305  0.16388  0.50717  1.0000
  C   C156      1.0  0.01307  0.21342  0.26934  1.0000
  C   C157      1.0  0.42473  0.10840  0.28661  1.0000
  H   H174      1.0  0.10330  0.33579  0.50738  1.0000
  H   H175      1.0  0.03585  0.40258  0.37402  1.0000
  C   C158      1.0  0.05508  0.48907  0.35703  1.0000
  C   C159      1.0  0.04412  0.45785  0.38238  1.0000
  H   H176      1.0  0.12906  0.30007  0.33016  1.0000
  H   H177      1.0  0.05537  0.49696  0.34041  1.0000
  C   C160      1.0  0.14971  0.49986  0.27186  1.0000
  C   C161      1.0  0.14406  0.26676  0.33084  1.0000
  C   C162      1.0  0.11628  0.21311  0.28615  1.0000
  H   H178      1.0  0.04524  0.42347  0.35430  1.0000
  H   H179      1.0  0.30537  0.13718  0.50289  1.0000
  C   C163      1.0  0.30881  0.04996  0.27748  1.0000
  C   C164      1.0  0.04442  0.41887  0.37249  1.0000
  H   H180      1.0  0.40781  0.10217  0.29114  1.0000
  C   C165      1.0  0.34685  0.13428  0.40905  1.0000
  H   H181      1.0  0.05805  0.46053  0.41604  1.0000
  C   C166      1.0  0.48431  0.17795  0.35673  1.0000
  H   H182      1.0  0.17714  0.33798  0.44458  1.0000
  C   C167      1.0  0.15512  0.37435  0.48336  1.0000
  H   H183      1.0  0.14339  0.40955  0.45439  1.0000
  H   H184      1.0  0.15605  0.23318  0.32839  1.0000
  H   H185      1.0  0.35317  0.12810  0.39308  1.0000
  C   C168      1.0  0.13798  0.24385  0.29796  1.0000
  H   H186      1.0  0.29929  0.17775  0.48985  1.0000
  H   H187      1.0  0.34884  0.17515  0.48396  1.0000
  H   H188      1.0  0.47144  0.08996  0.27932  1.0000
  H   H189      1.0  0.36657  0.15481  0.45666  1.0000
  H   H190      1.0  0.11931  0.35433  0.44441  1.0000
  C   C169      1.0  0.12333  0.28277  0.29975  1.0000
  H   H191      1.0  0.44205  0.07062  0.27024  1.0000
  C   C170      1.0  0.16568  0.36487  0.50225  1.0000
  H   H192      1.0  0.15040  0.26831  0.34762  1.0000
  H   H193      1.0  0.10939  0.21066  0.30352  1.0000
  H   H194      1.0  0.46708  0.14375  0.41031  1.0000
  H   H195      1.0  0.29839  0.13835  0.43942  1.0000
  C   C171      1.0  0.47254  0.10427  0.26783  1.0000
  C   C172      1.0  0.18420  0.33708  0.47915  1.0000
  H   H196      1.0  0.14603  0.37441  0.40578  1.0000
  H   H197      1.0  0.45044  0.17320  0.34626  1.0000
  C   C173      1.0  0.18901  0.50975  0.26976  1.0000
  H   H198      1.0  0.14405  0.40808  0.42472  1.0000
  H   H199      1.0  0.04939  0.42423  0.41592  1.0000
  C   C174      1.0  0.15900  0.36557  0.46164  1.0000
  C   C175      1.0  0.35391  0.14939  0.44546  1.0000
  C   C176      1.0  0.30584  0.17274  0.47295  1.0000
  C   C177      1.0  0.17374  0.34641  0.46013  1.0000
  H   H200      1.0  0.11580  0.37892  0.46067  1.0000
  N   N10       1.0  0.14739  0.37580  0.44196  1.0000
  C   C178      1.0  0.15479  0.36601  0.42023  1.0000
  C   C179      1.0  0.12294  0.37245  0.44464  1.0000
  C   C180      1.0  0.15136  0.40028  0.44026  1.0000
  S   S49       1.0  0.06964  0.18463  0.26418  1.0000
  C   C181      1.0  0.50059  0.17404  0.37353  1.0000
  N   N11       1.0  0.03263  0.43629  0.38596  1.0000
  C   C182      1.0  0.34001  0.15994  0.49017  1.0000
  N   N12       1.0  0.16951  0.50555  0.28504  1.0000
  C   C183      1.0  0.04403  0.46892  0.36097  1.0000
  C   C184      1.0  0.32412  0.13296  0.41474  1.0000
  H   H201      1.0  0.11621  0.19658  0.27806  1.0000
  C   C185      1.0  0.17347  0.48696  0.30175  1.0000
  H   H202      1.0  0.02367  0.44062  0.42088  1.0000
  H   H203      1.0  0.50827  0.10564  0.27240  1.0000
  H   H204      1.0  0.50496  0.15728  0.40659  1.0000
  C   C186      1.0  0.50192  0.11639  0.32274  1.0000
  H   H205      1.0  0.48853  0.18650  0.34100  1.0000
  H   H206      1.0  0.17725  0.47075  0.29343  1.0000
  H   H207      1.0  0.05701  0.29737  0.28040  1.0000
  H   H208      1.0  0.21259  0.48425  0.28383  1.0000
  H   H209      1.0  0.42455  0.12657  0.29043  1.0000
  H   H210      1.0  0.02288  0.41224  0.41196  1.0000
  H   H211      1.0  0.01651  0.21420  0.28758  1.0000
  C   C187      1.0  0.49376  0.11325  0.26417  1.0000
  S   S50       1.0  0.06233  0.25269  0.26351  1.0000
  H   H212      1.0  0.01437  0.36787  0.69289  1.0000
  Fe  Fe25      1.0  0.33709  0.14200  0.55165  1.0000
  S   S51       1.0  0.34136  0.11095  0.53096  1.0000
  S   S52       1.0  0.30233  0.15892  0.54674  1.0000
  Fe  Fe26      1.0  0.38328  0.13324  0.57292  1.0000
  S   S53       1.0  0.39035  0.10183  0.55376  1.0000
  S   S54       1.0  0.40683  0.14308  0.60037  1.0000
  Fe  Fe27      1.0  0.37664  0.12157  0.52410  1.0000
  Fe  Fe28      1.0  0.35445  0.09373  0.56223  1.0000
  S   S55       1.0  0.34387  0.05799  0.57032  1.0000
  S   S56       1.0  0.37183  0.15394  0.54276  1.0000
  S   S57       1.0  0.34795  0.12379  0.58344  1.0000
  Fe  Fe29      1.0  0.25518  0.45801  0.71452  1.0000
  S   S58       1.0  0.22650  0.48166  0.70522  1.0000
  S   S59       1.0  0.27112  0.46626  0.74784  1.0000
  Fe  Fe30      1.0  0.24658  0.42902  0.67380  1.0000
  S   S60       1.0  0.21813  0.45122  0.66117  1.0000
  S   S61       1.0  0.25670  0.39507  0.66005  1.0000
  Fe  Fe31      1.0  0.23989  0.47998  0.66979  1.0000
  Fe  Fe32      1.0  0.20724  0.45108  0.69755  1.0000
  S   S62       1.0  0.17081  0.44774  0.70863  1.0000
  S   S63       1.0  0.26969  0.45755  0.67940  1.0000
  S   S64       1.0  0.23456  0.42758  0.70980  1.0000
  Fe  Fe33      1.0  0.07499  0.32182  0.69667  1.0000
  S   S65       1.0  0.09791  0.30555  0.72204  1.0000
  S   S66       1.0  0.07728  0.31666  0.65920  1.0000
  Fe  Fe34      1.0  0.05108  0.35196  0.73092  1.0000
  H   H213      1.0  0.03376  0.41651  0.69067  1.0000
  Fe  Fe35      1.0  0.10157  0.34095  0.73348  1.0000
  H   H214      1.0  0.09389  0.22792  0.57151  1.0000
  S   S67       1.0  0.08020  0.35727  0.70687  1.0000
  S   S68       1.0  0.04411  0.31771  0.71869  1.0000
  Fe  Fe36      1.0  0.18143  0.27823  0.58862  1.0000
  S   S69       1.0  0.16974  0.30732  0.56669  1.0000
  S   S70       1.0  0.16236  0.26415  0.61877  1.0000
  Fe  Fe37      1.0  0.22723  0.27290  0.56440  1.0000
  S   S71       1.0  0.21898  0.30204  0.54070  1.0000
  S   S72       1.0  0.26330  0.25821  0.56520  1.0000
  Fe  Fe38      1.0  0.20468  0.31956  0.57095  1.0000
  S   S73       1.0  0.20931  0.35667  0.57552  1.0000
  Fe  Fe39      1.0  0.18474  0.28748  0.53833  1.0000
  S   S74       1.0  0.21529  0.29190  0.59486  1.0000
  S   S75       1.0  0.19390  0.25692  0.55995  1.0000
  H   H215      1.0  0.31394  0.45124  0.72666  1.0000
  C   C188      1.0  0.10153  0.30261  0.64862  1.0000
  C   C189      1.0  0.11190  0.28493  0.66073  1.0000
  C   C190      1.0  0.13056  0.27325  0.65139  1.0000
  C   C191      1.0  0.13917  0.27942  0.63008  1.0000
  C   C192      1.0  0.12903  0.29738  0.61815  1.0000
  C   C193      1.0  0.11025  0.30891  0.62740  1.0000
  H   H216      1.0  0.10522  0.27988  0.67707  1.0000
  H   H217      1.0  0.13831  0.25935  0.66071  1.0000
  H   H218      1.0  0.13538  0.30225  0.60169  1.0000
  H   H219      1.0  0.10234  0.32266  0.61800  1.0000
  C   C194      1.0  0.24156  0.38452  0.63773  1.0000
  C   C195      1.0  0.24115  0.36122  0.63489  1.0000
  C   C196      1.0  0.23056  0.35241  0.61634  1.0000
  C   C197      1.0  0.22089  0.36688  0.60015  1.0000
  C   C198      1.0  0.22110  0.39015  0.60312  1.0000
  C   C199      1.0  0.23121  0.39895  0.62195  1.0000
  H   H220      1.0  0.24931  0.34999  0.64696  1.0000
  H   H221      1.0  0.23034  0.33448  0.61437  1.0000
  H   H222      1.0  0.21362  0.40145  0.59069  1.0000
  H   H223      1.0  0.23167  0.41692  0.62384  1.0000
  C   C200      1.0  0.16131  0.42058  0.71548  1.0000
  C   C201      1.0  0.17616  0.40197  0.71585  1.0000
  C   C202      1.0  0.16854  0.38077  0.72281  1.0000
  C   C203      1.0  0.14589  0.37782  0.72873  1.0000
  H   H224      1.0  0.28229  0.08742  0.55526  1.0000
  C   C204      1.0  0.07716  0.30991  0.56517  1.0000
  H   H225      1.0  0.19358  0.40390  0.71106  1.0000
  H   H226      1.0  0.18028  0.36662  0.72371  1.0000
  H   H227      1.0  0.43551  0.21170  0.65961  1.0000
  N   N13       1.0  0.27635  0.10493  0.58624  1.0000
  C   C205      1.0  0.33182  0.04888  0.59628  1.0000
  C   C206      1.0  0.32740  0.06371  0.61370  1.0000
  C   C207      1.0  0.31688  0.05608  0.63374  1.0000
  C   C208      1.0  0.31117  0.03346  0.63677  1.0000
  H   H228      1.0  0.40710  0.19820  0.59665  1.0000
  C   C209      1.0  0.32636  0.02621  0.59940  1.0000
  H   H229      1.0  0.33204  0.08104  0.61168  1.0000
  H   H230      1.0  0.31302  0.06778  0.64693  1.0000
  H   H231      1.0  0.47737  0.20890  0.59885  1.0000
  H   H232      1.0  0.12599  0.24415  0.59005  1.0000
  C   C210      1.0  0.29187  0.18655  0.55244  1.0000
  C   C211      1.0  0.30565  0.20333  0.55981  1.0000
  C   C212      1.0  0.29658  0.22509  0.56368  1.0000
  C   C213      1.0  0.27364  0.23033  0.56040  1.0000
  C   C214      1.0  0.25985  0.21350  0.55314  1.0000
  C   C215      1.0  0.26894  0.19178  0.54912  1.0000
  H   H233      1.0  0.32330  0.19961  0.56242  1.0000
  H   H234      1.0  0.30743  0.23794  0.56929  1.0000
  H   H235      1.0  0.24221  0.21725  0.55048  1.0000
  H   H236      1.0  0.08560  0.23804  0.54418  1.0000
  C   C216      1.0  0.25702  0.11801  0.57684  1.0000
  H   H237      1.0  0.27421  0.40144  0.75984  1.0000
  C   C217      1.0  0.45991  0.21205  0.63137  1.0000
  C   C218      1.0  0.48175  0.15779  0.58835  1.0000
  C   C219      1.0  0.46716  0.15717  0.57015  1.0000
  C   C220      1.0  0.44442  0.15174  0.57347  1.0000
  C   C221      1.0  0.43591  0.14726  0.59514  1.0000
  C   C222      1.0  0.45061  0.14732  0.61329  1.0000
  C   C223      1.0  0.47351  0.15213  0.60987  1.0000
  H   H238      1.0  0.47340  0.16123  0.55338  1.0000
  H   H239      1.0  0.43335  0.15166  0.55932  1.0000
  H   H240      1.0  0.44424  0.14363  0.63008  1.0000
  H   H241      1.0  0.48474  0.15149  0.62383  1.0000
  H   H242      1.0  0.06568  0.28377  0.61521  1.0000
  H   H243      1.0  0.35294  0.44960  0.74089  1.0000
  H   H244      1.0  0.29693  0.13381  0.58998  1.0000
  S   S76       1.0  0.29685  0.02511  0.66181  1.0000
  H   H245      1.0  0.20226  0.50634  0.52184  1.0000
  C   C224      1.0  0.17764  0.38210  0.65075  1.0000
  C   C225      1.0  0.17481  0.40546  0.65005  1.0000
  C   C226      1.0  0.16109  0.36808  0.66065  1.0000
  C   C227      1.0  0.09169  0.29376  0.55562  1.0000
  N   N14       1.0  0.16480  0.34339  0.66150  1.0000
  C   C228      1.0  0.15532  0.41555  0.65890  1.0000
  C   C229      1.0  0.13846  0.40229  0.66821  1.0000
  H   H246      1.0  0.13007  0.33419  0.66499  1.0000
  H   H247      1.0  0.12704  0.43200  0.72127  1.0000
  C   C230      1.0  0.13084  0.39627  0.72779  1.0000
  H   H248      1.0  0.38836  0.06085  0.67788  1.0000
  C   C231      1.0  0.14122  0.37890  0.66927  1.0000
  H   H249      1.0  0.14445  0.33639  0.69120  1.0000
  H   H250      1.0  0.40322  0.20341  0.63750  1.0000
  H   H251      1.0  0.15347  0.43370  0.65895  1.0000
  C   C232      1.0  0.39399  0.07040  0.64363  1.0000
  H   H252      1.0  0.12343  0.41023  0.67535  1.0000
  C   C233      1.0  0.26809  0.08578  0.60016  1.0000
  C   C234      1.0  0.25478  0.08967  0.61982  1.0000
  C   C235      1.0  0.27287  0.06297  0.59481  1.0000
  C   C236      1.0  0.24740  0.07191  0.63365  1.0000
  C   C237      1.0  0.26510  0.04537  0.60861  1.0000
  C   C238      1.0  0.25267  0.04981  0.62812  1.0000
  H   H253      1.0  0.25025  0.10651  0.62484  1.0000
  H   H254      1.0  0.28313  0.05817  0.58046  1.0000
  H   H255      1.0  0.35916  0.04572  0.69783  1.0000
  H   H256      1.0  0.11120  0.22156  0.54752  1.0000
  C   C239      1.0  0.37565  0.02953  0.63295  1.0000
  H   H257      1.0  0.14964  0.31274  0.67380  1.0000
  H   H258      1.0  0.18793  0.41578  0.64281  1.0000
  C   C240      1.0  0.28939  0.11990  0.60022  1.0000
  H   H259      1.0  0.13757  0.31704  0.52309  1.0000
  H   H260      1.0  0.31476  0.50538  0.68945  1.0000
  C   C241      1.0  0.31707  0.45597  0.74367  1.0000
  H   H261      1.0  0.30638  0.08851  0.57310  1.0000
  H   H262      1.0  0.33835  0.03922  0.67799  1.0000
  N   N15       1.0  0.28881  0.32451  0.57547  1.0000
  C   C242      1.0  0.26477  0.31901  0.57732  1.0000
  C   C243      1.0  0.29378  0.33283  0.55223  1.0000
  C   C244      1.0  0.30216  0.30329  0.57910  1.0000
  C   C245      1.0  0.29344  0.34204  0.59175  1.0000
  C   C246      1.0  0.28306  0.36373  0.58952  1.0000
  C   C247      1.0  0.30745  0.33802  0.61056  1.0000
  C   C248      1.0  0.28680  0.38044  0.60488  1.0000
  C   C249      1.0  0.31083  0.35482  0.62598  1.0000
  C   C250      1.0  0.30052  0.37595  0.62315  1.0000
  H   H263      1.0  0.25346  0.33370  0.57339  1.0000
  H   H264      1.0  0.26060  0.30567  0.56556  1.0000
  H   H265      1.0  0.26033  0.31281  0.59459  1.0000
  H   H266      1.0  0.28241  0.34706  0.54702  1.0000
  H   H267      1.0  0.29149  0.31954  0.53974  1.0000
  H   H268      1.0  0.31138  0.33853  0.55052  1.0000
  H   H269      1.0  0.29773  0.29489  0.59547  1.0000
  H   H270      1.0  0.29870  0.29073  0.56616  1.0000
  H   H271      1.0  0.32052  0.30620  0.57823  1.0000
  H   H272      1.0  0.27135  0.36777  0.57630  1.0000
  H   H273      1.0  0.31568  0.32196  0.61397  1.0000
  H   H274      1.0  0.27825  0.39670  0.60320  1.0000
  H   H275      1.0  0.32118  0.35137  0.64048  1.0000
  H   H276      1.0  0.30261  0.38873  0.63550  1.0000
  H   H277      1.0  0.50971  0.19513  0.65370  1.0000
  H   H278      1.0  0.26272  0.13238  0.56594  1.0000
  C   C251      1.0  0.49426  0.19402  0.64377  1.0000
  H   H279      1.0  0.49192  0.22351  0.67712  1.0000
  C   C252      1.0  0.14642  0.33125  0.67340  1.0000
  H   H280      1.0  0.12773  0.36979  0.67734  1.0000
  C   C253      1.0  0.06773  0.30623  0.58651  1.0000
  H   H281      1.0  0.24593  0.12534  0.59015  1.0000
  H   H282      1.0  0.19302  0.37510  0.64361  1.0000
  C   C254      1.0  0.42152  0.20276  0.60615  1.0000
  C   C255      1.0  0.38664  0.05569  0.66080  1.0000
  C   C256      1.0  0.31626  0.01845  0.61964  1.0000
  C   C257      1.0  0.16672  0.33500  0.63830  1.0000
  H   H283      1.0  0.23782  0.07524  0.64895  1.0000
  C   C258      1.0  0.25619  0.39921  0.76076  1.0000
  S   S77       1.0  0.13739  0.35113  0.73844  1.0000
  H   H284      1.0  0.27892  0.12813  0.61344  1.0000
  C   C259      1.0  0.29117  0.09796  0.56714  1.0000
  H   H285      1.0  0.29727  0.11265  0.55713  1.0000
  C   C260      1.0  0.13862  0.41767  0.72151  1.0000
  N   N16       1.0  0.11269  0.25583  0.55795  1.0000
  H   H286      1.0  0.48367  0.24953  0.63313  1.0000
  H   H287      1.0  0.14057  0.26672  0.57657  1.0000
  C   C261      1.0  0.02894  0.43072  0.70091  1.0000
  C   C262      1.0  0.09729  0.27332  0.56740  1.0000
  H   H288      1.0  0.14407  0.23874  0.56650  1.0000
  H   H289      1.0  0.09834  0.29776  0.53904  1.0000
  C   C263      1.0  0.39226  0.06472  0.62125  1.0000
  H   H290      1.0  0.15127  0.33941  0.62876  1.0000
  H   H291      1.0  0.11336  0.39416  0.73247  1.0000
  C   C264      1.0  0.41944  0.20555  0.62923  1.0000
  C   C265      1.0  0.10030  0.23493  0.55520  1.0000
  H   H292      1.0  0.46516  0.23584  0.66980  1.0000
  C   C266      1.0  0.43827  0.21021  0.64177  1.0000
  H   H293      1.0  0.19196  0.39077  0.76238  1.0000
  H   H294      1.0  0.25828  0.36595  0.74766  1.0000
  H   H295      1.0  0.46813  0.20625  0.67765  1.0000
  C   C267      1.0  0.29920  0.46340  0.75747  1.0000
  C   C268      1.0  0.35203  0.03181  0.68854  1.0000
  H   H296      1.0  0.16920  0.31640  0.63820  1.0000
  H   H297      1.0  0.05682  0.31894  0.59409  1.0000
  H   H298      1.0  0.18116  0.34215  0.62866  1.0000
  H   H299      1.0  0.24756  0.03606  0.63920  1.0000
  C   C269      1.0  0.18593  0.33751  0.67332  1.0000
  H   H300      1.0  0.18550  0.34450  0.69045  1.0000
  H   H301      1.0  0.18869  0.31899  0.67512  1.0000
  H   H302      1.0  0.20103  0.34402  0.66430  1.0000
  H   H303      1.0  0.30332  0.11039  0.60867  1.0000
  H   H304      1.0  0.24656  0.10727  0.56652  1.0000
  N   N17       1.0  0.48051  0.21510  0.64429  1.0000
  H   H305      1.0  0.44410  0.20179  0.57761  1.0000
  H   H306      1.0  0.48470  0.17963  0.65089  1.0000
  H   H307      1.0  0.26950  0.02811  0.60462  1.0000
  C   C270      1.0  0.46137  0.20908  0.60781  1.0000
  H   H308      1.0  0.05241  0.42137  0.72662  1.0000
  H   H309      1.0  0.32662  0.49947  0.72568  1.0000
  H   H310      1.0  0.49976  0.18976  0.62641  1.0000
  C   C271      1.0  0.49386  0.23361  0.63418  1.0000
  Fe  Fe40      1.0  0.06769  0.30448  0.74556  1.0000
  S   S78       1.0  0.02300  0.37739  0.73977  1.0000
  H   H311      1.0  0.13463  0.24911  0.52921  1.0000
  C   C272      1.0  0.33919  0.45501  0.75181  1.0000
  H   H312      1.0  0.29480  0.49022  0.70710  1.0000
  C   C273      1.0  0.44239  0.20477  0.59544  1.0000
  C   C274      1.0  0.13153  0.25111  0.57341  1.0000
  S   S79       1.0  0.07317  0.33875  0.75899  1.0000
  C   C275      1.0  0.07264  0.28630  0.59835  1.0000
  C   C276      1.0  0.03297  0.45122  0.73479  1.0000
  H   H313      1.0  0.40099  0.08638  0.64760  1.0000
  H   H314      1.0  0.39773  0.07625  0.60794  1.0000
  C   C277      1.0  0.47603  0.22044  0.66823  1.0000
  H   H315      1.0  0.25810  0.17899  0.54338  1.0000
  H   H316      1.0  0.26472  0.51105  0.72782  1.0000
  C   C278      1.0  0.03949  0.43342  0.72122  1.0000
  H   H317      1.0  0.09071  0.25508  0.59909  1.0000
  C   C279      1.0  0.38330  0.04427  0.61595  1.0000
  C   C280      1.0  0.37708  0.03484  0.65599  1.0000
  H   H318      1.0  0.34834  0.50664  0.75832  1.0000
  C   C281      1.0  0.08718  0.27006  0.58902  1.0000
  H   H319      1.0  0.28637  0.50321  0.68107  1.0000
  H   H320      1.0  0.38174  0.04008  0.59845  1.0000
  C   C282      1.0  0.22407  0.37662  0.75478  1.0000
  H   H321      1.0  0.20223  0.50476  0.63568  1.0000
  C   C283      1.0  0.12276  0.26230  0.53576  1.0000
  C   C284      1.0  0.01577  0.46629  0.72816  1.0000
  H   H322      1.0  0.22444  0.45917  0.76027  1.0000
  S   S80       1.0  0.50964  0.16686  0.58328  1.0000
  H   H323      1.0  0.04116  0.45313  0.75066  1.0000
  C   C285      1.0  0.20971  0.39396  0.76233  1.0000
  C   C286      1.0  0.29709  0.50533  0.69592  1.0000
  H   H324      1.0  0.16230  0.37167  0.51872  1.0000
  H   H325      1.0  0.07328  0.32545  0.55598  1.0000
  H   H326      1.0  0.50035  0.22989  0.61703  1.0000
  H   H327      1.0  0.21712  0.36111  0.74933  1.0000
  H   H328      1.0  0.50905  0.23670  0.64416  1.0000
  H   H329      1.0  0.20314  0.44866  0.74304  1.0000
  H   H330      1.0  0.13276  0.27766  0.53695  1.0000
  H   H331      1.0  0.10981  0.26527  0.52273  1.0000
  C   C287      1.0  0.24724  0.37928  0.75387  1.0000
  C   C288      1.0  0.20693  0.45322  0.76050  1.0000
  H   H332      1.0  0.36831  0.01432  0.62748  1.0000
  H   H333      1.0  0.39600  0.02698  0.69686  1.0000
  H   H334      1.0  0.17344  0.42491  0.75974  1.0000
  N   N18       1.0  0.36913  0.01974  0.67451  1.0000
  H   H335      1.0  0.32982  0.01461  0.58601  1.0000
  H   H336      1.0  0.18796  0.33864  0.51487  1.0000
  H   H337      1.0  0.34400  0.02045  0.70132  1.0000
  H   H338      1.0  0.18307  0.51210  0.54476  1.0000
  Fe  Fe41      1.0  0.43183  0.45247  0.84072  1.0000
  S   S81       1.0  0.40133  0.43211  0.83511  1.0000
  S   S82       1.0  0.46863  0.44051  0.84188  1.0000
  Fe  Fe42      1.0  0.40352  0.49422  0.85446  1.0000
  S   S83       1.0  0.37096  0.47699  0.84917  1.0000
  Fe  Fe43      1.0  0.38730  0.44717  0.86695  1.0000
  S   S84       1.0  0.36582  0.42947  0.89362  1.0000
  Fe  Fe44      1.0  0.38717  0.46348  0.81767  1.0000
  S   S85       1.0  0.37215  0.46098  0.78268  1.0000
  S   S86       1.0  0.41872  0.46504  0.87399  1.0000
  S   S87       1.0  0.41887  0.48316  0.82151  1.0000
  Fe  Fe45      1.0  0.03280  0.17911  0.91018  1.0000
  S   S88       1.0  0.04197  0.17269  0.87400  1.0000
  Fe  Fe46      1.0  0.08162  0.17419  0.92531  1.0000
  S   S89       1.0  0.09417  0.16667  0.89029  1.0000
  S   S90       1.0  0.10658  0.17128  0.95398  1.0000
  Fe  Fe47      1.0  0.07110  0.19516  0.87862  1.0000
  S   S91       1.0  0.08812  0.22008  0.85403  1.0000
  Fe  Fe48      1.0  0.06440  0.14470  0.88815  1.0000
  S   S92       1.0  0.06327  0.11121  0.87066  1.0000
  S   S93       1.0  0.06041  0.20399  0.91399  1.0000
  S   S94       1.0  0.05333  0.14987  0.92399  1.0000
  C   C289      1.0  0.07685  0.17609  0.81422  1.0000
  C   C290      1.0  0.51179  0.31837  0.83776  1.0000
  H   H339      1.0  0.02605  0.34448  0.77570  1.0000
  S   S95       1.0  0.13385  0.02892  0.87905  1.0000
  S   S96       1.0  0.39592  0.40508  0.99344  1.0000
  H   H340      1.0  0.06254  0.18405  0.80493  1.0000
  C   C291      1.0  0.11847  0.19182  0.97090  1.0000
  C   C292      1.0  0.11280  0.21470  0.96861  1.0000
  C   C293      1.0  0.12436  0.23055  0.98076  1.0000
  N   N19       1.0  0.48385  0.50171  0.86914  1.0000
  H   H341      1.0  0.01824  0.28454  0.79777  1.0000
  C   C294      1.0  0.13483  0.18493  0.98653  1.0000
  H   H342      1.0  0.09963  0.22018  0.95737  1.0000
  C   C295      1.0  0.07716  0.02756  0.91731  1.0000
  H   H343      1.0  0.29005  0.47516  0.79042  1.0000
  H   H344      1.0  0.13919  0.16725  0.98863  1.0000
  C   C296      1.0  0.08281  0.08835  0.87378  1.0000
  C   C297      1.0  0.10198  0.08970  0.88676  1.0000
  C   C298      1.0  0.11750  0.07141  0.88807  1.0000
  C   C299      1.0  0.11389  0.05150  0.87669  1.0000
  C   C300      1.0  0.09462  0.05008  0.86390  1.0000
  C   C301      1.0  0.07922  0.06845  0.86240  1.0000
  H   H345      1.0  0.10497  0.10493  0.89555  1.0000
  H   H346      1.0  0.13237  0.07267  0.89800  1.0000
  H   H347      1.0  0.09160  0.03484  0.85511  1.0000
  H   H348      1.0  0.06443  0.06724  0.85234  1.0000
  C   C302      1.0  0.07780  0.23571  0.83028  1.0000
  C   C303      1.0  0.05668  0.23217  0.82140  1.0000
  C   C304      1.0  0.04972  0.24430  0.80195  1.0000
  C   C305      1.0  0.06352  0.26041  0.79136  1.0000
  C   C306      1.0  0.08450  0.26414  0.80041  1.0000
  C   C307      1.0  0.09163  0.25173  0.81964  1.0000
  H   H349      1.0  0.04580  0.21997  0.82937  1.0000
  H   H350      1.0  0.03350  0.24117  0.79504  1.0000
  H   H351      1.0  0.09535  0.27639  0.79246  1.0000
  H   H352      1.0  0.10803  0.25461  0.82627  1.0000
  C   C308      1.0  0.37469  0.42159  0.92097  1.0000
  C   C309      1.0  0.35865  0.41442  0.93709  1.0000
  C   C310      1.0  0.36480  0.40928  0.95940  1.0000
  C   C311      1.0  0.38715  0.41100  0.96566  1.0000
  C   C312      1.0  0.40325  0.41781  0.94944  1.0000
  C   C313      1.0  0.39707  0.42317  0.92722  1.0000
  H   H353      1.0  0.34130  0.41307  0.93238  1.0000
  H   H354      1.0  0.35227  0.40395  0.97169  1.0000
  H   H355      1.0  0.42059  0.41914  0.95414  1.0000
  H   H356      1.0  0.40958  0.42855  0.91495  1.0000
  H   H357      1.0  0.03330  0.31759  0.78739  1.0000
  H   H358      1.0  0.05444  0.14365  0.83669  1.0000
  C   C314      1.0  0.09759  0.14026  0.82310  1.0000
  C   C315      1.0  0.32576  0.46806  0.78784  1.0000
  C   C316      1.0  0.36645  0.47111  0.96368  1.0000
  C   C317      1.0  0.35661  0.51048  0.96781  1.0000
  H   H359      1.0  0.32895  0.47291  0.80480  1.0000
  H   H360      1.0  0.22693  0.44701  0.79963  1.0000
  C   C318      1.0  0.48477  0.40296  0.78718  1.0000
  C   C319      1.0  0.47281  0.41686  0.80235  1.0000
  C   C320      1.0  0.48307  0.42369  0.82180  1.0000
  H   H361      1.0  0.14619  0.10887  0.85580  1.0000
  C   C321      1.0  0.46513  0.50333  0.85319  1.0000
  H   H362      1.0  0.45558  0.42205  0.79914  1.0000
  C   C322      1.0  0.09728  0.02101  0.92756  1.0000
  H   H363      1.0  0.47656  0.39747  0.77236  1.0000
  C   C323      1.0  0.45702  0.38361  0.99962  1.0000
  H   H364      1.0  0.37026  0.45659  0.95377  1.0000
  H   H365      1.0  0.04260  0.15004  0.80979  1.0000
  C   C324      1.0  0.34361  0.48078  0.91963  1.0000
  H   H366      1.0  0.16876  0.44360  0.78216  1.0000
  H   H367      1.0  0.05646  0.12350  0.81523  1.0000
  C   C325      1.0  0.17932  0.42891  0.77674  1.0000
  C   C326      1.0  0.05719  0.14175  0.81832  1.0000
  C   C327      1.0  0.14606  0.20073  0.99904  1.0000
  H   H368      1.0  0.49122  0.48446  0.90043  1.0000
  C   C328      1.0  0.36159  0.49235  0.95329  1.0000
  H   H369      1.0  0.38689  0.46897  0.92189  1.0000
  C   C329      1.0  0.36128  0.48609  0.00079  1.0000
  H   H370      1.0  0.19822  0.45407  0.80551  1.0000
  C   C330      1.0  0.11889  0.10563  0.83331  1.0000
  N   N20       1.0  0.36141  0.49480  0.92846  1.0000
  C   C331      1.0  0.10141  0.11668  0.82181  1.0000
  C   C332      1.0  0.11261  0.15211  0.83639  1.0000
  H   H371      1.0  0.12097  0.08750  0.83271  1.0000
  H   H372      1.0  0.47141  0.39406  0.99409  1.0000
  C   C333      1.0  0.36631  0.46806  0.98702  1.0000
  H   H373      1.0  0.07376  0.17985  0.83224  1.0000
  H   H374      1.0  0.44883  0.50775  0.86166  1.0000
  H   H375      1.0  0.44158  0.39118  0.99195  1.0000
  H   H376      1.0  0.15893  0.19517  0.01064  1.0000
  C   C334      1.0  0.13308  0.11766  0.84642  1.0000
  H   H377      1.0  0.45180  0.37264  0.81142  1.0000
  H   H378      1.0  0.34319  0.48177  0.90093  1.0000
  H   H379      1.0  0.50882  0.32385  0.88234  1.0000
  C   C335      1.0  0.20966  0.44046  0.79913  1.0000
  C   C336      1.0  0.47900  0.35933  0.86896  1.0000
  C   C337      1.0  0.50555  0.41700  0.82558  1.0000
  H   H380      1.0  0.17549  0.41464  0.78851  1.0000
  C   C338      1.0  0.05905  0.01332  0.91803  1.0000
  C   C339      1.0  0.45848  0.37134  0.86778  1.0000
  C   C340      1.0  0.45930  0.36861  0.82752  1.0000
  C   C341      1.0  0.44869  0.37602  0.84711  1.0000
  H   H381      1.0  0.39743  0.49655  0.92567  1.0000
  C   C342      1.0  0.08207  0.14802  0.78639  1.0000
  H   H382      1.0  0.06873  0.15693  0.77647  1.0000
  H   H383      1.0  0.45956  0.36679  0.99225  1.0000
  H   H384      1.0  0.02111  0.33884  0.80511  1.0000
  N   N21       1.0  0.20365  0.43384  0.77626  1.0000
  C   C343      1.0  0.14126  0.22369  0.99580  1.0000
  C   C344      1.0  0.24199  0.41661  0.76836  1.0000
  H   H385      1.0  0.47706  0.46782  0.88064  1.0000
  H   H386      1.0  0.43300  0.38571  0.84623  1.0000
  H   H387      1.0  0.09219  0.18488  0.80823  1.0000
  C   C345      1.0  0.50404  0.49284  0.85682  1.0000
  H   H388      1.0  0.13374  0.02696  0.95426  1.0000
  N   N22       1.0  0.07883  0.15149  0.81081  1.0000
  H   H389      1.0  0.34625  0.46268  0.92412  1.0000
  C   C346      1.0  0.21828  0.41468  0.76911  1.0000
  H   H390      1.0  0.24979  0.43183  0.77320  1.0000
  H   H391      1.0  0.11112  0.03227  0.92554  1.0000
  C   C347      1.0  0.30370  0.46934  0.77959  1.0000
  C   C348      1.0  0.50703  0.39575  0.79129  1.0000
  H   H392      1.0  0.07577  0.04362  0.90834  1.0000
  H   H393      1.0  0.11546  0.01692  0.97654  1.0000
  H   H394      1.0  0.38398  0.48964  0.90020  1.0000
  H   H395      1.0  0.04368  0.01830  0.90960  1.0000
  H   H396      1.0  0.14093  0.15005  0.85837  1.0000
  H   H397      1.0  0.49848  0.30757  0.84522  1.0000
  H   H398      1.0  0.46283  0.48720  0.84474  1.0000
  C   C349      1.0  0.38339  0.48715  0.91878  1.0000
  C   C350      1.0  0.47994  0.35687  0.82844  1.0000
  H   H399      1.0  0.09859  0.15437  0.78031  1.0000
  H   H400      1.0  0.09056  0.10645  0.81235  1.0000
  H   H401      1.0  0.48568  0.35652  0.88551  1.0000
  H   H402      1.0  0.45017  0.37735  0.88294  1.0000
  H   H403      1.0  0.46169  0.48872  0.89549  1.0000
  N   N23       1.0  0.13945  0.22521  0.90064  1.0000
  C   C351      1.0  0.14444  0.20590  0.88590  1.0000
  C   C352      1.0  0.11667  0.22286  0.91066  1.0000
  C   C353      1.0  0.13920  0.24589  0.88609  1.0000
  C   C354      1.0  0.15579  0.22559  0.91900  1.0000
  C   C355      1.0  0.16029  0.20596  0.93240  1.0000
  C   C356      1.0  0.16641  0.24552  0.92515  1.0000
  C   C357      1.0  0.17496  0.20614  0.95036  1.0000
  C   C358      1.0  0.18071  0.24558  0.94347  1.0000
  C   C359      1.0  0.18498  0.22594  0.95603  1.0000
  H   H404      1.0  0.16214  0.20602  0.87952  1.0000
  H   H405      1.0  0.14167  0.18946  0.89461  1.0000
  H   H406      1.0  0.13322  0.20617  0.87116  1.0000
  H   H407      1.0  0.11502  0.20671  0.92028  1.0000
  H   H408      1.0  0.10359  0.22331  0.89765  1.0000
  H   H409      1.0  0.11248  0.23666  0.92237  1.0000
  H   H410      1.0  0.15619  0.24912  0.87875  1.0000
  H   H411      1.0  0.12753  0.24457  0.87181  1.0000
  H   H412      1.0  0.13301  0.26085  0.89540  1.0000
  H   H413      1.0  0.15179  0.19050  0.92978  1.0000
  H   H414      1.0  0.16360  0.26142  0.91644  1.0000
  H   H415      1.0  0.17777  0.19104  0.96062  1.0000
  H   H416      1.0  0.18818  0.26104  0.94836  1.0000
  H   H417      1.0  0.19550  0.22622  0.97065  1.0000
  H   H418      1.0  0.12033  0.24826  0.97834  1.0000
  S   S97       1.0  0.15623  0.24439  0.00969  1.0000
  H   H419      1.0  0.32673  0.48594  0.92637  1.0000
  H   H420      1.0  0.20880  0.42589  0.81120  1.0000
  C   C360      1.0  0.35649  0.50726  0.99121  1.0000
  H   H421      1.0  0.11102  0.17002  0.83857  1.0000
  C   C361      1.0  0.34371  0.46103  0.77393  1.0000
  H   H422      1.0  0.37005  0.45156  0.99447  1.0000
  H   H423      1.0  0.48791  0.35241  0.81262  1.0000
  C   C362      1.0  0.47825  0.48505  0.88725  1.0000
  C   C363      1.0  0.49041  0.35173  0.84921  1.0000
  C   C364      1.0  0.02043  0.33149  0.78819  1.0000
  C   C365      1.0  0.13001  0.14084  0.84789  1.0000
  H   H424      1.0  0.08157  0.12999  0.78216  1.0000
  H   H425      1.0  0.50139  0.47567  0.85053  1.0000
  S   S98       1.0  0.05365  0.27518  0.76689  1.0000
  H   H426      1.0  0.01367  0.13622  0.95513  1.0000
  H   H427      1.0  0.50835  0.32088  0.81959  1.0000
  H   H428      1.0  0.50806  0.50343  0.84166  1.0000
  N   N24       1.0  0.51264  0.33990  0.84963  1.0000
  H   H429      1.0  0.19575  0.46785  0.76475  1.0000
  Fe  Fe49      1.0  0.18417  0.91047  0.03928  1.0000
  S   S99       1.0  0.16289  0.88036  0.04572  1.0000
  Fe  Fe50      1.0  0.19673  0.91333  0.08907  1.0000
  S   S100      1.0  0.17670  0.88294  0.09842  1.0000
  S   S101      1.0  0.21230  0.92710  0.12032  1.0000
  Fe  Fe51      1.0  0.19181  0.86767  0.06718  1.0000
  S   S102      1.0  0.20428  0.83097  0.06599  1.0000
  Fe  Fe52      1.0  0.14991  0.89835  0.07651  1.0000
  S   S103      1.0  0.11471  0.90789  0.08963  1.0000
  S   S104      1.0  0.21371  0.89691  0.05928  1.0000
  S   S105      1.0  0.16939  0.92954  0.06845  1.0000
  Fe  Fe53      1.0  0.47845  0.68305  0.23059  1.0000
  Fe  Fe54      1.0  0.43287  0.70842  0.22867  1.0000
  C   C366      1.0  0.34759  0.01072  0.25712  1.0000
  S   S106      1.0  0.40536  0.72881  0.21109  1.0000
  C   C367      1.0  0.16690  0.99425  0.13044  1.0000
  H   H430      1.0  0.15126  0.93003  0.11801  1.0000
  S   S107      1.0  0.46742  0.71891  0.23819  1.0000
  S   S108      1.0  0.44455  0.67435  0.21808  1.0000
  Fe  Fe55      1.0  0.32307  0.70183  0.07013  1.0000
  S   S109      1.0  0.32680  0.72599  0.09808  1.0000
  S   S110      1.0  0.31121  0.66600  0.07171  1.0000
  Fe  Fe56      1.0  0.35145  0.72948  0.03618  1.0000
  S   S111      1.0  0.35759  0.75545  0.06175  1.0000
  Fe  Fe57      1.0  0.36297  0.72674  0.08650  1.0000
  S   S112      1.0  0.39423  0.71811  0.10632  1.0000
  Fe  Fe58      1.0  0.32064  0.75304  0.07105  1.0000
  S   S113      1.0  0.30322  0.78756  0.07590  1.0000
  S   S114      1.0  0.35954  0.70114  0.06011  1.0000
  S   S115      1.0  0.31423  0.72856  0.04388  1.0000
  Fe  Fe59      1.0  0.32800  0.57398  0.18987  1.0000
  S   S116      1.0  0.29819  0.59357  0.20309  1.0000
  S   S117      1.0  0.36184  0.58991  0.18537  1.0000
  Fe  Fe60      1.0  0.29931  0.53582  0.17446  1.0000
  S   S118      1.0  0.26688  0.55321  0.18601  1.0000
  H   H431      1.0  0.05554  0.66405  0.21917  1.0000
  Fe  Fe61      1.0  0.28221  0.58468  0.17101  1.0000
  S   S119      1.0  0.26510  0.61525  0.15486  1.0000
  Fe  Fe62      1.0  0.28531  0.56095  0.21724  1.0000
  C   C368      1.0  0.22593  0.51900  0.24028  1.0000
  S   S120      1.0  0.31266  0.56666  0.15686  1.0000
  S   S121      1.0  0.31702  0.54185  0.20667  1.0000
  H   H432      1.0  0.31402  0.64121  0.02598  1.0000
  C   C369      1.0  0.27973  0.62966  0.13299  1.0000
  C   C370      1.0  0.29375  0.61805  0.11786  1.0000
  C   C371      1.0  0.30360  0.62951  0.09938  1.0000
  C   C372      1.0  0.30022  0.65279  0.09632  1.0000
  C   C373      1.0  0.28711  0.66463  0.11204  1.0000
  C   C374      1.0  0.27654  0.65301  0.13007  1.0000
  H   H433      1.0  0.29612  0.60004  0.11980  1.0000
  H   H434      1.0  0.31360  0.62020  0.08724  1.0000
  H   H435      1.0  0.28424  0.68254  0.10973  1.0000
  H   H436      1.0  0.26568  0.66209  0.14168  1.0000
  C   C375      1.0  0.40234  0.61993  0.24092  1.0000
  H   H437      1.0  0.36294  0.58028  0.23360  1.0000
  C   C376      1.0  0.39262  0.61747  0.20176  1.0000
  C   C377      1.0  0.37691  0.60111  0.20724  1.0000
  H   H438      1.0  0.49300  0.62784  0.23433  1.0000
  C   C378      1.0  0.47976  0.61519  0.23700  1.0000
  H   H439      1.0  0.21592  0.82577  0.01975  1.0000
  H   H440      1.0  0.27826  0.77970  0.12501  1.0000
  C   C379      1.0  0.40204  0.72535  0.18206  1.0000
  C   C380      1.0  0.41833  0.71379  0.16929  1.0000
  C   C381      1.0  0.41569  0.71187  0.14606  1.0000
  C   C382      1.0  0.39664  0.72121  0.13548  1.0000
  C   C383      1.0  0.38009  0.73243  0.14829  1.0000
  C   C384      1.0  0.38287  0.73459  0.17153  1.0000
  H   H441      1.0  0.43322  0.70676  0.17719  1.0000
  H   H442      1.0  0.42855  0.70320  0.13621  1.0000
  H   H443      1.0  0.36541  0.73975  0.14023  1.0000
  H   H444      1.0  0.37024  0.74361  0.18133  1.0000
  C   C385      1.0  0.09229  0.88959  0.09615  1.0000
  C   C386      1.0  0.09473  0.86630  0.09433  1.0000
  C   C387      1.0  0.07652  0.85243  0.09985  1.0000
  C   C388      1.0  0.05567  0.86162  0.10720  1.0000
  C   C389      1.0  0.05323  0.88493  0.10902  1.0000
  C   C390      1.0  0.07147  0.89880  0.10354  1.0000
  H   H445      1.0  0.11062  0.85895  0.08870  1.0000
  H   H446      1.0  0.07857  0.83443  0.09839  1.0000
  H   H447      1.0  0.03731  0.89224  0.11464  1.0000
  H   H448      1.0  0.06936  0.91679  0.10498  1.0000
  C   C391      1.0  0.23214  0.81908  0.06627  1.0000
  C   C392      1.0  0.25109  0.83239  0.06578  1.0000
  C   C393      1.0  0.27271  0.82239  0.06823  1.0000
  C   C394      1.0  0.27583  0.79890  0.07018  1.0000
  C   C395      1.0  0.25698  0.78550  0.06921  1.0000
  C   C396      1.0  0.23526  0.79557  0.06744  1.0000
  H   H449      1.0  0.24912  0.85038  0.06378  1.0000
  H   H450      1.0  0.28717  0.83291  0.06877  1.0000
  H   H451      1.0  0.25904  0.76744  0.07074  1.0000
  H   H452      1.0  0.22077  0.78504  0.06754  1.0000
  C   C397      1.0  0.22896  0.98509  0.14945  1.0000
  C   C398      1.0  0.27098  0.79641  0.12722  1.0000
  H   H453      1.0  0.44278  0.59594  0.22745  1.0000
  H   H454      1.0  0.44441  0.73005  0.02559  1.0000
  C   C399      1.0  0.23296  0.99972  0.13115  1.0000
  C   C400      1.0  0.22238  0.96297  0.14587  1.0000
  C   C401      1.0  0.21928  0.95544  0.12403  1.0000
  C   C402      1.0  0.22251  0.97029  0.10577  1.0000
  H   H455      1.0  0.35923  0.62585  0.15267  1.0000
  H   H456      1.0  0.24023  0.52294  0.22940  1.0000
  H   H457      1.0  0.21985  0.95162  0.16011  1.0000
  H   H458      1.0  0.22027  0.96470  0.08887  1.0000
  H   H459      1.0  0.50816  0.69627  0.01840  1.0000
  H   H460      1.0  0.48379  0.60449  0.25206  1.0000
  N   N25       1.0  0.47715  0.60153  0.21678  1.0000
  C   C403      1.0  0.31216  0.99655  0.24534  1.0000
  C   C404      1.0  0.20586  0.53139  0.23831  1.0000
  H   H461      1.0  0.23146  0.99067  0.16632  1.0000
  H   H462      1.0  0.04542  0.69057  0.20900  1.0000
  H   H463      1.0  0.48268  0.57244  0.18196  1.0000
  H   H464      1.0  0.23259  0.00348  0.09508  1.0000
  H   H465      1.0  0.10545  0.96449  0.14101  1.0000
  H   H466      1.0  0.02802  0.71536  0.26120  1.0000
  H   H467      1.0  0.17269  0.53746  0.25098  1.0000
  H   H468      1.0  0.17147  0.95128  0.11424  1.0000
  H   H469      1.0  0.05482  0.72016  0.24704  1.0000
  N   N26       1.0  0.35545  0.66136  0.14503  1.0000
  C   C405      1.0  0.35398  0.67573  0.12435  1.0000
  C   C406      1.0  0.37642  0.66630  0.15667  1.0000
  C   C407      1.0  0.33587  0.66622  0.16008  1.0000
  C   C408      1.0  0.33175  0.68829  0.16791  1.0000
  C   C409      1.0  0.31328  0.69343  0.18192  1.0000
  H   H470      1.0  0.33794  0.67327  0.11561  1.0000
  H   H471      1.0  0.35492  0.69388  0.12783  1.0000
  H   H472      1.0  0.36806  0.67210  0.11225  1.0000
  H   H473      1.0  0.37766  0.65652  0.17277  1.0000
  H   H474      1.0  0.37736  0.68429  0.16077  1.0000
  H   H475      1.0  0.39164  0.66235  0.14614  1.0000
  H   H476      1.0  0.34201  0.63296  0.12874  1.0000
  H   H477      1.0  0.34273  0.70180  0.16306  1.0000
  H   H478      1.0  0.31034  0.71048  0.18738  1.0000
  N   N27       1.0  0.24282  0.86390  0.13016  1.0000
  C   C410      1.0  0.22072  0.86487  0.14226  1.0000
  C   C411      1.0  0.25739  0.88035  0.14062  1.0000
  C   C412      1.0  0.23958  0.87121  0.10652  1.0000
  C   C413      1.0  0.25246  0.84070  0.13043  1.0000
  C   C414      1.0  0.27557  0.83578  0.13447  1.0000
  C   C415      1.0  0.23919  0.82247  0.12443  1.0000
  C   C416      1.0  0.28459  0.81392  0.13278  1.0000
  C   C417      1.0  0.24830  0.80065  0.12322  1.0000
  H   H479      1.0  0.06093  0.64333  0.25003  1.0000
  H   H480      1.0  0.22207  0.85754  0.15956  1.0000
  H   H481      1.0  0.21399  0.88246  0.14357  1.0000
  H   H482      1.0  0.20751  0.85593  0.13351  1.0000
  H   H483      1.0  0.26153  0.87504  0.15812  1.0000
  H   H484      1.0  0.24905  0.89736  0.14132  1.0000
  H   H485      1.0  0.27322  0.88290  0.13071  1.0000
  H   H486      1.0  0.22735  0.86064  0.09813  1.0000
  H   H487      1.0  0.23312  0.88882  0.10515  1.0000
  H   H488      1.0  0.25571  0.87026  0.09676  1.0000
  H   H489      1.0  0.28720  0.84858  0.13828  1.0000
  H   H490      1.0  0.22191  0.82502  0.11953  1.0000
  H   H491      1.0  0.38493  0.73814  0.25398  1.0000
  S   S122      1.0  0.27286  0.55508  0.25366  1.0000
  C   C418      1.0  0.35760  0.65182  0.02731  1.0000
  H   H492      1.0  0.37208  0.66318  0.02598  1.0000
  C   C419      1.0  0.32976  0.01124  0.24223  1.0000
  C   C420      1.0  0.15749  0.94560  0.12542  1.0000
  H   H493      1.0  0.11395  0.93801  0.12990  1.0000
  H   H494      1.0  0.23798  0.78714  0.11797  1.0000
  H   H495      1.0  0.22645  0.86424  0.02153  1.0000
  S   S123      1.0  0.03335  0.84327  0.11398  1.0000
  C   C421      1.0  0.39323  0.78065  0.24985  1.0000
  H   H496      1.0  0.28378  0.68087  0.19898  1.0000
  H   H497      1.0  0.32229  0.68002  0.02727  1.0000
  C   C422      1.0  0.45808  0.58647  0.22144  1.0000
  C   C423      1.0  0.13877  0.99022  0.16017  1.0000
  C   C424      1.0  0.23112  0.57742  0.25741  1.0000
  H   H498      1.0  0.37599  0.78762  0.25322  1.0000
  C   C425      1.0  0.32057  0.64955  0.16750  1.0000
  C   C426      1.0  0.34432  0.64877  0.23149  1.0000
  H   H499      1.0  0.46401  0.62485  0.24130  1.0000
  H   H500      1.0  0.11910  0.98406  0.10576  1.0000
  H   H501      1.0  0.39267  0.77124  0.23393  1.0000
  H   H502      1.0  0.47897  0.71322  0.04204  1.0000
  H   H503      1.0  0.41670  0.63983  0.21398  1.0000
  H   H504      1.0  0.31876  0.62506  0.22946  1.0000
  H   H505      1.0  0.12460  0.94568  0.15628  1.0000
  H   H506      1.0  0.29017  0.64212  0.18613  1.0000
  S   S124      1.0  0.41846  0.63138  0.26209  1.0000
  N   N28       1.0  0.13946  0.96312  0.12769  1.0000
  H   H507      1.0  0.45634  0.62805  0.20214  1.0000
  Fe  Fe63      1.0  0.43709  0.66321  0.25347  1.0000
  C   C427      1.0  0.12002  0.95250  0.13937  1.0000
  C   C428      1.0  0.47127  0.61719  0.19791  1.0000
  H   H508      1.0  0.02279  0.65695  0.24364  1.0000
  H   H509      1.0  0.29789  0.99786  0.23431  1.0000
  H   H510      1.0  0.02955  0.71786  0.23160  1.0000
  C   C429      1.0  0.35715  0.63764  0.13800  1.0000
  H   H511      1.0  0.34380  0.65308  0.21371  1.0000
  H   H512      1.0  0.14633  0.97657  0.09418  1.0000
  H   H513      1.0  0.32292  0.58630  0.24517  1.0000
  H   H514      1.0  0.12504  0.95621  0.09576  1.0000
  C   C430      1.0  0.49757  0.58804  0.21062  1.0000
  H   H515      1.0  0.14412  0.51394  0.26050  1.0000
  C   C431      1.0  0.37429  0.59365  0.22955  1.0000
  H   H516      1.0  0.31694  0.52164  0.12118  1.0000
  C   C432      1.0  0.05456  0.68215  0.22317  1.0000
  C   C433      1.0  0.14770  0.00846  0.17095  1.0000
  H   H517      1.0  0.30242  0.81059  0.13498  1.0000
  H   H518      1.0  0.16487  0.94088  0.14196  1.0000
  H   H519      1.0  0.17523  0.98923  0.11499  1.0000
  H   H520      1.0  0.46716  0.60831  0.18246  1.0000
  C   C434      1.0  0.49749  0.57375  0.19192  1.0000
  H   H521      1.0  0.37169  0.67046  0.23746  1.0000
  H   H522      1.0  0.39291  0.69552  0.01572  1.0000
  S   S125      1.0  0.50585  0.67050  0.20625  1.0000
  C   C435      1.0  0.13218  0.97037  0.10490  1.0000
  C   C436      1.0  0.32993  0.63271  0.24075  1.0000
  C   C437      1.0  0.29839  0.67680  0.18854  1.0000
  C   C438      1.0  0.40495  0.62712  0.21854  1.0000
  H   H523      1.0  0.23494  0.58531  0.24126  1.0000
  C   C439      1.0  0.18767  0.52695  0.25283  1.0000
  C   C440      1.0  0.38715  0.60292  0.24637  1.0000
  H   H524      1.0  0.32214  0.63228  0.16245  1.0000
  C   C441      1.0  0.30208  0.65494  0.18141  1.0000
  C   C442      1.0  0.22955  0.99225  0.10933  1.0000
  H   H525      1.0  0.34894  0.65472  0.04377  1.0000
  H   H526      1.0  0.37189  0.63455  0.12659  1.0000
  H   H527      1.0  0.39533  0.62262  0.18441  1.0000
  H   H528      1.0  0.20467  0.54497  0.22585  1.0000
  H   H529      1.0  0.12465  0.98237  0.16848  1.0000
  C   C443      1.0  0.14819  0.98252  0.13950  1.0000
  H   H530      1.0  0.36443  0.63431  0.02824  1.0000
  H   H531      1.0  0.45300  0.57755  0.20632  1.0000
  H   H532      1.0  0.19924  0.59522  0.26158  1.0000
  H   H533      1.0  0.48542  0.62848  0.19362  1.0000
  C   C444      1.0  0.47693  0.71324  0.02399  1.0000
  H   H534      1.0  0.18805  0.83674  0.01672  1.0000
  H   H535      1.0  0.46237  0.57360  0.23466  1.0000
  H   H536      1.0  0.40482  0.79467  0.24623  1.0000
  N   N29       1.0  0.04313  0.68635  0.24513  1.0000
  H   H537      1.0  0.19981  0.87656  0.01343  1.0000
  H   H538      1.0  0.42519  0.74953  0.24672  1.0000
  H   H539      1.0  0.07198  0.68847  0.22287  1.0000
  H   H540      1.0  0.28974  0.61107  0.24814  1.0000
  C   C445      1.0  0.36000  0.65858  0.24483  1.0000
  C   C446      1.0  0.02110  0.67544  0.24561  1.0000
  C   C447      1.0  0.03886  0.71099  0.24641  1.0000
  H   H541      1.0  0.43596  0.77216  0.26193  1.0000
  C   C448      1.0  0.17557  0.01250  0.14132  1.0000
  C   C449      1.0  0.31263  0.98075  0.26298  1.0000
  C   C450      1.0  0.42427  0.75794  0.26312  1.0000
  C   C451      1.0  0.45746  0.72281  0.01480  1.0000
  S   S126      1.0  0.18541  0.62972  0.48823  1.0000
  H   H542      1.0  0.41199  0.76563  0.34615  1.0000
  C   C452      1.0  0.29223  0.61261  0.26641  1.0000
  S   S127      1.0  0.47831  0.86834  0.37755  1.0000
  Fe  Fe64      1.0  0.46185  0.83624  0.43259  1.0000
  S   S128      1.0  0.43646  0.84636  0.40652  1.0000
  S   S129      1.0  0.45452  0.82415  0.46861  1.0000
  Fe  Fe65      1.0  0.46298  0.83418  0.38133  1.0000
  S   S130      1.0  0.45587  0.81883  0.34740  1.0000
  Fe  Fe66      1.0  0.45400  0.87934  0.40457  1.0000
  S   S131      1.0  0.43599  0.91303  0.41027  1.0000
  S   S132      1.0  0.48733  0.82174  0.40769  1.0000
  S   S133      1.0  0.47793  0.86992  0.43206  1.0000
  Fe  Fe67      1.0  0.14729  0.55926  0.38420  1.0000
  S   S134      1.0  0.11145  0.55137  0.37712  1.0000
  S   S135      1.0  0.15480  0.55531  0.42154  1.0000
  Fe  Fe68      1.0  0.15861  0.56870  0.33413  1.0000
  S   S136      1.0  0.12310  0.56205  0.32437  1.0000
  S   S137      1.0  0.17994  0.58140  0.30405  1.0000
  Fe  Fe69      1.0  0.11192  0.58192  0.35415  1.0000
  S   S138      1.0  0.08569  0.61024  0.35831  1.0000
  Fe  Fe70      1.0  0.12582  0.53196  0.34812  1.0000
  S   S139      1.0  0.14712  0.59083  0.36271  1.0000
  S   S140      1.0  0.16187  0.53753  0.35646  1.0000
  H   H543      1.0  0.24126  0.67419  0.50731  1.0000
  H   H544      1.0  0.25292  0.53990  0.29549  1.0000
  S   S141      1.0  0.46282  0.72005  0.30754  1.0000
  C   C453      1.0  0.24913  0.70613  0.49171  1.0000
  H   H545      1.0  0.47363  0.98484  0.34070  1.0000
  C   C454      1.0  0.09109  0.62108  0.48905  1.0000
  C   C455      1.0  0.06364  0.61765  0.33974  1.0000
  C   C456      1.0  0.05011  0.63688  0.34401  1.0000
  H   H546      1.0  0.38621  0.96974  0.27346  1.0000
  H   H547      1.0  0.09266  0.65021  0.31274  1.0000
  C   C457      1.0  0.04191  0.61180  0.30643  1.0000
  C   C458      1.0  0.05944  0.60509  0.32088  1.0000
  C   C459      1.0  0.07828  0.64504  0.28061  1.0000
  C   C460      1.0  0.03267  0.64365  0.32948  1.0000
  H   H548      1.0  0.03879  0.60202  0.29186  1.0000
  H   H549      1.0  0.06969  0.59025  0.31742  1.0000
  C   C461      1.0  0.20549  0.57298  0.29004  1.0000
  C   C462      1.0  0.48011  0.98048  0.35718  1.0000
  H   H550      1.0  0.05321  0.64671  0.35854  1.0000
  C   C463      1.0  0.22073  0.55723  0.29940  1.0000
  H   H551      1.0  0.22130  0.57149  0.44375  1.0000
  H   H552      1.0  0.07772  0.68920  0.31521  1.0000
  H   H553      1.0  0.21703  0.54952  0.31565  1.0000
  C   C464      1.0  0.46070  0.79130  0.33690  1.0000
  C   C465      1.0  0.46198  0.78854  0.31350  1.0000
  C   C466      1.0  0.46368  0.76697  0.30427  1.0000
  C   C467      1.0  0.46320  0.74776  0.31827  1.0000
  C   C468      1.0  0.46248  0.75051  0.34169  1.0000
  C   C469      1.0  0.46141  0.77210  0.35097  1.0000
  H   H554      1.0  0.46163  0.80323  0.30244  1.0000
  H   H555      1.0  0.46548  0.76521  0.28635  1.0000
  H   H556      1.0  0.46241  0.73581  0.35274  1.0000
  H   H557      1.0  0.46039  0.77387  0.36898  1.0000
  C   C470      1.0  0.42543  0.97049  0.35796  1.0000
  C   C471      1.0  0.42109  0.97392  0.38078  1.0000
  C   C472      1.0  0.42461  0.95620  0.39659  1.0000
  C   C473      1.0  0.43273  0.93500  0.38980  1.0000
  C   C474      1.0  0.43745  0.93167  0.36702  1.0000
  C   C475      1.0  0.43363  0.94929  0.35118  1.0000
  H   H558      1.0  0.41482  0.99015  0.38624  1.0000
  H   H559      1.0  0.42092  0.95896  0.41417  1.0000
  H   H560      1.0  0.44363  0.91542  0.36155  1.0000
  H   H561      1.0  0.43709  0.94650  0.33357  1.0000
  H   H562      1.0  0.38225  0.78602  0.46717  1.0000
  C   C476      1.0  0.39368  0.79507  0.47720  1.0000
  C   C477      1.0  0.41305  0.80423  0.46698  1.0000
  C   C478      1.0  0.42843  0.81515  0.47996  1.0000
  H   H563      1.0  0.36842  0.95800  0.29523  1.0000
  H   H564      1.0  0.14014  0.64853  0.48630  1.0000
  C   C479      1.0  0.49939  0.91880  0.40418  1.0000
  H   H565      1.0  0.41655  0.80203  0.44927  1.0000
  H   H566      1.0  0.33013  0.96728  0.29121  1.0000
  C   C480      1.0  0.40724  0.77534  0.33126  1.0000
  C   C481      1.0  0.17507  0.60974  0.46984  1.0000
  C   C482      1.0  0.16303  0.59125  0.47772  1.0000
  C   C483      1.0  0.15647  0.57497  0.46264  1.0000
  C   C484      1.0  0.16149  0.57725  0.43952  1.0000
  C   C485      1.0  0.17278  0.59619  0.43155  1.0000
  C   C486      1.0  0.17962  0.61229  0.44666  1.0000
  H   H567      1.0  0.15914  0.58934  0.49544  1.0000
  H   H568      1.0  0.14774  0.56037  0.46896  1.0000
  H   H569      1.0  0.17693  0.59804  0.41384  1.0000
  H   H570      1.0  0.18890  0.62658  0.44042  1.0000
  S   S142      1.0  0.42083  0.99202  0.33727  1.0000
  H   H571      1.0  0.31330  0.57228  0.27025  1.0000
  C   C487      1.0  0.38621  0.74641  0.27042  1.0000
  H   H572      1.0  0.50064  0.96520  0.41696  1.0000
  C   C488      1.0  0.07455  0.67968  0.30043  1.0000
  C   C489      1.0  0.20265  0.54879  0.50352  1.0000
  C   C490      1.0  0.42372  0.81770  0.50299  1.0000
  H   H573      1.0  0.50788  0.90225  0.40780  1.0000
  C   C491      1.0  0.31604  0.60589  0.29784  1.0000
  H   H574      1.0  0.22729  0.59407  0.47717  1.0000
  H   H575      1.0  0.42950  0.86848  0.47877  1.0000
  H   H576      1.0  0.14970  0.52328  0.30984  1.0000
  H   H577      1.0  0.26995  0.77026  0.49588  1.0000
  C   C492      1.0  0.20620  0.54442  0.46266  1.0000
  C   C493      1.0  0.35736  0.99659  0.31511  1.0000
  C   C494      1.0  0.34699  0.63628  0.27690  1.0000
  C   C495      1.0  0.08860  0.61703  0.46623  1.0000
  H   H578      1.0  0.28065  0.60018  0.27437  1.0000
  H   H579      1.0  0.49922  0.91339  0.36008  1.0000
  C   C496      1.0  0.12567  0.63981  0.48060  1.0000
  C   C497      1.0  0.49993  0.95373  0.38250  1.0000
  H   H580      1.0  0.39665  0.82925  0.31434  1.0000
  N   N30       1.0  0.31594  0.60815  0.27294  1.0000
  H   H581      1.0  0.39249  0.73307  0.28226  1.0000
  H   H582      1.0  0.13681  0.64159  0.44675  1.0000
  H   H583      1.0  0.31892  0.76230  0.48473  1.0000
  H   H584      1.0  0.11540  0.58675  0.42779  1.0000
  C   C498      1.0  0.49197  0.96014  0.36084  1.0000
  H   H585      1.0  0.12105  0.64745  0.41193  1.0000
  N   N31       1.0  0.36677  0.99424  0.29199  1.0000
  C   C499      1.0  0.24116  0.55189  0.28797  1.0000
  S   S143      1.0  0.36540  0.78417  0.51269  1.0000
  H   H586      1.0  0.07990  0.64993  0.42201  1.0000
  H   H587      1.0  0.34951  0.63178  0.29433  1.0000
  H   H588      1.0  0.47373  0.78041  0.49145  1.0000
  H   H589      1.0  0.28624  0.62968  0.27129  1.0000
  C   C500      1.0  0.38923  0.79721  0.50033  1.0000
  H   H590      1.0  0.49742  0.92723  0.42051  1.0000
  H   H591      1.0  0.39663  0.01137  0.30086  1.0000
  H   H592      1.0  0.34654  0.98250  0.32047  1.0000
  H   H593      1.0  0.06498  0.62448  0.42728  1.0000
  H   H594      1.0  0.07391  0.60824  0.46149  1.0000
  H   H595      1.0  0.17854  0.53139  0.30729  1.0000
  H   H596      1.0  0.20266  0.53515  0.44778  1.0000
  H   H597      1.0  0.13598  0.62057  0.41459  1.0000
  C   C501      1.0  0.39749  0.80090  0.29250  1.0000
  H   H598      1.0  0.19070  0.52065  0.48434  1.0000
  H   H599      1.0  0.31124  0.62208  0.30575  1.0000
  C   C502      1.0  0.39875  0.81118  0.31325  1.0000
  H   H600      1.0  0.15870  0.54056  0.28669  1.0000
  H   H601      1.0  0.31784  0.73243  0.48166  1.0000
  H   H602      1.0  0.29585  0.75062  0.47083  1.0000
  C   C503      1.0  0.48325  0.98917  0.39620  1.0000
  H   H603      1.0  0.41079  0.74719  0.31034  1.0000
  C   C504      1.0  0.21666  0.56495  0.46031  1.0000
  C   C505      1.0  0.40638  0.76492  0.31060  1.0000
  C   C506      1.0  0.30741  0.74784  0.48507  1.0000
  C   C507      1.0  0.40358  0.79844  0.33256  1.0000
  H   H604      1.0  0.34146  0.58231  0.26830  1.0000
  N   N32       1.0  0.40023  0.88784  0.46828  1.0000
  C   C508      1.0  0.38617  0.89006  0.44805  1.0000
  C   C509      1.0  0.40986  0.91012  0.47199  1.0000
  C   C510      1.0  0.41926  0.87192  0.46357  1.0000
  C   C511      1.0  0.38653  0.87924  0.48756  1.0000
  C   C512      1.0  0.44436  0.76485  0.50563  1.0000
  C   C513      1.0  0.19924  0.53635  0.48389  1.0000
  H   H605      1.0  0.49426  0.94961  0.34649  1.0000
  H   H606      1.0  0.40546  0.80660  0.34843  1.0000
  H   H607      1.0  0.37089  0.99687  0.32774  1.0000
  H   H608      1.0  0.37125  0.90135  0.45109  1.0000
  H   H609      1.0  0.39576  0.89714  0.43334  1.0000
  H   H610      1.0  0.38003  0.87363  0.44278  1.0000
  H   H611      1.0  0.39647  0.92328  0.47460  1.0000
  H   H612      1.0  0.42012  0.91599  0.45719  1.0000
  H   H613      1.0  0.42125  0.90949  0.48657  1.0000
  H   H614      1.0  0.41365  0.85551  0.45773  1.0000
  H   H615      1.0  0.43068  0.87849  0.45004  1.0000
  C   C514      1.0  0.25241  0.68829  0.50698  1.0000
  C   C515      1.0  0.21304  0.56981  0.50040  1.0000
  H   H616      1.0  0.36895  0.75161  0.27607  1.0000
  C   C516      1.0  0.26320  0.72452  0.49163  1.0000
  C   C517      1.0  0.22012  0.57759  0.47915  1.0000
  Fe  Fe71      1.0  0.50115  0.85657  0.40529  1.0000
  H   H617      1.0  0.35555  0.83341  0.50333  1.0000
  C   C518      1.0  0.37923  0.97238  0.29070  1.0000
  N   N33       1.0  0.40112  0.76595  0.26881  1.0000
  N   N34       1.0  0.10126  0.62036  0.42571  1.0000
  C   C519      1.0  0.12345  0.63574  0.45775  1.0000
  C   C520      1.0  0.11953  0.62898  0.41073  1.0000
  C   C521      1.0  0.10468  0.62431  0.44983  1.0000
  H   H618      1.0  0.48222  0.91565  0.39825  1.0000
  H   H619      1.0  0.09806  0.59240  0.40390  1.0000
  H   H620      1.0  0.11641  0.62570  0.39274  1.0000
  H   H621      1.0  0.07723  0.62994  0.40030  1.0000
  C   C522      1.0  0.16388  0.52605  0.29772  1.0000
  H   H622      1.0  0.25993  0.73800  0.47954  1.0000
  H   H623      1.0  0.33275  0.59993  0.30401  1.0000
  H   H624      1.0  0.08537  0.58832  0.43094  1.0000
  C   C523      1.0  0.07994  0.63166  0.41860  1.0000
  C   C524      1.0  0.02853  0.63116  0.31057  1.0000
  C   C525      1.0  0.09993  0.59593  0.42202  1.0000
  H   H625      1.0  0.30392  0.59317  0.30423  1.0000
  C   C526      1.0  0.10958  0.63248  0.49621  1.0000
  H   H626      1.0  0.39410  0.81185  0.27820  1.0000
  C   C527      1.0  0.47564  0.99489  0.37482  1.0000
  H   H627      1.0  0.43710  0.76243  0.48936  1.0000
  C   C528      1.0  0.49530  0.96897  0.40004  1.0000
  H   H628      1.0  0.37910  0.84746  0.47228  1.0000
  H   H629      1.0  0.43096  0.74564  0.27586  1.0000
  Fe  Fe72      1.0  0.45825  0.70512  0.27281  1.0000
  C   C529      1.0  0.40125  0.77734  0.29058  1.0000
  C   C530      1.0  0.36304  0.84970  0.50439  1.0000
  H   H630      1.0  0.02250  0.65857  0.33285  1.0000
  H   H631      1.0  0.38532  0.59697  0.26360  1.0000
  H   H632      1.0  0.07857  0.61546  0.50128  1.0000
  C   C531      1.0  0.06161  0.68922  0.28311  1.0000
  H   H633      1.0  0.39355  0.97139  0.30250  1.0000
  C   C532      1.0  0.33055  0.97982  0.27779  1.0000
  C   C533      1.0  0.37651  0.85796  0.48667  1.0000
  H   H634      1.0  0.37430  0.65928  0.27749  1.0000
  C   C534      1.0  0.08301  0.65772  0.29909  1.0000
  H   H635      1.0  0.05524  0.70614  0.28546  1.0000
  C   C535      1.0  0.38241  0.89159  0.50743  1.0000
  H   H636      1.0  0.08417  0.62767  0.28010  1.0000
  H   H637      1.0  0.47949  0.00035  0.40993  1.0000
  H   H638      1.0  0.23546  0.70574  0.48002  1.0000
  H   H639      1.0  0.43555  0.82610  0.51316  1.0000
  C   C536      1.0  0.34840  0.99508  0.27559  1.0000
  C   C537      1.0  0.28094  0.72567  0.50706  1.0000
  C   C538      1.0  0.21085  0.58298  0.26898  1.0000
  C   C539      1.0  0.06509  0.65427  0.26337  1.0000
  S   S144      1.0  0.47163  0.66989  0.26571  1.0000
  N   N35       1.0  0.29521  0.74563  0.50696  1.0000
  C   C540      1.0  0.36134  0.65233  0.26746  1.0000
  H   H640      1.0  0.34709  0.01243  0.31655  1.0000
  H   H641      1.0  0.29109  0.78124  0.51286  1.0000
  C   C541      1.0  0.46501  0.77503  0.50677  1.0000
  C   C542      1.0  0.28091  0.76616  0.51033  1.0000
  H   H642      1.0  0.46589  0.01033  0.37194  1.0000
  H   H643      1.0  0.38928  0.90788  0.50979  1.0000
  H   H644      1.0  0.39195  0.01096  0.27151  1.0000
  C   C543      1.0  0.24648  0.56190  0.26690  1.0000
  H   H645      1.0  0.07577  0.51394  0.37079  1.0000
  N   N36       1.0  0.51217  0.93215  0.38718  1.0000
  C   C544      1.0  0.33064  0.62604  0.26379  1.0000
  C   C545      1.0  0.32374  0.58635  0.26378  1.0000
  S   S145      1.0  0.42311  0.69676  0.26357  1.0000
  C   C546      1.0  0.40410  0.80902  0.51310  1.0000
  C   C547      1.0  0.05682  0.67685  0.26378  1.0000
  C   C548      1.0  0.38323  0.01226  0.28813  1.0000
  H   H646      1.0  0.29879  0.96947  0.26536  1.0000
  S   S146      1.0  0.02408  0.64528  0.60240  1.0000
  Fe  Fe73      1.0  0.18268  0.60519  0.57222  1.0000
  S   S147      1.0  0.18127  0.63734  0.59120  1.0000
  S   S148      1.0  0.18036  0.56979  0.58766  1.0000
  Fe  Fe74      1.0  0.18183  0.62973  0.52641  1.0000
  S   S149      1.0  0.18037  0.66371  0.54208  1.0000
  Fe  Fe75      1.0  0.20667  0.64997  0.56547  1.0000
  S   S150      1.0  0.23892  0.66664  0.57594  1.0000
  Fe  Fe76      1.0  0.15489  0.64887  0.56652  1.0000
  S   S151      1.0  0.12523  0.67167  0.57742  1.0000
  S   S152      1.0  0.20995  0.61671  0.54826  1.0000
  S   S153      1.0  0.15445  0.61598  0.54898  1.0000
  Fe  Fe77      1.0  0.35467  0.78411  0.59836  1.0000
  S   S154      1.0  0.36684  0.81129  0.57486  1.0000
  S   S155      1.0  0.37475  0.76982  0.62737  1.0000
  Fe  Fe78      1.0  0.30928  0.78114  0.57581  1.0000
  S   S156      1.0  0.31805  0.80895  0.55092  1.0000
  S   S157      1.0  0.27425  0.76706  0.57182  1.0000
  Fe  Fe79      1.0  0.35183  0.79153  0.54776  1.0000
  Fe  Fe80      1.0  0.33223  0.82640  0.58015  1.0000
  S   S158      1.0  0.33295  0.86374  0.58521  1.0000
  S   S159      1.0  0.34237  0.76263  0.57089  1.0000
  S   S160      1.0  0.32081  0.80036  0.60542  1.0000
  S   S161      1.0  0.49204  0.83029  0.72038  1.0000
  Fe  Fe81      1.0  0.42994  0.84757  0.73400  1.0000
  S   S162      1.0  0.44824  0.86091  0.70367  1.0000
  H   H647      1.0  0.38304  0.00069  0.70253  1.0000
  Fe  Fe82      1.0  0.46117  0.82560  0.69988  1.0000
  S   S163      1.0  0.46143  0.81485  0.66378  1.0000
  Fe  Fe83      1.0  0.47767  0.86502  0.72603  1.0000
  S   S164      1.0  0.44072  0.81156  0.72881  1.0000
  Fe  Fe84      1.0  0.29332  0.98974  0.67660  1.0000
  S   S165      1.0  0.26109  0.97125  0.68247  1.0000
  Fe  Fe85      1.0  0.31958  0.95726  0.70773  1.0000
  S   S166      1.0  0.28968  0.93659  0.71646  1.0000
  S   S167      1.0  0.35436  0.95326  0.72190  1.0000
  Fe  Fe86      1.0  0.28339  0.93998  0.67934  1.0000
  S   S168      1.0  0.27363  0.90791  0.66312  1.0000
  Fe  Fe87      1.0  0.26973  0.96911  0.71909  1.0000
  S   S169      1.0  0.24783  0.98199  0.74841  1.0000
  S   S170      1.0  0.31477  0.95872  0.67053  1.0000
  S   S171      1.0  0.30059  0.98956  0.71331  1.0000
  H   H648      1.0  0.34890  0.87121  0.72931  1.0000
  H   H649      1.0  0.41029  0.78889  0.56664  1.0000
  C   C549      1.0  0.40665  0.77067  0.56743  1.0000
  H   H650      1.0  0.34364  0.00312  0.65658  1.0000
  C   C550      1.0  0.36505  0.92559  0.72626  1.0000
  C   C551      1.0  0.35111  0.90717  0.72535  1.0000
  C   C552      1.0  0.35983  0.88536  0.72974  1.0000
  H   H651      1.0  0.33360  0.90967  0.72128  1.0000
  H   H652      1.0  0.31182  0.00103  0.62172  1.0000
  C   C553      1.0  0.31662  0.87558  0.60718  1.0000
  C   C554      1.0  0.29901  0.86396  0.61759  1.0000
  C   C555      1.0  0.28602  0.87405  0.63478  1.0000
  C   C556      1.0  0.29065  0.89570  0.64180  1.0000
  C   C557      1.0  0.30848  0.90716  0.63158  1.0000
  C   C558      1.0  0.32135  0.89716  0.61428  1.0000
  H   H653      1.0  0.29512  0.84739  0.61214  1.0000
  H   H654      1.0  0.27219  0.86513  0.64255  1.0000
  H   H655      1.0  0.31207  0.92390  0.63667  1.0000
  H   H656      1.0  0.33491  0.90626  0.60625  1.0000
  C   C559      1.0  0.39779  0.78401  0.63769  1.0000
  C   C560      1.0  0.40474  0.77917  0.65967  1.0000
  C   C561      1.0  0.42371  0.78930  0.66810  1.0000
  C   C562      1.0  0.43628  0.80382  0.65434  1.0000
  C   C563      1.0  0.42933  0.80871  0.63234  1.0000
  C   C564      1.0  0.40991  0.79915  0.62415  1.0000
  H   H657      1.0  0.39552  0.76739  0.67020  1.0000
  H   H658      1.0  0.42907  0.78523  0.68498  1.0000
  H   H659      1.0  0.43901  0.81996  0.62164  1.0000
  H   H660      1.0  0.40468  0.80309  0.60724  1.0000
  H   H661      1.0  0.01298  0.56741  0.58419  1.0000
  C   C565      1.0  0.43250  0.75887  0.52529  1.0000
  C   C566      1.0  0.07021  0.88827  0.74814  1.0000
  C   C567      1.0  0.09716  0.66401  0.58420  1.0000
  C   C568      1.0  0.08123  0.68082  0.59033  1.0000
  C   C569      1.0  0.05880  0.67550  0.59594  1.0000
  C   C570      1.0  0.05204  0.65324  0.59549  1.0000
  C   C571      1.0  0.06797  0.63645  0.58933  1.0000
  C   C572      1.0  0.09038  0.64176  0.58371  1.0000
  H   H662      1.0  0.08625  0.69809  0.59074  1.0000
  H   H663      1.0  0.04678  0.68860  0.60063  1.0000
  H   H664      1.0  0.06297  0.61918  0.58896  1.0000
  H   H665      1.0  0.10241  0.62864  0.57912  1.0000
  C   C573      1.0  0.24880  0.69455  0.57345  1.0000
  C   C574      1.0  0.26999  0.69909  0.58200  1.0000
  C   C575      1.0  0.27833  0.72102  0.58111  1.0000
  C   C576      1.0  0.26536  0.73880  0.57194  1.0000
  C   C577      1.0  0.24435  0.73421  0.56302  1.0000
  C   C578      1.0  0.23623  0.71219  0.56347  1.0000
  H   H666      1.0  0.27994  0.68556  0.58963  1.0000
  H   H667      1.0  0.29449  0.72426  0.58810  1.0000
  H   H668      1.0  0.23422  0.74781  0.55577  1.0000
  H   H669      1.0  0.22027  0.70892  0.55617  1.0000
  C   C579      1.0  0.22847  0.52881  0.63391  1.0000
  C   C580      1.0  0.23482  0.54980  0.62482  1.0000
  C   C581      1.0  0.22024  0.56275  0.61089  1.0000
  C   C582      1.0  0.19914  0.55475  0.60582  1.0000
  C   C583      1.0  0.19287  0.53371  0.61479  1.0000
  C   C584      1.0  0.36904  0.88304  0.52513  1.0000
  H   H670      1.0  0.25111  0.55611  0.62857  1.0000
  H   H671      1.0  0.22536  0.57885  0.60406  1.0000
  H   H672      1.0  0.29668  0.70644  0.53491  1.0000
  H   H673      1.0  0.35307  0.98811  0.68106  1.0000
  C   C585      1.0  0.35877  0.99906  0.66670  1.0000
  H   H674      1.0  0.21409  0.56244  0.54677  1.0000
  C   C586      1.0  0.38787  0.92199  0.73096  1.0000
  H   H675      1.0  0.39880  0.93613  0.73156  1.0000
  H   H676      1.0  0.40077  0.81104  0.53083  1.0000
  H   H677      1.0  0.25604  0.52149  0.70063  1.0000
  C   C587      1.0  0.26699  0.52484  0.71504  1.0000
  H   H678      1.0  0.41122  0.72871  0.55365  1.0000
  C   C588      1.0  0.47405  0.77899  0.52760  1.0000
  H   H679      1.0  0.28665  0.56142  0.69810  1.0000
  C   C589      1.0  0.31397  0.55304  0.75949  1.0000
  H   H680      1.0  0.02282  0.59260  0.59627  1.0000
  C   C590      1.0  0.18795  0.51749  0.52729  1.0000
  H   H681      1.0  0.03456  0.89469  0.74610  1.0000
  C   C591      1.0  0.05046  0.90093  0.75147  1.0000
  H   H682      1.0  0.27210  0.67488  0.53419  1.0000
  Fe  Fe88      1.0  0.47010  0.81930  0.75013  1.0000
  H   H683      1.0  0.32014  0.96839  0.75488  1.0000
  C   C592      1.0  0.20737  0.52085  0.62883  1.0000
  H   H684      1.0  0.26973  0.76414  0.52544  1.0000
  H   H685      1.0  0.12295  0.94082  0.74662  1.0000
  H   H686      1.0  0.06957  0.87233  0.73986  1.0000
  H   H687      1.0  0.36603  0.89261  0.54020  1.0000
  N   N37       1.0  0.42781  0.75698  0.56736  1.0000
  C   C593      1.0  0.43945  0.76124  0.58859  1.0000
  H   H688      1.0  0.43770  0.72203  0.56649  1.0000
  C   C594      1.0  0.42220  0.73288  0.56768  1.0000
  C   C595      1.0  0.44117  0.76269  0.54683  1.0000
  H   H689      1.0  0.48992  0.73374  0.75869  1.0000
  C   C596      1.0  0.46244  0.77290  0.54741  1.0000
  H   H690      1.0  0.36269  0.85401  0.62547  1.0000
  H   H691      1.0  0.39625  0.76733  0.58287  1.0000
  H   H692      1.0  0.34900  0.85570  0.53737  1.0000
  C   C597      1.0  0.29306  0.54524  0.69129  1.0000
  H   H693      1.0  0.42894  0.75662  0.60368  1.0000
  H   H694      1.0  0.20633  0.53704  0.55995  1.0000
  C   C598      1.0  0.28395  0.70706  0.52228  1.0000
  H   H695      1.0  0.45549  0.75127  0.58985  1.0000
  C   C599      1.0  0.31230  0.74467  0.52476  1.0000
  C   C600      1.0  0.17392  0.55530  0.53178  1.0000
  H   H696      1.0  0.41287  0.72795  0.58341  1.0000
  H   H697      1.0  0.22852  0.93708  0.75130  1.0000
  H   H698      1.0  0.41610  0.75192  0.52340  1.0000
  C   C601      1.0  0.26989  0.68867  0.52207  1.0000
  H   H699      1.0  0.32436  0.73022  0.52274  1.0000
  H   H700      1.0  0.16083  0.55413  0.51886  1.0000
  C   C602      1.0  0.30494  0.52997  0.72751  1.0000
  S   S172      1.0  0.45790  0.85471  0.75711  1.0000
  H   H701      1.0  0.13332  0.91225  0.74827  1.0000
  H   H702      1.0  0.30428  0.74353  0.54177  1.0000
  H   H703      1.0  0.33033  0.85598  0.65106  1.0000
  H   H704      1.0  0.50532  0.89375  0.67239  1.0000
  H   H705      1.0  0.33406  0.82800  0.66131  1.0000
  H   H706      1.0  0.01957  0.56802  0.61350  1.0000
  N   N38       1.0  0.36422  0.84741  0.66109  1.0000
  C   C603      1.0  0.37478  0.83046  0.67665  1.0000
  C   C604      1.0  0.33947  0.84548  0.66379  1.0000
  C   C605      1.0  0.37213  0.87015  0.66559  1.0000
  C   C606      1.0  0.35730  0.88923  0.66715  1.0000
  C   C607      1.0  0.39544  0.87393  0.66764  1.0000
  C   C608      1.0  0.36536  0.91047  0.67130  1.0000
  C   C609      1.0  0.40326  0.89520  0.67209  1.0000
  C   C610      1.0  0.38823  0.91341  0.67402  1.0000
  H   H707      1.0  0.36501  0.82472  0.63347  1.0000
  H   H708      1.0  0.39308  0.82794  0.67330  1.0000
  H   H709      1.0  0.36762  0.81354  0.67502  1.0000
  H   H710      1.0  0.37251  0.83550  0.69446  1.0000
  H   H711      1.0  0.33354  0.85052  0.68082  1.0000
  H   H712      1.0  0.33935  0.88823  0.66540  1.0000
  H   H713      1.0  0.40788  0.86047  0.66589  1.0000
  H   H714      1.0  0.35370  0.92466  0.67297  1.0000
  H   H715      1.0  0.42106  0.89752  0.67426  1.0000
  H   H716      1.0  0.39426  0.92979  0.67791  1.0000
  H   H717      1.0  0.32255  0.76002  0.52437  1.0000
  H   H718      1.0  0.37084  0.98866  0.65660  1.0000
  S   S173      1.0  0.49446  0.89878  0.72139  1.0000
  C   C611      1.0  0.21142  0.54449  0.54331  1.0000
  N   N39       1.0  0.17533  0.70982  0.60869  1.0000
  C   C612      1.0  0.17313  0.69026  0.62450  1.0000
  C   C613      1.0  0.15315  0.72195  0.60833  1.0000
  C   C614      1.0  0.18013  0.70147  0.58588  1.0000
  C   C615      1.0  0.19408  0.72393  0.61510  1.0000
  C   C616      1.0  0.21594  0.71423  0.61795  1.0000
  C   C617      1.0  0.19176  0.74763  0.61701  1.0000
  C   C618      1.0  0.23428  0.72740  0.62235  1.0000
  C   C619      1.0  0.21030  0.76066  0.62122  1.0000
  C   C620      1.0  0.23153  0.75058  0.62373  1.0000
  H   H719      1.0  0.17088  0.69579  0.64211  1.0000
  H   H720      1.0  0.15844  0.67997  0.62048  1.0000
  H   H721      1.0  0.18794  0.67849  0.62379  1.0000
  H   H722      1.0  0.14871  0.72909  0.62496  1.0000
  H   H723      1.0  0.13935  0.71057  0.60416  1.0000
  H   H724      1.0  0.15271  0.73558  0.59519  1.0000
  H   H725      1.0  0.19546  0.69036  0.58527  1.0000
  H   H726      1.0  0.16612  0.69152  0.57987  1.0000
  H   H727      1.0  0.18265  0.71559  0.57356  1.0000
  H   H728      1.0  0.21928  0.69646  0.61585  1.0000
  H   H729      1.0  0.17591  0.75659  0.61490  1.0000
  H   H730      1.0  0.25090  0.71964  0.62389  1.0000
  H   H731      1.0  0.20833  0.77877  0.62215  1.0000
  H   H732      1.0  0.24599  0.76079  0.62631  1.0000
  H   H733      1.0  0.17785  0.57334  0.53305  1.0000
  H   H734      1.0  0.47032  0.77673  0.56293  1.0000
  C   C621      1.0  0.32248  0.51473  0.73438  1.0000
  C   C622      1.0  0.39675  0.90010  0.73467  1.0000
  H   H735      1.0  0.26027  0.54059  0.72248  1.0000
  H   H736      1.0  0.44297  0.77937  0.59023  1.0000
  C   C623      1.0  0.38267  0.88176  0.73434  1.0000
  H   H737      1.0  0.16632  0.54998  0.54826  1.0000
  H   H738      1.0  0.39594  0.76733  0.55290  1.0000
  H   H739      1.0  0.17661  0.52734  0.61098  1.0000
  S   S174      1.0  0.39290  0.85433  0.74070  1.0000
  H   H740      1.0  0.28321  0.54250  0.67591  1.0000
  C   C624      1.0  0.37053  0.84178  0.63768  1.0000
  C   C625      1.0  0.30114  0.54930  0.74064  1.0000
  H   H741      1.0  0.41440  0.89747  0.73818  1.0000
  H   H742      1.0  0.49001  0.78722  0.52831  1.0000
  N   N40       1.0  0.19419  0.54146  0.52603  1.0000
  H   H743      1.0  0.17308  0.51438  0.51697  1.0000
  H   H744      1.0  0.28809  0.56160  0.73649  1.0000
  H   H745      1.0  0.40176  0.00397  0.67863  1.0000
  H   H746      1.0  0.38902  0.84209  0.63469  1.0000
  H   H747      1.0  0.31092  0.54736  0.68594  1.0000
  N   N41       1.0  0.29091  0.52628  0.70779  1.0000
  H   H748      1.0  0.50030  0.85301  0.66915  1.0000
  H   H749      1.0  0.22786  0.53659  0.53828  1.0000
  H   H750      1.0  0.10542  0.88530  0.75302  1.0000
  C   C626      1.0  0.09057  0.89575  0.75597  1.0000
  H   H751      1.0  0.32117  0.92586  0.75767  1.0000
  C   C627      1.0  0.35937  0.86218  0.52359  1.0000
  C   C628      1.0  0.12952  0.92740  0.75829  1.0000
  C   C629      1.0  0.05101  0.92124  0.76238  1.0000
  C   C630      1.0  0.33521  0.51865  0.75324  1.0000
  S   S175      1.0  0.24752  0.51307  0.65124  1.0000
  H   H752      1.0  0.29085  0.96648  0.76058  1.0000
  H   H753      1.0  0.21500  0.58087  0.51421  1.0000
  H   H754      1.0  0.11150  0.63567  0.51391  1.0000
  C   C631      1.0  0.38831  0.01260  0.68875  1.0000
  C   C632      1.0  0.38234  0.77633  0.85311  1.0000
  Fe  Fe89      1.0  0.45295  0.67396  0.91482  1.0000
  S   S176      1.0  0.43626  0.66707  0.88221  1.0000
  S   S177      1.0  0.43799  0.67111  0.95035  1.0000
  Fe  Fe90      1.0  0.49953  0.67720  0.89288  1.0000
  S   S178      1.0  0.48648  0.67053  0.85868  1.0000
  Fe  Fe91      1.0  0.45800  0.69447  0.86713  1.0000
  S   S179      1.0  0.44311  0.71754  0.83943  1.0000
  Fe  Fe92      1.0  0.46581  0.64366  0.87565  1.0000
  S   S180      1.0  0.46589  0.61052  0.85743  1.0000
  S   S181      1.0  0.47228  0.70318  0.90047  1.0000
  S   S182      1.0  0.48131  0.64849  0.90916  1.0000
  Fe  Fe93      1.0  0.12979  0.94570  0.88730  1.0000
  S   S183      1.0  0.10210  0.97189  0.88352  1.0000
  S   S184      1.0  0.12887  0.92386  0.91941  1.0000
  Fe  Fe94      1.0  0.14810  0.95509  0.83911  1.0000
  S   S185      1.0  0.12164  0.98217  0.83228  1.0000
  S   S186      1.0  0.17172  0.93942  0.81251  1.0000
  Fe  Fe95      1.0  0.12840  0.99346  0.86721  1.0000
  Fe  Fe96      1.0  0.09739  0.95827  0.84917  1.0000
  S   S187      1.0  0.06176  0.95410  0.83694  1.0000
  S   S188      1.0  0.15674  0.96791  0.87307  1.0000
  S   S189      1.0  0.12315  0.93057  0.85394  1.0000
  C   C633      1.0  0.06092  0.99254  0.92919  1.0000
  S   S190      1.0  0.48332  0.79901  0.78062  1.0000
  C   C634      1.0  0.23380  0.84221  0.98241  1.0000
  H   H755      1.0  0.33915  0.96491  0.79940  1.0000
  C   C635      1.0  0.30238  0.95013  0.82628  1.0000
  H   H756      1.0  0.05390  0.83579  0.88549  1.0000
  H   H757      1.0  0.25125  0.95166  0.85321  1.0000
  H   H758      1.0  0.01868  0.82216  0.89030  1.0000
  C   C636      1.0  0.05065  0.92927  0.82644  1.0000
  C   C637      1.0  0.39763  0.84554  0.80271  1.0000
  H   H759      1.0  0.15523  0.98487  0.93934  1.0000
  C   C638      1.0  0.03248  0.89097  0.80734  1.0000
  C   C639      1.0  0.05493  0.89077  0.81422  1.0000
  C   C640      1.0  0.06387  0.90970  0.82402  1.0000
  H   H760      1.0  0.44848  0.76648  0.77172  1.0000
  C   C641      1.0  0.01891  0.91019  0.81072  1.0000
  H   H761      1.0  0.06551  0.87594  0.81177  1.0000
  H   H762      1.0  0.08100  0.90925  0.82960  1.0000
  C   C642      1.0  0.14647  0.92513  0.94296  1.0000
  C   C643      1.0  0.16646  0.93687  0.94216  1.0000
  C   C644      1.0  0.18004  0.93713  0.96124  1.0000
  C   C645      1.0  0.17376  0.92574  0.98131  1.0000
  C   C646      1.0  0.15365  0.91418  0.98215  1.0000
  C   C647      1.0  0.14012  0.91388  0.96307  1.0000
  H   H763      1.0  0.17165  0.94544  0.92675  1.0000
  H   H764      1.0  0.19559  0.94607  0.96042  1.0000
  H   H765      1.0  0.14861  0.90532  0.99745  1.0000
  H   H766      1.0  0.12469  0.90473  0.96388  1.0000
  C   C648      1.0  0.19215  0.95191  0.79426  1.0000
  C   C649      1.0  0.19785  0.97440  0.79572  1.0000
  C   C650      1.0  0.13854  0.98937  0.93220  1.0000
  C   C651      1.0  0.12889  0.01179  0.96427  1.0000
  H   H767      1.0  0.18948  0.98487  0.80808  1.0000
  H   H768      1.0  0.21836  0.88271  0.95955  1.0000
  H   H769      1.0  0.14590  0.93297  0.76466  1.0000
  C   C652      1.0  0.41825  0.68929  0.96397  1.0000
  C   C653      1.0  0.40777  0.70751  0.95272  1.0000
  C   C654      1.0  0.39149  0.72094  0.96404  1.0000
  C   C655      1.0  0.38577  0.71652  0.98674  1.0000
  H   H770      1.0  0.45423  0.52549  0.89621  1.0000
  C   C656      1.0  0.41276  0.68508  0.98675  1.0000
  H   H771      1.0  0.41186  0.71098  0.93522  1.0000
  H   H772      1.0  0.38312  0.73473  0.95511  1.0000
  H   H773      1.0  0.08255  0.86043  0.89894  1.0000
  C   C657      1.0  0.04689  0.90021  0.87707  1.0000
  C   C658      1.0  0.45527  0.73950  0.82285  1.0000
  C   C659      1.0  0.47229  0.75255  0.83090  1.0000
  C   C660      1.0  0.48073  0.77055  0.81768  1.0000
  C   C661      1.0  0.47211  0.77592  0.79633  1.0000
  C   C662      1.0  0.45505  0.76286  0.78824  1.0000
  C   C663      1.0  0.44658  0.74489  0.80152  1.0000
  H   H774      1.0  0.47848  0.74911  0.84757  1.0000
  H   H775      1.0  0.49386  0.78056  0.82413  1.0000
  H   H776      1.0  0.37034  0.52960  0.92568  1.0000
  H   H777      1.0  0.43325  0.73503  0.79520  1.0000
  C   C664      1.0  0.41847  0.55123  0.86728  1.0000
  C   C665      1.0  0.43334  0.55242  0.84884  1.0000
  C   C666      1.0  0.44751  0.57084  0.84593  1.0000
  C   C667      1.0  0.44649  0.58861  0.86101  1.0000
  C   C668      1.0  0.43087  0.58793  0.87889  1.0000
  C   C669      1.0  0.41705  0.56923  0.88209  1.0000
  H   H778      1.0  0.43394  0.53918  0.83682  1.0000
  H   H779      1.0  0.45935  0.57137  0.83191  1.0000
  H   H780      1.0  0.42987  0.60153  0.89056  1.0000
  H   H781      1.0  0.40543  0.56861  0.89628  1.0000
  N   N42       1.0  0.21199  0.85007  0.99237  1.0000
  H   H782      1.0  0.38119  0.84231  0.79504  1.0000
  C   C670      1.0  0.33155  0.67858  0.01093  1.0000
  H   H783      1.0  0.03352  0.84219  0.83284  1.0000
  C   C671      1.0  0.05134  0.85370  0.88297  1.0000
  C   C672      1.0  0.35717  0.51823  0.92010  1.0000
  N   N43       1.0  0.01495  0.84747  0.86370  1.0000
  C   C673      1.0  0.12270  0.90475  0.79177  1.0000
  H   H784      1.0  0.41347  0.75757  0.84879  1.0000
  H   H785      1.0  0.26578  0.94811  0.78302  1.0000
  H   H786      1.0  0.42528  0.79869  0.78476  1.0000
  C   C674      1.0  0.37985  0.63070  0.96243  1.0000
  H   H787      1.0  0.12753  0.94822  0.79710  1.0000
  N   N44       1.0  0.34220  0.65592  0.00829  1.0000
  C   C675      1.0  0.30734  0.96748  0.76876  1.0000
  C   C676      1.0  0.36695  0.63312  0.98217  1.0000
  H   H788      1.0  0.50208  0.69778  0.82017  1.0000
  C   C677      1.0  0.50754  0.71053  0.80823  1.0000
  H   H789      1.0  0.15619  0.87768  0.92614  1.0000
  C   C678      1.0  0.09970  0.00013  0.93944  1.0000
  C   C679      1.0  0.06565  0.89084  0.88773  1.0000
  H   H790      1.0  0.19911  0.92114  0.77685  1.0000
  H   H791      1.0  0.49168  0.58486  0.90146  1.0000
  H   H792      1.0  0.48932  0.66205  0.97091  1.0000
  C   C680      1.0  0.46977  0.53391  0.89255  1.0000
  C   C681      1.0  0.50771  0.55879  0.88203  1.0000
  H   H793      1.0  0.29187  0.95201  0.86111  1.0000
  H   H794      1.0  0.34077  0.54047  0.78052  1.0000
  H   H795      1.0  0.13801  0.91004  0.80037  1.0000
  C   C682      1.0  0.08087  0.98593  0.93980  1.0000
  C   C683      1.0  0.47185  0.55532  0.90112  1.0000
  H   H796      1.0  0.04544  0.91829  0.87443  1.0000
  C   C684      1.0  0.11999  0.97288  0.96449  1.0000
  H   H797      1.0  0.35270  0.52726  0.96155  1.0000
  H   H798      1.0  0.36692  0.61912  0.99406  1.0000
  H   H799      1.0  0.10511  0.95834  0.78009  1.0000
  H   H800      1.0  0.30719  0.98368  0.77762  1.0000
  H   H801      1.0  0.39725  0.80814  0.77809  1.0000
  H   H802      1.0  0.31979  0.95045  0.83084  1.0000
  H   H803      1.0  0.13379  0.97531  0.92154  1.0000
  C   C685      1.0  0.11109  0.94358  0.79035  1.0000
  N   N45       1.0  0.41125  0.82447  0.80613  1.0000
  H   H804      1.0  0.29210  0.92574  0.76537  1.0000
  C   C686      1.0  0.41372  0.81362  0.78413  1.0000
  H   H805      1.0  0.19324  0.89457  0.92938  1.0000
  C   C687      1.0  0.40115  0.80843  0.82258  1.0000
  C   C688      1.0  0.37907  0.81149  0.83182  1.0000
  H   H806      1.0  0.07013  0.94426  0.77954  1.0000
  C   C689      1.0  0.36994  0.79563  0.84694  1.0000
  H   H807      1.0  0.21915  0.00068  0.78279  1.0000
  H   H808      1.0  0.34732  0.94834  0.77588  1.0000
  C   C690      1.0  0.21470  0.98332  0.78133  1.0000
  C   C691      1.0  0.45464  0.72285  0.99168  1.0000
  C   C692      1.0  0.07122  0.92878  0.77052  1.0000
  H   H809      1.0  0.09942  0.94128  0.80505  1.0000
  H   H810      1.0  0.04691  0.98132  0.92936  1.0000
  C   C693      1.0  0.38068  0.64819  0.94650  1.0000
  H   H811      1.0  0.37520  0.76398  0.86469  1.0000
  N   N46       1.0  0.12129  0.99354  0.95002  1.0000
  H   H812      1.0  0.42989  0.78485  0.82262  1.0000
  H   H813      1.0  0.36846  0.82589  0.82754  1.0000
  C   C694      1.0  0.35481  0.65342  0.98674  1.0000
  C   C695      1.0  0.09165  0.91602  0.76782  1.0000
  C   C696      1.0  0.50021  0.73076  0.77331  1.0000
  C   C697      1.0  0.03203  0.86266  0.87195  1.0000
  C   C698      1.0  0.20344  0.83146  0.00700  1.0000
  C   C699      1.0  0.41321  0.78853  0.82920  1.0000
  C   C700      1.0  0.28646  0.95103  0.84392  1.0000
  H   H814      1.0  0.42095  0.67116  0.99564  1.0000
  C   C701      1.0  0.33093  0.53770  0.76580  1.0000
  H   H815      1.0  0.43931  0.73003  0.98461  1.0000
  C   C702      1.0  0.47113  0.71309  0.97768  1.0000
  C   C703      1.0  0.16743  0.87176  0.93927  1.0000
  H   H816      1.0  0.31233  0.64167  0.99585  1.0000
  H   H817      1.0  0.31905  0.68262  0.99772  1.0000
  C   C704      1.0  0.35573  0.67081  0.96992  1.0000
  S   S191      1.0  0.36422  0.73309  0.99981  1.0000
  H   H818      1.0  0.14082  0.00431  0.92086  1.0000
  C   C705      1.0  0.49113  0.70304  0.98645  1.0000
  H   H819      1.0  0.01660  0.89488  0.86052  1.0000
  C   C706      1.0  0.32409  0.63939  0.01005  1.0000
  C   C707      1.0  0.02544  0.83236  0.84681  1.0000
  C   C708      1.0  0.02805  0.92932  0.82003  1.0000
  C   C709      1.0  0.39677  0.69875  0.99815  1.0000
  H   H820      1.0  0.38963  0.61538  0.95961  1.0000
  H   H821      1.0  0.39125  0.64658  0.93152  1.0000
  H   H822      1.0  0.35308  0.79822  0.85381  1.0000
  H   H823      1.0  0.50999  0.66476  0.94854  1.0000
  C   C710      1.0  0.49361  0.70350  0.01013  1.0000
  H   H824      1.0  0.23137  0.82836  0.97062  1.0000
  N   N47       1.0  0.31184  0.94816  0.78439  1.0000
  C   C711      1.0  0.49755  0.67422  0.95907  1.0000
  H   H825      1.0  0.24560  0.83584  0.99557  1.0000
  H   H826      1.0  0.34433  0.69181  0.01052  1.0000
  C   C712      1.0  0.29564  0.94901  0.80359  1.0000
  H   H827      1.0  0.23863  0.94966  0.81413  1.0000
  C   C713      1.0  0.06786  0.86763  0.89070  1.0000
  C   C714      1.0  0.19640  0.85732  0.97437  1.0000
  H   H828      1.0  0.40607  0.85742  0.79065  1.0000
  H   H829      1.0  0.31069  0.56785  0.76935  1.0000
  C   C715      1.0  0.27219  0.94878  0.79982  1.0000
  C   C716      1.0  0.22005  0.94756  0.76358  1.0000
  H   H830      1.0  0.01764  0.94437  0.82196  1.0000
  H   H831      1.0  0.11031  0.89966  0.80502  1.0000
  H   H832      1.0  0.03853  0.82085  0.85406  1.0000
  C   C717      1.0  0.40391  0.77277  0.84421  1.0000
  C   C718      1.0  0.43381  0.83080  0.81357  1.0000
  H   H833      1.0  0.11596  0.95802  0.95461  1.0000
  H   H834      1.0  0.19980  0.81644  0.99718  1.0000
  H   H835      1.0  0.31221  0.91208  0.78345  1.0000
  H   H836      1.0  0.46825  0.51637  0.83984  1.0000
  H   H837      1.0  0.08122  0.96946  0.94779  1.0000
  H   H838      1.0  0.39479  0.85446  0.81872  1.0000
  H   H839      1.0  0.34745  0.68704  0.97191  1.0000
  C   C719      1.0  0.17472  0.84827  0.97228  1.0000
  S   S192      1.0  0.02280  0.86734  0.79339  1.0000
  S   S193      1.0  0.19170  0.92615  0.00466  1.0000
  H   H840      1.0  0.13633  0.96847  0.97252  1.0000
  H   H841      1.0  0.07859  0.90162  0.89352  1.0000
  H   H842      1.0  0.36942  0.68176  0.93781  1.0000
  H   H843      1.0  0.24262  0.85582  0.97302  1.0000
  C   C720      1.0  0.25647  0.94968  0.81754  1.0000
  C   C721      1.0  0.36840  0.66805  0.95010  1.0000
  S   S194      1.0  0.40200  0.52730  0.87303  1.0000
  N   N48       1.0  0.50808  0.69241  0.97122  1.0000
  H   H844      1.0  0.44640  0.81665  0.81283  1.0000
  C   C722      1.0  0.20261  0.87431  0.95843  1.0000
  H   H845      1.0  0.43306  0.83682  0.83109  1.0000
  H   H846      1.0  0.10712  0.97484  0.97818  1.0000
  C   C723      1.0  0.20332  0.93858  0.77809  1.0000
  H   H847      1.0  0.48444  0.68075  0.94748  1.0000
  C   C724      1.0  0.18836  0.88125  0.94110  1.0000
  H   H848      1.0  0.34065  0.93446  0.80199  1.0000
  N   N49       1.0  0.11324  0.92295  0.77696  1.0000
  H   H849      1.0  0.12786  0.88952  0.78244  1.0000
  H   H850      1.0  0.44105  0.84432  0.80266  1.0000
  C   C725      1.0  0.33575  0.94901  0.79089  1.0000
  C   C726      1.0  0.30920  0.92705  0.77224  1.0000
  C   C727      1.0  0.03032  0.88644  0.86916  1.0000
  C   C728      1.0  0.26357  0.95083  0.83955  1.0000
  C   C729      1.0  0.16056  0.85545  0.95492  1.0000
  C   C730      1.0  0.48687  0.52408  0.87869  1.0000
  H   H851      1.0  0.45836  0.56268  0.91124  1.0000
  C   C731      1.0  0.49065  0.56784  0.89566  1.0000
  H   H852      1.0  0.14396  0.84863  0.95379  1.0000
  H   H853      1.0  0.35763  0.51941  0.90136  1.0000
  H   H854      1.0  0.35258  0.52121  0.00207  1.0000
  C   C732      1.0  0.50602  0.53721  0.87366  1.0000
  H   H855      1.0  0.03549  0.93078  0.76536  1.0000
  H   H856      1.0  0.42064  0.82532  0.77110  1.0000
  H   H857      1.0  0.46780  0.71302  0.95991  1.0000
  H   H858      1.0  0.34032  0.52483  0.92556  1.0000
  H   H859      1.0  0.22459  0.88323  0.99775  1.0000
  H   H860      1.0  0.16815  0.83587  0.98401  1.0000
  H   H861      1.0  0.50299  0.71593  0.94330  1.0000
  C   C733      1.0  0.49495  0.71375  0.78884  1.0000
  C   C734      1.0  0.21598  0.86929  0.00687  1.0000
  H   H862      1.0  0.48048  0.70355  0.78633  1.0000
  H   H863      1.0  0.14407  0.00653  0.97391  1.0000
  H   H864      1.0  0.33076  0.62179  0.01002  1.0000
  H   H865      1.0  0.50883  0.71755  0.85444  1.0000
  C   C735      1.0  0.22590  0.97001  0.76518  1.0000
  Fe  Fe97      1.0  0.53978  0.37742  0.11996  1.0000
  S   S195      1.0  0.55042  0.37177  0.15584  1.0000
  Fe  Fe98      1.0  0.58704  0.36525  0.10078  1.0000
  S   S196      1.0  0.60046  0.35835  0.13525  1.0000
  S   S197      1.0  0.61318  0.36776  0.07227  1.0000
  Fe  Fe99      1.0  0.56826  0.34066  0.14296  1.0000
  S   S198      1.0  0.56715  0.30479  0.15772  1.0000
  Fe  Fe100     1.0  0.58169  0.39006  0.14510  1.0000
  S   S199      1.0  0.60131  0.41446  0.16536  1.0000
  S   S200      1.0  0.55586  0.34533  0.10732  1.0000
  S   S201      1.0  0.56984  0.39780  0.11036  1.0000
  Fe  Fe101     1.0  0.88265  0.07810  0.19377  1.0000
  S   S202      1.0  0.91879  0.07018  0.20224  1.0000
  S   S203      1.0  0.85717  0.09313  0.21899  1.0000
  Fe  Fe102     1.0  0.89110  0.06992  0.14367  1.0000
  S   S204      1.0  0.92777  0.06138  0.14823  1.0000
  S   S205      1.0  0.87248  0.06581  0.11101  1.0000
  Fe  Fe103     1.0  0.91672  0.04128  0.17861  1.0000
  Fe  Fe104     1.0  0.92775  0.09069  0.17140  1.0000
  S   S206      1.0  0.95734  0.11403  0.16722  1.0000
  S   S207      1.0  0.87982  0.04754  0.17281  1.0000
  S   S208      1.0  0.89182  0.10089  0.16424  1.0000
  H   H866      1.0  0.62739  0.46282  0.12754  1.0000
  H   H867      1.0  0.99756  0.13922  0.16496  1.0000
  H   H868      1.0  0.00171  0.24355  0.23159  1.0000
  H   H869      1.0  0.64737  0.36590  0.03773  1.0000
  H   H870      1.0  0.63249  0.26927  0.03747  1.0000
  C   C736      1.0  0.97377  0.12490  0.18866  1.0000
  C   C737      1.0  0.99308  0.13684  0.18254  1.0000
  H   H871      1.0  0.63181  0.32948  0.09992  1.0000
  C   C738      1.0  0.76056  0.07625  0.20366  1.0000
  C   C739      1.0  0.98180  0.13083  0.22790  1.0000
  C   C740      1.0  0.96815  0.12196  0.21146  1.0000
  C   C741      1.0  0.98023  0.20985  0.19324  1.0000
  H   H872      1.0  0.97735  0.12843  0.24548  1.0000
  H   H873      1.0  0.95327  0.11292  0.21640  1.0000
  C   C742      1.0  0.87228  0.08469  0.08742  1.0000
  C   C743      1.0  0.86241  0.07814  0.06748  1.0000
  C   C744      1.0  0.86124  0.09286  0.04856  1.0000
  C   C745      1.0  0.86967  0.11445  0.04953  1.0000
  C   C746      1.0  0.87963  0.12097  0.06944  1.0000
  C   C747      1.0  0.88104  0.10616  0.08826  1.0000
  H   H874      1.0  0.85559  0.06158  0.06665  1.0000
  H   H875      1.0  0.85350  0.08763  0.03339  1.0000
  H   H876      1.0  0.88614  0.13766  0.07039  1.0000
  H   H877      1.0  0.88861  0.11146  0.10349  1.0000
  C   C748      1.0  0.83374  0.08118  0.23329  1.0000
  C   C749      1.0  0.82858  0.05856  0.23161  1.0000
  C   C750      1.0  0.79594  0.07589  0.17087  1.0000
  H   H878      1.0  0.83882  0.04780  0.22093  1.0000
  H   H879      1.0  0.52168  0.30603  0.14634  1.0000
  C   C751      1.0  0.61887  0.34798  0.05101  1.0000
  C   C752      1.0  0.63724  0.35129  0.03616  1.0000
  H   H880      1.0  0.00550  0.05400  0.14706  1.0000
  H   H881      1.0  0.51760  0.33564  0.14158  1.0000
  H   H882      1.0  0.53340  0.34772  0.05610  1.0000
  C   C753      1.0  0.60586  0.32905  0.04874  1.0000
  H   H883      1.0  0.65175  0.40342  0.13230  1.0000
  N   N50       1.0  0.81461  0.07449  0.15406  1.0000
  C   C754      1.0  0.00113  0.14274  0.22174  1.0000
  H   H884      1.0  0.59173  0.32626  0.06010  1.0000
  C   C755      1.0  0.59918  0.44421  0.16292  1.0000
  C   C756      1.0  0.61409  0.45711  0.17481  1.0000
  C   C757      1.0  0.61380  0.48073  0.17237  1.0000
  C   C758      1.0  0.59848  0.49170  0.15804  1.0000
  C   C759      1.0  0.58345  0.47880  0.14631  1.0000
  C   C760      1.0  0.58376  0.45520  0.14872  1.0000
  H   H885      1.0  0.62608  0.44877  0.18583  1.0000
  H   H886      1.0  0.62549  0.49043  0.18146  1.0000
  H   H887      1.0  0.57155  0.48712  0.13517  1.0000
  H   H888      1.0  0.57215  0.44553  0.13949  1.0000
  C   C761      1.0  0.56697  0.27738  0.23118  1.0000
  C   C762      1.0  0.56745  0.26284  0.21311  1.0000
  C   C763      1.0  0.56768  0.27154  0.19081  1.0000
  C   C764      1.0  0.56763  0.29485  0.18622  1.0000
  C   C765      1.0  0.56722  0.30941  0.20426  1.0000
  C   C766      1.0  0.56679  0.30070  0.22656  1.0000
  H   H889      1.0  0.56757  0.24489  0.21633  1.0000
  H   H890      1.0  0.56796  0.26009  0.17704  1.0000
  H   H891      1.0  0.56721  0.32736  0.20109  1.0000
  H   H892      1.0  0.56645  0.31212  0.24037  1.0000
  C   C767      1.0  0.00165  0.02765  0.18428  1.0000
  C   C768      1.0  0.79619  0.09010  0.18965  1.0000
  H   H893      1.0  0.82381  0.11250  0.24837  1.0000
  C   C769      1.0  0.64271  0.33578  0.01931  1.0000
  H   H894      1.0  0.83897  0.04966  0.14234  1.0000
  H   H895      1.0  0.77929  0.10100  0.22000  1.0000
  S   S209      1.0  0.62181  0.16625  0.25828  1.0000
  C   C770      1.0  0.75964  0.06234  0.18533  1.0000
  C   C771      1.0  0.82411  0.05120  0.15396  1.0000
  H   H896      1.0  0.80996  0.10094  0.19272  1.0000
  H   H897      1.0  0.74553  0.05143  0.18389  1.0000
  H   H898      1.0  0.61300  0.42459  0.08762  1.0000
  H   H899      1.0  0.98793  0.07680  0.15690  1.0000
  C   C772      1.0  0.97624  0.05689  0.19639  1.0000
  H   H900      1.0  0.64981  0.41291  0.07170  1.0000
  H   H901      1.0  0.61781  0.40299  0.10873  1.0000
  C   C773      1.0  0.67464  0.28295  0.04715  1.0000
  H   H902      1.0  0.67484  0.41397  0.08853  1.0000
  C   C774      1.0  0.64690  0.45064  0.09872  1.0000
  H   H903      1.0  0.94862  0.12935  0.03277  1.0000
  C   C775      1.0  0.61881  0.29811  0.11207  1.0000
  H   H904      1.0  0.84114  0.08537  0.17488  1.0000
  H   H905      1.0  0.66986  0.48686  0.05916  1.0000
  N   N51       1.0  0.99679  0.05222  0.18254  1.0000
  H   H906      1.0  0.97649  0.04961  0.15324  1.0000
  H   H907      1.0  0.00676  0.02253  0.20158  1.0000
  N   N52       1.0  0.66007  0.26721  0.06013  1.0000
  C   C776      1.0  0.64620  0.27814  0.07794  1.0000
  C   C777      1.0  0.61879  0.27501  0.10931  1.0000
  H   H908      1.0  0.97872  0.20869  0.17522  1.0000
  C   C778      1.0  0.77864  0.09027  0.20565  1.0000
  H   H909      1.0  0.52061  0.33987  0.18168  1.0000
  H   H910      1.0  0.65459  0.25004  0.02927  1.0000
  C   C779      1.0  0.64510  0.25676  0.04408  1.0000
  H   H911      1.0  0.82021  0.08012  0.11844  1.0000
  C   C780      1.0  0.63220  0.31142  0.09800  1.0000
  C   C781      1.0  0.61126  0.31360  0.03181  1.0000
  H   H912      1.0  0.65415  0.39316  0.09408  1.0000
  H   H913      1.0  0.99712  0.24120  0.19116  1.0000
  H   H914      1.0  0.96460  0.17834  0.20029  1.0000
  C   C782      1.0  0.63693  0.46733  0.11259  1.0000
  C   C783      1.0  0.81020  0.04978  0.24399  1.0000
  C   C784      1.0  0.77697  0.06219  0.16909  1.0000
  H   H915      1.0  0.77561  0.05096  0.15530  1.0000
  H   H916      1.0  0.84689  0.08837  0.14547  1.0000
  C   C785      1.0  0.67503  0.24948  0.07019  1.0000
  C   C786      1.0  0.93559  0.13915  0.02326  1.0000
  H   H917      1.0  0.64298  0.43055  0.14073  1.0000
  H   H918      1.0  0.65514  0.31319  0.07052  1.0000
  C   C787      1.0  0.00671  0.14571  0.19896  1.0000
  H   H919      1.0  0.00002  0.08470  0.21597  1.0000
  H   H920      1.0  0.97064  0.07482  0.19483  1.0000
  H   H921      1.0  0.68637  0.24163  0.05729  1.0000
  C   C788      1.0  0.99153  0.05839  0.15892  1.0000
  H   H922      1.0  0.82748  0.10758  0.15842  1.0000
  H   H923      1.0  0.97879  0.05236  0.21441  1.0000
  C   C789      1.0  0.65884  0.45831  0.07917  1.0000
  C   C790      1.0  0.80627  0.08049  0.13133  1.0000
  H   H924      1.0  0.66681  0.44694  0.06744  1.0000
  C   C791      1.0  0.64568  0.30172  0.08111  1.0000
  C   C792      1.0  0.83325  0.08965  0.15850  1.0000
  H   H925      1.0  0.68493  0.27426  0.03395  1.0000
  H   H926      1.0  0.80637  0.03225  0.24263  1.0000
  C   C793      1.0  0.62029  0.42106  0.10444  1.0000
  H   H927      1.0  0.91929  0.13757  0.03274  1.0000
  H   H928      1.0  0.81192  0.03892  0.14833  1.0000
  H   H929      1.0  0.67070  0.42644  0.12884  1.0000
  H   H930      1.0  0.61006  0.43070  0.11687  1.0000
  C   C794      1.0  0.82015  0.09491  0.24720  1.0000
  H   H931      1.0  0.79361  0.06871  0.12568  1.0000
  S   S210      1.0  0.86794  0.13403  0.02657  1.0000
  H   H932      1.0  0.93965  0.15719  0.02369  1.0000
  H   H933      1.0  0.66556  0.23555  0.07828  1.0000
  C   C795      1.0  0.66072  0.48129  0.07414  1.0000
  H   H934      1.0  0.66455  0.29605  0.03799  1.0000
  H   H935      1.0  0.68575  0.25653  0.08319  1.0000
  H   H936      1.0  0.79847  0.09770  0.13086  1.0000
  H   H937      1.0  0.63562  0.24269  0.05187  1.0000
  H   H938      1.0  0.52124  0.31105  0.18884  1.0000
  H   H939      1.0  0.74735  0.07606  0.21651  1.0000
  N   N53       1.0  0.64436  0.42652  0.10465  1.0000
  C   C796      1.0  0.79691  0.06342  0.25829  1.0000
  C   C797      1.0  0.65291  0.42157  0.12753  1.0000
  H   H940      1.0  0.60114  0.29899  0.03024  1.0000
  H   H941      1.0  0.60827  0.30573  0.12505  1.0000
  C   C798      1.0  0.65647  0.41112  0.08901  1.0000
  C   C799      1.0  0.65078  0.49719  0.08825  1.0000
  H   H942      1.0  0.82957  0.04569  0.17106  1.0000
  C   C800      1.0  0.97221  0.19280  0.20740  1.0000
  C   C801      1.0  0.63217  0.26510  0.09247  1.0000
  C   C802      1.0  0.98525  0.21213  0.24042  1.0000
  H   H943      1.0  0.63098  0.50258  0.11837  1.0000
  C   C803      1.0  0.99303  0.22933  0.22547  1.0000
  H   H944      1.0  0.63126  0.24716  0.09079  1.0000
  C   C804      1.0  0.97463  0.19381  0.23064  1.0000
  C   C805      1.0  0.62975  0.31682  0.01706  1.0000
  C   C806      1.0  0.63887  0.49021  0.10742  1.0000
  C   C807      1.0  0.99056  0.22813  0.20225  1.0000
  H   H945      1.0  0.68647  0.29133  0.05817  1.0000
  H   H946      1.0  0.60817  0.26481  0.12026  1.0000
  C   C808      1.0  0.51761  0.35466  0.04988  1.0000
  H   H947      1.0  0.96189  0.04696  0.19095  1.0000
  H   H948      1.0  0.96865  0.17962  0.24043  1.0000
  C   C809      1.0  0.80200  0.08606  0.25985  1.0000
  S   S211      1.0  0.56167  0.19945  0.25686  1.0000
  H   H949      1.0  0.52105  0.38619  0.06580  1.0000
  S   S212      1.0  0.56611  0.26742  0.25970  1.0000
  H   H950      1.0  0.66574  0.14529  0.25510  1.0000
  H   H951      1.0  0.98660  0.01781  0.18037  1.0000
  Fe  Fe105     1.0  0.88707  0.38771  0.46211  1.0000
  S   S213      1.0  0.87806  0.41967  0.47972  1.0000
  S   S214      1.0  0.92332  0.37454  0.46500  1.0000
  Fe  Fe106     1.0  0.83712  0.37741  0.45541  1.0000
  S   S215      1.0  0.82490  0.40857  0.47304  1.0000
  S   S216      1.0  0.81352  0.35448  0.43746  1.0000
  Fe  Fe107     1.0  0.85223  0.42580  0.45299  1.0000
  S   S217      1.0  0.84876  0.46199  0.44000  1.0000
  Fe  Fe108     1.0  0.85178  0.40006  0.49817  1.0000
  S   S218      1.0  0.86325  0.39526  0.43375  1.0000
  S   S219      1.0  0.86183  0.36748  0.48205  1.0000
  Fe  Fe109     1.0  0.68723  0.24613  0.42704  1.0000
  S   S220      1.0  0.68797  0.21017  0.43865  1.0000
  S   S221      1.0  0.66551  0.25910  0.39849  1.0000
  Fe  Fe110     1.0  0.72094  0.25975  0.46171  1.0000
  S   S222      1.0  0.72319  0.22448  0.47650  1.0000
  S   S223      1.0  0.74163  0.28601  0.47868  1.0000
  Fe  Fe111     1.0  0.72509  0.21387  0.44065  1.0000
  S   S224      1.0  0.75025  0.18606  0.43244  1.0000
  Fe  Fe112     1.0  0.68573  0.22364  0.47355  1.0000
  S   S225      1.0  0.72495  0.24897  0.42593  1.0000
  S   S226      1.0  0.68294  0.25990  0.46176  1.0000
  Fe  Fe113     1.0  0.75283  0.06822  0.30143  1.0000
  S   S227      1.0  0.72422  0.04898  0.31768  1.0000
  Fe  Fe114     1.0  0.59244  0.18522  0.27439  1.0000
  Fe  Fe115     1.0  0.74415  0.10833  0.33110  1.0000
  S   S228      1.0  0.71559  0.09248  0.34982  1.0000
  S   S229      1.0  0.75265  0.14461  0.33559  1.0000
  Fe  Fe116     1.0  0.73677  0.06062  0.35045  1.0000
  S   S230      1.0  0.73783  0.04084  0.38385  1.0000
  Fe  Fe117     1.0  0.70475  0.08197  0.31605  1.0000
  S   S231      1.0  0.66699  0.08430  0.31245  1.0000
  S   S232      1.0  0.76684  0.07760  0.33457  1.0000
  S   S233      1.0  0.73192  0.10006  0.29692  1.0000
  H   H952      1.0  0.53337  0.15108  0.35374  1.0000
  S   S234      1.0  0.54826  0.22224  0.30524  1.0000
  Fe  Fe118     1.0  0.56894  0.23141  0.27419  1.0000
  S   S235      1.0  0.57310  0.17239  0.30451  1.0000
  C   C810      1.0  0.78970  0.23699  0.41622  1.0000
  Fe  Fe119     1.0  0.54294  0.18933  0.28885  1.0000
  C   C811      1.0  0.66687  0.11875  0.28048  1.0000
  Fe  Fe120     1.0  0.57978  0.20597  0.31883  1.0000
  S   S236      1.0  0.58906  0.20305  0.35556  1.0000
  S   S237      1.0  0.60103  0.21784  0.28965  1.0000
  C   C812      1.0  0.66741  0.03723  0.41326  1.0000
  C   C813      1.0  0.65477  0.10707  0.29717  1.0000
  C   C814      1.0  0.63223  0.11327  0.30160  1.0000
  H   H953      1.0  0.67461  0.21921  0.31309  1.0000
  H   H954      1.0  0.94613  0.37579  0.50830  1.0000
  C   C815      1.0  0.80867  0.11982  0.33688  1.0000
  C   C816      1.0  0.52347  0.20630  0.36409  1.0000
  H   H955      1.0  0.91909  0.40457  0.50306  1.0000
  H   H956      1.0  0.75153  0.40230  0.44294  1.0000
  C   C817      1.0  0.87092  0.45058  0.36877  1.0000
  H   H957      1.0  0.69550  0.13993  0.37655  1.0000
  C   C818      1.0  0.64526  0.24262  0.38595  1.0000
  C   C819      1.0  0.63976  0.22142  0.39472  1.0000
  C   C820      1.0  0.62264  0.20939  0.38508  1.0000
  C   C821      1.0  0.61132  0.21813  0.36623  1.0000
  C   C822      1.0  0.61722  0.23901  0.35704  1.0000
  C   C823      1.0  0.63400  0.25128  0.36700  1.0000
  H   H958      1.0  0.64866  0.21418  0.40886  1.0000
  H   H959      1.0  0.61832  0.19313  0.39215  1.0000
  H   H960      1.0  0.60848  0.24597  0.34258  1.0000
  H   H961      1.0  0.63818  0.26765  0.36007  1.0000
  C   C824      1.0  0.74944  0.17458  0.40555  1.0000
  C   C825      1.0  0.75193  0.15126  0.40325  1.0000
  C   C826      1.0  0.75213  0.14180  0.38188  1.0000
  C   C827      1.0  0.75059  0.15572  0.36267  1.0000
  C   C828      1.0  0.74829  0.17905  0.36497  1.0000
  C   C829      1.0  0.74740  0.18846  0.38636  1.0000
  H   H962      1.0  0.75362  0.14047  0.41805  1.0000
  H   H963      1.0  0.75402  0.12381  0.38025  1.0000
  H   H964      1.0  0.74705  0.18987  0.35014  1.0000
  H   H965      1.0  0.74549  0.20645  0.38796  1.0000
  H   H966      1.0  0.80272  0.15169  0.32004  1.0000
  H   H967      1.0  0.70185  0.17189  0.40093  1.0000
  H   H968      1.0  0.60508  0.24697  0.42013  1.0000
  H   H969      1.0  0.69468  0.03848  0.36191  1.0000
  C   C830      1.0  0.82970  0.29350  0.42730  1.0000
  C   C831      1.0  0.83365  0.47309  0.41672  1.0000
  C   C832      1.0  0.82495  0.45940  0.40053  1.0000
  C   C833      1.0  0.81296  0.46907  0.38235  1.0000
  C   C834      1.0  0.80958  0.49248  0.38022  1.0000
  C   C835      1.0  0.66675  0.02235  0.43182  1.0000
  C   C836      1.0  0.83052  0.49648  0.41439  1.0000
  H   H970      1.0  0.82767  0.44145  0.40197  1.0000
  H   H971      1.0  0.80618  0.45839  0.36996  1.0000
  H   H972      1.0  0.77174  0.31569  0.49913  1.0000
  C   C837      1.0  0.53453  0.16958  0.35108  1.0000
  C   C838      1.0  0.94513  0.37472  0.44417  1.0000
  C   C839      1.0  0.96633  0.36526  0.44958  1.0000
  C   C840      1.0  0.98417  0.36492  0.43361  1.0000
  C   C841      1.0  0.98098  0.37407  0.41202  1.0000
  C   C842      1.0  0.95984  0.38371  0.40666  1.0000
  C   C843      1.0  0.94198  0.38403  0.42263  1.0000
  H   H973      1.0  0.96894  0.35795  0.46616  1.0000
  H   H974      1.0  0.00031  0.35742  0.43796  1.0000
  H   H975      1.0  0.95719  0.39078  0.38999  1.0000
  H   H976      1.0  0.92578  0.39133  0.41823  1.0000
  C   C844      1.0  0.76162  0.30482  0.46676  1.0000
  C   C845      1.0  0.76508  0.30751  0.44355  1.0000
  C   C846      1.0  0.78089  0.32288  0.43492  1.0000
  C   C847      1.0  0.79360  0.33558  0.44934  1.0000
  C   C848      1.0  0.79021  0.33285  0.47253  1.0000
  C   C849      1.0  0.77428  0.31760  0.48115  1.0000
  H   H977      1.0  0.75541  0.29793  0.43224  1.0000
  H   H978      1.0  0.78340  0.32481  0.41695  1.0000
  H   H979      1.0  0.79984  0.34245  0.48385  1.0000
  H   H980      1.0  0.86500  0.04694  0.33311  1.0000
  C   C850      1.0  0.76958  0.48105  0.42175  1.0000
  H   H981      1.0  0.76575  0.22709  0.45208  1.0000
  C   C851      1.0  0.62194  0.13132  0.28971  1.0000
  C   C852      1.0  0.77675  0.24162  0.45410  1.0000
  C   C853      1.0  0.76812  0.39686  0.43567  1.0000
  H   H982      1.0  0.79188  0.09678  0.27070  1.0000
  C   C854      1.0  0.81021  0.21927  0.44634  1.0000
  H   H983      1.0  0.72832  0.01779  0.42585  1.0000
  H   H984      1.0  0.80419  0.23452  0.40435  1.0000
  N   N54       1.0  0.77306  0.40912  0.41413  1.0000
  H   H985      1.0  0.79034  0.47472  0.45037  1.0000
  H   H986      1.0  0.81460  0.25512  0.47849  1.0000
  C   C855      1.0  0.78190  0.44399  0.43474  1.0000
  C   C856      1.0  0.85718  0.06411  0.33401  1.0000
  C   C857      1.0  0.83669  0.29847  0.44869  1.0000
  C   C858      1.0  0.63196  0.23407  0.45478  1.0000
  H   H987      1.0  0.67288  0.02740  0.44786  1.0000
  H   H988      1.0  0.62269  0.10412  0.31430  1.0000
  H   H989      1.0  0.76685  0.25722  0.44995  1.0000
  H   H990      1.0  0.98167  0.19618  0.29653  1.0000
  C   C859      1.0  0.88152  0.45836  0.38751  1.0000
  S   S238      1.0  0.66227  0.20202  0.49514  1.0000
  C   C860      1.0  0.78108  0.46726  0.43713  1.0000
  H   H991      1.0  0.81012  0.05704  0.30419  1.0000
  H   H992      1.0  0.63028  0.18108  0.33528  1.0000
  H   H993      1.0  0.65106  0.21159  0.29716  1.0000
  H   H994      1.0  0.77917  0.22192  0.41491  1.0000
  C   C861      1.0  0.59881  0.26357  0.49366  1.0000
  H   H995      1.0  0.52885  0.13693  0.30965  1.0000
  N   N55       1.0  0.66312  0.18575  0.32043  1.0000
  H   H996      1.0  0.69171  0.21060  0.38794  1.0000
  H   H997      1.0  0.84335  0.06715  0.27917  1.0000
  H   H998      1.0  0.86686  0.43300  0.36819  1.0000
  H   H999      1.0  0.99993  0.45266  0.38720  1.0000
  H   H1000     1.0  0.76205  0.40706  0.37993  1.0000
  C   C862      1.0  0.68038  0.16042  0.35024  1.0000
  H   H1001     1.0  0.76975  0.49915  0.42310  1.0000
  C   C863      1.0  0.79641  0.40339  0.40678  1.0000
  C   C864      1.0  0.67412  0.18240  0.34235  1.0000
  C   C865      1.0  0.69411  0.17478  0.38477  1.0000
  H   H1002     1.0  0.63189  0.17742  0.30549  1.0000
  H   H1003     1.0  0.52659  0.17406  0.33480  1.0000
  H   H1004     1.0  0.80878  0.40730  0.41975  1.0000
  H   H1005     1.0  0.84587  0.31362  0.45121  1.0000
  C   C866      1.0  0.81098  0.25987  0.44225  1.0000
  H   H1006     1.0  0.89191  0.49627  0.31302  1.0000
  H   H1007     1.0  0.64678  0.21800  0.32597  1.0000
  S   S239      1.0  0.00289  0.37412  0.39131  1.0000
  C   C867      1.0  0.00895  0.43854  0.37870  1.0000
  H   H1008     1.0  0.67424  0.21770  0.35224  1.0000
  C   C868      1.0  0.67744  0.17575  0.30238  1.0000
  C   C869      1.0  0.64120  0.17458  0.32136  1.0000
  C   C870      1.0  0.68842  0.19655  0.37744  1.0000
  H   H1009     1.0  0.60558  0.28509  0.45109  1.0000
  H   H1010     1.0  0.60560  0.27998  0.49059  1.0000
  H   H1011     1.0  0.67765  0.14587  0.34032  1.0000
  H   H1012     1.0  0.84106  0.50897  0.30528  1.0000
  H   H1013     1.0  0.62827  0.27422  0.43397  1.0000
  C   C871      1.0  0.66002  0.03082  0.39188  1.0000
  C   C872      1.0  0.72564  0.01444  0.39009  1.0000
  H   H1014     1.0  0.78042  0.24201  0.47226  1.0000
  C   C873      1.0  0.59124  0.22539  0.48388  1.0000
  H   H1015     1.0  0.81589  0.08685  0.34957  1.0000
  H   H1016     1.0  0.58107  0.25417  0.43766  1.0000
  H   H1017     1.0  0.59249  0.22589  0.43737  1.0000
  H   H1018     1.0  0.75104  0.44227  0.38706  1.0000
  C   C874      1.0  0.81144  0.13546  0.31935  1.0000
  C   C875      1.0  0.82505  0.13006  0.30085  1.0000
  C   C876      1.0  0.67746  0.03735  0.35538  1.0000
  C   C877      1.0  0.58129  0.22172  0.50509  1.0000
  N   N56       1.0  0.84165  0.06886  0.31525  1.0000
  C   C878      1.0  0.85431  0.06457  0.29394  1.0000
  C   C879      1.0  0.82309  0.05277  0.31690  1.0000
  C   C880      1.0  0.83228  0.09210  0.31674  1.0000
  C   C881      1.0  0.81902  0.09852  0.33574  1.0000
  C   C882      1.0  0.83554  0.10879  0.29954  1.0000
  H   H1019     1.0  0.88539  0.44698  0.40151  1.0000
  H   H1020     1.0  0.00758  0.44132  0.36028  1.0000
  H   H1021     1.0  0.67493  0.01954  0.35129  1.0000
  C   C883      1.0  0.75769  0.40067  0.39716  1.0000
  H   H1022     1.0  0.66999  0.17877  0.28552  1.0000
  H   H1023     1.0  0.55261  0.17347  0.34897  1.0000
  C   C884      1.0  0.63823  0.04713  0.36106  1.0000
  H   H1024     1.0  0.81180  0.27200  0.40705  1.0000
  H   H1025     1.0  0.81436  0.05268  0.33358  1.0000
  H   H1026     1.0  0.67422  0.05347  0.41603  1.0000
  H   H1027     1.0  0.63388  0.03094  0.35374  1.0000
  H   H1028     1.0  0.54079  0.21285  0.36232  1.0000
  H   H1029     1.0  0.83624  0.28866  0.48358  1.0000
  H   H1030     1.0  0.89444  0.48695  0.40340  1.0000
  H   H1031     1.0  0.86094  0.04693  0.29319  1.0000
  C   C885      1.0  0.86931  0.48872  0.35195  1.0000
  N   N57       1.0  0.79720  0.23986  0.43957  1.0000
  H   H1032     1.0  0.75062  0.48253  0.39155  1.0000
  H   H1033     1.0  0.67710  0.04713  0.33926  1.0000
  H   H1034     1.0  0.63255  0.27731  0.46312  1.0000
  H   H1035     1.0  0.84565  0.10571  0.28462  1.0000
  H   H1036     1.0  0.80111  0.41289  0.39111  1.0000
  H   H1037     1.0  0.69453  0.18286  0.30200  1.0000
  C   C886      1.0  0.67848  0.20042  0.35662  1.0000
  C   C887      1.0  0.88091  0.49589  0.37094  1.0000
  H   H1038     1.0  0.84849  0.06506  0.35068  1.0000
  H   H1039     1.0  0.63777  0.05966  0.34678  1.0000
  H   H1040     1.0  0.80039  0.20386  0.44397  1.0000
  H   H1041     1.0  0.76794  0.37833  0.43354  1.0000
  N   N58       1.0  0.66053  0.04603  0.37179  1.0000
  C   C888      1.0  0.84678  0.49597  0.31786  1.0000
  H   H1042     1.0  0.67959  0.15725  0.30445  1.0000
  S   S240      1.0  0.77451  0.05132  0.27416  1.0000
  H   H1043     1.0  0.82904  0.03519  0.31400  1.0000
  H   H1044     1.0  0.83137  0.49016  0.32701  1.0000
  H   H1045     1.0  0.55526  0.18510  0.38676  1.0000
  C   C889      1.0  0.69035  0.15677  0.37109  1.0000
  C   C890      1.0  0.65639  0.13646  0.26818  1.0000
  H   H1046     1.0  0.64265  0.23716  0.43955  1.0000
  H   H1047     1.0  0.75877  0.38200  0.39632  1.0000
  C   C891      1.0  0.65879  0.20973  0.31400  1.0000
  H   H1048     1.0  0.66609  0.08051  0.36145  1.0000
  H   H1049     1.0  0.64315  0.15610  0.32396  1.0000
  C   C892      1.0  0.97821  0.23469  0.27330  1.0000
  H   H1050     1.0  0.79778  0.12407  0.35110  1.0000
  H   H1051     1.0  0.99950  0.42297  0.38269  1.0000
  H   H1052     1.0  0.79872  0.38517  0.40345  1.0000
  H   H1053     1.0  0.83357  0.30491  0.41335  1.0000
  H   H1054     1.0  0.60457  0.13592  0.29323  1.0000
  H   H1055     1.0  0.81467  0.21915  0.46435  1.0000
  H   H1056     1.0  0.82609  0.21761  0.43624  1.0000
  H   H1057     1.0  0.87094  0.07637  0.33372  1.0000
  H   H1058     1.0  0.78107  0.39914  0.44846  1.0000
  C   C893      1.0  0.83117  0.28443  0.46689  1.0000
  C   C894      1.0  0.81701  0.27453  0.42398  1.0000
  C   C895      1.0  0.75932  0.44830  0.40153  1.0000
  H   H1059     1.0  0.62760  0.21606  0.45503  1.0000
  C   C896      1.0  0.81848  0.50613  0.39632  1.0000
  H   H1060     1.0  0.86902  0.07556  0.29174  1.0000
  C   C897      1.0  0.77087  0.43372  0.41699  1.0000
  C   C898      1.0  0.66641  0.06940  0.37681  1.0000
  H   H1061     1.0  0.79203  0.43425  0.44643  1.0000
  C   C899      1.0  0.75877  0.47160  0.40398  1.0000
  H   H1062     1.0  0.77910  0.25161  0.41034  1.0000
  C   C900      1.0  0.81863  0.26534  0.46378  1.0000
  H   H1063     1.0  0.59252  0.21133  0.47281  1.0000
  H   H1064     1.0  0.73988  0.40543  0.40125  1.0000
  C   C901      1.0  0.88352  0.51122  0.32071  1.0000
  S   S241      1.0  0.79408  0.50408  0.35737  1.0000
  N   N59       1.0  0.61197  0.24941  0.45541  1.0000
  C   C902      1.0  0.61981  0.27258  0.45083  1.0000
  C   C903      1.0  0.59694  0.24386  0.43694  1.0000
  C   C904      1.0  0.60028  0.24645  0.47746  1.0000
  H   H1065     1.0  0.85423  0.48195  0.30798  1.0000
  H   H1066     1.0  0.64247  0.23644  0.46964  1.0000
  H   H1067     1.0  0.62472  0.05198  0.37333  1.0000
  H   H1068     1.0  0.85626  0.45834  0.33745  1.0000
  H   H1069     1.0  0.68416  0.11388  0.27673  1.0000
  H   H1070     1.0  0.83723  0.50720  0.42680  1.0000
  C   C905      1.0  0.88656  0.48095  0.38856  1.0000
  H   H1071     1.0  0.65441  0.07692  0.38925  1.0000
  H   H1072     1.0  0.82712  0.14228  0.28720  1.0000
  C   C906      1.0  0.86483  0.46544  0.35120  1.0000
  H   H1073     1.0  0.68380  0.07016  0.38324  1.0000
  C   C907      1.0  0.63400  0.14303  0.27299  1.0000
  N   N60       1.0  0.98868  0.21353  0.26490  1.0000
  C   C908      1.0  0.53819  0.17827  0.38981  1.0000
  H   H1074     1.0  0.97951  0.23576  0.29185  1.0000
  N   N61       1.0  0.52379  0.18189  0.36991  1.0000
  N   N62       1.0  0.86305  0.50494  0.33368  1.0000
  H   H1075     1.0  0.98702  0.17821  0.27352  1.0000
  C   C909      1.0  0.97895  0.19460  0.27822  1.0000
  H   H1076     1.0  0.54095  0.16007  0.39390  1.0000
  H   H1077     1.0  0.53082  0.18682  0.40474  1.0000
  H   H1078     1.0  0.98652  0.24982  0.26611  1.0000
  H   H1079     1.0  0.96051  0.19377  0.27589  1.0000
  H   H1080     1.0  0.96011  0.23607  0.26904  1.0000
  H   H1081     1.0  0.57503  0.20532  0.50987  1.0000
  H   H1082     1.0  0.51312  0.10286  0.32835  1.0000
  H   H1083     1.0  0.51424  0.21611  0.37716  1.0000
  H   H1084     1.0  0.51552  0.21029  0.34770  1.0000
  S   S242      1.0  0.84748  0.39882  0.53621  1.0000
  H   H1085     1.0  0.01125  0.47976  0.73931  1.0000
  Fe  Fe121     1.0  0.58226  0.19939  0.60293  1.0000
  S   S243      1.0  0.59198  0.18947  0.63820  1.0000
  S   S244      1.0  0.60404  0.22397  0.58299  1.0000
  Fe  Fe122     1.0  0.53861  0.17308  0.60659  1.0000
  S   S245      1.0  0.54547  0.16073  0.64197  1.0000
  Fe  Fe123     1.0  0.55588  0.19641  0.64790  1.0000
  S   S246      1.0  0.54168  0.21574  0.67809  1.0000
  Fe  Fe124     1.0  0.58118  0.15482  0.62949  1.0000
  S   S247      1.0  0.60711  0.12640  0.63545  1.0000
  S   S248      1.0  0.54681  0.20889  0.61321  1.0000
  S   S249      1.0  0.57365  0.16461  0.59360  1.0000
  Fe  Fe125     1.0  0.89058  0.46635  0.63948  1.0000
  S   S250      1.0  0.92623  0.47078  0.64908  1.0000
  S   S251      1.0  0.88298  0.47125  0.60239  1.0000
  Fe  Fe126     1.0  0.87445  0.46095  0.68868  1.0000
  S   S252      1.0  0.90946  0.46465  0.70194  1.0000
  S   S253      1.0  0.84116  0.45181  0.70664  1.0000
  Fe  Fe127     1.0  0.91223  0.49302  0.67597  1.0000
  Fe  Fe128     1.0  0.92132  0.44225  0.67395  1.0000
  S   S254      1.0  0.94845  0.41447  0.67162  1.0000
  S   S255      1.0  0.87661  0.49088  0.66471  1.0000
  S   S256      1.0  0.88631  0.43624  0.66234  1.0000
  S   S257      1.0  0.59030  0.29015  0.73346  1.0000
  H   H1086     1.0  0.79801  0.41239  0.58052  1.0000
  H   H1087     1.0  0.60876  0.01453  0.62828  1.0000
  C   C910      1.0  0.96852  0.40402  0.69122  1.0000
  C   C911      1.0  0.98510  0.38835  0.68402  1.0000
  H   H1088     1.0  0.82736  0.49748  0.64716  1.0000
  H   H1089     1.0  0.95122  0.36240  0.53476  1.0000
  C   C912      1.0  0.98517  0.40246  0.72820  1.0000
  C   C913      1.0  0.96852  0.41092  0.71347  1.0000
  H   H1090     1.0  0.98520  0.38282  0.66688  1.0000
  C   C914      1.0  0.63492  0.16153  0.59526  1.0000
  H   H1091     1.0  0.80183  0.42721  0.61803  1.0000
  H   H1092     1.0  0.95562  0.42259  0.71934  1.0000
  C   C915      1.0  0.82715  0.46189  0.73136  1.0000
  C   C916      1.0  0.83665  0.47740  0.74528  1.0000
  N   N63       1.0  0.81683  0.46844  0.62956  1.0000
  C   C917      1.0  0.80579  0.45374  0.73728  1.0000
  H   H1093     1.0  0.85301  0.48391  0.74099  1.0000
  H   H1094     1.0  0.56138  0.40075  0.75868  1.0000
  H   H1095     1.0  0.67578  0.16042  0.63388  1.0000
  C   C918      1.0  0.60113  0.09884  0.64538  1.0000
  C   C919      1.0  0.57920  0.09234  0.65050  1.0000
  C   C920      1.0  0.57515  0.07018  0.65805  1.0000
  C   C921      1.0  0.59293  0.05432  0.66060  1.0000
  C   C922      1.0  0.61486  0.06077  0.65536  1.0000
  C   C923      1.0  0.61891  0.08293  0.64779  1.0000
  H   H1096     1.0  0.56536  0.10437  0.64866  1.0000
  H   H1097     1.0  0.55812  0.06531  0.66197  1.0000
  H   H1098     1.0  0.62870  0.04874  0.65724  1.0000
  H   H1099     1.0  0.63593  0.08778  0.64382  1.0000
  C   C924      1.0  0.55516  0.23709  0.69264  1.0000
  C   C925      1.0  0.54309  0.24881  0.70945  1.0000
  C   C926      1.0  0.55330  0.26556  0.72172  1.0000
  C   C927      1.0  0.57580  0.27063  0.71741  1.0000
  C   C928      1.0  0.58787  0.25882  0.70069  1.0000
  C   C929      1.0  0.57761  0.24227  0.68827  1.0000
  H   H1100     1.0  0.93236  0.42190  0.52240  1.0000
  H   H1101     1.0  0.54384  0.27432  0.73466  1.0000
  H   H1102     1.0  0.60533  0.26246  0.69731  1.0000
  H   H1103     1.0  0.58715  0.23338  0.67547  1.0000
  H   H1104     1.0  0.58601  0.08458  0.60162  1.0000
  C   C930      1.0  0.64736  0.22959  0.52955  1.0000
  C   C931      1.0  0.63438  0.23396  0.54910  1.0000
  C   C932      1.0  0.61890  0.21835  0.55761  1.0000
  C   C933      1.0  0.61601  0.19859  0.54605  1.0000
  H   H1105     1.0  0.58007  0.21475  0.73389  1.0000
  H   H1106     1.0  0.73397  0.39172  0.74065  1.0000
  H   H1107     1.0  0.63660  0.24937  0.55786  1.0000
  H   H1108     1.0  0.60379  0.18667  0.55214  1.0000
  C   C934      1.0  0.59765  0.07379  0.59229  1.0000
  C   C935      1.0  0.85911  0.41847  0.55409  1.0000
  C   C936      1.0  0.86590  0.43950  0.54602  1.0000
  C   C937      1.0  0.87344  0.45534  0.56103  1.0000
  C   C938      1.0  0.87451  0.45024  0.58416  1.0000
  C   C939      1.0  0.86837  0.42895  0.59214  1.0000
  C   C940      1.0  0.86055  0.41321  0.57716  1.0000
  H   H1109     1.0  0.86467  0.44383  0.52833  1.0000
  H   H1110     1.0  0.87813  0.47178  0.55472  1.0000
  H   H1111     1.0  0.86943  0.42463  0.60982  1.0000
  H   H1112     1.0  0.85535  0.39696  0.58352  1.0000
  C   C941      1.0  0.67454  0.16537  0.58751  1.0000
  C   C942      1.0  0.60047  0.05116  0.59870  1.0000
  C   C943      1.0  0.92506  0.41946  0.59105  1.0000
  C   C944      1.0  0.80352  0.42940  0.58240  1.0000
  C   C945      1.0  0.80889  0.44233  0.56335  1.0000
  H   H1113     1.0  0.65710  0.45135  0.74921  1.0000
  C   C946      1.0  0.58022  0.23878  0.52059  1.0000
  H   H1114     1.0  0.90271  0.41602  0.52560  1.0000
  H   H1115     1.0  0.94003  0.36707  0.60982  1.0000
  H   H1116     1.0  0.80278  0.40562  0.75024  1.0000
  H   H1117     1.0  0.81398  0.50387  0.62109  1.0000
  C   C947      1.0  0.93131  0.40211  0.60596  1.0000
  H   H1118     1.0  0.65954  0.24153  0.52341  1.0000
  H   H1119     1.0  0.77767  0.45446  0.76104  1.0000
  H   H1120     1.0  0.60773  0.10033  0.56950  1.0000
  H   H1121     1.0  0.78823  0.45155  0.64445  1.0000
  C   C948      1.0  0.92283  0.41538  0.56820  1.0000
  H   H1122     1.0  0.82693  0.43619  0.64450  1.0000
  H   H1123     1.0  0.58521  0.17636  0.75021  1.0000
  H   H1124     1.0  0.96117  0.46202  0.72087  1.0000
  C   C949      1.0  0.61586  0.03669  0.58701  1.0000
  H   H1125     1.0  0.95327  0.49067  0.71399  1.0000
  H   H1126     1.0  0.57320  0.23563  0.53731  1.0000
  H   H1127     1.0  0.00877  0.50399  0.68713  1.0000
  C   C950      1.0  0.69068  0.17437  0.55011  1.0000
  H   H1128     1.0  0.96233  0.48736  0.67507  1.0000
  C   C951      1.0  0.82549  0.49157  0.62974  1.0000
  H   H1129     1.0  0.64113  0.19589  0.62352  1.0000
  C   C952      1.0  0.83291  0.45355  0.64196  1.0000
  C   C953      1.0  0.62808  0.04634  0.56861  1.0000
  H   H1130     1.0  0.64829  0.20360  0.59550  1.0000
  N   N64       1.0  0.65632  0.16877  0.60451  1.0000
  H   H1131     1.0  0.69420  0.13913  0.60558  1.0000
  S   S258      1.0  0.57883  0.35333  0.74976  1.0000
  H   H1132     1.0  0.65990  0.13743  0.62344  1.0000
  H   H1133     1.0  0.66083  0.18985  0.56314  1.0000
  H   H1134     1.0  0.58853  0.27265  0.52728  1.0000
  H   H1135     1.0  0.97326  0.48464  0.73525  1.0000
  N   N65       1.0  0.98597  0.47984  0.70129  1.0000
  N   N66       1.0  0.58368  0.42516  0.74385  1.0000
  H   H1136     1.0  0.78214  0.47911  0.63278  1.0000
  C   C954      1.0  0.62386  0.43861  0.74562  1.0000
  H   H1137     1.0  0.60057  0.41651  0.71270  1.0000
  H   H1138     1.0  0.91127  0.35573  0.54087  1.0000
  H   H1139     1.0  0.83606  0.45981  0.65901  1.0000
  C   C955      1.0  0.65988  0.15589  0.62592  1.0000
  H   H1140     1.0  0.64597  0.15919  0.63836  1.0000
  C   C956      1.0  0.00187  0.38693  0.72090  1.0000
  C   C957      1.0  0.92709  0.39360  0.55954  1.0000
  C   C958      1.0  0.58698  0.21230  0.75054  1.0000
  H   H1141     1.0  0.63024  0.17128  0.57991  1.0000
  C   C959      1.0  0.67413  0.17768  0.56677  1.0000
  H   H1142     1.0  0.82648  0.48910  0.58726  1.0000
  H   H1143     1.0  0.62078  0.16382  0.60749  1.0000
  C   C960      1.0  0.60994  0.08272  0.57420  1.0000
  H   H1144     1.0  0.93288  0.40537  0.62369  1.0000
  H   H1145     1.0  0.92155  0.43616  0.59732  1.0000
  C   C961      1.0  0.62510  0.06901  0.56234  1.0000
  H   H1146     1.0  0.67019  0.19944  0.61556  1.0000
  C   C962      1.0  0.70817  0.15874  0.55358  1.0000
  C   C963      1.0  0.93533  0.38054  0.59809  1.0000
  H   H1147     1.0  0.84249  0.49241  0.62158  1.0000
  H   H1148     1.0  0.63469  0.07603  0.54829  1.0000
  H   H1149     1.0  0.63581  0.14343  0.59106  1.0000
  H   H1150     1.0  0.91744  0.42955  0.55778  1.0000
  H   H1151     1.0  0.72093  0.15620  0.54055  1.0000
  H   H1152     1.0  0.63071  0.42494  0.73584  1.0000
  C   C964      1.0  0.00165  0.37980  0.69876  1.0000
  C   C965      1.0  0.65399  0.19291  0.60998  1.0000
  H   H1153     1.0  0.64788  0.02071  0.61369  1.0000
  C   C966      1.0  0.69257  0.14945  0.59050  1.0000
  H   H1154     1.0  0.82162  0.47359  0.55066  1.0000
  C   C967      1.0  0.80593  0.43802  0.60378  1.0000
  H   H1155     1.0  0.64020  0.03641  0.55908  1.0000
  C   C968      1.0  0.81948  0.47262  0.58685  1.0000
  C   C969      1.0  0.99819  0.31231  0.76180  1.0000
  H   H1156     1.0  0.79642  0.47551  0.65906  1.0000
  H   H1157     1.0  0.89102  0.37853  0.53985  1.0000
  H   H1158     1.0  0.72275  0.13410  0.57630  1.0000
  C   C970      1.0  0.81404  0.45991  0.60669  1.0000
  S   S259      1.0  0.58678  0.02655  0.66971  1.0000
  C   C971      1.0  0.96771  0.47924  0.71863  1.0000
  H   H1159     1.0  0.84933  0.45245  0.63276  1.0000
  H   H1160     1.0  0.00304  0.32387  0.74760  1.0000
  H   H1161     1.0  0.00359  0.44176  0.67869  1.0000
  H   H1162     1.0  0.59063  0.24718  0.75477  1.0000
  C   C972      1.0  0.01153  0.44550  0.69422  1.0000
  C   C973      1.0  0.94680  0.37888  0.52667  1.0000
  H   H1163     1.0  0.80771  0.43530  0.54682  1.0000
  H   H1164     1.0  0.60593  0.39701  0.73594  1.0000
  N   N67       1.0  0.92521  0.38865  0.53542  1.0000
  H   H1165     1.0  0.79813  0.44199  0.72650  1.0000
  H   H1166     1.0  0.68978  0.18390  0.53432  1.0000
  C   C974      1.0  0.70914  0.14633  0.57373  1.0000
  H   H1167     1.0  0.55268  0.42620  0.72560  1.0000
  H   H1168     1.0  0.93629  0.35923  0.57001  1.0000
  C   C975      1.0  0.79494  0.46865  0.64194  1.0000
  C   C976      1.0  0.81677  0.46389  0.56556  1.0000
  C   C977      1.0  0.62918  0.19409  0.52670  1.0000
  H   H1169     1.0  0.57167  0.44836  0.71822  1.0000
  C   C978      1.0  0.93321  0.37627  0.57526  1.0000
  H   H1170     1.0  0.98522  0.40809  0.74529  1.0000
  C   C979      1.0  0.56510  0.43774  0.73242  1.0000
  H   H1171     1.0  0.98852  0.47548  0.66546  1.0000
  C   C980      1.0  0.59297  0.40831  0.72794  1.0000
  C   C981      1.0  0.97590  0.47489  0.67948  1.0000
  H   H1172     1.0  0.59056  0.04556  0.61309  1.0000
  C   C982      1.0  0.99449  0.50298  0.69946  1.0000
  C   C983      1.0  0.90732  0.37224  0.53259  1.0000
  C   C984      1.0  0.63934  0.45372  0.75320  1.0000
  H   H1173     1.0  0.52575  0.24487  0.71307  1.0000
  H   H1174     1.0  0.00039  0.50894  0.71575  1.0000
  C   C985      1.0  0.58894  0.25964  0.51489  1.0000
  C   C986      1.0  0.00440  0.46384  0.70771  1.0000
  C   C987      1.0  0.60059  0.44089  0.75137  1.0000
  H   H1175     1.0  0.96086  0.39035  0.52925  1.0000
  C   C988      1.0  0.64502  0.20947  0.51847  1.0000
  H   H1176     1.0  0.01067  0.29805  0.76160  1.0000
  H   H1177     1.0  0.55530  0.44884  0.74395  1.0000
  H   H1178     1.0  0.77187  0.40034  0.72546  1.0000
  H   H1179     1.0  0.98155  0.30547  0.75806  1.0000
  H   H1180     1.0  0.90462  0.36897  0.51451  1.0000
  H   H1181     1.0  0.93674  0.51226  0.61568  1.0000
  C   C989      1.0  0.79413  0.46080  0.75689  1.0000
  H   H1182     1.0  0.96809  0.45811  0.67999  1.0000
  Fe  Fe129     1.0  0.58035  0.31656  0.75920  1.0000
  H   H1183     1.0  0.57976  0.39711  0.72210  1.0000
  H   H1184     1.0  0.62721  0.17852  0.51815  1.0000
  C   C990      1.0  0.91962  0.40876  0.52114  1.0000
  C   C991      1.0  0.76905  0.39869  0.74346  1.0000
  C   C992      1.0  0.59303  0.23084  0.76266  1.0000
  C   C993      1.0  0.74770  0.39384  0.75197  1.0000
  C   C994      1.0  0.78677  0.40170  0.75802  1.0000
  C   C995      1.0  0.58986  0.19071  0.75971  1.0000
  N   N68       1.0  0.61977  0.01277  0.59362  1.0000
  Fe  Fe130     1.0  0.85668  0.12790  0.99084  1.0000
  S   S260      1.0  0.86361  0.15625  0.96578  1.0000
  Fe  Fe131     1.0  0.84029  0.09724  0.95409  1.0000
  S   S261      1.0  0.84611  0.12343  0.92705  1.0000
  S   S262      1.0  0.83442  0.06024  0.94755  1.0000
  Fe  Fe132     1.0  0.87883  0.12960  0.94367  1.0000
  S   S263      1.0  0.91206  0.12592  0.92393  1.0000
  Fe  Fe133     1.0  0.83017  0.14807  0.95145  1.0000
  S   S264      1.0  0.80594  0.17459  0.93597  1.0000
  S   S265      1.0  0.87392  0.10205  0.96948  1.0000
  S   S266      1.0  0.82223  0.12119  0.97777  1.0000
  Fe  Fe134     1.0  0.75846  0.47348  0.81494  1.0000
  S   S267      1.0  0.72838  0.49567  0.82465  1.0000
  S   S268      1.0  0.78971  0.48610  0.79570  1.0000
  Fe  Fe135     1.0  0.74293  0.43486  0.84612  1.0000
  S   S269      1.0  0.71257  0.45396  0.85861  1.0000
  S   S270      1.0  0.75023  0.39807  0.85414  1.0000
  Fe  Fe136     1.0  0.70836  0.46422  0.82250  1.0000
  S   S271      1.0  0.67255  0.46261  0.81111  1.0000
  Fe  Fe137     1.0  0.73461  0.48386  0.86015  1.0000
  S   S272      1.0  0.73756  0.44331  0.80957  1.0000
  S   S273      1.0  0.76580  0.46348  0.85083  1.0000
  H   H1185     1.0  0.82243  0.42460  0.77619  1.0000
  S   S274      1.0  0.57895  0.36441  0.80383  1.0000
  H   H1186     1.0  0.64091  0.24919  0.78026  1.0000
  H   H1187     1.0  0.82974  0.39486  0.77594  1.0000
  S   S275      1.0  0.55288  0.31970  0.78570  1.0000
  Fe  Fe138     1.0  0.55335  0.35702  0.77813  1.0000
  C   C996      1.0  0.62611  0.26051  0.78374  1.0000
  Fe  Fe139     1.0  0.58042  0.32696  0.80946  1.0000
  S   S276      1.0  0.57994  0.31268  0.84492  1.0000
  S   S277      1.0  0.60776  0.32092  0.78392  1.0000
  Fe  Fe140     1.0  0.70526  0.32307  0.95083  1.0000
  S   S278      1.0  0.71786  0.29414  0.93046  1.0000
  S   S279      1.0  0.72075  0.35724  0.94952  1.0000
  Fe  Fe141     1.0  0.66693  0.29699  0.97268  1.0000
  S   S280      1.0  0.67619  0.26584  0.95326  1.0000
  Fe  Fe142     1.0  0.71208  0.27254  0.96149  1.0000
  S   S281      1.0  0.73654  0.24702  0.97818  1.0000
  Fe  Fe143     1.0  0.68122  0.28980  0.92375  1.0000
  S   S282      1.0  0.67411  0.28582  0.88696  1.0000
  S   S283      1.0  0.70241  0.30226  0.98279  1.0000
  S   S284      1.0  0.66900  0.32013  0.94230  1.0000
  S   S285      1.0  0.99762  0.18831  0.92358  1.0000
  C   C997      1.0  0.60487  0.20611  0.79332  1.0000
  H   H1188     1.0  0.60108  0.17074  0.78806  1.0000
  C   C998      1.0  0.60636  0.30649  0.85678  1.0000
  C   C999      1.0  0.62549  0.30329  0.84310  1.0000
  C   C1000     1.0  0.64613  0.29700  0.85263  1.0000
  C   C1001     1.0  0.64797  0.29442  0.87597  1.0000
  C   C1002     1.0  0.62904  0.29829  0.88979  1.0000
  C   C1003     1.0  0.60819  0.30403  0.88017  1.0000
  H   H1189     1.0  0.62435  0.30508  0.82514  1.0000
  H   H1190     1.0  0.66075  0.29401  0.84190  1.0000
  H   H1191     1.0  0.63034  0.29627  0.90783  1.0000
  H   H1192     1.0  0.59348  0.30645  0.89090  1.0000
  C   C1004     1.0  0.74160  0.38714  0.88067  1.0000
  C   C1005     1.0  0.73769  0.40106  0.89895  1.0000
  C   C1006     1.0  0.73159  0.39168  0.92007  1.0000
  C   C1007     1.0  0.72852  0.36850  0.92283  1.0000
  C   C1008     1.0  0.73218  0.35465  0.90446  1.0000
  C   C1009     1.0  0.73917  0.36390  0.88360  1.0000
  H   H1193     1.0  0.73968  0.41898  0.89692  1.0000
  H   H1194     1.0  0.72886  0.40249  0.93422  1.0000
  H   H1195     1.0  0.73004  0.33677  0.90642  1.0000
  H   H1196     1.0  0.74257  0.35300  0.86964  1.0000
  C   C1010     1.0  0.66366  0.43643  0.80225  1.0000
  C   C1011     1.0  0.64137  0.43016  0.80644  1.0000
  C   C1012     1.0  0.63322  0.41059  0.79721  1.0000
  C   C1013     1.0  0.64718  0.39763  0.78315  1.0000
  H   H1197     1.0  0.82487  0.04041  0.84907  1.0000
  C   C1014     1.0  0.67794  0.42271  0.78928  1.0000
  H   H1198     1.0  0.63025  0.44080  0.81640  1.0000
  H   H1199     1.0  0.61597  0.40608  0.80029  1.0000
  H   H1200     1.0  0.56581  0.42407  0.77593  1.0000
  H   H1201     1.0  0.75780  0.39320  0.80751  1.0000
  C   C1015     1.0  0.82138  0.04913  0.92393  1.0000
  C   C1016     1.0  0.80467  0.06116  0.91219  1.0000
  C   C1017     1.0  0.79336  0.05096  0.89480  1.0000
  C   C1018     1.0  0.79903  0.02891  0.88852  1.0000
  H   H1202     1.0  0.69504  0.42755  0.78575  1.0000
  C   C1019     1.0  0.82730  0.02718  0.91743  1.0000
  H   H1203     1.0  0.79990  0.07803  0.91705  1.0000
  H   H1204     1.0  0.77995  0.06018  0.88631  1.0000
  H   H1205     1.0  0.51370  0.42243  0.84045  1.0000
  C   C1020     1.0  0.82493  0.48460  0.76481  1.0000
  C   C1021     1.0  0.93566  0.14353  0.92423  1.0000
  C   C1022     1.0  0.93442  0.16487  0.93347  1.0000
  C   C1023     1.0  0.95351  0.17835  0.93308  1.0000
  C   C1024     1.0  0.97402  0.17072  0.92342  1.0000
  C   C1025     1.0  0.97526  0.14940  0.91415  1.0000
  C   C1026     1.0  0.95616  0.13592  0.91454  1.0000
  H   H1206     1.0  0.91868  0.17116  0.94059  1.0000
  H   H1207     1.0  0.95236  0.19484  0.94021  1.0000
  H   H1208     1.0  0.99092  0.14329  0.90669  1.0000
  H   H1209     1.0  0.95733  0.11949  0.90727  1.0000
  C   C1027     1.0  0.78609  0.19388  0.94827  1.0000
  C   C1028     1.0  0.78396  0.19651  0.97149  1.0000
  C   C1029     1.0  0.76837  0.21247  0.98032  1.0000
  C   C1030     1.0  0.75466  0.22599  0.96612  1.0000
  C   C1031     1.0  0.75663  0.22321  0.94292  1.0000
  C   C1032     1.0  0.77231  0.20734  0.93409  1.0000
  H   H1210     1.0  0.79437  0.18629  0.98263  1.0000
  H   H1211     1.0  0.76700  0.21440  0.99830  1.0000
  H   H1212     1.0  0.74619  0.23334  0.93174  1.0000
  H   H1213     1.0  0.77374  0.20541  0.91612  1.0000
  C   C1033     1.0  0.99642  0.27364  0.82426  1.0000
  H   H1214     1.0  0.85547  0.07701  0.90650  1.0000
  C   C1034     1.0  0.59879  0.18761  0.78104  1.0000
  N   N69       1.0  0.80160  0.40375  0.79775  1.0000
  C   C1035     1.0  0.80496  0.38347  0.81246  1.0000
  C   C1036     1.0  0.81646  0.01723  0.89958  1.0000
  C   C1037     1.0  0.79512  0.42299  0.81200  1.0000
  H   H1215     1.0  0.58773  0.40304  0.77252  1.0000
  H   H1216     1.0  0.54669  0.34667  0.83914  1.0000
  Fe  Fe144     1.0  0.60439  0.35779  0.77628  1.0000
  S   S286      1.0  0.63707  0.37492  0.76843  1.0000
  H   H1217     1.0  0.78993  0.38003  0.82335  1.0000
  C   C1038     1.0  0.61709  0.24320  0.81949  1.0000
  H   H1218     1.0  0.98910  0.35580  0.76709  1.0000
  H   H1219     1.0  0.81908  0.38535  0.82413  1.0000
  H   H1220     1.0  0.80859  0.36832  0.80234  1.0000
  C   C1039     1.0  0.82355  0.40883  0.78667  1.0000
  C   C1040     1.0  0.98866  0.15355  0.97517  1.0000
  C   C1041     1.0  0.87520  0.05601  0.87022  1.0000
  H   H1221     1.0  0.80879  0.42742  0.82336  1.0000
  H   H1222     1.0  0.00681  0.25880  0.82806  1.0000
  H   H1223     1.0  0.60447  0.48716  0.78418  1.0000
  H   H1224     1.0  0.87522  0.05528  0.91471  1.0000
  C   C1042     1.0  0.58845  0.26384  0.79937  1.0000
  N   N70       1.0  0.67048  0.36511  0.85594  1.0000
  H   H1225     1.0  0.64413  0.34913  0.83852  1.0000
  H   H1226     1.0  0.76616  0.36381  0.96512  1.0000
  H   H1227     1.0  0.86142  0.10027  0.87343  1.0000
  N   N71       1.0  0.79165  0.28836  0.96420  1.0000
  C   C1043     1.0  0.77249  0.28426  0.94951  1.0000
  C   C1044     1.0  0.81245  0.28086  0.95204  1.0000
  C   C1045     1.0  0.78884  0.27413  0.98483  1.0000
  C   C1046     1.0  0.79314  0.31217  0.97036  1.0000
  C   C1047     1.0  0.81118  0.31909  0.98348  1.0000
  C   C1048     1.0  0.77685  0.32900  0.96400  1.0000
  H   H1228     1.0  0.90116  0.14640  0.99619  1.0000
  H   H1229     1.0  0.53731  0.32528  0.87226  1.0000
  C   C1049     1.0  0.98275  0.34434  0.78077  1.0000
  H   H1230     1.0  0.77332  0.29449  0.93363  1.0000
  H   H1231     1.0  0.77203  0.26639  0.94467  1.0000
  H   H1232     1.0  0.75617  0.28787  0.95835  1.0000
  H   H1233     1.0  0.81569  0.29183  0.93696  1.0000
  H   H1234     1.0  0.81125  0.26328  0.94627  1.0000
  H   H1235     1.0  0.82749  0.28090  0.96270  1.0000
  H   H1236     1.0  0.77313  0.27896  0.99426  1.0000
  H   H1237     1.0  0.78754  0.25608  0.98081  1.0000
  H   H1238     1.0  0.52598  0.35677  0.81991  1.0000
  H   H1239     1.0  0.78905  0.50702  0.87174  1.0000
  C   C1050     1.0  0.78350  0.39999  0.78172  1.0000
  H   H1240     1.0  0.62142  0.25866  0.82837  1.0000
  C   C1051     1.0  0.80364  0.47634  0.77080  1.0000
  H   H1241     1.0  0.60435  0.23462  0.83036  1.0000
  H   H1242     1.0  0.97179  0.26616  0.85009  1.0000
  H   H1243     1.0  0.90811  0.10824  0.01079  1.0000
  H   H1244     1.0  0.66874  0.37059  0.93404  1.0000
  H   H1245     1.0  0.57415  0.25498  0.80760  1.0000
  C   C1052     1.0  0.66897  0.36743  0.89804  1.0000
  H   H1246     1.0  0.78030  0.41946  0.82303  1.0000
  C   C1053     1.0  0.97674  0.27779  0.83668  1.0000
  H   H1247     1.0  0.62010  0.26725  0.76724  1.0000
  C   C1054     1.0  0.63230  0.47126  0.76687  1.0000
  H   H1248     1.0  0.70324  0.34932  0.85862  1.0000
  C   C1055     1.0  0.85634  0.02270  0.84369  1.0000
  H   H1249     1.0  0.92149  0.10160  0.98476  1.0000
  H   H1250     1.0  0.91549  0.08475  0.89774  1.0000
  H   H1251     1.0  0.66485  0.39319  0.83289  1.0000
  C   C1056     1.0  0.96985  0.31199  0.81462  1.0000
  H   H1252     1.0  0.68115  0.33290  0.87065  1.0000
  C   C1057     1.0  0.74400  0.39181  0.77507  1.0000
  C   C1058     1.0  0.84273  0.03992  0.85236  1.0000
  S   S287      1.0  0.52089  0.37722  0.77234  1.0000
  S   S288      1.0  0.73441  0.50426  0.89204  1.0000
  H   H1253     1.0  0.58256  0.27100  0.78301  1.0000
  H   H1254     1.0  0.76225  0.32549  0.95437  1.0000
  H   H1255     1.0  0.94811  0.29998  0.84154  1.0000
  H   H1256     1.0  0.53487  0.39843  0.81333  1.0000
  H   H1257     1.0  0.99700  0.16947  0.97345  1.0000
  H   H1258     1.0  0.82685  0.34635  0.99965  1.0000
  H   H1259     1.0  0.67446  0.36810  0.81979  1.0000
  H   H1260     1.0  0.83245  0.49669  0.77532  1.0000
  H   H1261     1.0  0.57680  0.46130  0.77113  1.0000
  H   H1262     1.0  0.68526  0.42991  0.89589  1.0000
  C   C1059     1.0  0.96808  0.15215  0.98680  1.0000
  C   C1060     1.0  0.68545  0.34475  0.85658  1.0000
  H   H1263     1.0  0.67886  0.41041  0.93248  1.0000
  N   N72       1.0  0.60838  0.24850  0.79670  1.0000
  H   H1264     1.0  0.52968  0.37105  0.84569  1.0000
  H   H1265     1.0  0.66445  0.35001  0.89961  1.0000
  C   C1061     1.0  0.68050  0.41248  0.89639  1.0000
  C   C1062     1.0  0.67680  0.40158  0.91704  1.0000
  C   C1063     1.0  0.52076  0.33461  0.87264  1.0000
  H   H1266     1.0  0.95846  0.09691  0.97718  1.0000
  H   H1267     1.0  0.51891  0.49160  0.86781  1.0000
  H   H1268     1.0  0.90651  0.03650  0.86363  1.0000
  H   H1269     1.0  0.79081  0.43818  0.80154  1.0000
  H   H1270     1.0  0.88675  0.09740  0.85667  1.0000
  H   H1271     1.0  0.84047  0.06886  0.87244  1.0000
  H   H1272     1.0  0.69392  0.38378  0.83516  1.0000
  H   H1273     1.0  0.93600  0.09621  0.01091  1.0000
  H   H1274     1.0  0.68209  0.41041  0.86110  1.0000
  C   C1064     1.0  0.79684  0.35754  0.98289  1.0000
  H   H1275     1.0  0.96548  0.34004  0.77600  1.0000
  H   H1276     1.0  0.88709  0.10960  0.88399  1.0000
  C   C1065     1.0  0.87368  0.07245  0.90694  1.0000
  H   H1277     1.0  0.88118  0.08431  0.91860  1.0000
  N   N73       1.0  0.88446  0.07351  0.88430  1.0000
  C   C1066     1.0  0.67866  0.40092  0.87643  1.0000
  H   H1278     1.0  0.63207  0.27517  0.79288  1.0000
  C   C1067     1.0  0.67106  0.37911  0.91787  1.0000
  C   C1068     1.0  0.87972  0.09611  0.87409  1.0000
  C   C1069     1.0  0.85190  0.05622  0.86560  1.0000
  C   C1070     1.0  0.66962  0.40356  0.77951  1.0000
  N   N74       1.0  0.99751  0.32394  0.78350  1.0000
  H   H1279     1.0  0.83680  0.41149  0.79914  1.0000
  H   H1280     1.0  0.64197  0.34641  0.86837  1.0000
  C   C1071     1.0  0.99805  0.13482  0.96469  1.0000
  H   H1281     1.0  0.80298  0.50006  0.84609  1.0000
  H   H1282     1.0  0.65701  0.33844  0.00814  1.0000
  C   C1072     1.0  0.77884  0.35131  0.97017  1.0000
  H   H1283     1.0  0.96116  0.16738  0.99393  1.0000
  H   H1284     1.0  0.63503  0.37287  0.85471  1.0000
  C   C1073     1.0  0.76160  0.39471  0.78974  1.0000
  C   C1074     1.0  0.95628  0.13178  0.98836  1.0000
  H   H1285     1.0  0.59211  0.27843  0.80985  1.0000
  C   C1075     1.0  0.90914  0.07117  0.88725  1.0000
  C   C1076     1.0  0.88867  0.03824  0.86099  1.0000
  H   H1286     1.0  0.84028  0.01778  0.92634  1.0000
  H   H1287     1.0  0.95881  0.32642  0.81181  1.0000
  C   C1077     1.0  0.64690  0.35809  0.85433  1.0000
  C   C1078     1.0  0.67622  0.37816  0.83509  1.0000
  H   H1288     1.0  0.80310  0.27521  0.99639  1.0000
  H   H1289     1.0  0.82395  0.30718  0.98927  1.0000
  H   H1290     1.0  0.91382  0.05504  0.89604  1.0000
  H   H1291     1.0  0.63278  0.23259  0.81874  1.0000
  H   H1292     1.0  0.91841  0.07237  0.87087  1.0000
  C   C1079     1.0  0.67289  0.37790  0.87668  1.0000
  H   H1293     1.0  0.68447  0.33499  0.84101  1.0000
  H   H1294     1.0  0.92339  0.16339  0.98588  1.0000
  H   H1295     1.0  0.98197  0.35430  0.79631  1.0000
  H   H1296     1.0  0.99413  0.10022  0.95716  1.0000
  H   H1297     1.0  0.72734  0.38821  0.78171  1.0000
  C   C1080     1.0  0.98694  0.11458  0.96580  1.0000
  H   H1298     1.0  0.52813  0.30876  0.83857  1.0000
  C   C1081     1.0  0.98994  0.30829  0.80169  1.0000
  H   H1299     1.0  0.61173  0.20247  0.80967  1.0000
  S   S289      1.0  0.63698  0.29592  0.99726  1.0000
  H   H1300     1.0  0.52349  0.35014  0.88205  1.0000
  C   C1082     1.0  0.96634  0.11296  0.97742  1.0000
  N   N75       1.0  0.93407  0.13104  0.00002  1.0000
  H   H1301     1.0  0.68047  0.39360  0.76862  1.0000
  S   S290      1.0  0.78299  0.01624  0.86780  1.0000
  C   C1083     1.0  0.96345  0.29688  0.83184  1.0000
  H   H1302     1.0  0.91551  0.13963  0.97041  1.0000
  C   C1084     1.0  0.52945  0.35421  0.83808  1.0000
  C   C1085     1.0  0.81296  0.34146  0.98958  1.0000
  C   C1086     1.0  0.00290  0.28856  0.80697  1.0000
  H   H1303     1.0  0.64454  0.48243  0.77332  1.0000
  C   C1087     1.0  0.60210  0.22840  0.78442  1.0000
  C   C1088     1.0  0.91790  0.14578  0.98761  1.0000
  C   C1089     1.0  0.87923  0.02186  0.84799  1.0000
  H   H1304     1.0  0.79815  0.37486  0.98767  1.0000
  C   C1090     1.0  0.60971  0.47380  0.77307  1.0000
  C   C1091     1.0  0.51754  0.40325  0.81032  1.0000
  C   C1092     1.0  0.92467  0.10821  0.00164  1.0000
  C   C1093     1.0  0.59404  0.45888  0.76549  1.0000
  H   H1305     1.0  0.59715  0.01344  0.76376  1.0000
  C   C1094     1.0  0.57425  0.41277  0.76361  1.0000
  H   H1306     1.0  0.53578  0.62682  0.11034  1.0000
  H   H1307     1.0  0.59999  0.63405  0.18409  1.0000
  N   N76       1.0  0.59980  0.66206  0.16057  1.0000
  H   H1308     1.0  0.57854  0.67124  0.18882  1.0000
  Fe  Fe145     1.0  0.61327  0.58891  0.19892  1.0000
  S   S291      1.0  0.64884  0.59942  0.19213  1.0000
  S   S292      1.0  0.59198  0.60744  0.22528  1.0000
  Fe  Fe146     1.0  0.61936  0.54737  0.16945  1.0000
  S   S293      1.0  0.65550  0.55481  0.16065  1.0000
  Fe  Fe147     1.0  0.65849  0.56300  0.19748  1.0000
  S   S294      1.0  0.68540  0.54855  0.22126  1.0000
  Fe  Fe148     1.0  0.64313  0.59074  0.15599  1.0000
  S   S295      1.0  0.64992  0.61704  0.12805  1.0000
  S   S296      1.0  0.62308  0.55281  0.20628  1.0000
  S   S297      1.0  0.60677  0.58297  0.16274  1.0000
  Fe  Fe149     1.0  0.95985  0.88755  0.13393  1.0000
  S   S298      1.0  0.97160  0.86917  0.10295  1.0000
  S   S299      1.0  0.94502  0.92273  0.12625  1.0000
  Fe  Fe150     1.0  0.96397  0.84419  0.16383  1.0000
  S   S300      1.0  0.97551  0.82343  0.13475  1.0000
  S   S301      1.0  0.95340  0.82935  0.19823  1.0000
  Fe  Fe151     1.0  0.99755  0.85276  0.12542  1.0000
  Fe  Fe152     1.0  0.94876  0.84172  0.11467  1.0000
  S   S302      1.0  0.91893  0.82599  0.09820  1.0000
  S   S303      1.0  0.98741  0.87277  0.15588  1.0000
  S   S304      1.0  0.93585  0.86083  0.14441  1.0000
  H   H1309     1.0  0.71353  0.67100  0.07355  1.0000
  H   H1310     1.0  0.55110  0.55220  0.19261  1.0000
  H   H1311     1.0  0.60485  0.68495  0.18743  1.0000
  C   C1095     1.0  0.96208  0.80291  0.21004  1.0000
  C   C1096     1.0  0.97991  0.79018  0.20079  1.0000
  C   C1097     1.0  0.98642  0.76939  0.21086  1.0000
  C   C1098     1.0  0.97506  0.76092  0.23009  1.0000
  C   C1099     1.0  0.95693  0.77342  0.23910  1.0000
  C   C1100     1.0  0.95062  0.79439  0.22921  1.0000
  H   H1312     1.0  0.98888  0.79651  0.18606  1.0000
  H   H1313     1.0  0.71199  0.64217  0.06573  1.0000
  H   H1314     1.0  0.00988  0.68237  0.23224  1.0000
  H   H1315     1.0  0.93662  0.80401  0.23629  1.0000
  C   C1101     1.0  0.70424  0.56129  0.23965  1.0000
  H   H1316     1.0  0.64053  0.60851  0.25721  1.0000
  H   H1317     1.0  0.62984  0.68091  0.15463  1.0000
  H   H1318     1.0  0.92846  0.87113  0.07466  1.0000
  H   H1319     1.0  0.77995  0.73640  0.03398  1.0000
  C   C1102     1.0  0.52856  0.65167  0.21259  1.0000
  C   C1103     1.0  0.53797  0.63854  0.19538  1.0000
  C   C1104     1.0  0.55721  0.62473  0.19900  1.0000
  C   C1105     1.0  0.56725  0.62391  0.22002  1.0000
  C   C1106     1.0  0.55736  0.63644  0.23749  1.0000
  C   C1107     1.0  0.53807  0.65024  0.23383  1.0000
  C   C1108     1.0  0.85572  0.86917  0.02983  1.0000
  H   H1320     1.0  0.56415  0.61465  0.18556  1.0000
  H   H1321     1.0  0.93812  0.81649  0.01780  1.0000
  H   H1322     1.0  0.69585  0.65149  0.03006  1.0000
  C   C1109     1.0  0.91350  0.82019  0.06979  1.0000
  C   C1110     1.0  0.93011  0.82137  0.05289  1.0000
  C   C1111     1.0  0.53687  0.57568  0.21619  1.0000
  H   H1323     1.0  0.93630  0.89748  0.08523  1.0000
  C   C1112     1.0  0.88675  0.80841  0.04204  1.0000
  C   C1113     1.0  0.89181  0.81374  0.06424  1.0000
  H   H1324     1.0  0.94689  0.82617  0.05692  1.0000
  H   H1325     1.0  0.71373  0.52968  0.25572  1.0000
  C   C1114     1.0  0.53625  0.56198  0.19768  1.0000
  H   H1326     1.0  0.87882  0.81282  0.07717  1.0000
  C   C1115     1.0  0.67710  0.60681  0.05576  1.0000
  C   C1116     1.0  0.66396  0.62587  0.06112  1.0000
  C   C1117     1.0  0.65555  0.62858  0.08324  1.0000
  C   C1118     1.0  0.65957  0.61203  0.10010  1.0000
  C   C1119     1.0  0.67218  0.59271  0.09459  1.0000
  C   C1120     1.0  0.68111  0.59028  0.07263  1.0000
  H   H1327     1.0  0.66051  0.63865  0.04834  1.0000
  H   H1328     1.0  0.64581  0.64358  0.08730  1.0000
  H   H1329     1.0  0.67558  0.57991  0.10740  1.0000
  H   H1330     1.0  0.69130  0.57551  0.06872  1.0000
  C   C1121     1.0  0.93719  0.98453  0.17115  1.0000
  C   C1122     1.0  0.92923  0.98516  0.14923  1.0000
  C   C1123     1.0  0.93181  0.96610  0.13579  1.0000
  C   C1124     1.0  0.94231  0.94617  0.14406  1.0000
  C   C1125     1.0  0.95027  0.94553  0.16599  1.0000
  C   C1126     1.0  0.94776  0.96464  0.17942  1.0000
  H   H1331     1.0  0.94775  0.76693  0.25359  1.0000
  H   H1332     1.0  0.92564  0.96682  0.11885  1.0000
  H   H1333     1.0  0.95838  0.93035  0.17260  1.0000
  H   H1334     1.0  0.95396  0.96395  0.19635  1.0000
  H   H1335     1.0  0.90285  0.92771  0.05988  1.0000
  N   N77       1.0  0.92591  0.77305  0.14513  1.0000
  C   C1127     1.0  0.94403  0.77256  0.12762  1.0000
  C   C1128     1.0  0.90382  0.77351  0.13403  1.0000
  C   C1129     1.0  0.92751  0.79442  0.15716  1.0000
  C   C1130     1.0  0.92812  0.75277  0.15996  1.0000
  C   C1131     1.0  0.92633  0.73107  0.15101  1.0000
  C   C1132     1.0  0.93225  0.75377  0.18332  1.0000
  C   C1133     1.0  0.92841  0.71164  0.16462  1.0000
  C   C1134     1.0  0.93436  0.73422  0.19675  1.0000
  C   C1135     1.0  0.93242  0.71323  0.18745  1.0000
  H   H1336     1.0  0.94296  0.75804  0.11646  1.0000
  H   H1337     1.0  0.94329  0.78784  0.11643  1.0000
  H   H1338     1.0  0.96091  0.77175  0.13533  1.0000
  H   H1339     1.0  0.90218  0.75945  0.12240  1.0000
  H   H1340     1.0  0.90117  0.78915  0.12362  1.0000
  H   H1341     1.0  0.88980  0.77272  0.14667  1.0000
  H   H1342     1.0  0.94421  0.79584  0.16491  1.0000
  H   H1343     1.0  0.92548  0.80935  0.14563  1.0000
  H   H1344     1.0  0.91425  0.79621  0.17050  1.0000
  H   H1345     1.0  0.92340  0.72898  0.13338  1.0000
  H   H1346     1.0  0.93404  0.76943  0.19167  1.0000
  H   H1347     1.0  0.92695  0.69524  0.15742  1.0000
  H   H1348     1.0  0.93767  0.73534  0.21451  1.0000
  H   H1349     1.0  0.69450  0.68014  0.03776  1.0000
  C   C1136     1.0  0.89357  0.87226  0.04327  1.0000
  C   C1137     1.0  0.61621  0.67322  0.14523  1.0000
  C   C1138     1.0  0.92509  0.81582  0.03072  1.0000
  H   H1350     1.0  0.53098  0.66027  0.24725  1.0000
  S   S305      1.0  0.93458  0.00822  0.18864  1.0000
  C   C1139     1.0  0.70546  0.66723  0.02948  1.0000
  H   H1351     1.0  0.76995  0.66870  0.05649  1.0000
  H   H1352     1.0  0.87001  0.80346  0.03801  1.0000
  H   H1353     1.0  0.62120  0.63209  0.16253  1.0000
  H   H1354     1.0  0.93106  0.89557  0.05604  1.0000
  C   C1140     1.0  0.61182  0.64397  0.17350  1.0000
  C   C1141     1.0  0.73332  0.70523  0.02993  1.0000
  N   N78       1.0  0.72736  0.66406  0.04073  1.0000
  H   H1355     1.0  0.00040  0.75983  0.20367  1.0000
  C   C1142     1.0  0.74105  0.68444  0.03974  1.0000
  S   S306      1.0  0.69024  0.60360  0.02887  1.0000
  H   H1356     1.0  0.52569  0.65813  0.13548  1.0000
  C   C1143     1.0  0.87860  0.86393  0.02798  1.0000
  H   H1357     1.0  0.62465  0.66112  0.13358  1.0000
  C   C1144     1.0  0.86248  0.89140  0.06229  1.0000
  C   C1145     1.0  0.71584  0.54765  0.25550  1.0000
  H   H1358     1.0  0.53024  0.63897  0.17915  1.0000
  H   H1359     1.0  0.69879  0.59523  0.22728  1.0000
  H   H1360     1.0  0.63626  0.58571  0.23896  1.0000
  H   H1361     1.0  0.82979  0.88673  0.04845  1.0000
  C   C1146     1.0  0.58191  0.65256  0.14711  1.0000
  H   H1362     1.0  0.92111  0.00033  0.14260  1.0000
  C   C1147     1.0  0.72263  0.65729  0.06446  1.0000
  C   C1148     1.0  0.72125  0.59389  0.25543  1.0000
  H   H1363     1.0  0.73820  0.65292  0.07374  1.0000
  C   C1149     1.0  0.54853  0.63405  0.12037  1.0000
  H   H1364     1.0  0.89586  0.86845  0.10106  1.0000
  C   C1150     1.0  0.88594  0.88646  0.06087  1.0000
  C   C1151     1.0  0.84766  0.88287  0.04697  1.0000
  H   H1365     1.0  0.57506  0.61202  0.10815  1.0000
  H   H1366     1.0  0.87813  0.89278  0.10581  1.0000
  C   C1152     1.0  0.76898  0.72226  0.03624  1.0000
  H   H1367     1.0  0.60786  0.68659  0.13471  1.0000
  C   C1153     1.0  0.77683  0.70237  0.04653  1.0000
  H   H1368     1.0  0.91096  0.86696  0.04111  1.0000
  C   C1154     1.0  0.58708  0.63490  0.13217  1.0000
  C   C1155     1.0  0.70729  0.58449  0.23952  1.0000
  H   H1369     1.0  0.51622  0.55027  0.17118  1.0000
  H   H1370     1.0  0.91113  0.92800  0.08873  1.0000
  C   C1156     1.0  0.55927  0.66092  0.14767  1.0000
  H   H1371     1.0  0.79385  0.70130  0.05264  1.0000
  H   H1372     1.0  0.88220  0.92682  0.08236  1.0000
  H   H1373     1.0  0.60564  0.57076  0.26031  1.0000
  C   C1157     1.0  0.59119  0.67876  0.17697  1.0000
  H   H1374     1.0  0.90704  0.89302  0.11298  1.0000
  C   C1158     1.0  0.64488  0.59051  0.25436  1.0000
  H   H1375     1.0  0.55357  0.67429  0.15848  1.0000
  H   H1376     1.0  0.51987  0.59933  0.23673  1.0000
  C   C1159     1.0  0.54292  0.65170  0.13448  1.0000
  H   H1377     1.0  0.85541  0.90175  0.07543  1.0000
  C   C1160     1.0  0.73976  0.64531  0.02957  1.0000
  C   C1161     1.0  0.76306  0.68377  0.04846  1.0000
  C   C1162     1.0  0.57060  0.62571  0.11918  1.0000
  H   H1378     1.0  0.62453  0.65066  0.18477  1.0000
  N   N79       1.0  0.90124  0.89570  0.07735  1.0000
  C   C1163     1.0  0.89918  0.92060  0.07699  1.0000
  C   C1164     1.0  0.89524  0.88715  0.10024  1.0000
  C   C1165     1.0  0.92526  0.88962  0.07299  1.0000
  C   C1166     1.0  0.90343  0.80927  0.02517  1.0000
  H   H1379     1.0  0.72944  0.63005  0.02896  1.0000
  H   H1380     1.0  0.58346  0.69384  0.16846  1.0000
  H   H1381     1.0  0.93408  0.69817  0.19800  1.0000
  H   H1382     1.0  0.60396  0.62802  0.13031  1.0000
  S   S307      1.0  0.59779  0.52130  0.15363  1.0000
  H   H1383     1.0  0.75529  0.63993  0.03843  1.0000
  C   C1167     1.0  0.74718  0.72377  0.02825  1.0000
  S   S308      1.0  0.98433  0.73477  0.24216  1.0000
  H   H1384     1.0  0.55233  0.57660  0.22537  1.0000
  H   H1385     1.0  0.71694  0.70749  0.02261  1.0000
  H   H1386     1.0  0.63702  0.54599  0.25474  1.0000
  H   H1387     1.0  0.66313  0.58910  0.25043  1.0000
  C   C1168     1.0  0.51793  0.58867  0.22259  1.0000
  H   H1388     1.0  0.56487  0.63580  0.25387  1.0000
  H   H1389     1.0  0.72323  0.61187  0.25536  1.0000
  H   H1390     1.0  0.74133  0.73914  0.01980  1.0000
  H   H1391     1.0  0.65220  0.51497  0.08430  1.0000
  H   H1392     1.0  0.84421  0.86238  0.01806  1.0000
  H   H1393     1.0  0.01222  0.67800  0.26196  1.0000
  C   C1169     1.0  0.51658  0.56099  0.18559  1.0000
  H   H1394     1.0  0.88475  0.85291  0.01483  1.0000
  S   S309      1.0  0.53822  0.86407  0.39948  1.0000
  Fe  Fe153     1.0  0.64465  0.90575  0.46546  1.0000
  S   S310      1.0  0.65832  0.94043  0.46795  1.0000
  S   S311      1.0  0.60709  0.89970  0.46969  1.0000
  Fe  Fe154     1.0  0.69210  0.88315  0.46259  1.0000
  S   S312      1.0  0.70905  0.91613  0.46522  1.0000
  S   S313      1.0  0.70777  0.84922  0.45230  1.0000
  Fe  Fe155     1.0  0.68266  0.92393  0.49215  1.0000
  Fe  Fe156     1.0  0.68349  0.93021  0.44106  1.0000
  S   S314      1.0  0.69144  0.94757  0.40730  1.0000
  S   S315      1.0  0.66766  0.88977  0.49130  1.0000
  S   S316      1.0  0.66777  0.89674  0.43681  1.0000
  Fe  Fe157     1.0  0.79293  0.54179  0.34916  1.0000
  S   S317      1.0  0.76302  0.56569  0.35302  1.0000
  H   H1395     1.0  0.83599  0.59981  0.39263  1.0000
  Fe  Fe158     1.0  0.82318  0.57861  0.33022  1.0000
  S   S318      1.0  0.79614  0.60546  0.33262  1.0000
  S   S319      1.0  0.86045  0.58185  0.32294  1.0000
  Fe  Fe159     1.0  0.78774  0.58979  0.36626  1.0000
  S   S320      1.0  0.78544  0.60721  0.39958  1.0000
  Fe  Fe160     1.0  0.77323  0.57961  0.31870  1.0000
  S   S321      1.0  0.74874  0.59335  0.29206  1.0000
  S   S322      1.0  0.81648  0.56481  0.36492  1.0000
  S   S323      1.0  0.80137  0.55390  0.31383  1.0000
  Fe  Fe161     1.0  0.85155  0.73073  0.46836  1.0000
  S   S324      1.0  0.85719  0.76765  0.46261  1.0000
  Fe  Fe162     1.0  0.81821  0.72932  0.42978  1.0000
  S   S325      1.0  0.82102  0.76627  0.42212  1.0000
  S   S326      1.0  0.79825  0.71231  0.40343  1.0000
  Fe  Fe163     1.0  0.85806  0.75991  0.42584  1.0000
  S   S327      1.0  0.87903  0.77493  0.39737  1.0000
  Fe  Fe164     1.0  0.81936  0.77087  0.45927  1.0000
  S   S328      1.0  0.80081  0.79926  0.47796  1.0000
  S   S329      1.0  0.85536  0.72282  0.43166  1.0000
  S   S330      1.0  0.81366  0.73419  0.46700  1.0000
  Fe  Fe165     1.0  0.96227  0.70781  0.32200  1.0000
  S   S331      1.0  0.93982  0.72000  0.29424  1.0000
  S   S332      1.0  0.96415  0.72384  0.35569  1.0000
  Fe  Fe166     1.0  0.98283  0.66916  0.29545  1.0000
  C   C1170     1.0  0.87430  0.61403  0.37576  1.0000
  Fe  Fe167     1.0  0.93324  0.68329  0.29077  1.0000
  S   S333      1.0  0.89681  0.67517  0.28618  1.0000
  S   S334      1.0  0.99312  0.70468  0.29971  1.0000
  S   S335      1.0  0.95378  0.67146  0.32016  1.0000
  C   C1171     1.0  0.90158  0.75878  0.38608  1.0000
  C   C1172     1.0  0.90413  0.75727  0.36269  1.0000
  C   C1173     1.0  0.92264  0.74547  0.35324  1.0000
  C   C1174     1.0  0.93926  0.73604  0.36711  1.0000
  C   C1175     1.0  0.93681  0.73773  0.39047  1.0000
  C   C1176     1.0  0.91777  0.74865  0.39998  1.0000
  H   H1396     1.0  0.89190  0.76548  0.35186  1.0000
  H   H1397     1.0  0.92455  0.74458  0.33523  1.0000
  H   H1398     1.0  0.94971  0.73063  0.40127  1.0000
  H   H1399     1.0  0.91606  0.74999  0.41801  1.0000
  C   C1177     1.0  0.78813  0.63653  0.40065  1.0000
  C   C1178     1.0  0.79398  0.64609  0.42093  1.0000
  C   C1179     1.0  0.79741  0.66929  0.42202  1.0000
  C   C1180     1.0  0.79423  0.68315  0.40299  1.0000
  C   C1181     1.0  0.78770  0.67367  0.38292  1.0000
  C   C1182     1.0  0.78505  0.65040  0.38161  1.0000
  H   H1400     1.0  0.79611  0.63546  0.43578  1.0000
  H   H1401     1.0  0.80213  0.67650  0.43764  1.0000
  H   H1402     1.0  0.78474  0.68436  0.36826  1.0000
  H   H1403     1.0  0.78021  0.64324  0.36602  1.0000
  C   C1183     1.0  0.87031  0.60791  0.31283  1.0000
  C   C1184     1.0  0.89353  0.61126  0.31150  1.0000
  C   C1185     1.0  0.90189  0.63180  0.30330  1.0000
  C   C1186     1.0  0.88703  0.64904  0.29624  1.0000
  C   C1187     1.0  0.86380  0.64572  0.29770  1.0000
  C   C1188     1.0  0.85544  0.62528  0.30613  1.0000
  H   H1404     1.0  0.90513  0.59787  0.31661  1.0000
  H   H1405     1.0  0.91983  0.63418  0.30216  1.0000
  H   H1406     1.0  0.83753  0.62280  0.30691  1.0000
  C   C1189     1.0  0.73382  0.83585  0.45972  1.0000
  C   C1190     1.0  0.74102  0.81641  0.44840  1.0000
  C   C1191     1.0  0.76164  0.80530  0.45343  1.0000
  C   C1192     1.0  0.77524  0.81336  0.47008  1.0000
  C   C1193     1.0  0.76811  0.83290  0.48130  1.0000
  C   C1194     1.0  0.74762  0.84420  0.47606  1.0000
  H   H1407     1.0  0.73059  0.80983  0.43564  1.0000
  H   H1408     1.0  0.76684  0.79029  0.44466  1.0000
  C   C1195     1.0  0.95777  0.79904  0.32627  1.0000
  H   H1409     1.0  0.74238  0.85917  0.48487  1.0000
  C   C1196     1.0  0.87217  0.63963  0.40807  1.0000
  H   H1410     1.0  0.91232  0.83313  0.34051  1.0000
  H   H1411     1.0  0.84227  0.65297  0.42561  1.0000
  C   C1197     1.0  0.64541  0.55257  0.26962  1.0000
  H   H1412     1.0  0.85598  0.59838  0.41488  1.0000
  C   C1198     1.0  0.55680  0.87505  0.41894  1.0000
  C   C1199     1.0  0.57931  0.87832  0.41230  1.0000
  C   C1200     1.0  0.59483  0.88639  0.42744  1.0000
  C   C1201     1.0  0.58799  0.89108  0.44945  1.0000
  C   C1202     1.0  0.56536  0.88825  0.45594  1.0000
  C   C1203     1.0  0.54979  0.88037  0.44075  1.0000
  H   H1413     1.0  0.58483  0.87435  0.39542  1.0000
  H   H1414     1.0  0.61207  0.88885  0.42215  1.0000
  H   H1415     1.0  0.55992  0.89190  0.47293  1.0000
  H   H1416     1.0  0.53252  0.87797  0.44607  1.0000
  C   C1204     1.0  0.70511  0.97320  0.40136  1.0000
  C   C1205     1.0  0.70830  0.98017  0.37882  1.0000
  H   H1417     1.0  0.52472  0.90197  0.37120  1.0000
  H   H1418     1.0  0.87952  0.52374  0.30700  1.0000
  H   H1419     1.0  0.52570  0.92677  0.35377  1.0000
  C   C1206     1.0  0.71263  0.98674  0.41828  1.0000
  H   H1420     1.0  0.70269  0.96974  0.36560  1.0000
  C   C1207     1.0  0.94632  0.79410  0.36595  1.0000
  C   C1208     1.0  0.64946  0.58396  0.29419  1.0000
  H   H1421     1.0  0.71023  0.98161  0.43570  1.0000
  H   H1422     1.0  0.62134  0.80732  0.40887  1.0000
  C   C1209     1.0  0.89605  0.63990  0.40824  1.0000
  C   C1210     1.0  0.90723  0.65223  0.42402  1.0000
  C   C1211     1.0  0.89509  0.66455  0.43999  1.0000
  H   H1423     1.0  0.90648  0.63084  0.39631  1.0000
  H   H1424     1.0  0.92544  0.65232  0.42386  1.0000
  H   H1425     1.0  0.60711  0.56648  0.29010  1.0000
  H   H1426     1.0  0.63926  0.60714  0.34578  1.0000
  H   H1427     1.0  0.83479  0.63270  0.36638  1.0000
  H   H1428     1.0  0.85483  0.65450  0.36875  1.0000
  C   C1212     1.0  0.84484  0.64199  0.37848  1.0000
  C   C1213     1.0  0.57513  0.82957  0.44988  1.0000
  C   C1214     1.0  0.51555  0.91810  0.36709  1.0000
  H   H1429     1.0  0.98047  0.80081  0.27232  1.0000
  C   C1215     1.0  0.96034  0.78842  0.34773  1.0000
  H   H1430     1.0  0.86236  0.67410  0.45287  1.0000
  H   H1431     1.0  0.83271  0.61812  0.41537  1.0000
  H   H1432     1.0  0.58177  0.80195  0.40113  1.0000
  H   H1433     1.0  0.64930  0.83211  0.40839  1.0000
  H   H1434     1.0  0.95163  0.80452  0.27983  1.0000
  C   C1216     1.0  0.87173  0.66457  0.44030  1.0000
  H   H1435     1.0  0.63453  0.86033  0.46202  1.0000
  H   H1436     1.0  0.68354  0.57698  0.28154  1.0000
  C   C1217     1.0  0.65183  0.80819  0.44678  1.0000
  C   C1218     1.0  0.61335  0.57705  0.27575  1.0000
  H   H1437     1.0  0.61931  0.59429  0.31368  1.0000
  H   H1438     1.0  0.91765  0.81371  0.37731  1.0000
  H   H1439     1.0  0.55194  0.81641  0.42679  1.0000
  H   H1440     1.0  0.97193  0.82414  0.28912  1.0000
  C   C1219     1.0  0.71863  0.00058  0.37318  1.0000
  C   C1220     1.0  0.68436  0.59088  0.31384  1.0000
  H   H1441     1.0  0.66112  0.84636  0.46602  1.0000
  H   H1442     1.0  0.94977  0.76688  0.29783  1.0000
  Fe  Fe168     1.0  0.96983  0.71400  0.27146  1.0000
  H   H1443     1.0  0.53366  0.94475  0.41255  1.0000
  C   C1221     1.0  0.72285  0.00726  0.41264  1.0000
  C   C1222     1.0  0.64296  0.84345  0.46362  1.0000
  H   H1444     1.0  0.66992  0.81082  0.45023  1.0000
  C   C1223     1.0  0.67325  0.58327  0.29523  1.0000
  S   S336      1.0  0.86749  0.70615  0.49401  1.0000
  H   H1445     1.0  0.84532  0.53690  0.32977  1.0000
  H   H1446     1.0  0.63679  0.83499  0.47934  1.0000
  N   N80       1.0  0.85041  0.71542  0.35047  1.0000
  C   C1224     1.0  0.83159  0.69981  0.34916  1.0000
  C   C1225     1.0  0.84325  0.73337  0.36614  1.0000
  C   C1226     1.0  0.85432  0.72624  0.32804  1.0000
  C   C1227     1.0  0.87096  0.70270  0.35743  1.0000
  C   C1228     1.0  0.88041  0.68567  0.34369  1.0000
  C   C1229     1.0  0.88216  0.70668  0.37765  1.0000
  C   C1230     1.0  0.90025  0.67400  0.34938  1.0000
  C   C1231     1.0  0.90190  0.69479  0.38329  1.0000
  C   C1232     1.0  0.91118  0.67879  0.36898  1.0000
  H   H1447     1.0  0.82862  0.69109  0.36567  1.0000
  H   H1448     1.0  0.81556  0.70883  0.34477  1.0000
  H   H1449     1.0  0.83472  0.68680  0.33635  1.0000
  H   H1450     1.0  0.82758  0.74241  0.36073  1.0000
  H   H1451     1.0  0.85630  0.74619  0.36744  1.0000
  H   H1452     1.0  0.83942  0.72640  0.38325  1.0000
  H   H1453     1.0  0.85734  0.71381  0.31462  1.0000
  H   H1454     1.0  0.83965  0.73697  0.32277  1.0000
  H   H1455     1.0  0.86930  0.73700  0.32814  1.0000
  H   H1456     1.0  0.87269  0.68155  0.32818  1.0000
  H   H1457     1.0  0.87646  0.71944  0.38905  1.0000
  H   H1458     1.0  0.90746  0.66158  0.33818  1.0000
  H   H1459     1.0  0.91043  0.69856  0.39857  1.0000
  H   H1460     1.0  0.92700  0.67030  0.37296  1.0000
  H   H1461     1.0  0.66685  0.84644  0.42661  1.0000
  H   H1462     1.0  0.63941  0.85800  0.42027  1.0000
  C   C1233     1.0  0.58632  0.81044  0.41616  1.0000
  H   H1463     1.0  0.77847  0.83931  0.49422  1.0000
  N   N81       1.0  0.75216  0.89385  0.40921  1.0000
  C   C1234     1.0  0.76180  0.90260  0.38761  1.0000
  C   C1235     1.0  0.76123  0.87056  0.41276  1.0000
  C   C1236     1.0  0.72746  0.89272  0.40723  1.0000
  C   C1237     1.0  0.75726  0.90900  0.42761  1.0000
  C   C1238     1.0  0.76721  0.90121  0.44799  1.0000
  C   C1239     1.0  0.75148  0.93227  0.42578  1.0000
  C   C1240     1.0  0.77132  0.91596  0.46519  1.0000
  C   C1241     1.0  0.75583  0.94687  0.44301  1.0000
  C   C1242     1.0  0.76569  0.93873  0.46269  1.0000
  C   C1243     1.0  0.56947  0.81842  0.43068  1.0000
  H   H1464     1.0  0.75947  0.89085  0.37370  1.0000
  H   H1465     1.0  0.75369  0.91881  0.38207  1.0000
  H   H1466     1.0  0.77977  0.87019  0.41486  1.0000
  H   H1467     1.0  0.75771  0.85968  0.39843  1.0000
  H   H1468     1.0  0.75329  0.86228  0.42774  1.0000
  H   H1469     1.0  0.71953  0.88708  0.42342  1.0000
  H   H1470     1.0  0.71958  0.90931  0.40268  1.0000
  H   H1471     1.0  0.72268  0.88083  0.39422  1.0000
  H   H1472     1.0  0.77161  0.88374  0.45130  1.0000
  H   H1473     1.0  0.74296  0.93932  0.41126  1.0000
  H   H1474     1.0  0.77856  0.90962  0.48074  1.0000
  H   H1475     1.0  0.76855  0.95003  0.47622  1.0000
  H   H1476     1.0  0.86456  0.53609  0.35174  1.0000
  C   C1244     1.0  0.63741  0.59285  0.31299  1.0000
  C   C1245     1.0  0.59763  0.83338  0.45437  1.0000
  H   H1477     1.0  0.88542  0.51317  0.37251  1.0000
  H   H1478     1.0  0.88468  0.62549  0.36503  1.0000
  C   C1246     1.0  0.64870  0.60038  0.33161  1.0000
  H   H1479     1.0  0.86418  0.60444  0.36401  1.0000
  H   H1480     1.0  0.60667  0.59460  0.27739  1.0000
  H   H1481     1.0  0.81582  0.52412  0.39509  1.0000
  N   N82       1.0  0.63829  0.57617  0.27398  1.0000
  H   H1482     1.0  0.64467  0.79828  0.46119  1.0000
  H   H1483     1.0  0.93661  0.82438  0.30855  1.0000
  C   C1247     1.0  0.92900  0.81006  0.36329  1.0000
  H   H1484     1.0  0.75105  0.96453  0.44127  1.0000
  C   C1248     1.0  0.73260  0.58027  0.27150  1.0000
  H   H1485     1.0  0.54454  0.94717  0.38424  1.0000
  C   C1249     1.0  0.67211  0.59939  0.33202  1.0000
  H   H1486     1.0  0.66370  0.55065  0.26578  1.0000
  S   S337      1.0  0.96139  0.67814  0.26558  1.0000
  C   C1250     1.0  0.99641  0.79356  0.31293  1.0000
  H   H1487     1.0  0.60062  0.84299  0.46907  1.0000
  H   H1488     1.0  0.94832  0.78539  0.38204  1.0000
  H   H1489     1.0  0.89598  0.51902  0.33150  1.0000
  H   H1490     1.0  0.88547  0.60149  0.38450  1.0000
  H   H1491     1.0  0.56191  0.83609  0.46091  1.0000
  N   N83       1.0  0.63927  0.82986  0.44358  1.0000
  C   C1251     1.0  0.64908  0.84208  0.42384  1.0000
  C   C1252     1.0  0.61527  0.82571  0.43974  1.0000
  C   C1253     1.0  0.60891  0.81380  0.42067  1.0000
  H   H1492     1.0  0.85222  0.65896  0.29217  1.0000
  C   C1254     1.0  0.86040  0.65239  0.42460  1.0000
  C   C1255     1.0  0.96780  0.76861  0.30179  1.0000
  H   H1493     1.0  0.78013  0.90532  0.38900  1.0000
  N   N84       1.0  0.85966  0.62662  0.39187  1.0000
  H   H1494     1.0  0.83256  0.65142  0.38913  1.0000
  C   C1256     1.0  0.94010  0.81553  0.32419  1.0000
  C   C1257     1.0  0.84558  0.61005  0.40424  1.0000
  N   N85       1.0  0.97240  0.79214  0.30707  1.0000
  H   H1495     1.0  0.83868  0.52141  0.35511  1.0000
  H   H1496     1.0  0.64158  0.54133  0.28433  1.0000
  H   H1497     1.0  0.97272  0.77503  0.35050  1.0000
  H   H1498     1.0  0.64769  0.00205  0.37438  1.0000
  H   H1499     1.0  0.70262  0.59027  0.31403  1.0000
  H   H1500     1.0  0.00130  0.78134  0.32652  1.0000
  H   H1501     1.0  0.73848  0.54631  0.28355  1.0000
  H   H1502     1.0  0.65150  0.79765  0.43171  1.0000
  C   C1258     1.0  0.92595  0.82082  0.34249  1.0000
  C   C1259     1.0  0.96889  0.80610  0.28630  1.0000
  H   H1503     1.0  0.90372  0.67412  0.45223  1.0000
  H   H1504     1.0  0.68084  0.60533  0.34638  1.0000
  H   H1505     1.0  0.97150  0.75674  0.31609  1.0000
  H   H1506     1.0  0.54459  0.92041  0.39901  1.0000
  C   C1260     1.0  0.53467  0.93639  0.39612  1.0000
  H   H1507     1.0  0.83403  0.77605  0.50491  1.0000
  H   H1508     1.0  0.97802  0.76269  0.28708  1.0000
  H   H1509     1.0  0.65911  0.98902  0.44392  1.0000
  C   C1261     1.0  0.85252  0.52560  0.34309  1.0000
  C   C1262     1.0  0.72993  0.55703  0.27132  1.0000
  H   H1510     1.0  0.64689  0.97663  0.40714  1.0000
  H   H1511     1.0  0.72111  0.00561  0.35575  1.0000
  C   C1263     1.0  0.65198  0.99381  0.40891  1.0000
  H   H1512     1.0  0.00779  0.78972  0.29835  1.0000
  H   H1513     1.0  0.00016  0.81067  0.31858  1.0000
  S   S338      1.0  0.00727  0.63933  0.29137  1.0000
  H   H1514     1.0  0.79658  0.75740  0.51232  1.0000
  H   H1515     1.0  0.84690  0.74926  0.51116  1.0000
  H   H1516     1.0  0.88936  0.74594  0.51084  1.0000
  C   C1264     1.0  0.65898  0.00073  0.42967  1.0000
  C   C1265     1.0  0.65256  0.00852  0.39025  1.0000
  S   S339      1.0  0.93164  0.52423  0.68348  1.0000
  H   H1517     1.0  0.67048  0.93128  0.74641  1.0000
  Fe  Fe169     1.0  0.96140  0.68840  0.64871  1.0000
  S   S340      1.0  0.98059  0.70071  0.61789  1.0000
  S   S341      1.0  0.95314  0.70556  0.68212  1.0000
  Fe  Fe170     1.0  0.94504  0.64667  0.62472  1.0000
  S   S342      1.0  0.96203  0.65725  0.59213  1.0000
  S   S343      1.0  0.92431  0.61496  0.62393  1.0000
  Fe  Fe171     1.0  0.99176  0.66445  0.61336  1.0000
  Fe  Fe172     1.0  0.94942  0.69229  0.59902  1.0000
  S   S344      1.0  0.93354  0.71938  0.57575  1.0000
  S   S345      1.0  0.97488  0.65263  0.64581  1.0000
  S   S346      1.0  0.93007  0.68129  0.62989  1.0000
  Fe  Fe173     1.0  0.61222  0.99763  0.67434  1.0000
  S   S347      1.0  0.64679  0.99442  0.65883  1.0000
  Fe  Fe174     1.0  0.61402  0.94886  0.69368  1.0000
  S   S348      1.0  0.64905  0.94258  0.67981  1.0000
  S   S349      1.0  0.59903  0.91828  0.71149  1.0000
  Fe  Fe175     1.0  0.65623  0.97713  0.69195  1.0000
  S   S350      1.0  0.68477  0.98987  0.71305  1.0000
  Fe  Fe176     1.0  0.63674  0.96009  0.64815  1.0000
  S   S351      1.0  0.63308  0.94382  0.61419  1.0000
  S   S352      1.0  0.62180  0.98227  0.70781  1.0000
  S   S353      1.0  0.60146  0.96459  0.66183  1.0000
  C   C1266     1.0  0.92175  0.77373  0.61601  1.0000
  S   S354      1.0  0.97876  0.79454  0.73300  1.0000
  C   C1267     1.0  0.73201  0.98129  0.76149  1.0000
  H   H1518     1.0  0.61716  0.98005  0.57935  1.0000
  C   C1268     1.0  0.65025  0.94340  0.58942  1.0000
  C   C1269     1.0  0.64215  0.93302  0.57042  1.0000
  C   C1270     1.0  0.65496  0.93226  0.55027  1.0000
  C   C1271     1.0  0.67607  0.94192  0.54888  1.0000
  C   C1272     1.0  0.68411  0.95248  0.56783  1.0000
  C   C1273     1.0  0.67130  0.95320  0.58803  1.0000
  H   H1519     1.0  0.62587  0.92542  0.57127  1.0000
  H   H1520     1.0  0.64854  0.92413  0.53582  1.0000
  H   H1521     1.0  0.70047  0.95992  0.56693  1.0000
  H   H1522     1.0  0.67788  0.96106  0.60255  1.0000
  C   C1274     1.0  0.70504  0.97708  0.73135  1.0000
  C   C1275     1.0  0.71619  0.99063  0.74629  1.0000
  H   H1523     1.0  0.92702  0.54120  0.58686  1.0000
  C   C1276     1.0  0.98782  0.59771  0.62556  1.0000
  H   H1524     1.0  0.82558  0.79437  0.54870  1.0000
  C   C1277     1.0  0.91581  0.71522  0.55259  1.0000
  C   C1278     1.0  0.90837  0.69399  0.54735  1.0000
  C   C1279     1.0  0.89391  0.69155  0.52917  1.0000
  C   C1280     1.0  0.65402  0.94052  0.74515  1.0000
  H   H1525     1.0  0.66716  0.97983  0.75953  1.0000
  C   C1281     1.0  0.90872  0.73391  0.53930  1.0000
  H   H1526     1.0  0.91365  0.67945  0.55738  1.0000
  C   C1282     1.0  0.53432  0.84646  0.65757  1.0000
  C   C1283     1.0  0.71000  0.95398  0.73173  1.0000
  H   H1527     1.0  0.91448  0.75039  0.54309  1.0000
  C   C1284     1.0  0.96111  0.73007  0.69625  1.0000
  C   C1285     1.0  0.97776  0.74428  0.68778  1.0000
  C   C1286     1.0  0.98296  0.76375  0.69937  1.0000
  C   C1287     1.0  0.97175  0.76930  0.71964  1.0000
  C   C1288     1.0  0.95533  0.75493  0.72829  1.0000
  C   C1289     1.0  0.95006  0.73549  0.71664  1.0000
  C   C1290     1.0  0.64351  0.00913  0.60020  1.0000
  H   H1528     1.0  0.51813  0.93828  0.70816  1.0000
  H   H1529     1.0  0.94662  0.75885  0.74387  1.0000
  H   H1530     1.0  0.93727  0.72458  0.72347  1.0000
  H   H1531     1.0  0.92048  0.76363  0.60060  1.0000
  C   C1291     1.0  0.53062  0.92513  0.71152  1.0000
  C   C1292     1.0  0.55361  0.92981  0.70901  1.0000
  C   C1293     1.0  0.56988  0.91305  0.71372  1.0000
  C   C1294     1.0  0.56294  0.89152  0.72053  1.0000
  C   C1295     1.0  0.53993  0.88673  0.72261  1.0000
  C   C1296     1.0  0.95483  0.56208  0.59391  1.0000
  H   H1532     1.0  0.55871  0.94646  0.70380  1.0000
  H   H1533     1.0  0.57539  0.87845  0.72424  1.0000
  H   H1534     1.0  0.53479  0.87010  0.72783  1.0000
  C   C1297     1.0  0.92859  0.54975  0.66752  1.0000
  C   C1298     1.0  0.94155  0.56817  0.67275  1.0000
  C   C1299     1.0  0.94007  0.58844  0.66000  1.0000
  C   C1300     1.0  0.92583  0.59040  0.64161  1.0000
  C   C1301     1.0  0.91262  0.57208  0.63665  1.0000
  C   C1302     1.0  0.91392  0.55190  0.64954  1.0000
  H   H1535     1.0  0.95271  0.56683  0.68682  1.0000
  H   H1536     1.0  0.94989  0.60256  0.66446  1.0000
  H   H1537     1.0  0.90145  0.57344  0.62258  1.0000
  H   H1538     1.0  0.90377  0.53793  0.64534  1.0000
  N   N86       1.0  0.58088  0.88834  0.64760  1.0000
  C   C1303     1.0  0.58143  0.91315  0.64896  1.0000
  C   C1304     1.0  0.59783  0.87864  0.66325  1.0000
  C   C1305     1.0  0.58768  0.88257  0.62429  1.0000
  C   C1306     1.0  0.55859  0.87907  0.65340  1.0000
  C   C1307     1.0  0.53996  0.89260  0.66089  1.0000
  C   C1308     1.0  0.55514  0.85566  0.65204  1.0000
  C   C1309     1.0  0.51921  0.88319  0.66631  1.0000
  H   H1539     1.0  0.79172  0.74349  0.53916  1.0000
  H   H1540     1.0  0.79905  0.78114  0.55535  1.0000
  H   H1541     1.0  0.56916  0.92168  0.63752  1.0000
  H   H1542     1.0  0.57795  0.91876  0.66638  1.0000
  H   H1543     1.0  0.59829  0.91955  0.64405  1.0000
  H   H1544     1.0  0.59268  0.88172  0.68100  1.0000
  H   H1545     1.0  0.61457  0.88625  0.66041  1.0000
  H   H1546     1.0  0.60029  0.86022  0.66160  1.0000
  H   H1547     1.0  0.57477  0.88872  0.61217  1.0000
  H   H1548     1.0  0.60389  0.89032  0.61908  1.0000
  H   H1549     1.0  0.59019  0.86422  0.62219  1.0000
  H   H1550     1.0  0.54100  0.91044  0.66314  1.0000
  H   H1551     1.0  0.56861  0.84427  0.64691  1.0000
  H   H1552     1.0  0.60835  0.98711  0.61713  1.0000
  H   H1553     1.0  0.88811  0.67506  0.52545  1.0000
  H   H1554     1.0  0.59798  0.00126  0.56831  1.0000
  N   N87       1.0  0.82285  0.76089  0.53629  1.0000
  C   C1310     1.0  0.58448  0.95907  0.75659  1.0000
  H   H1555     1.0  0.80506  0.79200  0.52770  1.0000
  S   S355      1.0  0.69285  0.94123  0.52386  1.0000
  C   C1311     1.0  0.83295  0.74806  0.55537  1.0000
  H   H1556     1.0  0.95372  0.82068  0.67542  1.0000
  C   C1312     1.0  0.83413  0.75678  0.57730  1.0000
  C   C1313     1.0  0.85353  0.71439  0.56945  1.0000
  H   H1557     1.0  0.97073  0.60482  0.62910  1.0000
  H   H1558     1.0  0.62725  0.00085  0.56012  1.0000
  C   C1314     1.0  0.80489  0.74782  0.52636  1.0000
  H   H1559     1.0  0.86136  0.69807  0.56631  1.0000
  H   H1560     1.0  0.98162  0.59274  0.56960  1.0000
  H   H1561     1.0  0.84285  0.71876  0.53584  1.0000
  C   C1315     1.0  0.89440  0.73144  0.52100  1.0000
  C   C1316     1.0  0.94262  0.79313  0.65606  1.0000
  H   H1562     1.0  0.95921  0.73984  0.64375  1.0000
  H   H1563     1.0  0.98112  0.51533  0.69393  1.0000
  H   H1564     1.0  0.90488  0.78142  0.61977  1.0000
  H   H1565     1.0  0.95349  0.74160  0.61424  1.0000
  H   H1566     1.0  0.65589  0.95360  0.73160  1.0000
  H   H1567     1.0  0.72977  0.92681  0.74682  1.0000
  H   H1568     1.0  0.89746  0.74503  0.64130  1.0000
  C   C1317     1.0  0.88676  0.71023  0.51592  1.0000
  C   C1318     1.0  0.84284  0.72641  0.55208  1.0000
  C   C1319     1.0  0.91870  0.78051  0.69492  1.0000
  C   C1320     1.0  0.94732  0.52664  0.61306  1.0000
  C   C1321     1.0  0.93136  0.79978  0.69462  1.0000
  H   H1569     1.0  0.58715  0.00735  0.60913  1.0000
  H   H1570     1.0  0.70193  0.94337  0.72010  1.0000
  N   N88       1.0  0.92982  0.75971  0.63533  1.0000
  C   C1322     1.0  0.94334  0.80605  0.67525  1.0000
  H   H1571     1.0  0.83316  0.86194  0.74782  1.0000
  C   C1323     1.0  0.98108  0.60088  0.58616  1.0000
  H   H1572     1.0  0.90883  0.75201  0.67780  1.0000
  H   H1573     1.0  0.93332  0.78748  0.61144  1.0000
  C   C1324     1.0  0.95291  0.75122  0.63002  1.0000
  H   H1574     1.0  0.91015  0.77527  0.71035  1.0000
  C   C1325     1.0  0.92998  0.77329  0.65579  1.0000
  H   H1575     1.0  0.96938  0.51698  0.63977  1.0000
  H   H1576     1.0  0.96376  0.60781  0.58948  1.0000
  C   C1326     1.0  0.52364  0.90360  0.71833  1.0000
  C   C1327     1.0  0.84482  0.74454  0.59461  1.0000
  C   C1328     1.0  0.81273  0.78303  0.54248  1.0000
  H   H1577     1.0  0.64168  0.92841  0.73935  1.0000
  H   H1578     1.0  0.86319  0.71410  0.60395  1.0000
  C   C1329     1.0  0.91811  0.76726  0.67594  1.0000
  C   C1330     1.0  0.91523  0.73995  0.63754  1.0000
  C   C1331     1.0  0.85462  0.72346  0.59064  1.0000
  H   H1579     1.0  0.96509  0.76485  0.62763  1.0000
  H   H1580     1.0  0.84563  0.75148  0.61118  1.0000
  C   C1332     1.0  0.97903  0.54820  0.62365  1.0000
  H   H1581     1.0  0.91537  0.73026  0.62179  1.0000
  C   C1333     1.0  0.96578  0.52931  0.62656  1.0000
  C   C1334     1.0  0.84049  0.76505  0.51887  1.0000
  C   C1335     1.0  0.58141  0.98222  0.75812  1.0000
  H   H1582     1.0  0.64677  0.99165  0.60663  1.0000
  H   H1583     1.0  0.92117  0.72794  0.65097  1.0000
  C   C1336     1.0  0.97401  0.56519  0.60719  1.0000
  H   H1584     1.0  0.93261  0.80940  0.70972  1.0000
  H   H1585     1.0  0.95249  0.79852  0.64159  1.0000
  H   H1586     1.0  0.85513  0.77337  0.52595  1.0000
  C   C1337     1.0  0.72588  0.94465  0.74687  1.0000
  H   H1587     1.0  0.82710  0.77307  0.58147  1.0000
  C   C1338     1.0  0.01191  0.57785  0.59939  1.0000
  C   C1339     1.0  0.94186  0.54299  0.59680  1.0000
  H   H1588     1.0  0.99213  0.61563  0.58456  1.0000
  H   H1589     1.0  0.94909  0.57440  0.58155  1.0000
  C   C1340     1.0  0.51638  0.86021  0.66467  1.0000
  H   H1590     1.0  0.53201  0.82853  0.65655  1.0000
  C   C1341     1.0  0.61533  0.99821  0.57449  1.0000
  C   C1342     1.0  0.60533  0.00522  0.61285  1.0000
  N   N89       1.0  0.98832  0.58506  0.60448  1.0000
  H   H1591     1.0  0.99580  0.77463  0.69261  1.0000
  H   H1592     1.0  0.99283  0.58729  0.64041  1.0000
  S   S356      1.0  0.96899  0.85239  0.75609  1.0000
  H   H1593     1.0  0.98683  0.74019  0.67246  1.0000
  H   H1594     1.0  0.99929  0.61210  0.62453  1.0000
  H   H1595     1.0  0.81144  0.73187  0.51908  1.0000
  H   H1596     1.0  0.57048  0.94886  0.75232  1.0000
  C   C1343     1.0  0.73705  0.95821  0.76182  1.0000
  C   C1344     1.0  0.60570  0.94900  0.75978  1.0000
  H   H1597     1.0  0.99298  0.54967  0.63473  1.0000
  H   H1598     1.0  0.60724  0.93104  0.75780  1.0000
  H   H1599     1.0  0.71259  0.00853  0.74610  1.0000
  H   H1600     1.0  0.56503  0.99002  0.75515  1.0000
  H   H1601     1.0  0.79515  0.87944  0.75257  1.0000
  C   C1345     1.0  0.59953  0.99537  0.76300  1.0000
  H   H1602     1.0  0.65553  0.01177  0.58591  1.0000
  C   C1346     1.0  0.74363  0.98762  0.90050  1.0000
  H   H1603     1.0  0.68167  0.95764  0.77412  1.0000
  Fe  Fe177     1.0  0.68266  0.62291  0.99609  1.0000
  S   S357      1.0  0.66324  0.65569  0.99287  1.0000
  Fe  Fe178     1.0  0.69249  0.62085  0.94512  1.0000
  S   S358      1.0  0.67340  0.65363  0.93872  1.0000
  S   S359      1.0  0.70927  0.60651  0.91340  1.0000
  Fe  Fe179     1.0  0.69126  0.66595  0.96882  1.0000
  S   S360      1.0  0.70560  0.70126  0.96760  1.0000
  Fe  Fe180     1.0  0.64720  0.64056  0.96304  1.0000
  S   S361      1.0  0.60897  0.63889  0.96024  1.0000
  S   S362      1.0  0.71176  0.63413  0.97385  1.0000
  S   S363      1.0  0.66522  0.60692  0.96766  1.0000
  Fe  Fe181     1.0  0.79189  0.98364  0.84999  1.0000
  S   S364      1.0  0.76604  0.95737  0.84426  1.0000
  Fe  Fe182     1.0  0.82861  0.95830  0.82500  1.0000
  S   S365      1.0  0.80610  0.93056  0.81693  1.0000
  S   S366      1.0  0.86626  0.95768  0.81888  1.0000
  Fe  Fe183     1.0  0.77938  0.95687  0.80864  1.0000
  S   S367      1.0  0.75702  0.94530  0.78037  1.0000
  Fe  Fe184     1.0  0.79387  0.93245  0.85256  1.0000
  S   S368      1.0  0.78890  0.89743  0.86693  1.0000
  S   S369      1.0  0.80346  0.98501  0.81363  1.0000
  S   S370      1.0  0.81831  0.95849  0.86152  1.0000
  Fe  Fe185     1.0  0.95467  0.82384  0.81347  1.0000
  S   S371      1.0  0.93415  0.81820  0.78293  1.0000
  S   S372      1.0  0.95101  0.81205  0.84988  1.0000
  Fe  Fe186     1.0  0.98740  0.85471  0.78855  1.0000
  Fe  Fe187     1.0  0.93732  0.85550  0.77728  1.0000
  H   H1604     1.0  0.54403  0.75321  0.79850  1.0000
  H   H1605     1.0  0.81755  0.85223  0.84836  1.0000
  S   S373      1.0  0.95577  0.86129  0.80898  1.0000
  S   S374      1.0  0.98732  0.81738  0.79478  1.0000
  Fe  Fe188     1.0  0.82142  0.77149  0.97082  1.0000
  S   S375      1.0  0.82926  0.79942  0.99447  1.0000
  S   S376      1.0  0.80406  0.73863  0.98129  1.0000
  Fe  Fe189     1.0  0.84820  0.79312  0.93161  1.0000
  S   S377      1.0  0.85814  0.82148  0.95239  1.0000
  S   S378      1.0  0.85458  0.79512  0.89386  1.0000
  Fe  Fe190     1.0  0.86460  0.79655  0.98043  1.0000
  Fe  Fe191     1.0  0.82252  0.82267  0.96463  1.0000
  S   S379      1.0  0.80918  0.85873  0.96471  1.0000
  S   S380      1.0  0.85754  0.76738  0.95837  1.0000
  S   S381      1.0  0.81177  0.79524  0.94240  1.0000
  C   C1347     1.0  0.92413  0.80733  0.86192  1.0000
  C   C1348     1.0  0.90501  0.80745  0.84873  1.0000
  C   C1349     1.0  0.88384  0.80348  0.85877  1.0000
  C   C1350     1.0  0.88156  0.79971  0.88207  1.0000
  C   C1351     1.0  0.90062  0.79996  0.89533  1.0000
  C   C1352     1.0  0.92186  0.80359  0.88524  1.0000
  H   H1606     1.0  0.90662  0.81011  0.83075  1.0000
  H   H1607     1.0  0.86920  0.80301  0.84841  1.0000
  H   H1608     1.0  0.89906  0.79696  0.91329  1.0000
  H   H1609     1.0  0.93660  0.80340  0.89554  1.0000
  C   C1353     1.0  0.87743  0.93531  0.80296  1.0000
  C   C1354     1.0  0.86385  0.92359  0.78879  1.0000
  C   C1355     1.0  0.77674  0.56732  0.90060  1.0000
  H   H1610     1.0  0.77031  0.51992  0.82579  1.0000
  C   C1356     1.0  0.90902  0.91000  0.79351  1.0000
  C   C1357     1.0  0.90021  0.92888  0.80476  1.0000
  C   C1358     1.0  0.75057  0.95249  0.92294  1.0000
  H   H1611     1.0  0.77993  0.88722  0.79057  1.0000
  H   H1612     1.0  0.92651  0.90496  0.79514  1.0000
  H   H1613     1.0  0.91100  0.93833  0.81510  1.0000
  C   C1359     1.0  0.79544  0.88758  0.89415  1.0000
  C   C1360     1.0  0.80116  0.90192  0.91119  1.0000
  C   C1361     1.0  0.80500  0.89308  0.93301  1.0000
  C   C1362     1.0  0.80372  0.86989  0.93761  1.0000
  C   C1363     1.0  0.79842  0.85569  0.92039  1.0000
  C   C1364     1.0  0.79414  0.86450  0.89884  1.0000
  H   H1614     1.0  0.80192  0.91979  0.90773  1.0000
  H   H1615     1.0  0.80899  0.90418  0.94632  1.0000
  H   H1616     1.0  0.79718  0.83788  0.92375  1.0000
  H   H1617     1.0  0.78958  0.85333  0.88578  1.0000
  H   H1618     1.0  0.77037  0.53496  0.88876  1.0000
  C   C1365     1.0  0.64631  0.93285  0.78446  1.0000
  H   H1619     1.0  0.77411  0.67999  0.93863  1.0000
  H   H1620     1.0  0.55577  0.75223  0.83385  1.0000
  H   H1621     1.0  0.76149  0.94871  0.95765  1.0000
  C   C1366     1.0  0.73346  0.71092  0.97034  1.0000
  C   C1367     1.0  0.75099  0.69699  0.97837  1.0000
  C   C1368     1.0  0.77246  0.70574  0.98142  1.0000
  C   C1369     1.0  0.77685  0.72842  0.97614  1.0000
  C   C1370     1.0  0.75946  0.74219  0.96757  1.0000
  C   C1371     1.0  0.73789  0.73352  0.96487  1.0000
  H   H1622     1.0  0.74791  0.67965  0.98275  1.0000
  H   H1623     1.0  0.78574  0.69496  0.98816  1.0000
  H   H1624     1.0  0.76252  0.75963  0.96343  1.0000
  H   H1625     1.0  0.72449  0.74449  0.95866  1.0000
  C   C1372     1.0  0.55651  0.67265  0.91350  1.0000
  C   C1373     1.0  0.57802  0.68161  0.91485  1.0000
  C   C1374     1.0  0.59457  0.67117  0.92852  1.0000
  C   C1375     1.0  0.58962  0.65180  0.94126  1.0000
  C   C1376     1.0  0.56811  0.64284  0.93982  1.0000
  C   C1377     1.0  0.55175  0.65299  0.92581  1.0000
  H   H1626     1.0  0.58192  0.69679  0.90539  1.0000
  H   H1627     1.0  0.61098  0.67832  0.92956  1.0000
  H   H1628     1.0  0.56419  0.62778  0.94951  1.0000
  H   H1629     1.0  0.53554  0.64552  0.92449  1.0000
  C   C1378     1.0  0.72439  0.53213  0.89738  1.0000
  C   C1379     1.0  0.72081  0.54817  0.88012  1.0000
  C   C1380     1.0  0.71577  0.57077  0.88530  1.0000
  C   C1381     1.0  0.71344  0.57749  0.90773  1.0000
  C   C1382     1.0  0.71621  0.56129  0.92495  1.0000
  C   C1383     1.0  0.72196  0.53885  0.91978  1.0000
  H   H1630     1.0  0.72241  0.54333  0.86281  1.0000
  H   H1631     1.0  0.71366  0.58315  0.87184  1.0000
  H   H1632     1.0  0.71460  0.56616  0.94228  1.0000
  H   H1633     1.0  0.70779  0.67212  0.01142  1.0000
  N   N90       1.0  0.87380  0.87560  0.91079  1.0000
  C   C1384     1.0  0.85646  0.85946  0.90516  1.0000
  C   C1385     1.0  0.88886  0.86508  0.92790  1.0000
  C   C1386     1.0  0.86213  0.89523  0.92118  1.0000
  C   C1387     1.0  0.88701  0.88143  0.89025  1.0000
  C   C1388     1.0  0.88665  0.90336  0.88016  1.0000
  C   C1389     1.0  0.90046  0.86472  0.87942  1.0000
  C   C1390     1.0  0.89938  0.90814  0.86071  1.0000
  C   C1391     1.0  0.91327  0.86973  0.86011  1.0000
  C   C1392     1.0  0.91280  0.89142  0.85083  1.0000
  H   H1634     1.0  0.86386  0.84337  0.89898  1.0000
  H   H1635     1.0  0.84578  0.85500  0.92005  1.0000
  H   H1636     1.0  0.84502  0.86658  0.89211  1.0000
  H   H1637     1.0  0.88018  0.86296  0.94453  1.0000
  H   H1638     1.0  0.90376  0.87549  0.93043  1.0000
  H   H1639     1.0  0.89506  0.84797  0.92330  1.0000
  H   H1640     1.0  0.84938  0.90310  0.90982  1.0000
  H   H1641     1.0  0.85274  0.89022  0.93685  1.0000
  H   H1642     1.0  0.87423  0.90809  0.92583  1.0000
  H   H1643     1.0  0.87657  0.91711  0.88680  1.0000
  H   H1644     1.0  0.90115  0.84760  0.88584  1.0000
  H   H1645     1.0  0.89870  0.92494  0.85318  1.0000
  H   H1646     1.0  0.92358  0.85668  0.85226  1.0000
  H   H1647     1.0  0.92282  0.89524  0.83591  1.0000
  C   C1393     1.0  0.79640  0.87911  0.78858  1.0000
  H   H1648     1.0  0.86704  0.83408  0.81259  1.0000
  H   H1649     1.0  0.98307  0.84755  0.84724  1.0000
  C   C1394     1.0  0.79208  0.55300  0.86496  1.0000
  N   N91       1.0  0.73983  0.67786  0.90670  1.0000
  C   C1395     1.0  0.74163  0.66451  0.88607  1.0000
  C   C1396     1.0  0.73866  0.66174  0.92612  1.0000
  C   C1397     1.0  0.71835  0.69117  0.90651  1.0000
  C   C1398     1.0  0.75892  0.69321  0.90747  1.0000
  C   C1399     1.0  0.76182  0.71013  0.89048  1.0000
  C   C1400     1.0  0.77486  0.69217  0.92492  1.0000
  C   C1401     1.0  0.77917  0.72541  0.89128  1.0000
  C   C1402     1.0  0.79214  0.70753  0.92553  1.0000
  C   C1403     1.0  0.79419  0.72421  0.90887  1.0000
  H   H1650     1.0  0.72794  0.65214  0.88548  1.0000
  H   H1651     1.0  0.74045  0.67519  0.87054  1.0000
  H   H1652     1.0  0.75790  0.65485  0.88528  1.0000
  H   H1653     1.0  0.75384  0.65045  0.92694  1.0000
  H   H1654     1.0  0.72409  0.65057  0.92506  1.0000
  H   H1655     1.0  0.73643  0.67061  0.94222  1.0000
  H   H1656     1.0  0.71647  0.70183  0.89108  1.0000
  H   H1657     1.0  0.70351  0.68022  0.90752  1.0000
  H   H1658     1.0  0.71707  0.70249  0.92108  1.0000
  H   H1659     1.0  0.75048  0.71188  0.87661  1.0000
  C   C1404     1.0  0.77916  0.55024  0.88507  1.0000
  H   H1660     1.0  0.78087  0.73847  0.87836  1.0000
  H   H1661     1.0  0.80739  0.73632  0.90975  1.0000
  C   C1405     1.0  0.74451  0.93970  0.90431  1.0000
  H   H1662     1.0  0.74819  0.88675  0.92710  1.0000
  C   C1406     1.0  0.80059  0.59076  0.87739  1.0000
  H   H1663     1.0  0.52349  0.72387  0.96306  1.0000
  H   H1664     1.0  0.52985  0.70212  0.94339  1.0000
  H   H1665     1.0  0.80376  0.70690  0.93935  1.0000
  H   H1666     1.0  0.52136  0.75853  0.76548  1.0000
  H   H1667     1.0  0.76619  0.56490  0.91552  1.0000
  H   H1668     1.0  0.87784  0.84793  0.83605  1.0000
  H   H1669     1.0  0.87791  0.86205  0.80932  1.0000
  H   H1670     1.0  0.84649  0.92884  0.78664  1.0000
  C   C1407     1.0  0.78741  0.58756  0.89677  1.0000
  C   C1408     1.0  0.86792  0.85068  0.82057  1.0000
  H   H1671     1.0  0.81309  0.57756  0.84683  1.0000
  H   H1672     1.0  0.00102  0.86931  0.83774  1.0000
  H   H1673     1.0  0.80212  0.55514  0.81878  1.0000
  C   C1409     1.0  0.62464  0.96187  0.76446  1.0000
  H   H1674     1.0  0.53303  0.72598  0.86889  1.0000
  H   H1675     1.0  0.53091  0.68582  0.84056  1.0000
  H   H1676     1.0  0.00166  0.91062  0.80538  1.0000
  C   C1410     1.0  0.55957  0.73383  0.83390  1.0000
  H   H1677     1.0  0.53715  0.69525  0.99188  1.0000
  C   C1411     1.0  0.54546  0.69666  0.83696  1.0000
  S   S382      1.0  0.53595  0.68703  0.89688  1.0000
  H   H1678     1.0  0.72476  0.52664  0.93328  1.0000
  S   S383      1.0  0.90506  0.87335  0.76658  1.0000
  S   S384      1.0  0.89814  0.80243  0.99697  1.0000
  H   H1679     1.0  0.52211  0.56884  0.87754  1.0000
  C   C1412     1.0  0.74352  0.91629  0.90597  1.0000
  H   H1680     1.0  0.98659  0.87090  0.86479  1.0000
  C   C1413     1.0  0.74836  0.90495  0.92610  1.0000
  H   H1681     1.0  0.72575  0.98363  0.89800  1.0000
  H   H1682     1.0  0.56925  0.73006  0.84943  1.0000
  C   C1414     1.0  0.77017  0.53214  0.83960  1.0000
  H   H1683     1.0  0.51851  0.74566  0.85057  1.0000
  H   H1684     1.0  0.76274  0.54829  0.83299  1.0000
  H   H1685     1.0  0.75847  0.52564  0.85289  1.0000
  H   H1686     1.0  0.63423  0.99676  0.76927  1.0000
  H   H1687     1.0  0.73969  0.90679  0.89133  1.0000
  H   H1688     1.0  0.74662  0.98340  0.95711  1.0000
  H   H1689     1.0  0.82568  0.54235  0.83379  1.0000
  C   C1415     1.0  0.83947  0.85980  0.78329  1.0000
  H   H1690     1.0  0.75908  0.90786  0.95997  1.0000
  H   H1691     1.0  0.86237  0.89654  0.76573  1.0000
  C   C1416     1.0  0.52792  0.68237  0.98292  1.0000
  H   H1692     1.0  0.74048  0.99198  0.77277  1.0000
  H   H1693     1.0  0.57089  0.72986  0.81933  1.0000
  N   N92       1.0  0.84516  0.86046  0.82558  1.0000
  C   C1417     1.0  0.83138  0.86442  0.80538  1.0000
  H   H1694     1.0  0.85626  0.89447  0.82507  1.0000
  H   H1695     1.0  0.80891  0.60655  0.87450  1.0000
  H   H1696     1.0  0.74083  0.94726  0.88810  1.0000
  C   C1418     1.0  0.66492  0.96639  0.77270  1.0000
  H   H1697     1.0  0.66114  0.97439  0.78904  1.0000
  H   H1698     1.0  0.63554  0.91884  0.77987  1.0000
  C   C1419     1.0  0.99563  0.85949  0.85297  1.0000
  H   H1699     1.0  0.84409  0.84030  0.85634  1.0000
  C   C1420     1.0  0.84816  0.88207  0.83673  1.0000
  H   H1700     1.0  0.85886  0.87989  0.85164  1.0000
  N   N93       1.0  0.64712  0.95079  0.76672  1.0000
  H   H1701     1.0  0.80192  0.87777  0.82366  1.0000
  H   H1702     1.0  0.82969  0.82894  0.83332  1.0000
  C   C1421     1.0  0.83361  0.84486  0.84156  1.0000
  C   C1422     1.0  0.80925  0.87378  0.80744  1.0000
  H   H1703     1.0  0.82121  0.00036  0.89477  1.0000
  H   H1704     1.0  0.83198  0.88986  0.84263  1.0000
  N   N94       1.0  0.79303  0.53511  0.84816  1.0000
  H   H1705     1.0  0.72159  0.98218  0.94087  1.0000
  N   N95       1.0  0.53874  0.72071  0.83353  1.0000
  C   C1423     1.0  0.00576  0.83356  0.88261  1.0000
  C   C1424     1.0  0.51641  0.70935  0.95458  1.0000
  H   H1706     1.0  0.75377  0.98213  0.88564  1.0000
  H   H1707     1.0  0.66330  0.92518  0.78757  1.0000
  C   C1425     1.0  0.51802  0.74466  0.77715  1.0000
  H   H1708     1.0  0.74477  0.00628  0.90018  1.0000
  C   C1426     1.0  0.80290  0.57384  0.86159  1.0000
  H   H1709     1.0  0.78532  0.60078  0.90883  1.0000
  H   H1710     1.0  0.51972  0.53144  0.86296  1.0000
  C   C1427     1.0  0.82637  0.86497  0.76454  1.0000
  H   H1711     1.0  0.99221  0.82256  0.87699  1.0000
  C   C1428     1.0  0.89522  0.89791  0.77988  1.0000
  N   N96       1.0  0.75229  0.97725  0.92168  1.0000
  C   C1429     1.0  0.75587  0.94030  0.94306  1.0000
  C   C1430     1.0  0.75456  0.91692  0.94460  1.0000
  C   C1431     1.0  0.87284  0.90519  0.77703  1.0000
  H   H1712     1.0  0.85617  0.85294  0.77988  1.0000
  C   C1432     1.0  0.52415  0.72777  0.85267  1.0000
  C   C1433     1.0  0.52611  0.72406  0.81250  1.0000
  C   C1434     1.0  0.73932  0.98763  0.94049  1.0000
  H   H1713     1.0  0.54031  0.67460  0.97089  1.0000
  H   H1714     1.0  0.55469  0.69008  0.82197  1.0000
  C   C1435     1.0  0.53086  0.74147  0.79641  1.0000
  H   H1715     1.0  0.63965  0.93962  0.80059  1.0000
  C   C1436     1.0  0.80499  0.87482  0.76716  1.0000
  H   H1716     1.0  0.80870  0.52600  0.81647  1.0000
  H   H1717     1.0  0.55642  0.69392  0.85178  1.0000
  H   H1718     1.0  0.99841  0.84431  0.89605  1.0000
  C   C1437     1.0  0.80811  0.54001  0.82854  1.0000
  H   H1719     1.0  0.78639  0.97629  0.90901  1.0000
  H   H1720     1.0  0.78384  0.97661  0.93909  1.0000
  H   H1721     1.0  0.88964  0.00831  0.84116  1.0000
  H   H1722     1.0  0.74457  0.65009  0.01198  1.0000
  Fe  Fe192     1.0  0.96706  0.81515  0.76346  1.0000
  H   H1723     1.0  0.81752  0.51539  0.86673  1.0000
  C   C1438     1.0  0.77618  0.98315  0.92330  1.0000
  H   H1724     1.0  0.73906  0.00633  0.93901  1.0000
  C   C1439     1.0  0.80103  0.51354  0.85868  1.0000
  C   C1440     1.0  0.62088  0.98547  0.76616  1.0000
  H   H1725     1.0  0.77814  0.00170  0.92285  1.0000
  H   H1726     1.0  0.52300  0.66873  0.99502  1.0000
  H   H1727     1.0  0.84912  0.00989  0.83368  1.0000
  H   H1728     1.0  0.01281  0.82157  0.83922  1.0000
