data_image0
_chemical_formula_structural       FeS2FeS2FeSFeS4HS2FeSFeS2HFeS2CHC6H4CFeHC6H4C6H4C6H5C2H3NC9H14CNC9H18CHNCH2NHC2H2CH2NSHC2HC2H5NH3CH2C3H2CH4CH2C2H3SH2C2HC5NCHC2HCHCFeCH2C2H5CHC2FeCHCH4CH2CH3SH2CHCFeS2FeS2FeSFeS4FeS2Fe2S2FeS2Fe2S2HNC6H4C2H2C6H4C6H4C3HC6H4C4H7SCSCHCH2CH2SNC9H14NCH3C2H4C3HCHC2HC2HC3H8C2HC2H2C2H2C3H2SC2HCHCNH7C6HC2NC3HCH6NH4CHSCH6FeHSH2CSHCSN2H2CHC2HC6H4C3H5CHC6HCH3CH3CHSH4SHC2HCFeSCFe2CSH3CFeS2HS2CHC4HCH2C6H4C3H3CH6C2HC2H2N2H2C3H4CFeHCHCHCSCHCFeH2SH2FeS2FeCFeSHSFeS2FeS2FeSFeS3FeCSFeSC6H4C2HCH3C6H3C6H4C3HC7H4CH3CSCHNC9H14C2H3CH2NC9H14NH2CH2CHCS3HCFeCHNCHCH3SHCHFeHSHFeS3CFe3S3CFeHSFeS2FeS2FeS2FeSFeS3H3C6H4C6H4C7H8C6H4CHCHNCH3CH2CS2FeNC5H2CH2C4NC9H13CH2CH5CH2CH3C2HSH2C2HSH4NCH4CHC2FeHSFeS2Fe2SFeS2FeS2FeSFeS4HSHC6H4CHC3HC6H4C6H5CFeC5H3SNHC2HC3SH2FeHC2HCH2NC9H18C2H3NHCHC3HC4SH2NC4HC2HC2H6CH3SHCHC2SHC3H2C3HSCH3CH2SH2CHCFeS2FeCFeH2SFeS2FeS2FeSFeS3Fe2S2FeHSCHC7H4C6H4CHCHCHC5H2C6H7CHC2HC3H5NC6H2SH11C2HSNHCH3SC2H2NCNH3SH2C2HC2SCHCH2CHCSCHCNH2CSCH3CH2SCH2C2H4C2H6SHC2H2CHSH2C2SCSC2HNC6H6CHCHC2SCHCHCHCH4CHCFeHNCH3CFeSH3CH2CH3SCHSFeCSH2SH2CSH2CSC6H4FeSHCNH2C2HCH4FeH5CHCH2Fe2S2FeS2FeSFeS3HSC2HFeS2FeSFeS2FeSC6H4CH2CH2C7H4C6H4C3H2C6H5NC6HCH12CHCNC4H2CH9S2HCH2C2H7C3HC2H3CHCHCNH2C2HCSCHCNCH2C4H4C3SC2HCFeH4CH2CH3CH4C3H3CH2CNCH2CH5CHCH4C4HCH2FeS2FeS2FeSFeS3C2SFeS2FeSH2Fe2S2Fe2S2HC9H6C6H4C6H4C6H8CHCH3C2H3NC9H14CHC2H2CH2CH3CHCHCH2NCSHNC9H14NC9H4CH6SHCSCSH2NHCHC2SCHNHC2HCHFeH2CH2FeHCHSH2CH
_chemical_formula_sum              "Fe96 S192 H864 C720 N48"
_cell_length_a       63.2368
_cell_length_b       63.114
_cell_length_c       26.1873
_cell_angle_alpha    88.7647
_cell_angle_beta     88.6249
_cell_angle_gamma    89.4602

_space_group_name_H-M_alt    "P 1"
_space_group_IT_number       1

loop_
  _space_group_symop_operation_xyz
  'x, y, z'

loop_
  _atom_site_type_symbol
  _atom_site_label
  _atom_site_symmetry_multiplicity
  _atom_site_fract_x
  _atom_site_fract_y
  _atom_site_fract_z
  _atom_site_occupancy
  Fe  Fe1       1.0  0.12765  0.15807  0.01771  1.0000
  S   S1        1.0  0.13637  0.14921  0.93729  1.0000
  S   S2        1.0  0.12147  0.19042  0.05143  1.0000
  Fe  Fe2       1.0  0.13202  0.11243  0.06042  1.0000
  S   S3        1.0  0.14162  0.09985  0.98294  1.0000
  S   S4        1.0  0.12949  0.09992  0.14319  1.0000
  Fe  Fe3       1.0  0.16169  0.12909  0.97394  1.0000
  S   S5        1.0  0.19436  0.13260  0.93745  1.0000
  Fe  Fe4       1.0  0.11549  0.12086  0.95112  1.0000
  S   S6        1.0  0.09241  0.10676  0.89486  1.0000
  S   S7        1.0  0.15430  0.13998  0.05303  1.0000
  S   S8        1.0  0.10463  0.13134  0.02936  1.0000
  S   S9        1.0  0.27895  0.11642  0.05865  1.0000
  H   H1        1.0  0.02826  0.22537  0.73105  1.0000
  S   S10       1.0  0.15425  0.01710  0.39940  1.0000
  S   S11       1.0  0.13028  0.00908  0.25651  1.0000
  Fe  Fe5       1.0  0.12569  0.01374  0.45225  1.0000
  S   S12       1.0  0.11488  0.03665  0.51270  1.0000
  Fe  Fe6       1.0  0.02360  0.13464  0.64281  1.0000
  S   S13       1.0  0.03014  0.15034  0.56595  1.0000
  S   S14       1.0  0.04531  0.14811  0.70287  1.0000
  H   H2        1.0  0.28151  0.24176  0.99387  1.0000
  Fe  Fe7       1.0  0.02472  0.11845  0.53308  1.0000
  S   S15       1.0  0.04409  0.10556  0.46664  1.0000
  S   S16       1.0  0.02115  0.10223  0.60968  1.0000
  C   C1        1.0  0.01022  0.21278  0.48619  1.0000
  H   H3        1.0  0.02043  0.19895  0.48625  1.0000
  C   C2        1.0  0.09457  0.05491  0.49869  1.0000
  C   C3        1.0  0.08346  0.06439  0.53921  1.0000
  C   C4        1.0  0.06795  0.07994  0.52973  1.0000
  C   C5        1.0  0.06341  0.08604  0.47955  1.0000
  C   C6        1.0  0.07426  0.07627  0.43886  1.0000
  C   C7        1.0  0.08978  0.06067  0.44837  1.0000
  H   H4        1.0  0.08712  0.05986  0.57806  1.0000
  H   H5        1.0  0.05984  0.08748  0.56123  1.0000
  H   H6        1.0  0.07072  0.08082  0.39991  1.0000
  H   H7        1.0  0.09834  0.05342  0.41691  1.0000
  C   C8        1.0  0.25950  0.17581  0.04608  1.0000
  Fe  Fe8       1.0  0.99513  0.15522  0.56197  1.0000
  H   H8        1.0  0.07053  0.01166  0.48159  1.0000
  C   C9        1.0  0.05696  0.13675  0.75850  1.0000
  C   C10       1.0  0.05287  0.11597  0.77528  1.0000
  C   C11       1.0  0.06372  0.10718  0.81734  1.0000
  C   C12       1.0  0.07855  0.11908  0.84363  1.0000
  C   C13       1.0  0.08231  0.14001  0.82744  1.0000
  C   C14       1.0  0.07158  0.14876  0.78516  1.0000
  H   H9        1.0  0.04151  0.10659  0.75566  1.0000
  H   H10       1.0  0.06059  0.09102  0.82973  1.0000
  H   H11       1.0  0.09363  0.14939  0.84726  1.0000
  H   H12       1.0  0.07485  0.16488  0.77273  1.0000
  C   C15       1.0  0.13025  0.07438  0.17333  1.0000
  C   C16       1.0  0.13011  0.05564  0.14580  1.0000
  C   C17       1.0  0.13018  0.03581  0.17185  1.0000
  C   C18       1.0  0.13056  0.03447  0.22558  1.0000
  C   C19       1.0  0.13078  0.05322  0.25308  1.0000
  C   C20       1.0  0.13057  0.07302  0.22707  1.0000
  H   H13       1.0  0.12983  0.05641  0.10451  1.0000
  H   H14       1.0  0.13004  0.02142  0.15016  1.0000
  H   H15       1.0  0.13110  0.05246  0.29436  1.0000
  H   H16       1.0  0.13083  0.08739  0.24879  1.0000
  C   C21       1.0  0.25531  0.12201  0.02610  1.0000
  C   C22       1.0  0.23599  0.11447  0.04651  1.0000
  C   C23       1.0  0.21703  0.11806  0.02042  1.0000
  C   C24       1.0  0.21737  0.12900  0.97342  1.0000
  C   C25       1.0  0.23658  0.13692  0.95356  1.0000
  C   C26       1.0  0.25544  0.13357  0.97998  1.0000
  H   H17       1.0  0.23571  0.10562  0.08237  1.0000
  H   H18       1.0  0.20227  0.11191  0.03607  1.0000
  H   H19       1.0  0.23690  0.14567  0.91756  1.0000
  H   H20       1.0  0.27000  0.14009  0.96475  1.0000
  H   H21       1.0  0.05122  0.22472  0.68942  1.0000
  C   C27       1.0  0.14135  0.21242  0.97152  1.0000
  C   C28       1.0  0.13176  0.21335  0.02011  1.0000
  H   H22       1.0  0.02698  0.06339  0.53503  1.0000
  H   H23       1.0  0.14210  0.19753  0.95188  1.0000
  H   H24       1.0  0.99482  0.19368  0.64519  1.0000
  N   N1        1.0  0.10190  0.16013  0.19582  1.0000
  C   C29       1.0  0.12513  0.15733  0.18941  1.0000
  C   C30       1.0  0.09149  0.15024  0.15223  1.0000
  C   C31       1.0  0.09730  0.18326  0.19270  1.0000
  C   C32       1.0  0.09447  0.14982  0.24432  1.0000
  C   C33       1.0  0.08368  0.16102  0.28389  1.0000
  C   C34       1.0  0.09761  0.12772  0.25273  1.0000
  C   C35       1.0  0.07648  0.15057  0.32867  1.0000
  C   C36       1.0  0.09045  0.11747  0.29768  1.0000
  C   C37       1.0  0.07983  0.12886  0.33554  1.0000
  H   H25       1.0  0.12992  0.14038  0.18709  1.0000
  H   H26       1.0  0.13120  0.16504  0.15328  1.0000
  H   H27       1.0  0.13362  0.16415  0.22183  1.0000
  H   H28       1.0  0.09638  0.13339  0.14751  1.0000
  H   H29       1.0  0.09563  0.15853  0.11538  1.0000
  H   H30       1.0  0.07397  0.15066  0.15703  1.0000
  H   H31       1.0  0.10522  0.19189  0.22342  1.0000
  H   H32       1.0  0.10321  0.19043  0.15576  1.0000
  H   H33       1.0  0.07998  0.18655  0.19462  1.0000
  H   H34       1.0  0.08046  0.17782  0.28110  1.0000
  H   H35       1.0  0.10553  0.11813  0.22427  1.0000
  H   H36       1.0  0.06809  0.15932  0.35820  1.0000
  H   H37       1.0  0.09304  0.10054  0.30290  1.0000
  H   H38       1.0  0.00045  0.07240  0.54086  1.0000
  C   C38       1.0  0.30014  0.02307  0.48927  1.0000
  N   N2        1.0  0.10105  0.10235  0.66448  1.0000
  C   C39       1.0  0.10497  0.12069  0.69739  1.0000
  C   C40       1.0  0.07964  0.09400  0.67682  1.0000
  C   C41       1.0  0.11659  0.08546  0.67808  1.0000
  C   C42       1.0  0.10229  0.10920  0.61002  1.0000
  C   C43       1.0  0.11685  0.10019  0.57412  1.0000
  C   C44       1.0  0.08821  0.12504  0.59112  1.0000
  C   C45       1.0  0.11689  0.10641  0.52252  1.0000
  C   C46       1.0  0.08839  0.13110  0.53943  1.0000
  C   C47       1.0  0.10264  0.12175  0.50519  1.0000
  H   H39       1.0  0.09308  0.13359  0.69219  1.0000
  H   H40       1.0  0.10415  0.11613  0.73880  1.0000
  H   H41       1.0  0.12082  0.12761  0.68898  1.0000
  H   H42       1.0  0.06709  0.10633  0.67263  1.0000
  H   H43       1.0  0.07833  0.08792  0.71702  1.0000
  H   H44       1.0  0.07568  0.08079  0.65142  1.0000
  H   H45       1.0  0.13314  0.09084  0.67110  1.0000
  H   H46       1.0  0.11526  0.08081  0.71937  1.0000
  H   H47       1.0  0.11401  0.07080  0.65615  1.0000
  H   H48       1.0  0.12791  0.08776  0.58435  1.0000
  H   H49       1.0  0.07660  0.13253  0.61602  1.0000
  H   H50       1.0  0.12756  0.09873  0.49550  1.0000
  H   H51       1.0  0.07701  0.14269  0.52555  1.0000
  H   H52       1.0  0.10228  0.12603  0.46491  1.0000
  H   H53       1.0  0.02498  0.19750  0.58455  1.0000
  H   H54       1.0  0.04093  0.18506  0.63297  1.0000
  H   H55       1.0  0.07405  0.12084  0.37017  1.0000
  H   H56       1.0  0.30912  0.08558  0.91795  1.0000
  C   C48       1.0  0.27352  0.02914  0.42562  1.0000
  H   H57       1.0  0.26608  0.16494  0.07440  1.0000
  N   N3        1.0  0.02274  0.21216  0.65761  1.0000
  C   C49       1.0  0.28773  0.02953  0.83638  1.0000
  H   H58       1.0  0.12298  0.23381  0.08217  1.0000
  H   H59       1.0  0.25864  0.04203  0.49459  1.0000
  N   N4        1.0  0.29544  0.03395  0.44010  1.0000
  H   H60       1.0  0.18243  0.22025  0.01461  1.0000
  C   C50       1.0  0.29778  0.05712  0.44635  1.0000
  C   C51       1.0  0.27300  0.18621  0.01126  1.0000
  H   H61       1.0  0.04209  0.20079  0.71951  1.0000
  H   H62       1.0  0.00826  0.04843  0.57360  1.0000
  C   C52       1.0  0.23282  0.99436  0.55280  1.0000
  H   H63       1.0  0.30974  0.03516  0.36439  1.0000
  H   H64       1.0  0.25092  0.09605  0.92888  1.0000
  N   N5        1.0  0.00455  0.04545  0.49249  1.0000
  S   S17       1.0  0.31391  0.14149  0.94734  1.0000
  H   H65       1.0  0.25333  0.06812  0.92617  1.0000
  C   C53       1.0  0.14970  0.23088  0.94790  1.0000
  C   C54       1.0  0.25596  0.08297  0.90345  1.0000
  H   H66       1.0  0.24498  0.08301  0.87083  1.0000
  C   C55       1.0  0.01512  0.23263  0.63586  1.0000
  C   C56       1.0  0.28286  0.04639  0.86855  1.0000
  H   H67       1.0  0.29210  0.08684  0.78176  1.0000
  H   H68       1.0  0.20491  0.17626  0.93377  1.0000
  H   H69       1.0  0.26979  0.10872  0.82790  1.0000
  H   H70       1.0  0.03229  0.23224  0.44218  1.0000
  H   H71       1.0  0.27828  0.04256  0.90764  1.0000
  N   N6        1.0  0.27826  0.08529  0.88537  1.0000
  H   H72       1.0  0.27609  0.11945  0.88792  1.0000
  H   H73       1.0  0.29706  0.10973  0.84798  1.0000
  H   H74       1.0  0.29016  0.06990  0.95392  1.0000
  C   C57       1.0  0.28041  0.10666  0.86093  1.0000
  H   H75       1.0  0.28874  0.09795  0.95636  1.0000
  H   H76       1.0  0.30000  0.05712  0.72741  1.0000
  C   C58       1.0  0.29217  0.08457  0.93022  1.0000
  C   C59       1.0  0.29025  0.07120  0.79865  1.0000
  C   C60       1.0  0.28392  0.06777  0.85068  1.0000
  H   H77       1.0  0.01179  0.18269  0.69237  1.0000
  H   H78       1.0  0.20706  0.22917  0.98801  1.0000
  C   C61       1.0  0.26465  0.19965  0.97386  1.0000
  H   H79       1.0  0.15701  0.23007  0.91020  1.0000
  H   H80       1.0  0.20523  0.22088  0.05395  1.0000
  H   H81       1.0  0.99588  0.20537  0.70763  1.0000
  H   H82       1.0  0.28746  0.06327  0.47774  1.0000
  C   C62       1.0  0.29487  0.05420  0.76673  1.0000
  H   H83       1.0  0.29751  0.00569  0.48708  1.0000
  H   H84       1.0  0.05606  0.99931  0.26523  1.0000
  C   C63       1.0  0.01040  0.05783  0.53740  1.0000
  C   C64       1.0  0.01796  0.02610  0.48925  1.0000
  H   H85       1.0  0.29780  0.02038  0.76082  1.0000
  H   H86       1.0  0.28707  0.01335  0.85093  1.0000
  H   H87       1.0  0.29006  0.02887  0.52150  1.0000
  S   S18       1.0  0.10418  0.00133  0.39333  1.0000
  H   H88       1.0  0.20444  0.20432  0.92044  1.0000
  H   H89       1.0  0.23703  0.21362  0.94207  1.0000
  C   C65       1.0  0.01689  0.23175  0.46105  1.0000
  C   C66       1.0  0.25620  0.03457  0.45847  1.0000
  H   H90       1.0  0.18130  0.19154  0.94429  1.0000
  C   C67       1.0  0.19882  0.19177  0.94766  1.0000
  C   C68       1.0  0.13045  0.23290  0.04469  1.0000
  C   C69       1.0  0.00950  0.00529  0.48880  1.0000
  C   C70       1.0  0.00548  0.19797  0.67654  1.0000
  C   C71       1.0  0.23538  0.02992  0.44616  1.0000
  N   N7        1.0  0.20532  0.19528  0.00097  1.0000
  C   C72       1.0  0.26866  0.01877  0.37966  1.0000
  H   H91       1.0  0.24433  0.00585  0.33321  1.0000
  C   C73       1.0  0.03500  0.20058  0.61795  1.0000
  C   C74       1.0  0.19258  0.18082  0.03472  1.0000
  H   H92       1.0  0.27533  0.20737  0.94641  1.0000
  C   C75       1.0  0.05344  0.00986  0.48312  1.0000
  H   H93       1.0  0.28997  0.18359  0.01283  1.0000
  C   C76       1.0  0.00792  0.05885  0.44581  1.0000
  Fe  Fe9       1.0  0.31076  0.12644  0.02496  1.0000
  C   C77       1.0  0.19983  0.21734  0.01492  1.0000
  H   H94       1.0  0.04791  0.04301  0.48566  1.0000
  H   H95       1.0  0.17525  0.18324  0.02948  1.0000
  C   C78       1.0  0.29366  0.03344  0.78553  1.0000
  C   C79       1.0  0.23755  0.17845  0.04312  1.0000
  H   H96       1.0  0.22245  0.03374  0.47243  1.0000
  H   H97       1.0  0.22810  0.16926  0.07022  1.0000
  H   H98       1.0  0.28069  0.01387  0.35239  1.0000
  H   H99       1.0  0.19609  0.16391  0.02617  1.0000
  H   H100      1.0  0.19532  0.18353  0.07584  1.0000
  C   C80       1.0  0.24275  0.20283  0.97129  1.0000
  H   H101      1.0  0.04908  0.20943  0.60355  1.0000
  C   C81       1.0  0.22847  0.19199  0.00523  1.0000
  C   C82       1.0  0.04033  0.02777  0.48591  1.0000
  Fe  Fe10      1.0  0.13327  0.00212  0.34203  1.0000
  C   C83       1.0  0.03668  0.21598  0.70120  1.0000
  H   H102      1.0  0.31679  0.02556  0.50032  1.0000
  C   C84       1.0  0.31181  0.02706  0.40214  1.0000
  H   H103      1.0  0.29370  0.06598  0.41065  1.0000
  H   H104      1.0  0.31159  0.00958  0.39730  1.0000
  H   H105      1.0  0.02455  0.06432  0.44134  1.0000
  H   H106      1.0  0.21504  0.01549  0.39248  1.0000
  C   C85       1.0  0.23117  0.01963  0.40110  1.0000
  H   H107      1.0  0.00408  0.05009  0.41086  1.0000
  H   H108      1.0  0.31431  0.06127  0.45605  1.0000
  C   C86       1.0  0.24775  0.01409  0.36792  1.0000
  H   H109      1.0  0.08365  0.00393  0.27580  1.0000
  H   H110      1.0  0.23032  0.00354  0.58685  1.0000
  H   H111      1.0  0.99799  0.07354  0.44674  1.0000
  S   S19       1.0  0.27472  0.99256  0.58245  1.0000
  H   H112      1.0  0.19978  0.99594  0.53216  1.0000
  H   H113      1.0  0.99271  0.00235  0.49114  1.0000
  C   C87       1.0  0.99328  0.23804  0.63291  1.0000
  H   H114      1.0  0.06754  0.99289  0.32578  1.0000
  C   C88       1.0  0.07039  0.99268  0.28381  1.0000
  Fe  Fe11      1.0  0.13445  0.32955  0.06679  1.0000
  S   S20       1.0  0.12302  0.32218  0.98818  1.0000
  S   S21       1.0  0.11876  0.32164  0.14459  1.0000
  Fe  Fe12      1.0  0.17913  0.34095  0.02448  1.0000
  S   S22       1.0  0.17107  0.33423  0.94347  1.0000
  S   S23       1.0  0.21037  0.35343  0.05208  1.0000
  Fe  Fe13      1.0  0.14062  0.35167  0.96066  1.0000
  S   S24       1.0  0.12626  0.37843  0.91126  1.0000
  Fe  Fe14      1.0  0.15439  0.30546  0.97730  1.0000
  S   S25       1.0  0.15981  0.27309  0.94243  1.0000
  S   S26       1.0  0.14964  0.36012  0.04068  1.0000
  S   S27       1.0  0.16489  0.31106  0.05679  1.0000
  S   S28       1.0  0.29992  0.33700  0.94415  1.0000
  Fe  Fe15      1.0  0.14844  0.45062  0.64790  1.0000
  S   S29       1.0  0.15953  0.44474  0.56630  1.0000
  S   S30       1.0  0.16000  0.42526  0.70546  1.0000
  Fe  Fe16      1.0  0.17013  0.47875  0.56367  1.0000
  Fe  Fe17      1.0  0.12716  0.45693  0.54599  1.0000
  S   S31       1.0  0.10616  0.44636  0.48266  1.0000
  S   S32       1.0  0.11524  0.46059  0.62696  1.0000
  Fe  Fe18      1.0  0.02115  0.34347  0.33635  1.0000
  S   S33       1.0  0.03927  0.32413  0.39313  1.0000
  S   S34       1.0  0.03222  0.35036  0.25420  1.0000
  Fe  Fe19      1.0  0.00797  0.30960  0.41744  1.0000
  Fe  Fe20      1.0  0.03142  0.35008  0.44749  1.0000
  S   S35       1.0  0.05527  0.36042  0.50459  1.0000
  S   S36       1.0  0.01572  0.37085  0.38905  1.0000
  H   H115      1.0  0.22950  0.41056  0.85537  1.0000
  N   N8        1.0  0.29127  0.43724  0.31250  1.0000
  C   C89       1.0  0.09130  0.42300  0.49090  1.0000
  C   C90       1.0  0.07598  0.41827  0.45503  1.0000
  C   C91       1.0  0.06448  0.39933  0.45937  1.0000
  C   C92       1.0  0.06846  0.38489  0.49929  1.0000
  C   C93       1.0  0.08342  0.38986  0.53583  1.0000
  C   C94       1.0  0.09478  0.40890  0.53178  1.0000
  H   H116      1.0  0.07309  0.42933  0.42381  1.0000
  H   H117      1.0  0.05268  0.39585  0.43172  1.0000
  H   H118      1.0  0.08645  0.37883  0.56706  1.0000
  H   H119      1.0  0.10652  0.41244  0.55967  1.0000
  C   C95       1.0  0.25501  0.46081  0.49297  1.0000
  C   C96       1.0  0.23407  0.46587  0.50947  1.0000
  H   H120      1.0  0.26044  0.44453  0.49540  1.0000
  H   H121      1.0  0.22370  0.45352  0.52418  1.0000
  C   C97       1.0  0.09482  0.33033  0.17432  1.0000
  C   C98       1.0  0.08917  0.32174  0.22272  1.0000
  C   C99       1.0  0.07013  0.32768  0.24770  1.0000
  C   C100      1.0  0.05649  0.34239  0.22456  1.0000
  C   C101      1.0  0.06218  0.35106  0.17628  1.0000
  C   C102      1.0  0.08127  0.34511  0.15126  1.0000
  H   H122      1.0  0.09954  0.31024  0.24073  1.0000
  H   H123      1.0  0.06609  0.32081  0.28474  1.0000
  H   H124      1.0  0.05174  0.36242  0.15796  1.0000
  H   H125      1.0  0.08541  0.35181  0.11400  1.0000
  C   C103      1.0  0.13527  0.39052  0.85244  1.0000
  C   C104      1.0  0.15341  0.38345  0.82610  1.0000
  C   C105      1.0  0.16048  0.39408  0.78091  1.0000
  C   C106      1.0  0.14933  0.41166  0.76069  1.0000
  C   C107      1.0  0.13089  0.41844  0.78640  1.0000
  C   C108      1.0  0.12402  0.40801  0.83209  1.0000
  H   H126      1.0  0.16188  0.36970  0.84033  1.0000
  H   H127      1.0  0.17473  0.38866  0.76139  1.0000
  H   H128      1.0  0.12215  0.43194  0.77159  1.0000
  H   H129      1.0  0.10989  0.41357  0.85190  1.0000
  C   C109      1.0  0.00945  0.26219  0.24193  1.0000
  C   C110      1.0  0.05367  0.27284  0.20724  1.0000
  C   C111      1.0  0.29230  0.28959  0.04300  1.0000
  H   H130      1.0  0.13769  0.26635  0.04036  1.0000
  C   C112      1.0  0.23514  0.34814  0.02208  1.0000
  C   C113      1.0  0.23677  0.33797  0.97521  1.0000
  C   C114      1.0  0.25672  0.33486  0.95155  1.0000
  C   C115      1.0  0.27521  0.34149  0.97499  1.0000
  C   C116      1.0  0.27363  0.35124  0.02236  1.0000
  C   C117      1.0  0.25363  0.35472  0.04555  1.0000
  H   H131      1.0  0.22270  0.33244  0.95718  1.0000
  H   H132      1.0  0.25784  0.32716  0.91506  1.0000
  H   H133      1.0  0.28779  0.35638  0.04073  1.0000
  H   H134      1.0  0.25249  0.36258  0.08185  1.0000
  C   C118      1.0  0.03515  0.30043  0.16004  1.0000
  C   C119      1.0  0.25866  0.27831  0.00524  1.0000
  C   C120      1.0  0.30368  0.43254  0.21994  1.0000
  C   C121      1.0  0.00153  0.27181  0.59168  1.0000
  H   H135      1.0  0.03672  0.40875  0.56114  1.0000
  H   H136      1.0  0.02141  0.25046  0.25534  1.0000
  H   H137      1.0  0.30984  0.28748  0.04209  1.0000
  H   H138      1.0  0.03792  0.27818  0.30508  1.0000
  H   H139      1.0  0.01238  0.28823  0.32125  1.0000
  H   H140      1.0  0.30893  0.28135  0.95577  1.0000
  H   H141      1.0  0.00452  0.31559  0.23007  1.0000
  S   S37       1.0  0.00147  0.33465  0.47613  1.0000
  C   C122      1.0  0.03536  0.28589  0.20233  1.0000
  S   S38       1.0  0.29541  0.46897  0.45357  1.0000
  C   C123      1.0  0.01594  0.43207  0.52296  1.0000
  H   H142      1.0  0.21674  0.30420  0.06329  1.0000
  C   C124      1.0  0.30548  0.42016  0.17637  1.0000
  H   H143      1.0  0.00455  0.39207  0.56045  1.0000
  H   H144      1.0  0.27432  0.39823  0.29466  1.0000
  C   C125      1.0  0.26902  0.47655  0.47397  1.0000
  H   H145      1.0  0.29511  0.46852  0.27850  1.0000
  H   H146      1.0  0.21608  0.26315  0.93552  1.0000
  S   S39       1.0  0.01313  0.27328  0.42584  1.0000
  N   N9        1.0  0.09364  0.37771  0.33361  1.0000
  C   C126      1.0  0.07971  0.36043  0.35357  1.0000
  C   C127      1.0  0.07963  0.39539  0.31638  1.0000
  C   C128      1.0  0.10572  0.36976  0.28867  1.0000
  C   C129      1.0  0.10868  0.38508  0.37185  1.0000
  C   C130      1.0  0.11227  0.37389  0.41868  1.0000
  C   C131      1.0  0.12076  0.40366  0.36219  1.0000
  C   C132      1.0  0.12644  0.38140  0.45413  1.0000
  C   C133      1.0  0.13468  0.41115  0.39824  1.0000
  C   C134      1.0  0.13741  0.40011  0.44423  1.0000
  H   H147      1.0  0.07124  0.36504  0.38945  1.0000
  H   H148      1.0  0.06733  0.35647  0.32603  1.0000
  H   H149      1.0  0.08870  0.34549  0.36107  1.0000
  H   H150      1.0  0.07180  0.40321  0.34951  1.0000
  H   H151      1.0  0.06695  0.38978  0.29113  1.0000
  H   H152      1.0  0.08825  0.40771  0.29357  1.0000
  H   H153      1.0  0.11629  0.38204  0.27121  1.0000
  H   H154      1.0  0.11585  0.35588  0.29919  1.0000
  H   H155      1.0  0.09504  0.36471  0.25810  1.0000
  H   H156      1.0  0.10392  0.35959  0.42969  1.0000
  H   H157      1.0  0.11939  0.41274  0.32702  1.0000
  H   H158      1.0  0.12832  0.37309  0.49045  1.0000
  H   H159      1.0  0.14298  0.42593  0.39124  1.0000
  H   H160      1.0  0.14766  0.40637  0.47279  1.0000
  N   N10       1.0  0.20054  0.39982  0.93110  1.0000
  C   C135      1.0  0.18146  0.39763  0.96496  1.0000
  H   H161      1.0  0.16777  0.39150  0.94387  1.0000
  H   H162      1.0  0.18422  0.38622  0.99720  1.0000
  H   H163      1.0  0.17683  0.41293  0.98247  1.0000
  C   C136      1.0  0.05214  0.30156  0.12489  1.0000
  C   C137      1.0  0.19777  0.41520  0.88821  1.0000
  H   H164      1.0  0.25993  0.42664  0.33589  1.0000
  H   H165      1.0  0.99271  0.29550  0.19174  1.0000
  H   H166      1.0  0.25442  0.25744  0.94094  1.0000
  H   H167      1.0  0.30153  0.43361  0.39029  1.0000
  C   C138      1.0  0.04735  0.46096  0.55272  1.0000
  C   C139      1.0  0.28502  0.39262  0.21851  1.0000
  C   C140      1.0  0.21412  0.28357  0.99969  1.0000
  H   H168      1.0  0.19718  0.28596  0.99679  1.0000
  C   C141      1.0  0.14845  0.25043  0.97255  1.0000
  H   H169      1.0  0.31928  0.45610  0.30014  1.0000
  C   C142      1.0  0.02978  0.46831  0.52634  1.0000
  C   C143      1.0  0.28304  0.40489  0.26228  1.0000
  H   H170      1.0  0.28704  0.28626  0.08317  1.0000
  C   C144      1.0  0.28696  0.25330  0.02201  1.0000
  C   C145      1.0  0.29254  0.42515  0.26461  1.0000
  H   H171      1.0  0.06306  0.43386  0.58565  1.0000
  C   C146      1.0  0.21452  0.41878  0.85202  1.0000
  C   C147      1.0  0.02978  0.24781  0.61599  1.0000
  C   C148      1.0  0.21823  0.40645  0.96322  1.0000
  H   H172      1.0  0.22030  0.39541  0.99666  1.0000
  H   H173      1.0  0.19346  0.37370  0.88328  1.0000
  H   H174      1.0  0.16465  0.42444  0.90447  1.0000
  H   H175      1.0  0.21536  0.42263  0.97810  1.0000
  H   H176      1.0  0.16134  0.44837  0.83173  1.0000
  H   H177      1.0  0.08327  0.29005  0.10450  1.0000
  H   H178      1.0  0.20606  0.36635  0.94165  1.0000
  H   H179      1.0  0.22124  0.37797  0.89051  1.0000
  C   C149      1.0  0.20558  0.37860  0.91062  1.0000
  C   C150      1.0  0.17855  0.42656  0.88017  1.0000
  H   H180      1.0  0.23365  0.40654  0.94198  1.0000
  C   C151      1.0  0.02531  0.28920  0.29171  1.0000
  C   C152      1.0  0.17637  0.44048  0.83832  1.0000
  H   H181      1.0  0.05517  0.26171  0.23887  1.0000
  H   H182      1.0  0.29835  0.39045  0.14232  1.0000
  C   C153      1.0  0.22662  0.48686  0.50709  1.0000
  C   C154      1.0  0.06983  0.28853  0.13088  1.0000
  H   H183      1.0  0.08471  0.26456  0.17703  1.0000
  H   H184      1.0  0.28817  0.26743  0.92726  1.0000
  C   C155      1.0  0.03386  0.42519  0.55092  1.0000
  C   C156      1.0  0.19296  0.44327  0.80302  1.0000
  C   C157      1.0  0.21204  0.43253  0.80995  1.0000
  H   H185      1.0  0.05195  0.31314  0.09368  1.0000
  H   H186      1.0  0.25471  0.30033  0.06895  1.0000
  S   S40       1.0  0.16045  0.48430  0.64602  1.0000
  C   C158      1.0  0.02301  0.26701  0.59393  1.0000
  C   C159      1.0  0.24714  0.29133  0.04005  1.0000
  H   H187      1.0  0.01485  0.41610  0.43014  1.0000
  C   C160      1.0  0.07062  0.27423  0.17202  1.0000
  H   H188      1.0  0.26751  0.45105  0.36259  1.0000
  C   C161      1.0  0.30132  0.42469  0.35405  1.0000
  N   N11       1.0  0.01768  0.28414  0.24036  1.0000
  H   H189      1.0  0.27795  0.37704  0.21783  1.0000
  H   H190      1.0  0.03173  0.30552  0.29189  1.0000
  H   H191      1.0  0.28530  0.29523  0.93889  1.0000
  H   H192      1.0  0.22477  0.43453  0.78183  1.0000
  H   H193      1.0  0.28917  0.30659  0.03343  1.0000
  H   H194      1.0  0.19075  0.45330  0.76934  1.0000
  H   H195      1.0  0.31454  0.42587  0.14324  1.0000
  C   C162      1.0  0.22487  0.27063  0.96521  1.0000
  C   C163      1.0  0.99897  0.41900  0.44805  1.0000
  C   C164      1.0  0.99963  0.29867  0.22945  1.0000
  C   C165      1.0  0.04924  0.43951  0.56547  1.0000
  C   C166      1.0  0.30206  0.45804  0.30856  1.0000
  C   C167      1.0  0.01423  0.45415  0.51181  1.0000
  H   H196      1.0  0.02233  0.31153  0.15385  1.0000
  C   C168      1.0  0.29637  0.40018  0.17579  1.0000
  C   C169      1.0  0.22518  0.29373  0.03725  1.0000
  N   N12       1.0  0.28194  0.27548  0.00657  1.0000
  C   C170      1.0  0.26884  0.44142  0.32731  1.0000
  C   C171      1.0  0.24677  0.26772  0.96831  1.0000
  C   C172      1.0  0.29143  0.27997  0.95502  1.0000
  H   H197      1.0  0.05969  0.47182  0.56287  1.0000
  C   C173      1.0  0.00390  0.25005  0.46002  1.0000
  H   H198      1.0  0.31170  0.44760  0.21793  1.0000
  H   H199      1.0  0.29285  0.40971  0.36322  1.0000
  H   H200      1.0  0.30064  0.46685  0.34489  1.0000
  H   H201      1.0  0.03444  0.27812  0.57769  1.0000
  H   H202      1.0  0.00439  0.25741  0.20344  1.0000
  H   H203      1.0  0.26054  0.45028  0.29639  1.0000
  N   N13       1.0  0.99985  0.41730  0.50458  1.0000
  H   H204      1.0  0.31797  0.42053  0.34352  1.0000
  H   H205      1.0  0.01956  0.38923  0.50133  1.0000
  H   H206      1.0  0.99634  0.28650  0.57353  1.0000
  H   H207      1.0  0.04661  0.24483  0.61655  1.0000
  C   C174      1.0  0.00424  0.39474  0.51834  1.0000
  H   H208      1.0  0.02839  0.48504  0.51650  1.0000
  S   S41       1.0  0.13832  0.49046  0.53633  1.0000
  C   C175      1.0  0.13876  0.25138  0.02104  1.0000
  H   H209      1.0  0.27935  0.24909  0.05962  1.0000
  H   H210      1.0  0.30431  0.25068  0.02569  1.0000
  H   H211      1.0  0.00100  0.46058  0.49099  1.0000
  H   H212      1.0  0.99561  0.26055  0.26891  1.0000
  H   H213      1.0  0.99334  0.43481  0.43448  1.0000
  H   H214      1.0  0.99190  0.38402  0.50407  1.0000
  Fe  Fe21      1.0  0.00620  0.60547  0.58987  1.0000
  H   H215      1.0  0.19068  0.56756  0.49292  1.0000
  S   S42       1.0  0.02892  0.57710  0.57437  1.0000
  H   H216      1.0  0.16194  0.54824  0.45256  1.0000
  H   H217      1.0  0.09628  0.57888  0.54824  1.0000
  C   C176      1.0  0.11303  0.58233  0.54381  1.0000
  S   S43       1.0  0.00705  0.63184  0.64658  1.0000
  H   H218      1.0  0.27195  0.50990  0.45700  1.0000
  C   C177      1.0  0.06348  0.51886  0.72776  1.0000
  S   S44       1.0  0.11117  0.52433  0.64640  1.0000
  N   N14       1.0  0.16506  0.55169  0.53362  1.0000
  N   N15       1.0  0.01141  0.56356  0.73779  1.0000
  H   H219      1.0  0.14420  0.53219  0.49055  1.0000
  H   H220      1.0  0.14725  0.53068  0.58441  1.0000
  C   C178      1.0  0.02908  0.54805  0.73381  1.0000
  H   H221      1.0  0.02690  0.72579  0.54735  1.0000
  C   C179      1.0  0.18756  0.55819  0.52874  1.0000
  C   C180      1.0  0.06332  0.53467  0.76403  1.0000
  H   H222      1.0  0.10813  0.61606  0.54175  1.0000
  C   C181      1.0  0.05226  0.56310  0.59438  1.0000
  C   C182      1.0  0.05805  0.54410  0.57008  1.0000
  C   C183      1.0  0.07607  0.53219  0.58485  1.0000
  C   C184      1.0  0.08863  0.53906  0.62449  1.0000
  C   C185      1.0  0.08301  0.55819  0.64836  1.0000
  C   C186      1.0  0.06505  0.57015  0.63344  1.0000
  H   H223      1.0  0.04845  0.53849  0.53960  1.0000
  H   H224      1.0  0.08010  0.51759  0.56586  1.0000
  H   H225      1.0  0.09260  0.56378  0.67887  1.0000
  H   H226      1.0  0.06123  0.58486  0.65204  1.0000
  C   C187      1.0  0.04689  0.51756  0.69402  1.0000
  C   C188      1.0  0.01132  0.72757  0.53153  1.0000
  C   C189      1.0  0.14984  0.56964  0.53620  1.0000
  H   H227      1.0  0.17480  0.52518  0.58153  1.0000
  H   H228      1.0  0.01812  0.53050  0.66784  1.0000
  H   H229      1.0  0.16488  0.54780  0.61560  1.0000
  H   H230      1.0  0.04757  0.50576  0.66453  1.0000
  H   H231      1.0  0.03240  0.58998  0.74772  1.0000
  C   C190      1.0  0.02997  0.53196  0.69651  1.0000
  H   H232      1.0  0.17143  0.52487  0.48555  1.0000
  C   C191      1.0  0.14119  0.60771  0.53456  1.0000
  C   C192      1.0  0.24059  0.50258  0.48774  1.0000
  C   C193      1.0  0.01923  0.58499  0.72354  1.0000
  C   C194      1.0  0.16292  0.53832  0.58072  1.0000
  C   C195      1.0  0.04645  0.54911  0.76705  1.0000
  C   C196      1.0  0.15614  0.59121  0.53251  1.0000
  H   H233      1.0  0.02510  0.58562  0.68314  1.0000
  C   C197      1.0  0.16045  0.53873  0.48869  1.0000
  H   H234      1.0  0.12178  0.54977  0.54545  1.0000
  H   H235      1.0  0.00651  0.59721  0.72735  1.0000
  H   H236      1.0  0.19839  0.54411  0.52718  1.0000
  C   C198      1.0  0.12780  0.56575  0.54203  1.0000
  H   H237      1.0  0.17250  0.59576  0.52809  1.0000
  H   H238      1.0  0.19234  0.56750  0.56211  1.0000
  H   H239      1.0  0.14627  0.62406  0.53178  1.0000
  C   C199      1.0  0.11969  0.60327  0.54016  1.0000
  H   H240      1.0  0.01425  0.57006  0.81833  1.0000
  S   S45       1.0  0.20020  0.49448  0.52714  1.0000
  H   H241      1.0  0.07664  0.53598  0.78906  1.0000
  H   H242      1.0  0.04733  0.56139  0.79497  1.0000
  H   H243      1.0  0.07691  0.50809  0.72444  1.0000
  H   H244      1.0  0.23519  0.51886  0.48550  1.0000
  S   S46       1.0  0.00491  0.68695  0.57086  1.0000
  H   H245      1.0  0.99844  0.56022  0.66288  1.0000
  C   C200      1.0  0.99703  0.71056  0.53638  1.0000
  C   C201      1.0  0.26156  0.49752  0.47143  1.0000
  H   H246      1.0  0.99788  0.54783  0.80442  1.0000
  C   C202      1.0  0.00274  0.56396  0.79101  1.0000
  Fe  Fe22      1.0  0.99185  0.65313  0.58595  1.0000
  S   S47       1.0  0.99336  0.62721  0.52754  1.0000
  C   C203      1.0  0.99356  0.55887  0.70405  1.0000
  Fe  Fe23      1.0  0.12791  0.49385  0.61815  1.0000
  Fe  Fe24      1.0  0.16234  0.98377  0.42594  1.0000
  C   C204      1.0  0.02425  0.92753  0.29554  1.0000
  S   S48       1.0  0.03064  0.86937  0.35792  1.0000
  H   H247      1.0  0.12010  0.90903  0.42881  1.0000
  H   H248      1.0  0.01693  0.75969  0.50358  1.0000
  H   H249      1.0  0.19288  0.92219  0.47531  1.0000
  C   C205      1.0  0.11283  0.87696  0.44688  1.0000
  Fe  Fe25      1.0  0.11503  0.96884  0.41893  1.0000
  S   S49       1.0  0.13485  0.98141  0.48212  1.0000
  S   S50       1.0  0.08945  0.94392  0.43990  1.0000
  H   H250      1.0  0.14916  0.92290  0.38560  1.0000
  S   S51       1.0  0.19642  0.97097  0.43808  1.0000
  S   S52       1.0  0.14311  0.96872  0.36433  1.0000
  C   C206      1.0  0.12642  0.89430  0.44405  1.0000
  H   H251      1.0  0.08799  0.95833  0.19443  1.0000
  C   C207      1.0  0.00568  0.74691  0.50673  1.0000
  C   C208      1.0  0.25615  0.97493  0.49627  1.0000
  C   C209      1.0  0.23864  0.97034  0.46563  1.0000
  C   C210      1.0  0.21807  0.97787  0.47788  1.0000
  H   H252      1.0  0.09073  0.96160  0.33500  1.0000
  C   C211      1.0  0.15439  0.87260  0.48000  1.0000
  H   H253      1.0  0.27171  0.96891  0.48608  1.0000
  H   H254      1.0  0.24108  0.96089  0.43200  1.0000
  C   C212      1.0  0.04702  0.88979  0.38227  1.0000
  C   C213      1.0  0.04306  0.89918  0.42959  1.0000
  C   C214      1.0  0.05628  0.91550  0.44651  1.0000
  C   C215      1.0  0.07358  0.92292  0.41642  1.0000
  C   C216      1.0  0.07771  0.91337  0.36936  1.0000
  C   C217      1.0  0.06456  0.89697  0.35258  1.0000
  H   H255      1.0  0.02978  0.89387  0.45320  1.0000
  H   H256      1.0  0.05294  0.92251  0.48321  1.0000
  H   H257      1.0  0.09107  0.91844  0.34596  1.0000
  H   H258      1.0  0.06791  0.88985  0.31601  1.0000
  C   C218      1.0  0.21537  0.99006  0.52171  1.0000
  C   C219      1.0  0.04891  0.94421  0.23521  1.0000
  C   C220      1.0  0.14067  0.85530  0.48249  1.0000
  H   H259      1.0  0.17490  0.93241  0.39911  1.0000
  H   H260      1.0  0.09664  0.87866  0.43429  1.0000
  H   H261      1.0  0.02684  0.91982  0.21631  1.0000
  C   C221      1.0  0.03184  0.93994  0.33426  1.0000
  H   H262      1.0  0.13662  0.93466  0.47014  1.0000
  H   H263      1.0  0.17156  0.90545  0.37993  1.0000
  H   H264      1.0  0.09801  0.94623  0.28050  1.0000
  H   H265      1.0  0.05431  0.96258  0.35612  1.0000
  H   H266      1.0  0.14609  0.84008  0.49737  1.0000
  H   H267      1.0  0.05488  0.94485  0.19627  1.0000
  C   C222      1.0  0.03267  0.92975  0.24610  1.0000
  C   C223      1.0  0.11994  0.85749  0.46604  1.0000
  H   H268      1.0  0.10932  0.84409  0.46814  1.0000
  C   C224      1.0  0.14761  0.89273  0.46075  1.0000
  C   C225      1.0  0.09386  0.96251  0.29308  1.0000
  H   H269      1.0  0.17019  0.86980  0.49348  1.0000
  H   H270      1.0  0.01221  0.91575  0.30425  1.0000
  N   N16       1.0  0.07551  0.97114  0.26504  1.0000
  N   N17       1.0  0.16158  0.91145  0.45743  1.0000
  H   H271      1.0  0.19182  0.89522  0.45652  1.0000
  H   H272      1.0  0.16234  0.94314  0.48682  1.0000
  C   C226      1.0  0.16439  0.91833  0.40321  1.0000
  C   C227      1.0  0.15179  0.92908  0.48651  1.0000
  C   C228      1.0  0.18299  0.90760  0.47815  1.0000
  H   H273      1.0  0.14838  0.92420  0.52696  1.0000
  H   H274      1.0  0.02564  0.93771  0.37297  1.0000
  H   H275      1.0  0.10813  0.97247  0.28668  1.0000
  H   H276      1.0  0.18212  0.90289  0.51937  1.0000
  C   C229      1.0  0.05728  0.95686  0.27413  1.0000
  Fe  Fe26      1.0  0.00020  0.85171  0.38518  1.0000
  H   H277      1.0  0.06888  0.97976  0.18680  1.0000
  C   C230      1.0  0.04821  0.95426  0.32402  1.0000
  H   H278      1.0  0.01606  0.97167  0.48559  1.0000
  C   C231      1.0  0.08209  0.97355  0.21034  1.0000
  H   H279      1.0  0.05494  0.97581  0.48080  1.0000
  C   C232      1.0  0.25338  0.98684  0.54055  1.0000
  S   S53       1.0  0.99396  0.83798  0.46464  1.0000
  C   C233      1.0  0.02278  0.98742  0.48556  1.0000
  H   H280      1.0  0.09542  0.98495  0.20501  1.0000
  C   C234      1.0  0.04469  0.98970  0.48283  1.0000
  Fe  Fe27      1.0  0.31121  0.99141  0.59147  1.0000
  H   H281      1.0  0.46334  0.05184  0.45269  1.0000
  H   H282      1.0  0.47903  0.20212  0.28155  1.0000
  S   S54       1.0  0.59958  0.02612  0.43841  1.0000
  H   H283      1.0  0.53198  0.21302  0.45121  1.0000
  H   H284      1.0  0.43286  0.19529  0.27671  1.0000
  Fe  Fe28      1.0  0.35869  0.12671  0.04090  1.0000
  S   S55       1.0  0.36475  0.14220  0.96325  1.0000
  S   S56       1.0  0.38642  0.11282  0.08644  1.0000
  Fe  Fe29      1.0  0.33692  0.16323  0.98331  1.0000
  C   C235      1.0  0.46347  0.01766  0.43947  1.0000
  Fe  Fe30      1.0  0.34112  0.11912  0.93394  1.0000
  S   S57       1.0  0.34441  0.10526  0.85399  1.0000
  H   H285      1.0  0.56423  0.01117  0.50152  1.0000
  S   S58       1.0  0.33648  0.10240  0.00975  1.0000
  Fe  Fe31      1.0  0.49778  0.10647  0.37546  1.0000
  S   S59       1.0  0.49411  0.11795  0.45565  1.0000
  S   S60       1.0  0.52532  0.08517  0.34628  1.0000
  Fe  Fe32      1.0  0.45651  0.12998  0.34217  1.0000
  S   S61       1.0  0.45025  0.14198  0.42198  1.0000
  S   S62       1.0  0.43432  0.14528  0.28334  1.0000
  Fe  Fe33      1.0  0.48476  0.15004  0.42255  1.0000
  S   S63       1.0  0.50027  0.18168  0.44392  1.0000
  Fe  Fe34      1.0  0.45986  0.10919  0.44804  1.0000
  S   S64       1.0  0.44566  0.09010  0.51448  1.0000
  S   S65       1.0  0.49089  0.13916  0.34189  1.0000
  S   S66       1.0  0.46369  0.09638  0.36889  1.0000
  Fe  Fe35      1.0  0.34383  0.00529  0.67181  1.0000
  C   C236      1.0  0.44266  0.19447  0.37700  1.0000
  S   S67       1.0  0.34701  0.01301  0.75644  1.0000
  Fe  Fe36      1.0  0.35190  0.01460  0.55883  1.0000
  S   S68       1.0  0.36176  0.03725  0.49451  1.0000
  C   C237      1.0  0.42083  0.07784  0.51031  1.0000
  C   C238      1.0  0.41330  0.06541  0.55187  1.0000
  C   C239      1.0  0.39485  0.05335  0.54795  1.0000
  C   C240      1.0  0.38365  0.05388  0.50258  1.0000
  C   C241      1.0  0.39067  0.06701  0.46173  1.0000
  C   C242      1.0  0.40923  0.07896  0.46552  1.0000
  H   H286      1.0  0.42208  0.06469  0.58683  1.0000
  H   H287      1.0  0.38944  0.04349  0.57982  1.0000
  H   H288      1.0  0.38201  0.06759  0.42658  1.0000
  H   H289      1.0  0.41483  0.08862  0.43341  1.0000
  C   C243      1.0  0.49887  0.20824  0.46800  1.0000
  C   C244      1.0  0.48035  0.21800  0.48783  1.0000
  H   H290      1.0  0.46481  0.17860  0.29885  1.0000
  C   C245      1.0  0.51755  0.22008  0.46622  1.0000
  H   H291      1.0  0.46576  0.20922  0.48993  1.0000
  H   H292      1.0  0.44531  0.03862  0.51960  1.0000
  H   H293      1.0  0.37745  0.23308  0.07759  1.0000
  C   C246      1.0  0.34502  0.07933  0.82835  1.0000
  C   C247      1.0  0.34448  0.06093  0.85915  1.0000
  C   C248      1.0  0.34530  0.04079  0.83658  1.0000
  C   C249      1.0  0.34650  0.03878  0.78309  1.0000
  C   C250      1.0  0.34714  0.05719  0.75242  1.0000
  C   C251      1.0  0.34643  0.07729  0.77496  1.0000
  H   H294      1.0  0.34344  0.06217  0.90023  1.0000
  H   H295      1.0  0.34811  0.05595  0.71128  1.0000
  H   H296      1.0  0.34694  0.09140  0.75073  1.0000
  C   C252      1.0  0.39891  0.12190  0.14237  1.0000
  C   C253      1.0  0.39480  0.14195  0.16237  1.0000
  C   C254      1.0  0.40568  0.14869  0.20559  1.0000
  C   C255      1.0  0.42064  0.13547  0.22987  1.0000
  C   C256      1.0  0.42460  0.11533  0.21019  1.0000
  C   C257      1.0  0.41389  0.10867  0.16660  1.0000
  H   H297      1.0  0.38339  0.15235  0.14427  1.0000
  H   H298      1.0  0.40243  0.16430  0.22032  1.0000
  H   H299      1.0  0.43607  0.10498  0.22817  1.0000
  H   H300      1.0  0.41725  0.09315  0.15159  1.0000
  C   C258      1.0  0.34355  0.21938  0.98492  1.0000
  C   C259      1.0  0.35737  0.21703  0.02557  1.0000
  C   C260      1.0  0.49511  0.00583  0.39120  1.0000
  H   H301      1.0  0.36074  0.20140  0.04131  1.0000
  C   C261      1.0  0.47573  0.00137  0.41595  1.0000
  C   C262      1.0  0.57800  0.04122  0.41231  1.0000
  C   C263      1.0  0.57331  0.04134  0.36033  1.0000
  C   C264      1.0  0.55700  0.05462  0.34121  1.0000
  C   C265      1.0  0.54478  0.06772  0.37367  1.0000
  C   C266      1.0  0.54895  0.06703  0.42599  1.0000
  C   C267      1.0  0.56554  0.05405  0.44496  1.0000
  H   H302      1.0  0.58267  0.03168  0.33447  1.0000
  H   H303      1.0  0.55402  0.05494  0.30067  1.0000
  H   H304      1.0  0.53987  0.07700  0.45163  1.0000
  H   H305      1.0  0.56900  0.05429  0.48519  1.0000
  C   C268      1.0  0.48166  0.23348  0.35602  1.0000
  H   H306      1.0  0.42862  0.20268  0.39376  1.0000
  H   H307      1.0  0.42580  0.02063  0.39508  1.0000
  H   H308      1.0  0.42684  0.01862  0.53743  1.0000
  C   C269      1.0  0.43765  0.21054  0.29379  1.0000
  S   S69       1.0  0.37212  0.99941  0.61940  1.0000
  C   C270      1.0  0.50291  0.02642  0.38950  1.0000
  H   H309      1.0  0.42889  0.04295  0.43489  1.0000
  N   N18       1.0  0.55797  0.14171  0.43311  1.0000
  C   C271      1.0  0.54499  0.13812  0.48046  1.0000
  C   C272      1.0  0.56776  0.16293  0.43509  1.0000
  C   C273      1.0  0.54339  0.14206  0.38947  1.0000
  C   C274      1.0  0.57467  0.12514  0.42928  1.0000
  C   C275      1.0  0.57688  0.11152  0.38682  1.0000
  C   C276      1.0  0.58918  0.12200  0.46937  1.0000
  C   C277      1.0  0.59235  0.09554  0.38549  1.0000
  C   C278      1.0  0.60443  0.10580  0.46786  1.0000
  C   C279      1.0  0.60589  0.09249  0.42616  1.0000
  H   H310      1.0  0.55400  0.14058  0.51567  1.0000
  H   H311      1.0  0.53118  0.14925  0.48265  1.0000
  H   H312      1.0  0.53878  0.12166  0.48238  1.0000
  H   H313      1.0  0.57776  0.16459  0.46906  1.0000
  H   H314      1.0  0.55549  0.17575  0.43725  1.0000
  H   H315      1.0  0.57791  0.16613  0.40050  1.0000
  H   H316      1.0  0.53507  0.12668  0.38653  1.0000
  H   H317      1.0  0.53092  0.15452  0.39362  1.0000
  H   H318      1.0  0.55185  0.14556  0.35256  1.0000
  H   H319      1.0  0.56649  0.11237  0.35465  1.0000
  H   H320      1.0  0.58861  0.13186  0.50261  1.0000
  H   H321      1.0  0.59336  0.08495  0.35340  1.0000
  H   H322      1.0  0.61502  0.10335  0.49945  1.0000
  H   H323      1.0  0.61730  0.07954  0.42556  1.0000
  C   C280      1.0  0.46002  0.22755  0.35486  1.0000
  C   C281      1.0  0.48075  0.23929  0.50529  1.0000
  H   H324      1.0  0.51776  0.02994  0.36967  1.0000
  H   H325      1.0  0.48223  0.18940  0.34368  1.0000
  H   H326      1.0  0.49731  0.05874  0.41040  1.0000
  C   C282      1.0  0.47189  0.03847  0.43675  1.0000
  H   H327      1.0  0.42277  0.21818  0.30768  1.0000
  H   H328      1.0  0.49436  0.22323  0.34314  1.0000
  N   N19       1.0  0.40672  0.08511  0.94711  1.0000
  C   C283      1.0  0.38428  0.08114  0.96172  1.0000
  C   C284      1.0  0.41988  0.07718  0.98988  1.0000
  C   C285      1.0  0.40998  0.10833  0.94207  1.0000
  C   C286      1.0  0.41165  0.07496  0.89772  1.0000
  C   C287      1.0  0.40021  0.08085  0.85358  1.0000
  C   C288      1.0  0.42726  0.05874  0.89201  1.0000
  C   C289      1.0  0.40376  0.07089  0.80701  1.0000
  C   C290      1.0  0.43084  0.04899  0.84501  1.0000
  C   C291      1.0  0.41903  0.05496  0.80272  1.0000
  H   H329      1.0  0.38076  0.06390  0.96239  1.0000
  H   H330      1.0  0.38027  0.08725  0.00034  1.0000
  H   H331      1.0  0.37316  0.08903  0.93497  1.0000
  H   H332      1.0  0.41744  0.05996  0.99766  1.0000
  H   H333      1.0  0.41570  0.08532  0.02628  1.0000
  H   H334      1.0  0.43698  0.08020  0.98220  1.0000
  H   H335      1.0  0.39930  0.11596  0.91387  1.0000
  H   H336      1.0  0.40675  0.11639  0.97903  1.0000
  H   H337      1.0  0.42652  0.11199  0.92964  1.0000
  H   H338      1.0  0.38815  0.09309  0.85487  1.0000
  H   H339      1.0  0.43684  0.05324  0.92326  1.0000
  H   H340      1.0  0.39444  0.07546  0.77421  1.0000
  H   H341      1.0  0.44277  0.03662  0.84141  1.0000
  H   H342      1.0  0.42165  0.04725  0.76649  1.0000
  N   N20       1.0  0.45305  0.20698  0.33509  1.0000
  H   H343      1.0  0.45383  0.19118  0.40857  1.0000
  H   H344      1.0  0.44451  0.22073  0.26248  1.0000
  C   C292      1.0  0.47064  0.19382  0.31386  1.0000
  H   H345      1.0  0.55283  0.99825  0.55646  1.0000
  H   H346      1.0  0.56618  0.99481  0.42058  1.0000
  C   C293      1.0  0.42610  0.02561  0.43557  1.0000
  H   H347      1.0  0.43695  0.17900  0.36323  1.0000
  C   C294      1.0  0.36678  0.23500  0.04609  1.0000
  S   S70       1.0  0.33224  0.14935  0.06278  1.0000
  S   S71       1.0  0.33086  0.19748  0.95859  1.0000
  S   S72       1.0  0.65027  0.99607  0.35960  1.0000
  H   H348      1.0  0.34476  0.02667  0.86069  1.0000
  C   C295      1.0  0.49135  0.04266  0.41240  1.0000
  Fe  Fe37      1.0  0.62190  0.99851  0.41372  1.0000
  C   C296      1.0  0.55174  0.99972  0.51418  1.0000
  H   H349      1.0  0.53635  0.00721  0.50402  1.0000
  N   N21       1.0  0.44251  0.01379  0.46428  1.0000
  C   C297      1.0  0.44241  0.02132  0.51760  1.0000
  H   H350      1.0  0.45483  0.01313  0.54023  1.0000
  C   C298      1.0  0.33932  0.23976  0.96480  1.0000
  H   H351      1.0  0.40998  0.02317  0.45273  1.0000
  H   H352      1.0  0.32809  0.03092  0.41451  1.0000
  H   H353      1.0  0.42827  0.23862  0.37633  1.0000
  S   S73       1.0  0.32499  0.02288  0.61265  1.0000
  H   H354      1.0  0.50396  0.99332  0.37235  1.0000
  C   C299      1.0  0.51792  0.24108  0.48333  1.0000
  H   H355      1.0  0.32881  0.24164  0.93299  1.0000
  Fe  Fe38      1.0  0.62534  0.46826  0.58679  1.0000
  H   H356      1.0  0.39481  0.34715  0.27340  1.0000
  S   S74       1.0  0.60784  0.43800  0.56244  1.0000
  H   H357      1.0  0.36778  0.41987  0.52958  1.0000
  Fe  Fe39      1.0  0.37763  0.34978  0.96551  1.0000
  S   S75       1.0  0.38607  0.33798  0.04444  1.0000
  S   S76       1.0  0.40407  0.36208  0.91162  1.0000
  S   S77       1.0  0.35610  0.36870  0.15469  1.0000
  C   C300      1.0  0.45117  0.26135  0.39564  1.0000
  Fe  Fe40      1.0  0.35714  0.35553  0.07338  1.0000
  Fe  Fe41      1.0  0.33096  0.34012  0.98468  1.0000
  Fe  Fe42      1.0  0.36436  0.31091  0.02972  1.0000
  S   S78       1.0  0.37451  0.27757  0.05276  1.0000
  S   S79       1.0  0.35009  0.36964  0.99535  1.0000
  S   S80       1.0  0.35795  0.32146  0.94939  1.0000
  C   C301      1.0  0.49964  0.25107  0.50290  1.0000
  Fe  Fe43      1.0  0.37546  0.46659  0.43437  1.0000
  H   H358      1.0  0.42392  0.25013  0.94056  1.0000
  S   S81       1.0  0.40016  0.45365  0.48806  1.0000
  Fe  Fe44      1.0  0.35761  0.47222  0.32820  1.0000
  S   S82       1.0  0.35869  0.46196  0.24496  1.0000
  S   S83       1.0  0.34822  0.45160  0.39575  1.0000
  Fe  Fe45      1.0  0.48953  0.31036  0.55398  1.0000
  S   S84       1.0  0.49731  0.32357  0.63143  1.0000
  S   S85       1.0  0.50179  0.27829  0.52173  1.0000
  Fe  Fe46      1.0  0.46169  0.34917  0.52822  1.0000
  S   S86       1.0  0.46687  0.36454  0.60322  1.0000
  S   S87       1.0  0.43863  0.36098  0.46828  1.0000
  Fe  Fe47      1.0  0.50146  0.35566  0.59080  1.0000
  S   S88       1.0  0.52401  0.38259  0.61454  1.0000
  Fe  Fe48      1.0  0.46259  0.33211  0.63879  1.0000
  S   S89       1.0  0.43847  0.32251  0.70202  1.0000
  S   S90       1.0  0.49617  0.34187  0.51298  1.0000
  S   S91       1.0  0.45490  0.31727  0.56396  1.0000
  H   H359      1.0  0.47136  0.29067  0.76356  1.0000
  H   H360      1.0  0.43227  0.30620  0.97661  1.0000
  H   H361      1.0  0.43879  0.42993  0.37342  1.0000
  C   C302      1.0  0.41072  0.42793  0.48129  1.0000
  C   C303      1.0  0.42808  0.42176  0.51063  1.0000
  C   C304      1.0  0.43681  0.40131  0.50671  1.0000
  C   C305      1.0  0.42803  0.38678  0.47391  1.0000
  C   C306      1.0  0.41044  0.39285  0.44513  1.0000
  C   C307      1.0  0.40190  0.41345  0.44842  1.0000
  H   H362      1.0  0.43489  0.43287  0.53633  1.0000
  H   H363      1.0  0.45045  0.39686  0.52878  1.0000
  H   H364      1.0  0.40338  0.38163  0.42017  1.0000
  H   H365      1.0  0.38844  0.41806  0.42586  1.0000
  C   C308      1.0  0.41301  0.35136  0.85248  1.0000
  C   C309      1.0  0.40300  0.33422  0.83065  1.0000
  C   C310      1.0  0.41109  0.32562  0.78481  1.0000
  C   C311      1.0  0.42903  0.33428  0.75956  1.0000
  C   C312      1.0  0.43879  0.35173  0.78078  1.0000
  C   C313      1.0  0.43085  0.36014  0.82705  1.0000
  H   H366      1.0  0.38901  0.32764  0.84910  1.0000
  H   H367      1.0  0.40340  0.31213  0.76877  1.0000
  H   H368      1.0  0.45267  0.35851  0.76209  1.0000
  H   H369      1.0  0.43872  0.37343  0.84353  1.0000
  C   C314      1.0  0.35623  0.39491  0.17834  1.0000
  C   C315      1.0  0.56074  0.45885  0.47226  1.0000
  C   C316      1.0  0.35397  0.41817  0.25229  1.0000
  C   C317      1.0  0.35780  0.43591  0.22063  1.0000
  C   C318      1.0  0.36085  0.43302  0.16781  1.0000
  C   C319      1.0  0.36018  0.41264  0.14674  1.0000
  C   C320      1.0  0.46121  0.28900  0.79740  1.0000
  H   H370      1.0  0.40164  0.44213  0.24115  1.0000
  H   H371      1.0  0.36384  0.44664  0.14297  1.0000
  H   H372      1.0  0.36277  0.41067  0.10612  1.0000
  H   H373      1.0  0.40074  0.40436  0.22368  1.0000
  H   H374      1.0  0.44529  0.31743  0.89898  1.0000
  H   H375      1.0  0.50426  0.25676  0.37842  1.0000
  H   H376      1.0  0.43914  0.39238  0.35750  1.0000
  H   H377      1.0  0.34533  0.27332  0.96979  1.0000
  C   C321      1.0  0.58440  0.42287  0.57797  1.0000
  C   C322      1.0  0.57892  0.40605  0.54628  1.0000
  C   C323      1.0  0.56057  0.39374  0.55637  1.0000
  C   C324      1.0  0.54731  0.39788  0.59875  1.0000
  C   C325      1.0  0.55272  0.41480  0.63022  1.0000
  C   C326      1.0  0.57100  0.42721  0.61996  1.0000
  H   H378      1.0  0.58906  0.40237  0.51376  1.0000
  H   H379      1.0  0.55685  0.38082  0.53174  1.0000
  H   H380      1.0  0.54277  0.41820  0.66327  1.0000
  H   H381      1.0  0.57487  0.43987  0.64516  1.0000
  C   C327      1.0  0.42032  0.43837  0.30814  1.0000
  H   H382      1.0  0.44663  0.36121  0.31856  1.0000
  C   C328      1.0  0.42943  0.35772  0.31699  1.0000
  H   H383      1.0  0.57350  0.46808  0.56780  1.0000
  N   N22       1.0  0.41870  0.37134  0.27826  1.0000
  C   C329      1.0  0.36230  0.25539  0.02644  1.0000
  H   H384      1.0  0.35589  0.42859  0.68946  1.0000
  H   H385      1.0  0.43949  0.27200  0.41235  1.0000
  H   H386      1.0  0.44062  0.26752  0.97467  1.0000
  C   C330      1.0  0.40978  0.43097  0.26612  1.0000
  H   H387      1.0  0.38444  0.27967  0.94043  1.0000
  H   H388      1.0  0.42026  0.45517  0.31587  1.0000
  C   C331      1.0  0.56134  0.47857  0.55013  1.0000
  S   S92       1.0  0.33598  0.32727  0.06394  1.0000
  S   S93       1.0  0.64476  0.48510  0.52416  1.0000
  Fe  Fe49      1.0  0.32840  0.47971  0.42193  1.0000
  N   N23       1.0  0.41800  0.28361  0.92728  1.0000
  C   C332      1.0  0.39642  0.27974  0.90861  1.0000
  C   C333      1.0  0.42431  0.26545  0.96062  1.0000
  C   C334      1.0  0.47248  0.26665  0.39625  1.0000
  C   C335      1.0  0.41968  0.39428  0.28884  1.0000
  C   C336      1.0  0.34857  0.25771  0.98563  1.0000
  H   H389      1.0  0.53260  0.24977  0.48114  1.0000
  H   H390      1.0  0.39167  0.29222  0.88045  1.0000
  C   C337      1.0  0.42892  0.36727  0.22778  1.0000
  H   H391      1.0  0.38793  0.37158  0.24361  1.0000
  H   H392      1.0  0.47737  0.28117  0.41392  1.0000
  C   C338      1.0  0.43074  0.40243  0.33075  1.0000
  C   C339      1.0  0.43082  0.42415  0.34028  1.0000
  C   C340      1.0  0.39629  0.36462  0.27695  1.0000
  C   C341      1.0  0.35297  0.39785  0.23115  1.0000
  N   N24       1.0  0.40010  0.37196  0.64433  1.0000
  C   C342      1.0  0.40807  0.36010  0.59924  1.0000
  C   C343      1.0  0.41871  0.37972  0.67153  1.0000
  C   C344      1.0  0.38835  0.35672  0.67816  1.0000
  C   C345      1.0  0.38629  0.39023  0.63107  1.0000
  C   C346      1.0  0.37627  0.40219  0.67028  1.0000
  C   C347      1.0  0.38283  0.39709  0.57984  1.0000
  C   C348      1.0  0.36340  0.41972  0.65888  1.0000
  C   C349      1.0  0.36998  0.41470  0.56890  1.0000
  C   C350      1.0  0.36028  0.42597  0.60825  1.0000
  H   H393      1.0  0.41851  0.37004  0.57398  1.0000
  H   H394      1.0  0.41792  0.34611  0.61069  1.0000
  H   H395      1.0  0.39491  0.35401  0.57644  1.0000
  H   H396      1.0  0.42732  0.39199  0.64821  1.0000
  H   H397      1.0  0.43017  0.36669  0.67969  1.0000
  H   H398      1.0  0.41431  0.38670  0.70897  1.0000
  H   H399      1.0  0.38506  0.36296  0.71696  1.0000
  H   H400      1.0  0.37302  0.35240  0.66135  1.0000
  H   H401      1.0  0.39746  0.34174  0.68435  1.0000
  H   H402      1.0  0.37850  0.39813  0.71014  1.0000
  H   H403      1.0  0.39007  0.38930  0.54747  1.0000
  H   H404      1.0  0.46644  0.24664  0.52021  1.0000
  H   H405      1.0  0.35174  0.42011  0.29296  1.0000
  C   C351      1.0  0.43527  0.26914  0.84761  1.0000
  H   H406      1.0  0.44560  0.37280  0.22650  1.0000
  H   H407      1.0  0.46913  0.31950  0.82553  1.0000
  C   C352      1.0  0.48765  0.25282  0.37619  1.0000
  H   H408      1.0  0.34971  0.38427  0.25591  1.0000
  H   H409      1.0  0.42058  0.37553  0.19599  1.0000
  H   H410      1.0  0.44995  0.25842  0.77735  1.0000
  H   H411      1.0  0.42229  0.35976  0.35593  1.0000
  H   H412      1.0  0.38740  0.36940  0.31216  1.0000
  C   C353      1.0  0.45991  0.30527  0.83241  1.0000
  H   H413      1.0  0.35045  0.43968  0.59936  1.0000
  H   H414      1.0  0.54577  0.47178  0.56194  1.0000
  C   C354      1.0  0.43313  0.28567  0.88341  1.0000
  H   H415      1.0  0.41150  0.31694  0.93701  1.0000
  H   H416      1.0  0.40531  0.30070  0.99187  1.0000
  H   H417      1.0  0.56145  0.45954  0.42976  1.0000
  C   C355      1.0  0.44602  0.30382  0.87469  1.0000
  C   C356      1.0  0.44899  0.27093  0.80508  1.0000
  H   H418      1.0  0.42895  0.35010  0.21885  1.0000
  S   S94       1.0  0.65137  0.47255  0.64409  1.0000
  H   H419      1.0  0.59783  0.47347  0.49745  1.0000
  H   H420      1.0  0.42822  0.34057  0.30846  1.0000
  C   C357      1.0  0.41681  0.30273  0.95936  1.0000
  C   C358      1.0  0.40938  0.40928  0.25651  1.0000
  H   H421      1.0  0.42609  0.25483  0.85184  1.0000
  S   S95       1.0  0.38665  0.48499  0.36483  1.0000
  H   H422      1.0  0.52091  0.47783  0.49747  1.0000
  H   H423      1.0  0.54529  0.45195  0.48457  1.0000
  H   H424      1.0  0.39505  0.26416  0.89010  1.0000
  H   H425      1.0  0.57292  0.44712  0.48512  1.0000
  N   N25       1.0  0.56426  0.48008  0.49381  1.0000
  C   C359      1.0  0.58667  0.48573  0.48241  1.0000
  H   H426      1.0  0.58999  0.48714  0.44057  1.0000
  H   H427      1.0  0.43312  0.48625  0.54538  1.0000
  H   H428      1.0  0.41344  0.26371  0.99466  1.0000
  H   H429      1.0  0.40542  0.49131  0.54963  1.0000
  C   C360      1.0  0.44495  0.24216  0.37512  1.0000
  H   H430      1.0  0.47095  0.56889  0.45675  1.0000
  C   C361      1.0  0.62575  0.73519  0.93742  1.0000
  C   C362      1.0  0.50971  0.70925  0.62492  1.0000
  Fe  Fe50      1.0  0.63570  0.66008  0.96053  1.0000
  H   H431      1.0  0.63380  0.69897  0.03311  1.0000
  S   S96       1.0  0.65345  0.52245  0.60529  1.0000
  Fe  Fe51      1.0  0.62265  0.62208  0.02764  1.0000
  S   S97       1.0  0.59800  0.60658  0.08181  1.0000
  S   S98       1.0  0.61644  0.63113  0.94523  1.0000
  Fe  Fe52      1.0  0.63476  0.50336  0.66293  1.0000
  Fe  Fe53      1.0  0.62804  0.51448  0.55103  1.0000
  S   S99       1.0  0.61729  0.53876  0.49216  1.0000
  Fe  Fe54      1.0  0.48596  0.61932  0.37883  1.0000
  S   S100      1.0  0.48971  0.62931  0.46047  1.0000
  S   S101      1.0  0.46094  0.59875  0.34070  1.0000
  Fe  Fe55      1.0  0.53067  0.63517  0.34636  1.0000
  S   S102      1.0  0.53765  0.64478  0.42653  1.0000
  S   S103      1.0  0.55427  0.64531  0.28264  1.0000
  Fe  Fe56      1.0  0.52210  0.61443  0.45215  1.0000
  S   S104      1.0  0.53167  0.59101  0.51443  1.0000
  Fe  Fe57      1.0  0.50502  0.65957  0.42905  1.0000
  S   S105      1.0  0.50638  0.69387  0.46025  1.0000
  S   S106      1.0  0.51804  0.60343  0.37236  1.0000
  S   S107      1.0  0.49849  0.65081  0.34736  1.0000
  S   S108      1.0  0.60770  0.49781  0.61022  1.0000
  H   H432      1.0  0.61088  0.55047  0.60464  1.0000
  S   S109      1.0  0.37866  0.54456  0.40865  1.0000
  H   H433      1.0  0.64501  0.57712  0.65302  1.0000
  C   C363      1.0  0.43899  0.58299  0.36312  1.0000
  C   C364      1.0  0.43401  0.56444  0.33697  1.0000
  C   C365      1.0  0.41592  0.55232  0.35067  1.0000
  C   C366      1.0  0.40207  0.55891  0.38990  1.0000
  C   C367      1.0  0.40702  0.57751  0.41591  1.0000
  C   C368      1.0  0.42544  0.58928  0.40322  1.0000
  H   H434      1.0  0.44412  0.55947  0.30546  1.0000
  H   H435      1.0  0.41239  0.53818  0.32995  1.0000
  H   H436      1.0  0.39645  0.58294  0.44610  1.0000
  H   H437      1.0  0.42871  0.60365  0.42326  1.0000
  C   C369      1.0  0.49882  0.71939  0.48437  1.0000
  H   H438      1.0  0.50326  0.70283  0.59045  1.0000
  C   C370      1.0  0.63474  0.56081  0.84775  1.0000
  C   C371      1.0  0.47758  0.72518  0.49249  1.0000
  C   C372      1.0  0.64971  0.55204  0.74846  1.0000
  H   H439      1.0  0.46532  0.71396  0.48457  1.0000
  C   C373      1.0  0.59287  0.55230  0.49740  1.0000
  C   C374      1.0  0.58852  0.56889  0.46259  1.0000
  C   C375      1.0  0.56959  0.58064  0.46683  1.0000
  C   C376      1.0  0.55496  0.57588  0.50613  1.0000
  C   C377      1.0  0.55910  0.55900  0.54037  1.0000
  C   C378      1.0  0.57792  0.54711  0.53578  1.0000
  H   H440      1.0  0.59997  0.57288  0.43260  1.0000
  H   H441      1.0  0.56648  0.59361  0.44027  1.0000
  H   H442      1.0  0.54770  0.55517  0.57054  1.0000
  H   H443      1.0  0.58089  0.53407  0.56211  1.0000
  C   C379      1.0  0.58665  0.61737  0.13861  1.0000
  C   C380      1.0  0.58944  0.63857  0.15129  1.0000
  C   C381      1.0  0.57945  0.64671  0.19556  1.0000
  C   C382      1.0  0.56676  0.63379  0.22805  1.0000
  C   C383      1.0  0.56440  0.61246  0.21607  1.0000
  C   C384      1.0  0.57416  0.60437  0.17138  1.0000
  H   H444      1.0  0.59888  0.64882  0.12641  1.0000
  H   H445      1.0  0.58144  0.66322  0.20448  1.0000
  H   H446      1.0  0.55511  0.60219  0.24112  1.0000
  H   H447      1.0  0.57198  0.58794  0.16204  1.0000
  H   H448      1.0  0.61859  0.53089  0.84358  1.0000
  C   C385      1.0  0.61511  0.60965  0.70685  1.0000
  Fe  Fe58      1.0  0.36575  0.51109  0.39428  1.0000
  C   C386      1.0  0.63628  0.53758  0.77376  1.0000
  C   C387      1.0  0.52262  0.69662  0.65556  1.0000
  C   C388      1.0  0.40630  0.53224  0.52478  1.0000
  C   C389      1.0  0.62629  0.64001  0.25649  1.0000
  C   C390      1.0  0.62832  0.71527  0.96161  1.0000
  H   H449      1.0  0.62201  0.61971  0.67720  1.0000
  H   H450      1.0  0.59338  0.56107  0.73437  1.0000
  H   H451      1.0  0.63339  0.62017  0.13254  1.0000
  S   S110      1.0  0.63963  0.65224  0.04378  1.0000
  N   N26       1.0  0.65450  0.62745  0.19238  1.0000
  H   H452      1.0  0.62898  0.56401  0.88607  1.0000
  C   C391      1.0  0.44425  0.52757  0.51604  1.0000
  C   C392      1.0  0.44906  0.54447  0.48115  1.0000
  H   H453      1.0  0.42000  0.52031  0.43242  1.0000
  C   C393      1.0  0.46792  0.55576  0.48339  1.0000
  C   C394      1.0  0.47873  0.53365  0.55448  1.0000
  C   C395      1.0  0.48267  0.55045  0.52025  1.0000
  S   S111      1.0  0.33693  0.49995  0.35207  1.0000
  H   H454      1.0  0.61559  0.58208  0.30153  1.0000
  H   H455      1.0  0.50716  0.53751  0.42474  1.0000
  Fe  Fe59      1.0  0.64757  0.61511  0.92629  1.0000
  H   H456      1.0  0.53092  0.73021  0.48910  1.0000
  C   C396      1.0  0.62892  0.54202  0.82357  1.0000
  C   C397      1.0  0.63180  0.71418  0.01411  1.0000
  H   H457      1.0  0.54127  0.69503  0.72301  1.0000
  C   C398      1.0  0.55515  0.51511  0.44874  1.0000
  H   H458      1.0  0.45774  0.50960  0.58052  1.0000
  H   H459      1.0  0.49720  0.55942  0.52225  1.0000
  N   N27       1.0  0.49378  0.61446  0.19974  1.0000
  C   C399      1.0  0.47829  0.59753  0.18988  1.0000
  C   C400      1.0  0.50701  0.60708  0.24254  1.0000
  C   C401      1.0  0.48149  0.63344  0.21599  1.0000
  C   C402      1.0  0.50784  0.61968  0.15526  1.0000
  C   C403      1.0  0.50936  0.60684  0.11128  1.0000
  C   C404      1.0  0.52181  0.63714  0.15679  1.0000
  C   C405      1.0  0.52406  0.61128  0.07173  1.0000
  C   C406      1.0  0.53618  0.64159  0.11668  1.0000
  C   C407      1.0  0.53749  0.62855  0.07455  1.0000
  H   H460      1.0  0.46737  0.59472  0.22348  1.0000
  H   H461      1.0  0.46827  0.60184  0.15679  1.0000
  H   H462      1.0  0.48624  0.58202  0.18298  1.0000
  H   H463      1.0  0.51707  0.59328  0.23148  1.0000
  H   H464      1.0  0.49713  0.60210  0.27627  1.0000
  H   H465      1.0  0.51775  0.61968  0.25529  1.0000
  H   H466      1.0  0.47236  0.64035  0.18378  1.0000
  H   H467      1.0  0.47009  0.62956  0.24798  1.0000
  H   H468      1.0  0.49166  0.64607  0.23079  1.0000
  H   H469      1.0  0.49972  0.59302  0.10692  1.0000
  H   H470      1.0  0.52245  0.64701  0.18997  1.0000
  H   H471      1.0  0.52539  0.60102  0.03908  1.0000
  H   H472      1.0  0.54697  0.65476  0.11924  1.0000
  H   H473      1.0  0.54931  0.63156  0.04461  1.0000
  H   H474      1.0  0.64091  0.65637  0.16170  1.0000
  H   H475      1.0  0.62796  0.65645  0.24512  1.0000
  H   H476      1.0  0.57154  0.51945  0.44300  1.0000
  H   H477      1.0  0.40622  0.54558  0.49643  1.0000
  C   C408      1.0  0.64803  0.57536  0.82226  1.0000
  C   C409      1.0  0.50525  0.73020  0.63803  1.0000
  H   H478      1.0  0.40773  0.53925  0.56315  1.0000
  H   H479      1.0  0.43805  0.54935  0.45224  1.0000
  H   H480      1.0  0.58993  0.57635  0.81803  1.0000
  N   N28       1.0  0.42358  0.51675  0.51436  1.0000
  H   H481      1.0  0.63551  0.73189  0.08274  1.0000
  C   C410      1.0  0.60405  0.60600  0.79567  1.0000
  H   H482      1.0  0.60313  0.61228  0.83390  1.0000
  C   C411      1.0  0.63277  0.73286  0.04214  1.0000
  C   C412      1.0  0.42065  0.50789  0.46301  1.0000
  C   C413      1.0  0.51370  0.73924  0.68226  1.0000
  H   H483      1.0  0.54531  0.54488  0.41451  1.0000
  C   C414      1.0  0.63836  0.62349  0.23339  1.0000
  C   C415      1.0  0.63428  0.60249  0.25141  1.0000
  C   C416      1.0  0.61314  0.61798  0.75582  1.0000
  C   C417      1.0  0.59668  0.58574  0.78663  1.0000
  S   S112      1.0  0.62834  0.51378  0.74486  1.0000
  H   H484      1.0  0.52608  0.68040  0.64505  1.0000
  H   H485      1.0  0.42220  0.50453  0.59212  1.0000
  N   N29       1.0  0.61133  0.58002  0.64482  1.0000
  C   C418      1.0  0.60714  0.55692  0.64303  1.0000
  C   C419      1.0  0.59657  0.59110  0.60991  1.0000
  C   C420      1.0  0.63334  0.58331  0.62516  1.0000
  C   C421      1.0  0.60856  0.58871  0.69671  1.0000
  H   H486      1.0  0.59464  0.61152  0.33877  1.0000
  C   C422      1.0  0.59889  0.57709  0.73805  1.0000
  C   C423      1.0  0.53115  0.70492  0.69937  1.0000
  H   H487      1.0  0.62302  0.73612  0.89680  1.0000
  C   C424      1.0  0.51866  0.52588  0.43787  1.0000
  C   C425      1.0  0.61877  0.59827  0.28917  1.0000
  H   H488      1.0  0.61903  0.63366  0.76335  1.0000
  H   H489      1.0  0.61703  0.54784  0.67062  1.0000
  H   H490      1.0  0.59915  0.60850  0.60832  1.0000
  H   H491      1.0  0.57978  0.58852  0.62224  1.0000
  H   H492      1.0  0.59843  0.58540  0.57008  1.0000
  H   H493      1.0  0.63693  0.60024  0.61711  1.0000
  C   C426      1.0  0.54017  0.52995  0.43182  1.0000
  H   H494      1.0  0.59099  0.50082  0.50047  1.0000
  H   H495      1.0  0.59021  0.55326  0.65137  1.0000
  H   H496      1.0  0.49034  0.52960  0.58301  1.0000
  S   S113      1.0  0.62777  0.69215  0.92492  1.0000
  H   H497      1.0  0.63641  0.57511  0.58834  1.0000
  C   C427      1.0  0.45984  0.52228  0.55262  1.0000
  H   H498      1.0  0.39040  0.52484  0.52277  1.0000
  C   C428      1.0  0.51444  0.73439  0.49520  1.0000
  C   C429      1.0  0.60705  0.61480  0.31045  1.0000
  S   S114      1.0  0.65637  0.59908  0.85083  1.0000
  H   H499      1.0  0.54546  0.73851  0.35008  1.0000
  C   C430      1.0  0.64924  0.61544  0.14641  1.0000
  C   C431      1.0  0.42116  0.49900  0.55222  1.0000
  C   C432      1.0  0.65548  0.57083  0.77254  1.0000
  H   H500      1.0  0.50988  0.72312  0.36138  1.0000
  H   H501      1.0  0.60135  0.64834  0.31036  1.0000
  C   C433      1.0  0.51211  0.73999  0.36628  1.0000
  C   C434      1.0  0.52689  0.72593  0.71267  1.0000
  C   C435      1.0  0.61094  0.63560  0.29449  1.0000
  H   H502      1.0  0.64283  0.58912  0.23583  1.0000
  S   S115      1.0  0.65255  0.60372  0.00744  1.0000
  C   C436      1.0  0.65619  0.65014  0.17646  1.0000
  H   H503      1.0  0.65580  0.54866  0.71062  1.0000
  H   H504      1.0  0.40543  0.49926  0.46117  1.0000
  H   H505      1.0  0.53423  0.73138  0.74675  1.0000
  C   C437      1.0  0.51197  0.50697  0.46119  1.0000
  H   H506      1.0  0.43354  0.49650  0.45294  1.0000
  H   H507      1.0  0.56255  0.49442  0.56759  1.0000
  S   S116      1.0  0.35542  0.49296  0.46591  1.0000
  H   H508      1.0  0.49519  0.50393  0.46608  1.0000
  H   H509      1.0  0.64899  0.59804  0.15329  1.0000
  C   C438      1.0  0.54890  0.49569  0.47301  1.0000
  H   H510      1.0  0.49532  0.73935  0.61272  1.0000
  C   C439      1.0  0.52682  0.49210  0.47876  1.0000
  Fe  Fe60      1.0  0.61577  0.84655  0.95824  1.0000
  S   S117      1.0  0.60623  0.83330  0.03638  1.0000
  S   S118      1.0  0.59229  0.86091  0.90113  1.0000
  Fe  Fe61      1.0  0.63161  0.85397  0.06746  1.0000
  C   C440      1.0  0.42698  0.91521  0.76344  1.0000
  Fe  Fe62      1.0  0.63209  0.80922  0.02241  1.0000
  H   H511      1.0  0.44225  0.91899  0.77869  1.0000
  H   H512      1.0  0.35432  0.95562  0.81428  1.0000
  S   S119      1.0  0.32846  0.97411  0.65493  1.0000
  Fe  Fe63      1.0  0.52165  0.83638  0.65355  1.0000
  S   S120      1.0  0.52854  0.82154  0.57725  1.0000
  S   S121      1.0  0.54300  0.82184  0.71485  1.0000
  Fe  Fe64      1.0  0.48403  0.86305  0.61080  1.0000
  S   S122      1.0  0.48822  0.84897  0.53276  1.0000
  S   S123      1.0  0.46388  0.89296  0.62946  1.0000
  Fe  Fe65      1.0  0.49362  0.81715  0.57235  1.0000
  S   S124      1.0  0.47931  0.78577  0.54579  1.0000
  Fe  Fe66      1.0  0.52296  0.85395  0.54356  1.0000
  S   S125      1.0  0.54285  0.86528  0.47567  1.0000
  S   S126      1.0  0.48649  0.83069  0.65058  1.0000
  S   S127      1.0  0.51906  0.86933  0.61957  1.0000
  Fe  Fe67      1.0  0.63766  0.96391  0.33946  1.0000
  Fe  Fe68      1.0  0.62844  0.95271  0.45090  1.0000
  S   S128      1.0  0.61519  0.93147  0.51462  1.0000
  S   S129      1.0  0.60841  0.96749  0.38981  1.0000
  Fe  Fe69      1.0  0.35600  0.96917  0.59935  1.0000
  H   H513      1.0  0.49492  0.95502  0.58407  1.0000
  S   S130      1.0  0.37288  0.93670  0.59034  1.0000
  C   C441      1.0  0.63455  0.91237  0.25482  1.0000
  H   H514      1.0  0.62468  0.76919  0.94663  1.0000
  C   C442      1.0  0.40532  0.89175  0.71610  1.0000
  C   C443      1.0  0.43900  0.90527  0.61423  1.0000
  C   C444      1.0  0.42272  0.89447  0.59076  1.0000
  C   C445      1.0  0.40284  0.90446  0.58326  1.0000
  C   C446      1.0  0.39888  0.92549  0.59829  1.0000
  C   C447      1.0  0.41535  0.93649  0.62051  1.0000
  C   C448      1.0  0.43513  0.92640  0.62870  1.0000
  H   H515      1.0  0.42526  0.87824  0.57948  1.0000
  H   H516      1.0  0.39033  0.89571  0.56598  1.0000
  H   H517      1.0  0.41279  0.95264  0.63220  1.0000
  H   H518      1.0  0.44746  0.93494  0.64715  1.0000
  C   C449      1.0  0.56217  0.88462  0.48622  1.0000
  C   C450      1.0  0.57448  0.89257  0.44492  1.0000
  C   C451      1.0  0.59042  0.90748  0.45279  1.0000
  C   C452      1.0  0.59420  0.91433  0.50214  1.0000
  C   C453      1.0  0.58147  0.90689  0.54311  1.0000
  C   C454      1.0  0.56551  0.89208  0.53522  1.0000
  H   H519      1.0  0.57192  0.88695  0.40682  1.0000
  H   H520      1.0  0.60018  0.91317  0.42093  1.0000
  H   H521      1.0  0.58425  0.91233  0.58119  1.0000
  H   H522      1.0  0.55610  0.88614  0.56717  1.0000
  C   C455      1.0  0.48763  0.76055  0.52123  1.0000
  H   H523      1.0  0.60181  0.85388  0.74764  1.0000
  C   C456      1.0  0.50867  0.93150  0.53538  1.0000
  H   H524      1.0  0.40388  0.87750  0.69408  1.0000
  C   C457      1.0  0.63137  0.89163  0.17718  1.0000
  H   H525      1.0  0.52123  0.76594  0.52120  1.0000
  C   C458      1.0  0.63305  0.89272  0.23057  1.0000
  C   C459      1.0  0.63439  0.93125  0.22588  1.0000
  C   C460      1.0  0.49499  0.75283  0.38009  1.0000
  C   C461      1.0  0.63123  0.91051  0.14814  1.0000
  C   C462      1.0  0.38989  0.92496  0.74803  1.0000
  H   H526      1.0  0.53704  0.77253  0.65156  1.0000
  H   H527      1.0  0.43810  0.88585  0.73174  1.0000
  C   C463      1.0  0.57788  0.84921  0.85152  1.0000
  C   C464      1.0  0.58121  0.82823  0.83690  1.0000
  C   C465      1.0  0.57003  0.82002  0.79579  1.0000
  C   C466      1.0  0.55541  0.83263  0.76874  1.0000
  C   C467      1.0  0.55178  0.85348  0.78394  1.0000
  C   C468      1.0  0.56306  0.86173  0.82483  1.0000
  H   H528      1.0  0.59251  0.81838  0.85706  1.0000
  H   H529      1.0  0.57295  0.80383  0.78458  1.0000
  H   H530      1.0  0.54041  0.86332  0.76406  1.0000
  H   H531      1.0  0.56026  0.87794  0.83604  1.0000
  H   H532      1.0  0.61151  0.89977  0.66260  1.0000
  H   H533      1.0  0.60219  0.84603  0.47418  1.0000
  H   H534      1.0  0.57531  0.83853  0.62452  1.0000
  C   C469      1.0  0.35194  0.93265  0.73319  1.0000
  H   H535      1.0  0.62974  0.90998  0.10713  1.0000
  C   C470      1.0  0.60288  0.84960  0.70653  1.0000
  C   C471      1.0  0.36817  0.94476  0.80873  1.0000
  H   H536      1.0  0.51331  0.77240  0.61525  1.0000
  C   C472      1.0  0.51963  0.77531  0.65365  1.0000
  C   C473      1.0  0.60215  0.84994  0.51427  1.0000
  C   C474      1.0  0.48631  0.76619  0.69444  1.0000
  H   H537      1.0  0.61886  0.84263  0.69907  1.0000
  H   H538      1.0  0.62684  0.87292  0.50438  1.0000
  H   H539      1.0  0.59118  0.83682  0.70174  1.0000
  H   H540      1.0  0.39189  0.96786  0.74173  1.0000
  H   H541      1.0  0.44795  0.98122  0.48781  1.0000
  N   N30       1.0  0.52083  0.80662  0.39345  1.0000
  C   C475      1.0  0.51358  0.81109  0.44644  1.0000
  C   C476      1.0  0.54306  0.81394  0.38773  1.0000
  C   C477      1.0  0.50791  0.81947  0.35755  1.0000
  C   C478      1.0  0.51817  0.78379  0.38338  1.0000
  C   C479      1.0  0.53530  0.77028  0.36859  1.0000
  C   C480      1.0  0.49790  0.77438  0.38868  1.0000
  H   H542      1.0  0.56502  0.86420  0.67960  1.0000
  H   H543      1.0  0.47775  0.75502  0.72092  1.0000
  S   S131      1.0  0.63996  0.82086  0.94246  1.0000
  H   H544      1.0  0.51657  0.82784  0.45645  1.0000
  H   H545      1.0  0.49633  0.80854  0.45271  1.0000
  H   H546      1.0  0.52189  0.80069  0.47447  1.0000
  H   H547      1.0  0.55357  0.80538  0.41491  1.0000
  H   H548      1.0  0.54448  0.83114  0.39604  1.0000
  H   H549      1.0  0.54935  0.81193  0.34803  1.0000
  H   H550      1.0  0.49071  0.81630  0.36254  1.0000
  H   H551      1.0  0.50995  0.83679  0.36329  1.0000
  H   H552      1.0  0.51245  0.81608  0.31715  1.0000
  H   H553      1.0  0.55129  0.77589  0.36350  1.0000
  H   H554      1.0  0.48416  0.78350  0.40064  1.0000
  C   C481      1.0  0.47209  0.74550  0.51072  1.0000
  C   C482      1.0  0.61548  0.87095  0.58260  1.0000
  H   H555      1.0  0.63578  0.91292  0.29590  1.0000
  S   S132      1.0  0.65661  0.94639  0.39892  1.0000
  N   N31       1.0  0.37212  0.94027  0.75387  1.0000
  H   H556      1.0  0.52568  0.91115  0.48385  1.0000
  C   C483      1.0  0.52196  0.96727  0.54118  1.0000
  H   H557      1.0  0.45557  0.74956  0.51680  1.0000
  H   H558      1.0  0.36457  0.97230  0.72987  1.0000
  H   H559      1.0  0.47934  0.76496  0.65599  1.0000
  S   S133      1.0  0.64087  0.98370  0.47784  1.0000
  C   C484      1.0  0.63026  0.75276  0.01800  1.0000
  C   C485      1.0  0.57606  0.97082  0.50313  1.0000
  H   H560      1.0  0.53524  0.76731  0.74458  1.0000
  H   H561      1.0  0.36500  0.92987  0.83109  1.0000
  N   N32       1.0  0.55478  0.97888  0.48957  1.0000
  C   C486      1.0  0.37758  0.96037  0.72660  1.0000
  N   N33       1.0  0.50944  0.76178  0.69384  1.0000
  H   H562      1.0  0.55850  0.96816  0.41173  1.0000
  H   H563      1.0  0.61239  0.88930  0.72659  1.0000
  H   H564      1.0  0.48258  0.78264  0.70664  1.0000
  S   S134      1.0  0.63224  0.77567  0.05490  1.0000
  H   H565      1.0  0.34704  0.91735  0.75156  1.0000
  H   H566      1.0  0.43465  0.98466  0.42751  1.0000
  C   C487      1.0  0.55441  0.98264  0.43345  1.0000
  C   C488      1.0  0.61606  0.86507  0.53139  1.0000
  H   H567      1.0  0.38062  0.95767  0.68522  1.0000
  C   C489      1.0  0.42466  0.89645  0.73727  1.0000
  C   C490      1.0  0.53947  0.94229  0.48493  1.0000
  S   S135      1.0  0.33747  0.98404  0.53456  1.0000
  C   C491      1.0  0.63279  0.93018  0.17242  1.0000
  H   H568      1.0  0.38169  0.95278  0.82617  1.0000
  C   C492      1.0  0.61411  0.88495  0.68563  1.0000
  H   H569      1.0  0.51695  0.79239  0.66126  1.0000
  H   H570      1.0  0.57660  0.82904  0.53464  1.0000
  C   C493      1.0  0.62674  0.75392  0.96549  1.0000
  H   H571      1.0  0.42067  0.98886  0.48630  1.0000
  C   C494      1.0  0.60073  0.86175  0.61833  1.0000
  S   S136      1.0  0.62994  0.86626  0.14921  1.0000
  C   C495      1.0  0.50731  0.95165  0.55598  1.0000
  H   H572      1.0  0.63256  0.94470  0.14971  1.0000
  C   C496      1.0  0.57732  0.87653  0.68311  1.0000
  N   N34       1.0  0.59895  0.86820  0.67233  1.0000
  H   H573      1.0  0.62627  0.88327  0.59255  1.0000
  H   H574      1.0  0.63313  0.87823  0.25341  1.0000
  C   C497      1.0  0.40991  0.92931  0.76879  1.0000
  S   S137      1.0  0.63636  0.95647  0.25442  1.0000
  C   C498      1.0  0.50894  0.75480  0.51328  1.0000
  H   H575      1.0  0.51375  0.78523  0.75179  1.0000
  H   H576      1.0  0.49743  0.91936  0.54744  1.0000
  H   H577      1.0  0.57564  0.88252  0.72271  1.0000
  C   C499      1.0  0.53863  0.96299  0.50523  1.0000
  H   H578      1.0  0.35315  0.93060  0.69103  1.0000
  H   H579      1.0  0.41263  0.94385  0.78850  1.0000
  S   S138      1.0  0.63954  0.86907  0.99069  1.0000
  C   C500      1.0  0.58702  0.84613  0.59970  1.0000
  H   H580      1.0  0.63079  0.87956  0.67975  1.0000
  H   H581      1.0  0.51081  0.75858  0.77598  1.0000
  C   C501      1.0  0.38817  0.90578  0.72091  1.0000
  C   C502      1.0  0.51765  0.76831  0.74383  1.0000
  H   H582      1.0  0.37397  0.90148  0.70166  1.0000
  H   H583      1.0  0.53857  0.98828  0.42134  1.0000
  H   H584      1.0  0.57329  0.88978  0.65630  1.0000
  H   H585      1.0  0.47056  0.98513  0.41539  1.0000
  C   C503      1.0  0.52463  0.92690  0.49967  1.0000
  C   C504      1.0  0.58772  0.84043  0.54838  1.0000
  H   H586      1.0  0.58068  0.95659  0.48120  1.0000
  H   H587      1.0  0.57681  0.96629  0.54437  1.0000
  H   H588      1.0  0.55185  0.93770  0.45801  1.0000
  H   H589      1.0  0.47948  0.74584  0.38584  1.0000
  H   H590      1.0  0.33873  0.94414  0.73975  1.0000
  H   H591      1.0  0.58864  0.98276  0.49471  1.0000
  S   S139      1.0  0.65676  0.82885  0.05859  1.0000
  H   H592      1.0  0.52004  0.98246  0.55894  1.0000
  C   C505      1.0  0.53219  0.74870  0.36041  1.0000
  C   C506      1.0  0.43633  0.99111  0.46643  1.0000
  H   H593      1.0  0.78333  0.02304  0.55246  1.0000
  H   H594      1.0  0.97552  0.03283  0.46402  1.0000
  C   C507      1.0  0.79575  0.03784  0.43029  1.0000
  H   H595      1.0  0.81435  0.02824  0.49478  1.0000
  S   S140      1.0  0.87563  0.03543  0.58883  1.0000
  H   H596      1.0  0.74783  0.02896  0.52278  1.0000
  H   H597      1.0  0.96370  0.03823  0.77373  1.0000
  C   C508      1.0  0.71839  0.03871  0.46199  1.0000
  C   C509      1.0  0.77539  0.04158  0.41215  1.0000
  S   S141      1.0  0.96718  0.07765  0.61513  1.0000
  C   C510      1.0  0.76060  0.03206  0.49562  1.0000
  S   S142      1.0  0.98078  0.18817  0.54301  1.0000
  C   C511      1.0  0.98152  0.04108  0.49779  1.0000
  C   C512      1.0  0.90647  0.04471  0.72541  1.0000
  H   H598      1.0  0.71932  0.04911  0.49560  1.0000
  N   N35       1.0  0.89850  0.00613  0.74918  1.0000
  C   C513      1.0  0.90164  0.04654  0.59230  1.0000
  C   C514      1.0  0.91962  0.03428  0.60323  1.0000
  C   C515      1.0  0.93948  0.04404  0.60913  1.0000
  C   C516      1.0  0.94190  0.06618  0.60319  1.0000
  C   C517      1.0  0.92407  0.07836  0.59062  1.0000
  C   C518      1.0  0.90413  0.06864  0.58571  1.0000
  H   H599      1.0  0.91817  0.01731  0.60801  1.0000
  H   H600      1.0  0.95301  0.03437  0.61929  1.0000
  H   H601      1.0  0.92548  0.09537  0.58604  1.0000
  H   H602      1.0  0.89045  0.07838  0.57716  1.0000
  H   H603      1.0  0.74536  0.06964  0.37587  1.0000
  H   H604      1.0  0.73546  0.01247  0.38908  1.0000
  C   C519      1.0  0.91270  0.02468  0.74639  1.0000
  H   H605      1.0  0.97780  0.03150  0.53302  1.0000
  C   C520      1.0  0.92050  0.06171  0.72237  1.0000
  H   H606      1.0  0.86880  0.02334  0.74821  1.0000
  C   C521      1.0  0.79857  0.03131  0.48082  1.0000
  C   C522      1.0  0.97717  0.22991  0.50889  1.0000
  S   S143      1.0  0.98994  0.12411  0.52248  1.0000
  C   C523      1.0  0.73399  0.06550  0.40746  1.0000
  H   H607      1.0  0.71569  0.03036  0.36619  1.0000
  C   C524      1.0  0.93366  0.02295  0.76450  1.0000
  H   H608      1.0  0.95208  0.07236  0.73508  1.0000
  C   C525      1.0  0.78105  0.02850  0.51337  1.0000
  H   H609      1.0  0.74266  0.03366  0.34594  1.0000
  C   C526      1.0  0.73231  0.02941  0.37935  1.0000
  H   H610      1.0  0.80946  0.03989  0.40506  1.0000
  H   H611      1.0  0.77403  0.04656  0.37264  1.0000
  H   H612      1.0  0.96164  0.22932  0.52708  1.0000
  H   H613      1.0  0.91565  0.07664  0.70473  1.0000
  C   C527      1.0  0.94108  0.05932  0.73943  1.0000
  H   H614      1.0  0.73715  0.07619  0.43967  1.0000
  C   C528      1.0  0.94762  0.04001  0.76074  1.0000
  Fe  Fe70      1.0  0.98603  0.10875  0.60066  1.0000
  H   H615      1.0  0.89107  0.04757  0.70946  1.0000
  N   N36       1.0  0.73577  0.04295  0.42402  1.0000
  C   C529      1.0  0.75714  0.03877  0.44424  1.0000
  H   H616      1.0  0.71863  0.02192  0.47568  1.0000
  H   H617      1.0  0.70250  0.04131  0.44536  1.0000
  H   H618      1.0  0.71790  0.06936  0.39325  1.0000
  C   C530      1.0  0.87736  0.01050  0.72761  1.0000
  Fe  Fe71      1.0  0.86147  0.00170  0.59243  1.0000
  S   S144      1.0  0.98837  0.14038  0.64038  1.0000
  H   H619      1.0  0.97201  0.05600  0.50147  1.0000
  H   H620      1.0  0.87863  0.01495  0.68629  1.0000
  H   H621      1.0  0.93951  0.00826  0.78102  1.0000
  C   C531      1.0  0.99024  0.21169  0.51039  1.0000
  H   H622      1.0  0.88838  0.01220  0.82650  1.0000
  H   H623      1.0  0.98090  0.22736  0.64559  1.0000
  C   C532      1.0  0.89515  0.99912  0.80319  1.0000
  H   H624      1.0  0.86702  0.99634  0.73050  1.0000
  H   H625      1.0  0.91004  0.99370  0.82113  1.0000
  H   H626      1.0  0.91164  0.99323  0.67993  1.0000
  S   S145      1.0  0.83476  0.99326  0.64796  1.0000
  C   C533      1.0  0.98672  0.25745  0.61149  1.0000
  H   H627      1.0  0.97360  0.26270  0.48353  1.0000
  S   S146      1.0  0.98988  0.32798  0.35667  1.0000
  Fe  Fe72      1.0  0.87119  0.47257  0.39680  1.0000
  C   C534      1.0  0.98395  0.24896  0.48425  1.0000
  S   S147      1.0  0.89414  0.44827  0.35929  1.0000
  H   H628      1.0  0.75071  0.45430  0.46020  1.0000
  H   H629      1.0  0.98664  0.29699  0.25872  1.0000
  S   S148      1.0  0.83905  0.47940  0.36368  1.0000
  H   H630      1.0  0.85155  0.47417  0.24425  1.0000
  H   H631      1.0  0.78037  0.48476  0.36270  1.0000
  C   C535      1.0  0.97871  0.42279  0.52654  1.0000
  S   S149      1.0  0.95673  0.37426  0.44107  1.0000
  H   H632      1.0  0.91781  0.47784  0.20887  1.0000
  H   H633      1.0  0.86264  0.45620  0.19813  1.0000
  C   C536      1.0  0.76861  0.47935  0.49280  1.0000
  S   S150      1.0  0.79269  0.47165  0.46011  1.0000
  C   C537      1.0  0.91212  0.42846  0.38363  1.0000
  C   C538      1.0  0.92679  0.41881  0.34972  1.0000
  C   C539      1.0  0.94080  0.40258  0.36654  1.0000
  C   C540      1.0  0.94015  0.39543  0.41757  1.0000
  C   C541      1.0  0.92562  0.40521  0.45155  1.0000
  C   C542      1.0  0.91183  0.42165  0.43491  1.0000
  H   H634      1.0  0.92721  0.42378  0.30995  1.0000
  H   H635      1.0  0.95175  0.39529  0.33971  1.0000
  H   H636      1.0  0.92477  0.39983  0.49104  1.0000
  H   H637      1.0  0.90064  0.42870  0.46158  1.0000
  Fe  Fe73      1.0  0.82635  0.48475  0.44389  1.0000
  S   S151      1.0  0.85790  0.47491  0.47719  1.0000
  H   H638      1.0  0.90622  0.45719  0.24686  1.0000
  C   C543      1.0  0.86629  0.46592  0.23170  1.0000
  N   N37       1.0  0.88389  0.48077  0.21952  1.0000
  H   H639      1.0  0.71672  0.46362  0.50434  1.0000
  H   H640      1.0  0.87020  0.45484  0.26401  1.0000
  C   C544      1.0  0.90347  0.46778  0.21286  1.0000
  C   C545      1.0  0.73069  0.47288  0.51061  1.0000
  H   H641      1.0  0.97884  0.42233  0.56904  1.0000
  C   C546      1.0  0.75007  0.46764  0.48546  1.0000
  H   H642      1.0  0.96639  0.41150  0.51437  1.0000
  H   H643      1.0  0.98781  0.40734  0.43249  1.0000
  H   H644      1.0  0.77456  0.49012  0.29707  1.0000
  H   H645      1.0  0.97320  0.43881  0.51410  1.0000
  Fe  Fe74      1.0  0.98566  0.35437  0.41392  1.0000
  H   H646      1.0  0.89182  0.48520  0.29796  1.0000
  H   H647      1.0  0.90253  0.45739  0.17921  1.0000
  H   H648      1.0  0.72496  0.48795  0.79300  1.0000
  H   H649      1.0  0.69707  0.48266  0.79304  1.0000
  H   H650      1.0  0.96999  0.26105  0.60851  1.0000
  C   C547      1.0  0.72952  0.48990  0.54404  1.0000
  H   H651      1.0  0.71350  0.47372  0.74170  1.0000
  C   C548      1.0  0.71092  0.48712  0.76828  1.0000
  H   H652      1.0  0.70317  0.48958  0.31774  1.0000
  H   H653      1.0  0.90856  0.48953  0.13039  1.0000
  Fe  Fe75      1.0  0.66932  0.49167  0.58290  1.0000
  Fe  Fe76      1.0  0.86504  0.63273  0.95155  1.0000
  S   S152      1.0  0.87685  0.63983  0.02988  1.0000
  S   S153      1.0  0.88045  0.64135  0.87388  1.0000
  Fe  Fe77      1.0  0.82029  0.62262  0.99480  1.0000
  S   S154      1.0  0.82882  0.62873  0.07585  1.0000
  S   S155      1.0  0.78797  0.61448  0.96509  1.0000
  Fe  Fe78      1.0  0.84611  0.65710  0.04288  1.0000
  S   S156      1.0  0.84191  0.68801  0.08476  1.0000
  Fe  Fe79      1.0  0.85879  0.61077  0.05730  1.0000
  S   S157      1.0  0.87552  0.58871  0.11422  1.0000
  S   S158      1.0  0.83538  0.65225  0.96341  1.0000
  S   S159      1.0  0.84912  0.60239  0.97762  1.0000
  H   H654      1.0  0.91973  0.51527  0.71361  1.0000
  S   S160      1.0  0.69847  0.63871  0.06511  1.0000
  C   C549      1.0  0.88227  0.59845  0.62473  1.0000
  C   C550      1.0  0.91669  0.60826  0.65114  1.0000
  H   H655      1.0  0.86696  0.59066  0.63466  1.0000
  Fe  Fe80      1.0  0.84753  0.51388  0.36221  1.0000
  S   S161      1.0  0.83388  0.51948  0.44119  1.0000
  S   S162      1.0  0.83351  0.53325  0.29605  1.0000
  Fe  Fe81      1.0  0.86611  0.50963  0.46827  1.0000
  S   S163      1.0  0.88451  0.52452  0.53121  1.0000
  Fe  Fe82      1.0  0.97363  0.62267  0.66942  1.0000
  S   S164      1.0  0.95858  0.64554  0.61364  1.0000
  S   S165      1.0  0.96396  0.61240  0.75096  1.0000
  Fe  Fe83      1.0  0.96093  0.61861  0.55838  1.0000
  S   S166      1.0  0.93296  0.61183  0.50825  1.0000
  C   C551      1.0  0.89939  0.54764  0.51826  1.0000
  C   C552      1.0  0.91808  0.55069  0.54482  1.0000
  C   C553      1.0  0.92894  0.56999  0.54050  1.0000
  C   C554      1.0  0.92106  0.58656  0.50998  1.0000
  C   C555      1.0  0.90265  0.58334  0.48226  1.0000
  C   C556      1.0  0.89190  0.56390  0.48611  1.0000
  H   H656      1.0  0.92407  0.53814  0.56943  1.0000
  H   H657      1.0  0.94324  0.57206  0.56135  1.0000
  H   H658      1.0  0.89636  0.59611  0.45882  1.0000
  H   H659      1.0  0.87740  0.56177  0.46579  1.0000
  C   C557      1.0  0.83943  0.73125  0.07114  1.0000
  H   H660      1.0  0.76929  0.73022  0.93467  1.0000
  H   H661      1.0  0.98865  0.57468  0.79430  1.0000
  C   C558      1.0  0.71336  0.49739  0.34406  1.0000
  H   H662      1.0  0.92492  0.60085  0.61796  1.0000
  H   H663      1.0  0.90833  0.64266  0.37211  1.0000
  C   C559      1.0  0.68949  0.52440  0.81579  1.0000
  C   C560      1.0  0.90423  0.63345  0.84181  1.0000
  C   C561      1.0  0.91713  0.61698  0.86011  1.0000
  C   C562      1.0  0.93549  0.61091  0.83214  1.0000
  C   C563      1.0  0.94114  0.62120  0.78564  1.0000
  C   C564      1.0  0.92831  0.63775  0.76748  1.0000
  C   C565      1.0  0.90998  0.64380  0.79542  1.0000
  H   H664      1.0  0.91291  0.60888  0.89568  1.0000
  H   H665      1.0  0.94531  0.59813  0.84662  1.0000
  H   H666      1.0  0.93253  0.64593  0.73203  1.0000
  H   H667      1.0  0.90015  0.65661  0.78104  1.0000
  C   C566      1.0  0.86355  0.57397  0.16561  1.0000
  C   C567      1.0  0.87651  0.56264  0.19982  1.0000
  C   C568      1.0  0.86768  0.55076  0.24117  1.0000
  C   C569      1.0  0.84571  0.54962  0.24793  1.0000
  C   C570      1.0  0.83276  0.56107  0.21392  1.0000
  C   C571      1.0  0.84160  0.57332  0.17324  1.0000
  H   H668      1.0  0.89351  0.56306  0.19428  1.0000
  H   H669      1.0  0.87787  0.54228  0.26728  1.0000
  H   H670      1.0  0.81575  0.56032  0.21875  1.0000
  H   H671      1.0  0.83143  0.58194  0.14728  1.0000
  C   C572      1.0  0.84683  0.71205  0.05084  1.0000
  C   C573      1.0  0.77014  0.53192  0.30309  1.0000
  C   C574      1.0  0.85785  0.71232  0.00394  1.0000
  H   H672      1.0  0.68456  0.52120  0.68997  1.0000
  H   H673      1.0  0.86367  0.69764  0.98791  1.0000
  C   C575      1.0  0.76333  0.62096  0.99441  1.0000
  C   C576      1.0  0.76176  0.62881  0.04395  1.0000
  C   C577      1.0  0.74180  0.63427  0.06524  1.0000
  C   C578      1.0  0.72330  0.63178  0.03734  1.0000
  C   C579      1.0  0.72489  0.62388  0.98793  1.0000
  C   C580      1.0  0.74481  0.61846  0.96666  1.0000
  H   H674      1.0  0.77589  0.63055  0.06587  1.0000
  H   H675      1.0  0.74069  0.64028  0.10358  1.0000
  H   H676      1.0  0.71077  0.62181  0.96610  1.0000
  H   H677      1.0  0.74588  0.61235  0.92838  1.0000
  H   H678      1.0  0.72677  0.49642  0.67636  1.0000
  N   N38       1.0  0.88251  0.64761  0.20475  1.0000
  C   C581      1.0  0.88082  0.67091  0.21123  1.0000
  C   C582      1.0  0.89740  0.64376  0.16121  1.0000
  C   C583      1.0  0.86124  0.64000  0.19138  1.0000
  C   C584      1.0  0.89003  0.63596  0.25071  1.0000
  C   C585      1.0  0.89191  0.61354  0.25067  1.0000
  C   C586      1.0  0.89614  0.64624  0.29586  1.0000
  H   H679      1.0  0.98718  0.54274  0.71197  1.0000
  C   C587      1.0  0.90356  0.63461  0.33807  1.0000
  H   H680      1.0  0.67992  0.62850  0.24528  1.0000
  H   H681      1.0  0.89651  0.67798  0.21839  1.0000
  H   H682      1.0  0.87471  0.67908  0.17623  1.0000
  H   H683      1.0  0.86959  0.67492  0.24303  1.0000
  H   H684      1.0  0.91390  0.64774  0.17105  1.0000
  H   H685      1.0  0.89318  0.65342  0.12683  1.0000
  H   H686      1.0  0.89745  0.62692  0.14930  1.0000
  H   H687      1.0  0.84982  0.64149  0.22414  1.0000
  H   H688      1.0  0.85473  0.64914  0.15831  1.0000
  H   H689      1.0  0.86141  0.62312  0.18008  1.0000
  H   H690      1.0  0.90031  0.58492  0.29215  1.0000
  H   H691      1.0  0.89550  0.66323  0.29956  1.0000
  C   C588      1.0  0.76737  0.49655  0.52575  1.0000
  H   H692      1.0  0.76255  0.52527  0.26923  1.0000
  C   C589      1.0  0.88889  0.51182  0.09267  1.0000
  N   N39       1.0  0.78518  0.69576  0.98741  1.0000
  C   C590      1.0  0.78821  0.67509  0.01461  1.0000
  C   C591      1.0  0.80316  0.69858  0.95056  1.0000
  C   C592      1.0  0.78604  0.71256  0.02612  1.0000
  C   C593      1.0  0.76503  0.69730  0.95977  1.0000
  H   H693      1.0  0.79834  0.49989  0.32262  1.0000
  H   H694      1.0  0.67844  0.51144  0.81919  1.0000
  C   C594      1.0  0.86992  0.52322  0.09295  1.0000
  H   H695      1.0  0.71250  0.70223  0.88332  1.0000
  H   H696      1.0  0.80026  0.71070  0.05022  1.0000
  H   H697      1.0  0.78908  0.66169  0.98755  1.0000
  H   H698      1.0  0.80329  0.67448  0.03577  1.0000
  H   H699      1.0  0.77527  0.67202  0.04325  1.0000
  H   H700      1.0  0.80295  0.68640  0.92036  1.0000
  H   H701      1.0  0.81864  0.69709  0.96979  1.0000
  H   H702      1.0  0.80306  0.71442  0.93122  1.0000
  H   H703      1.0  0.79915  0.52997  0.37410  1.0000
  S   S167      1.0  0.66640  0.64490  0.93634  1.0000
  S   S168      1.0  0.70553  0.49742  0.57743  1.0000
  H   H704      1.0  0.90031  0.51442  0.06167  1.0000
  C   C595      1.0  0.73964  0.51692  0.41284  1.0000
  H   H705      1.0  0.76157  0.54682  0.31296  1.0000
  H   H706      1.0  0.66598  0.58187  0.75279  1.0000
  C   C596      1.0  0.97127  0.73264  0.49085  1.0000
  C   C597      1.0  0.88776  0.60594  0.71284  1.0000
  H   H707      1.0  0.92829  0.60920  0.68206  1.0000
  H   H708      1.0  0.87861  0.61539  0.61569  1.0000
  H   H709      1.0  0.89859  0.60570  0.74565  1.0000
  H   H710      1.0  0.88339  0.62286  0.70570  1.0000
  H   H711      1.0  0.87323  0.59735  0.72579  1.0000
  H   H712      1.0  0.84828  0.50529  0.20461  1.0000
  H   H713      1.0  0.77579  0.54170  0.40057  1.0000
  C   C598      1.0  0.85970  0.50613  0.17326  1.0000
  C   C599      1.0  0.69789  0.70233  0.01449  1.0000
  C   C600      1.0  0.74042  0.71824  0.90727  1.0000
  H   H714      1.0  0.69754  0.57147  0.87283  1.0000
  C   C601      1.0  0.75098  0.67995  0.95608  1.0000
  C   C602      1.0  0.71865  0.51231  0.42664  1.0000
  H   H715      1.0  0.86671  0.53475  0.06271  1.0000
  H   H716      1.0  0.92389  0.73720  0.65949  1.0000
  H   H717      1.0  0.96567  0.70049  0.51900  1.0000
  C   C603      1.0  0.71240  0.71395  0.04132  1.0000
  H   H718      1.0  0.74746  0.51490  0.57686  1.0000
  C   C604      1.0  0.73425  0.50216  0.32958  1.0000
  H   H719      1.0  0.66120  0.66012  0.20842  1.0000
  C   C605      1.0  0.68703  0.54079  0.85052  1.0000
  N   N40       1.0  0.70755  0.50749  0.74011  1.0000
  H   H720      1.0  0.68818  0.62368  0.18016  1.0000
  H   H721      1.0  0.68948  0.49852  0.40408  1.0000
  C   C606      1.0  0.97693  0.71326  0.51561  1.0000
  C   C607      1.0  0.72703  0.70091  0.90439  1.0000
  H   H722      1.0  0.71258  0.51596  0.46463  1.0000
  C   C608      1.0  0.78274  0.52639  0.38786  1.0000
  S   S169      1.0  0.97355  0.59544  0.61582  1.0000
  C   C609      1.0  0.72543  0.51009  0.70262  1.0000
  H   H723      1.0  0.88270  0.55819  0.62514  1.0000
  C   C610      1.0  0.88679  0.49454  0.26380  1.0000
  N   N41       1.0  0.89752  0.59617  0.66685  1.0000
  C   C611      1.0  0.89419  0.55635  0.65484  1.0000
  H   H724      1.0  0.95880  0.71909  0.65605  1.0000
  H   H725      1.0  0.88884  0.59156  0.58879  1.0000
  C   C612      1.0  0.90338  0.57388  0.67905  1.0000
  C   C613      1.0  0.68789  0.50604  0.71079  1.0000
  C   C614      1.0  0.74810  0.51198  0.36362  1.0000
  C   C615      1.0  0.91854  0.56916  0.71692  1.0000
  H   H726      1.0  0.91285  0.62492  0.63961  1.0000
  H   H727      1.0  0.89325  0.52248  0.64718  1.0000
  H   H728      1.0  0.92604  0.58164  0.73738  1.0000
  H   H729      1.0  0.73088  0.54535  0.74529  1.0000
  C   C616      1.0  0.90014  0.53552  0.66731  1.0000
  C   C617      1.0  0.92430  0.54826  0.72929  1.0000
  C   C618      1.0  0.91516  0.53147  0.70437  1.0000
  S   S170      1.0  0.88047  0.50707  0.38947  1.0000
  C   C619      1.0  0.89916  0.60207  0.29315  1.0000
  C   C620      1.0  0.70541  0.52504  0.77660  1.0000
  H   H730      1.0  0.93588  0.54512  0.75837  1.0000
  C   C621      1.0  0.68387  0.71277  0.98217  1.0000
  Fe  Fe84      1.0  0.66907  0.63466  0.01816  1.0000
  H   H731      1.0  0.67622  0.60298  0.21787  1.0000
  H   H732      1.0  0.72566  0.57360  0.80587  1.0000
  H   H733      1.0  0.69750  0.68518  0.01867  1.0000
  H   H734      1.0  0.67379  0.50236  0.73550  1.0000
  C   C622      1.0  0.90505  0.61259  0.33672  1.0000
  H   H735      1.0  0.91093  0.60369  0.36945  1.0000
  H   H736      1.0  0.95566  0.73445  0.47531  1.0000
  C   C623      1.0  0.73231  0.68182  0.92875  1.0000
  H   H737      1.0  0.72317  0.52431  0.67732  1.0000
  H   H738      1.0  0.87052  0.73177  0.94197  1.0000
  H   H739      1.0  0.78713  0.72872  0.00863  1.0000
  C   C624      1.0  0.71851  0.54326  0.77401  1.0000
  H   H740      1.0  0.88793  0.60473  0.21740  1.0000
  H   H741      1.0  0.75406  0.66463  0.97352  1.0000
  H   H742      1.0  0.68912  0.49337  0.68193  1.0000
  H   H743      1.0  0.78420  0.51542  0.42155  1.0000
  C   C625      1.0  0.89342  0.49753  0.13266  1.0000
  C   C626      1.0  0.86170  0.73168  0.97792  1.0000
  C   C627      1.0  0.75919  0.71650  0.93436  1.0000
  H   H744      1.0  0.78656  0.53628  0.29059  1.0000
  H   H745      1.0  0.74897  0.52395  0.44190  1.0000
  H   H746      1.0  0.72326  0.70570  0.06641  1.0000
  C   C628      1.0  0.71573  0.55969  0.80871  1.0000
  H   H747      1.0  0.77188  0.71204  0.05215  1.0000
  H   H748      1.0  0.83086  0.73116  0.10740  1.0000
  C   C629      1.0  0.70001  0.55847  0.84679  1.0000
  N   N42       1.0  0.77016  0.51681  0.34726  1.0000
  C   C630      1.0  0.70559  0.50244  0.39255  1.0000
  H   H749      1.0  0.98019  0.57030  0.70948  1.0000
  H   H750      1.0  0.73956  0.49791  0.29161  1.0000
  C   C631      1.0  0.67559  0.62033  0.20983  1.0000
  H   H751      1.0  0.72188  0.66831  0.92650  1.0000
  H   H752      1.0  0.78140  0.50570  0.53220  1.0000
  H   H753      1.0  0.73632  0.73301  0.88790  1.0000
  H   H754      1.0  0.67254  0.70363  0.96142  1.0000
  H   H755      1.0  0.66092  0.61829  0.11458  1.0000
  C   C632      1.0  0.95732  0.73558  0.64397  1.0000
  H   H756      1.0  0.74086  0.51115  0.72192  1.0000
  C   C633      1.0  0.74804  0.50167  0.55129  1.0000
  H   H757      1.0  0.67449  0.54017  0.87950  1.0000
  H   H758      1.0  0.84070  0.52940  0.13344  1.0000
  H   H759      1.0  0.87195  0.50308  0.27480  1.0000
  H   H760      1.0  0.89912  0.50669  0.25547  1.0000
  C   C634      1.0  0.68395  0.73490  0.97722  1.0000
  C   C635      1.0  0.71269  0.73609  0.03655  1.0000
  C   C636      1.0  0.87892  0.49433  0.17446  1.0000
  C   C637      1.0  0.85526  0.52019  0.13286  1.0000
  H   H761      1.0  0.66816  0.65251  0.14492  1.0000
  C   C638      1.0  0.78126  0.49707  0.33163  1.0000
  H   H762      1.0  0.67220  0.74188  0.95262  1.0000
  H   H763      1.0  0.99027  0.73832  0.62419  1.0000
  Fe  Fe85      1.0  0.85828  0.84730  0.04460  1.0000
  S   S171      1.0  0.86749  0.83589  0.96599  1.0000
  S   S172      1.0  0.88377  0.86283  0.09190  1.0000
  Fe  Fe86      1.0  0.81230  0.83421  0.03216  1.0000
  S   S173      1.0  0.81847  0.82151  0.95403  1.0000
  S   S174      1.0  0.78001  0.83158  0.07168  1.0000
  Fe  Fe87      1.0  0.84785  0.80729  0.98720  1.0000
  S   S175      1.0  0.86048  0.77483  0.96495  1.0000
  Fe  Fe88      1.0  0.83742  0.85125  0.93889  1.0000
  S   S176      1.0  0.83247  0.86546  0.85863  1.0000
  S   S177      1.0  0.84055  0.81771  0.06713  1.0000
  S   S178      1.0  0.82930  0.86494  0.01589  1.0000
  C   C639      1.0  0.72203  0.97934  0.52623  1.0000
  C   C640      1.0  0.97510  0.74648  0.62596  1.0000
  S   S179      1.0  0.69600  0.84647  0.94655  1.0000
  Fe  Fe89      1.0  0.95736  0.83649  0.34507  1.0000
  S   S180      1.0  0.94865  0.82296  0.42249  1.0000
  S   S181      1.0  0.93096  0.82780  0.29053  1.0000
  Fe  Fe90      1.0  0.96151  0.85233  0.45500  1.0000
  S   S182      1.0  0.94360  0.86548  0.52353  1.0000
  H   H764      1.0  0.70468  0.77459  0.08214  1.0000
  H   H765      1.0  0.74908  0.88967  0.98858  1.0000
  Fe  Fe91      1.0  0.66809  0.97850  0.42214  1.0000
  Fe  Fe92      1.0  0.85217  0.96248  0.66205  1.0000
  S   S183      1.0  0.83475  0.94545  0.60156  1.0000
  S   S184      1.0  0.85726  0.95290  0.74565  1.0000
  Fe  Fe93      1.0  0.81850  0.97675  0.58397  1.0000
  Fe  Fe94      1.0  0.86089  0.95742  0.54871  1.0000
  S   S185      1.0  0.87623  0.93886  0.48437  1.0000
  S   S186      1.0  0.87976  0.97192  0.61045  1.0000
  H   H766      1.0  0.68638  0.77450  0.92565  1.0000
  C   C641      1.0  0.95359  0.77846  0.60968  1.0000
  C   C642      1.0  0.73939  0.97873  0.55955  1.0000
  C   C643      1.0  0.85428  0.75088  0.99805  1.0000
  C   C644      1.0  0.92619  0.88717  0.51341  1.0000
  C   C645      1.0  0.92413  0.89652  0.46490  1.0000
  C   C646      1.0  0.90935  0.91298  0.45706  1.0000
  C   C647      1.0  0.89644  0.92017  0.49754  1.0000
  C   C648      1.0  0.89894  0.91132  0.54650  1.0000
  C   C649      1.0  0.91377  0.89483  0.55435  1.0000
  H   H767      1.0  0.93375  0.89086  0.43336  1.0000
  H   H768      1.0  0.90764  0.91999  0.41936  1.0000
  H   H769      1.0  0.88906  0.91676  0.57797  1.0000
  H   H770      1.0  0.91535  0.88776  0.59207  1.0000
  H   H771      1.0  0.76833  0.88202  0.14341  1.0000
  H   H772      1.0  0.95199  0.81314  0.66678  1.0000
  C   C650      1.0  0.84098  0.88936  0.82755  1.0000
  C   C651      1.0  0.85008  0.90588  0.85397  1.0000
  C   C652      1.0  0.85518  0.92511  0.82818  1.0000
  C   C653      1.0  0.85143  0.92800  0.77570  1.0000
  C   C654      1.0  0.84265  0.91137  0.74909  1.0000
  C   C655      1.0  0.83735  0.89224  0.77498  1.0000
  H   H773      1.0  0.85287  0.90395  0.89440  1.0000
  H   H774      1.0  0.86196  0.93784  0.84918  1.0000
  H   H775      1.0  0.83985  0.91325  0.70869  1.0000
  H   H776      1.0  0.83025  0.87959  0.75426  1.0000
  C   C656      1.0  0.89666  0.85295  0.14733  1.0000
  C   C657      1.0  0.89007  0.83448  0.17318  1.0000
  C   C658      1.0  0.90094  0.82697  0.21647  1.0000
  C   C659      1.0  0.91832  0.83800  0.23507  1.0000
  C   C660      1.0  0.92472  0.85668  0.20973  1.0000
  C   C661      1.0  0.91396  0.86406  0.16607  1.0000
  H   H777      1.0  0.87646  0.82613  0.16006  1.0000
  H   H778      1.0  0.89578  0.81255  0.23589  1.0000
  H   H779      1.0  0.93807  0.86532  0.22343  1.0000
  H   H780      1.0  0.91915  0.87842  0.14645  1.0000
  C   C662      1.0  0.75681  0.83474  0.03581  1.0000
  C   C663      1.0  0.73695  0.83254  0.06052  1.0000
  C   C664      1.0  0.71819  0.83587  0.03349  1.0000
  C   C665      1.0  0.71914  0.84149  0.98156  1.0000
  C   C666      1.0  0.73898  0.84333  0.95666  1.0000
  C   C667      1.0  0.75775  0.83995  0.98362  1.0000
  H   H781      1.0  0.73613  0.82862  0.10093  1.0000
  H   H782      1.0  0.70305  0.83441  0.05294  1.0000
  H   H783      1.0  0.73986  0.84761  0.91644  1.0000
  H   H784      1.0  0.77295  0.84174  0.96421  1.0000
  H   H785      1.0  0.88206  0.79250  0.12595  1.0000
  H   H786      1.0  0.91895  0.80995  0.01837  1.0000
  H   H787      1.0  0.77735  0.88483  0.05140  1.0000
  H   H788      1.0  0.83697  0.76527  0.06029  1.0000
  C   C668      1.0  0.94192  0.81392  0.63247  1.0000
  H   H789      1.0  0.96321  0.79731  0.22292  1.0000
  C   C669      1.0  0.93440  0.80871  0.11752  1.0000
  H   H790      1.0  0.92573  0.80897  0.64456  1.0000
  H   H791      1.0  0.67723  0.77319  0.06681  1.0000
  H   H792      1.0  0.70027  0.86836  0.18577  1.0000
  C   C670      1.0  0.76048  0.97798  0.54066  1.0000
  C   C671      1.0  0.84289  0.75058  0.04454  1.0000
  H   H793      1.0  0.66660  0.77625  0.97659  1.0000
  H   H794      1.0  0.98286  0.81092  0.60455  1.0000
  H   H795      1.0  0.94508  0.76308  0.21534  1.0000
  N   N43       1.0  0.88551  0.87830  0.34009  1.0000
  C   C672      1.0  0.87341  0.89816  0.32966  1.0000
  C   C673      1.0  0.90799  0.88247  0.32596  1.0000
  C   C674      1.0  0.87744  0.86180  0.30630  1.0000
  C   C675      1.0  0.88378  0.87074  0.39397  1.0000
  C   C676      1.0  0.87105  0.88114  0.43154  1.0000
  C   C677      1.0  0.89509  0.85236  0.41029  1.0000
  C   C678      1.0  0.87027  0.87382  0.48232  1.0000
  C   C679      1.0  0.89423  0.84524  0.46119  1.0000
  C   C680      1.0  0.88195  0.85602  0.49721  1.0000
  H   H796      1.0  0.87897  0.91138  0.35341  1.0000
  H   H797      1.0  0.87523  0.90350  0.28897  1.0000
  H   H798      1.0  0.85616  0.89599  0.33723  1.0000
  H   H799      1.0  0.90985  0.88842  0.28579  1.0000
  H   H800      1.0  0.91807  0.86801  0.32879  1.0000
  H   H801      1.0  0.91483  0.89440  0.35129  1.0000
  H   H802      1.0  0.86059  0.85815  0.31568  1.0000
  H   H803      1.0  0.87863  0.86675  0.26520  1.0000
  H   H804      1.0  0.88650  0.84669  0.30990  1.0000
  H   H805      1.0  0.86219  0.89548  0.42342  1.0000
  H   H806      1.0  0.90501  0.84351  0.38392  1.0000
  H   H807      1.0  0.86121  0.88257  0.51071  1.0000
  H   H808      1.0  0.90356  0.83159  0.47294  1.0000
  H   H809      1.0  0.88189  0.85091  0.53696  1.0000
  C   C681      1.0  0.93771  0.74580  0.64562  1.0000
  H   H810      1.0  0.94059  0.83092  0.62002  1.0000
  C   C682      1.0  0.95260  0.79489  0.19163  1.0000
  C   C683      1.0  0.68322  0.78007  0.96512  1.0000
  H   H811      1.0  0.89753  0.97439  0.71999  1.0000
  H   H812      1.0  0.92012  0.75770  0.14691  1.0000
  C   C684      1.0  0.94222  0.77568  0.18749  1.0000
  H   H813      1.0  0.94260  0.79118  0.51602  1.0000
  H   H814      1.0  0.73198  0.77478  0.01501  1.0000
  C   C685      1.0  0.92340  0.78934  0.11242  1.0000
  H   H815      1.0  0.97837  0.80218  0.54034  1.0000
  H   H816      1.0  0.92039  0.79575  0.55827  1.0000
  H   H817      1.0  0.67443  0.86720  0.16154  1.0000
  C   C686      1.0  0.91447  0.76850  0.03927  1.0000
  H   H818      1.0  0.98772  0.77465  0.59341  1.0000
  C   C687      1.0  0.94888  0.81126  0.15643  1.0000
  H   H819      1.0  0.67491  0.90711  0.16209  1.0000
  C   C688      1.0  0.92791  0.77283  0.14835  1.0000
  H   H820      1.0  0.88706  0.76479  0.11641  1.0000
  H   H821      1.0  0.92023  0.77408  0.63041  1.0000
  N   N44       1.0  0.69849  0.77078  0.00183  1.0000
  C   C689      1.0  0.90417  0.80510  0.03914  1.0000
  S   S187      1.0  0.84373  0.98776  0.52712  1.0000
  H   H822      1.0  0.88403  0.98548  0.80651  1.0000
  N   N45       1.0  0.78147  0.93638  0.71371  1.0000
  C   C690      1.0  0.76033  0.94627  0.70675  1.0000
  C   C691      1.0  0.79695  0.95377  0.71811  1.0000
  C   C692      1.0  0.78737  0.92451  0.66708  1.0000
  C   C693      1.0  0.78082  0.92168  0.75862  1.0000
  C   C694      1.0  0.76700  0.90403  0.75984  1.0000
  C   C695      1.0  0.79376  0.92414  0.80177  1.0000
  C   C696      1.0  0.76658  0.88951  0.80099  1.0000
  C   C697      1.0  0.79307  0.90959  0.84283  1.0000
  C   C698      1.0  0.77974  0.89219  0.84218  1.0000
  H   H823      1.0  0.74807  0.93448  0.69811  1.0000
  H   H824      1.0  0.75502  0.95476  0.74167  1.0000
  H   H825      1.0  0.76048  0.95798  0.67420  1.0000
  H   H826      1.0  0.79325  0.96382  0.75158  1.0000
  H   H827      1.0  0.79702  0.96455  0.68387  1.0000
  H   H828      1.0  0.81337  0.94748  0.72127  1.0000
  H   H829      1.0  0.80292  0.91630  0.67145  1.0000
  H   H830      1.0  0.77556  0.91234  0.65798  1.0000
  H   H831      1.0  0.78862  0.93523  0.63272  1.0000
  H   H832      1.0  0.75665  0.90115  0.72858  1.0000
  H   H833      1.0  0.80507  0.93677  0.80427  1.0000
  H   H834      1.0  0.75626  0.87588  0.80069  1.0000
  H   H835      1.0  0.80361  0.91130  0.87454  1.0000
  H   H836      1.0  0.77997  0.88055  0.87328  1.0000
  N   N46       1.0  0.69562  0.88729  0.11663  1.0000
  C   C699      1.0  0.69144  0.86829  0.14968  1.0000
  C   C700      1.0  0.69153  0.90651  0.14707  1.0000
  C   C701      1.0  0.68014  0.88721  0.07484  1.0000
  C   C702      1.0  0.71793  0.88720  0.09794  1.0000
  C   C703      1.0  0.73467  0.88520  0.13300  1.0000
  C   C704      1.0  0.72377  0.88929  0.04524  1.0000
  C   C705      1.0  0.75582  0.88444  0.11623  1.0000
  C   C706      1.0  0.74500  0.88881  0.02902  1.0000
  C   C707      1.0  0.76097  0.88616  0.06434  1.0000
  H   H837      1.0  0.90302  0.76596  0.00822  1.0000
  H   H838      1.0  0.96872  0.82738  0.56043  1.0000
  H   H839      1.0  0.69567  0.85349  0.12940  1.0000
  H   H840      1.0  0.70179  0.90716  0.18086  1.0000
  C   C708      1.0  0.93649  0.80136  0.54750  1.0000
  H   H841      1.0  0.69429  0.92120  0.12367  1.0000
  H   H842      1.0  0.93018  0.77184  0.02085  1.0000
  H   H843      1.0  0.68103  0.90187  0.05060  1.0000
  H   H844      1.0  0.68257  0.87318  0.05014  1.0000
  H   H845      1.0  0.73152  0.88392  0.17366  1.0000
  H   H846      1.0  0.71227  0.89068  0.01548  1.0000
  S   S188      1.0  0.96796  0.86743  0.37765  1.0000
  H   H847      1.0  0.68400  0.79773  0.96333  1.0000
  C   C709      1.0  0.72542  0.97937  0.47314  1.0000
  S   S189      1.0  0.70436  0.98351  0.42873  1.0000
  C   C710      1.0  0.88689  0.78062  0.09710  1.0000
  S   S190      1.0  0.97733  0.77405  0.45557  1.0000
  H   H848      1.0  0.72008  0.79598  0.98033  1.0000
  H   H849      1.0  0.69200  0.79676  0.05219  1.0000
  N   N47       1.0  0.95102  0.80067  0.59112  1.0000
  H   H850      1.0  0.87414  0.78017  0.06868  1.0000
  C   C711      1.0  0.98556  0.74965  0.48619  1.0000
  H   H851      1.0  0.66355  0.88645  0.08993  1.0000
  C   C712      1.0  0.74652  0.97836  0.45435  1.0000
  C   C713      1.0  0.76387  0.97759  0.48764  1.0000
  S   S191      1.0  0.78176  0.97831  0.58507  1.0000
  C   C714      1.0  0.93581  0.76692  0.62888  1.0000
  H   H852      1.0  0.89787  0.81878  0.06124  1.0000
  N   N48       1.0  0.90757  0.78612  0.07258  1.0000
  H   H853      1.0  0.72519  0.77134  0.94931  1.0000
  C   C715      1.0  0.71986  0.77842  0.98602  1.0000
  C   C716      1.0  0.97118  0.81062  0.57350  1.0000
  H   H854      1.0  0.91572  0.75315  0.06053  1.0000
  C   C717      1.0  0.69294  0.77915  0.05295  1.0000
  H   H855      1.0  0.95666  0.82635  0.16062  1.0000
  Fe  Fe95      1.0  0.98128  0.80888  0.42688  1.0000
  H   H856      1.0  0.89247  0.80195  0.00920  1.0000
  H   H857      1.0  0.73641  0.97911  0.60035  1.0000
  C   C718      1.0  0.97337  0.76753  0.60862  1.0000
  H   H858      1.0  0.93172  0.82239  0.09294  1.0000
  H   H859      1.0  0.93466  0.81779  0.53167  1.0000
  Fe  Fe96      1.0  0.66288  0.84226  0.98037  1.0000
  H   H860      1.0  0.77987  0.97704  0.47217  1.0000
  C   C719      1.0  0.69838  0.74729  0.00454  1.0000
  H   H861      1.0  0.70604  0.98034  0.54165  1.0000
  S   S192      1.0  0.98980  0.82131  0.34728  1.0000
  H   H862      1.0  0.74955  0.97822  0.41355  1.0000
  H   H863      1.0  0.92320  0.98257  0.73698  1.0000
  C   C720      1.0  0.90819  0.98837  0.72036  1.0000
  H   H864      1.0  0.72393  0.74445  0.05892  1.0000
