data_image0
_chemical_formula_structural       H2CH5CH5CHCH3C3FeS2FeS2FeCFeS4HCNCNC6H4C6H6CHC2H2NC5SC2H3C7H4CH2C2HCH2C2H2C2SCHSCH3SH2CH2C3HCFeC2H3CH2CH2C3SH2CH3CHC2HSH2C3HNC2HC2SCHSH2CHCHCH3FeHSCHNC9H12CH2SH10CNCH2C2H3CH3CSC3H6Fe2S2FeS3H2NHCH2FeSFe2HSHCFeS3FeS2FeSHFeSFeS3FeS2FeS2FeSFeS2C2H2FeS2CFeSHSC2H3CHC3HC2HCFeCHCHC2H3C8H4C6H4SC2H2CH2C2FeH2C3HFeHC8HSHCH3C6H4CH2C3SH3C2H2C2H2CHC2HSCHC5HC2HSC2H6CH2C4H2CH3SH2C2HCHC2H2CHCH2CH2NC7H5CH2CH4CHC4H2CHCHCH3NHNH2FeCHCHCH2C5NHCHCSHC3HCHCH2NSHNH2CHCH3CH7C3SHC4HSC2H2CH4CH2SCH3NH2CHCH2SH2C2H3CH2CH5SCH2CH5FeCNC2HCH2C3H3C2FeS2CHCH2CS2CHC2HSCHSFeSFeSCHCFeS2FeSHFeSFeS2CHCH4C2HC3SH3CHC2HCH3C3HC4NH3C6H4C2H5C2HSHCNHC8H3C2NC5FeCH2CH2CNC5HCHCHNH2CHC2H2CH3CH5CHC2H8CH3FeHCHCHCNCNHCSCSH4CH3CHFeCH3CHNH2C2H10CH3CH2C4H3SCH8CS2HCSCH2SHCHSC3HFeCHSFeS2CSFeNFeHS2HCHFeHSHCH2FeS2FeS2HSFeS2FeCSHFeS2HC2H2S2C4HCSH3SC6H4C6H8CHCHCHFe2C7FeH5CFeHC6H3C5SCFeC2H4C4H4C4H4SHCHNSH3C2SH2CHFeCH5CHC2H5C3HFeC2HSCHCHC2H2FeHC2HCH2CH2CH3SFeH2C2HCNC2H5NCH2CH2CH3CH2NC3H2C3HSCSH4CHC4HNHCH7CH2C3HC3FeSFeCSHCS2FeS2FeS2FeSFeS3C4H2C2FeSFeS2FeSFeS3FeS2FeS2FeSFeS3H3CHC6H4CH2C7H4CH2C2H3CHCHCHCHC4H4C4H2SC6H4C3H4C3SH2CH2C2NC8H4NH6NC8SH11CH6C2HCHCHC3H5CH4CH3FeC2H7C2HC2NCHC2NC3SHC7HC2H2NH9C2FeCH4CH2CHCHFeHCFeCNHC2HC2H2CH4CNH2CH2C2HCH2CNCH2C3NSH4SCSCHCNHCFeH6C4H4SCHCHFeH2NH3C3H2C3H3SH3CH3C3H2CH2CH3CH2SCH4CH3SHCHCFeSH2C3SHS2CSHSCFeSHSHSHFeS2FeS2FeSFeS2C2FeSFeS2HCSFeHFeS3H2C6H3C2H3C2HCHC2HC6H4FeC4H2C4SC3FeH4C6H4NCNC2HC2HCHSHCNSFeH5SFeC3FeHCH2C2HNHFeCH2CHCH3SHC2HC3HCHSHC2H2SH3CHSH4NC9H14NC9H13FeCH2C2HCHCH2CH3CHCFeSHFeCH2C2H3SCH2CH2CH3SH4C4H2CHC2SFeHCH3CNC2HCHNHC3SC2SH2SCFeSH2CFeHFeS2FeSHFeSFeS3FeS2FeS2FeSFeS3C6H5CHC2H3C3H3C5H3C4H3C5H3C7H5NC5H3C6H3CH2CHCHC4H4C8H2FeH5CNC3HC2SH5CH3SH2CNHCH3C2H5CH2CNC2H2CHCHC2H4FeH4CH3CNC9H16CH2NCHS2C2HNC8H7CH2C2HCH2C2NH4CHCHCHCSHCHC3H3C2NC4HCH3CH7CH2CNHC2SH3C3FeS2FeS2FeSFeS3CHS2FeS2FeS2FeSFeS3H2CHCHCH4C2HCHC6H4C6H4C6H4C6H4C2H4SFeSCSH2NC8H13CH2C2HNC6HCSNC6H2CH9FeH5C2HCHSCH2CH4C2HFeH3CH2C3NH2CH3CH3C2HCHC2HSC4HNHNH2SHC3HCHCHCH2CH4CH4C3HCFeHSH2CHCHCHCH2CHNHSH4CHFeH2CSCH2CH2C4SHCFeSNFeS2Fe2S3H2SCHSH2CFeS2H3SFeS2FeSFeSFeS3CFeS2FeS2FeSFeSHCHCFeC3H2CHC4H2C7H5CSCSCHC3H4C6H4C6H5CHSC4H5CSC5H2CH8NHCNH3C8HCNC3FeH5CH2NHCH5C3HC2H7FeCH5C2SFeH5CH2NC9H16FeH3CHCHCH2CSCHCHC2H2CNC9H15C2SH2C4HSCHCFeHCSHNSCSC2HCNCH2C2H5CH3CH4C2H2CHSH2FeCNHCHCHSCS2FeCSFeS2HCHSCSFeCSHS2FeSFeS2FeS2FeSFeS3HSCFeS2Fe2SHC2FeHC2H2FeC3HC2NCH2C3H5C3H3CH2C5H2C6H3C6H5CH6C4FeHCH2CHC2H4SH2CSH2C6H4SHCSCSHCHC2SC2HSCHCHC3NC5HCH4CH2NC2H2C2HNC3H5C2H2CHCHFeH4CH2CH3CH4CH3C2HCH5CHFeHCH4C3HCH4NC2NC6H3C2H2NH6NHCHCHCH4CS2C2H2C2H2C2HC4H3NH3FeH2C2H2SHCH3SHCHFeSHFeS2FeS2FeSFeS3FeS2HSFeS2FeSH3FeSFeSCHFeS2FeS2FeSFeS3C3H2FeCH2FeH2C7HCH2C7H3C6H4C6H4C6H4C6SH5CH2C3HNHC3H4CH2SH2SH2SHCHC2H3SHSH2CH2C2H2CNH2C8H2C2H6C2N2C9H14NC8H11C2HSHCHC2HC2H3SCFeH2CH2C3H2C8HCNHSHSC2H3CH6NH2C3H7CHC2H5CHC3HCH3C3NH4CHCSC3HFe2H2FeS2FeSFeCS3H2C2H2CSC3H2FeCSFeSHFeSHS2FeSCFeS2FeSFeCS2C6H5CH2SCSCSCH7CH2C2H2C7HCH2C6H5CH2C4H2C2H2CH3CH4C2H2C2H3CH3NH3CH6C3HCSCHC4NCNC2H2C3H2SHSH3CNCHSH4FeCH7CH2C2SFeSCHSC3H4CH2C4SH5CH5SCH2CH2FeH2C3HC2HC3FeCHC2HNSC2SFeS2HSFeSFeSNSHFeSHCSCH2SCFeSFeSCFeCH2C2SCNFeS2FeS2FeSFeS3C4NCHSC2SH2CHCH5SC7HSH2FeHSC5SH6CHC3HNCSC2HC6H4CHNHCHC6H4CH2SCH3C2HCH2C2H6CHSCHCHC4HCFeCHC2H2C4H5C2HC2H3C2H2FeHSH2C2NCH2CH2CH2CH3CH4FeCH3C4HCHCH3C3H2C4FeCH2CHCHCHC2H2CH5SHC2SNCFeCH3C3HCHCH2C2HSH2C2H4C3H3CH5C3H5C3H2C2H2CHCH3CHCH5CHNSFeS2FeS2FeSFeS3FeHFeHSFeS2HSH2SCNCSCHC2HCHFeS2H2SCS2CH3S3C2H5CHSCFe2CHCHCHC4HFeCHC6H3C6H4C6H4C6H4NCSC2HCHC2H9NHSHFeCHNCHC2HCHCHCSCFeH3C2HCHNCSHCFeSCHCHFeH2CH2CNH3C2H2CHCHCH5CNH3FeH2CH2CHSC3HCH2C2HCHCH5CHCH2CH2SCHC2H5CHCSH2C2HCH2CH5CHFeNFeH3SCH3CHSC2H2C2NHFeHSC2SC2HFeHSFeS2HSCHCSFeS2HSHFeS2FeSHFeSFeS3FeHFeS2FeSFeS3C6H5C2H2CNH3C6H4C3H2C6H4C6H4C6H4FeCH2C2FeNC9H14C3FeHCSFeH2NCH2C3H10NHC2H11C3H3CH2CH2C2HCNH3C3HC5HSCHFeC5SHSH2CSHSHCSHCH2C3FeSH2CHCH6CSCHCSCHC2H2CFeC2HC2SHCH2SHCH5CHC3SCFeCHCH5C2HCH2CHCHSH7CH3CHC2HCH2C3SH2FeS3FeSCSHC4FeSCSCHCHFeS2FeS2Fe2S3FeS2FeS2FeSFeS3H3SHCHSH3C6H5SC2H3CHC6H5C4H4CHSC3HC3HC2H4C4NCH3C2NC9H13CHCNHFeHCH3C3H4C2H4CSHC4HCH3CH9CHCH3CHCFeCSCH2CHCHCH3CNCHFeNH3CH2CHNC9H15CHCH3C3H5CHCH2CHCH3CSCH2C2HCHSC2NHSC3SNCH3FeC4HC2H2SH3SFeS2FeS2FeSFeS3NHCH2SH4CSFeS2FeS2FeSFeS2HFeCHC2HC2HCH2NSC3H3CH2C6H2CHC3NSCHCH2SC4H4CHC6H4C6H4C6H4C6H4SC3H2SH3C2SC4H3CHC2H3CHC2HC2H2CH2NC7H15C2H2NHC3HC2HCHCH6C2HNC9H14SHCHCH2C3HCH3CNC9H15CH4CH2CH2CHCHCSCHC2H6CSCHCSCNH3C2HCH7C2HCHFeS2FeS2FeSFeS5H2FeS2FeHSFeS2FeS2HS2CH2C2HCHC4HNHC3HCHC3H2CHC2HSC2H2C6H4C7H3C3HCH3FeH3CHC2HSCHC2H3CHCH2NC2HCHC5HC2H2CH2CH5C3FeH2NH2NHSCFeC2H3SHCSHS2CH6NC2H2CH7NHCHC5HC2HCHC2H6FeNC6H14SH2FeH3C4HC4HCH2C2HCH3C3HC5H3CFeCHC2H4CH2CHFeS2FeS2FeSCS3HFeSCFeNSFeS2FeSH2S2HFeS2FeS2FeSFeS3HCH3C7H3C2FeCHFeCHCHC6H4C6H4C6H4C6H4SC2H2C2H2C3H2C2H3CH3CHC2SN2C2NH7CH3CHCHCH3CHC3H4CSNH3C2SHCH2C2H2C2HCHC2H2FeH2CH2C4HC3H5NHC5NSHCHCH2C4FeSFeH3CHNC8H14C2H2NHCHCHFeHCHCH5CH4C2H2CHCH2CHCH2C2NCHC2SH2CH2NHC2HC2H2CSH4CSH3CH6CH4C4HCFe2CFeS2H3FeCHSHCSHFeS2Fe2SCH2FeSHFeS2FeSFeS3FeS2FeS2FeSFeCS2CSH3C6H5SNCH2CH3CHCH3C7H5SC2H2C4H3C2H5CHC7H5NH5CHSHNC7HCH10C2H2CHC2HC6HC2H3C2HCHCH3CSCNFeCH2SH2CSCSC4NC9H14NC9H11CH2CHC2HFeSC2SHC3H8NCH2CHCHCH6C2HCSH2CHCH3SH2CHCH2C3SHCNH4C3H2CH3C4HSH2CHFeH2CH2CH3CHFeC2HSFeCSHSH2CHCSFeCHFeHSFeS3FeS2FeS2FeHFeS3HSHC2SCHFeSHSH3CHC6H4SC2HCH2C6H4C6H6C2HC3H2C6H4CS2NHCH2C3H2C6H5C2HCHS2C3H6C3SC2HC3HCSH4CHSNCHNH2C2H2CHC5SH2CFeH3CH3NC4SC4H2CH2CSHCH2CHC2H2CSNH6C4SC3HC2HCHC2HCNCH5Fe2H2FeHFeHNHFeH9C3HC2H3NH4CHC6HSCH3CH5CHCH3CS2H9SHCH2SHFeSFeS2FeS2HFeSHSFeS2FeSHFeSHSH2SFeS2FeHFeSFeS3HCSHFeCNC6H4C6H6CSHC6H4C6H4C6H2CH2CHC3NH2SHFeC2SCHCHCH2NCHC3HSHSCH5S2HCH2C3HFeCH2C2FeHCHCH5CH3CH2C2NC9H15CFeHSCSFeH2C2H6SC3SHNC8H4C2HCHCHSH2CH2CH5S2H3C2HFeNHCFeS2HCFeHFeS2FeS2FeSFeCS2CFeSCFeSCFeSFeS3FeS2FeS2FeSFeS4Fe2HSFeS3CSC2HC2SCHFeH2C3SCHSC7H5FeC4H3SC6H7CH2C2H2C4HC7H3CHC4H2SH3C6H4NHC8NH3CSH6CHNC2H12CHCSH3C3HCHCH3NH3C4H7CH2CH2CH2NH4CHCH8CNC9H9CHFeHCH2CNSHCH6C3NC9H9CH2CH7NC9H6CHC2SHSH2CFeCHC2H2CH4C4HC2H3C2SC2H14C2FeCHCHCH2C3H4CHC2HCH2SC2H3CHNCFeS2CSFeS2HSHFeSFeCS2HC2H4CHCH2C2HC7H5CHC2H3CHC7H3C3FeCSHCH2CH4C3H5SCH2CH2NHSH2SCFeCH7CSHC2NSH3CNHC5H4NC2HC2H4CH5CHNC2H8C2HNHCHCFeCSC2HCH3CFeH2CHCHCHCSCHC3H
_chemical_formula_sum              "H3456 C2880 Fe384 S768 N192"
_cell_length_a       69.1198
_cell_length_b       68.9423
_cell_length_c       68.9198
_cell_angle_alpha    78.4383
_cell_angle_beta     78.4173
_cell_angle_gamma    78.3974

_space_group_name_H-M_alt    "P 1"
_space_group_IT_number       1

loop_
  _space_group_symop_operation_xyz
  'x, y, z'

loop_
  _atom_site_type_symbol
  _atom_site_label
  _atom_site_symmetry_multiplicity
  _atom_site_fract_x
  _atom_site_fract_y
  _atom_site_fract_z
  _atom_site_occupancy
  H   H1        1.0  0.02478  0.33752  0.23620  1.0000
  H   H2        1.0  0.11625  0.44602  0.01478  1.0000
  C   C1        1.0  0.02556  0.34323  0.29155  1.0000
  H   H3        1.0  0.99265  0.33361  0.16501  1.0000
  H   H4        1.0  0.00691  0.46764  0.27147  1.0000
  H   H5        1.0  0.05720  0.34558  0.27946  1.0000
  H   H6        1.0  0.18926  0.08127  0.99244  1.0000
  H   H7        1.0  0.99029  0.04256  0.26947  1.0000
  C   C2        1.0  0.17075  0.46025  0.27444  1.0000
  H   H8        1.0  0.13377  0.45466  0.26705  1.0000
  H   H9        1.0  0.10807  0.23529  0.01898  1.0000
  H   H10       1.0  0.12728  0.47732  0.01747  1.0000
  H   H11       1.0  0.03635  0.26951  0.10136  1.0000
  H   H12       1.0  0.23282  0.04034  0.02039  1.0000
  C   C3        1.0  0.21749  0.08246  0.04372  1.0000
  H   H13       1.0  0.02123  0.44368  0.24790  1.0000
  C   C4        1.0  0.20583  0.09346  0.02956  1.0000
  H   H14       1.0  0.20821  0.42341  0.02687  1.0000
  H   H15       1.0  0.20526  0.48074  0.28923  1.0000
  H   H16       1.0  0.05616  0.34141  0.24576  1.0000
  C   C5        1.0  0.13573  0.46816  0.00655  1.0000
  C   C6        1.0  0.99388  0.47932  0.21766  1.0000
  C   C7        1.0  0.18004  0.07302  0.04364  1.0000
  Fe  Fe1       1.0  0.05576  0.39280  0.14690  1.0000
  S   S1        1.0  0.03009  0.41284  0.16237  1.0000
  S   S2        1.0  0.08665  0.40139  0.13648  1.0000
  Fe  Fe2       1.0  0.03108  0.35936  0.15111  1.0000
  S   S3        1.0  0.00373  0.37674  0.16719  1.0000
  S   S4        1.0  0.03234  0.33017  0.13995  1.0000
  Fe  Fe3       1.0  0.01156  0.40299  0.14403  1.0000
  C   C8        1.0  0.18586  0.09753  0.99355  1.0000
  Fe  Fe4       1.0  0.02456  0.38499  0.18428  1.0000
  S   S5        1.0  0.01278  0.38833  0.21680  1.0000
  S   S6        1.0  0.03758  0.38530  0.12666  1.0000
  S   S7        1.0  0.05160  0.36519  0.17025  1.0000
  S   S8        1.0  0.07383  0.38700  0.27481  1.0000
  H   H17       1.0  0.16289  0.13189  0.00315  1.0000
  C   C9        1.0  0.15469  0.09535  0.01585  1.0000
  N   N1        1.0  0.14312  0.44178  0.29563  1.0000
  C   C10       1.0  0.07847  0.27390  0.06639  1.0000
  N   N2        1.0  0.02502  0.34671  0.31219  1.0000
  C   C11       1.0  0.08879  0.42573  0.12302  1.0000
  C   C12       1.0  0.10708  0.43270  0.12017  1.0000
  C   C13       1.0  0.10974  0.45137  0.10814  1.0000
  C   C14       1.0  0.09412  0.46309  0.09875  1.0000
  C   C15       1.0  0.07564  0.45639  0.10215  1.0000
  C   C16       1.0  0.07297  0.43778  0.11423  1.0000
  H   H18       1.0  0.11928  0.42354  0.12718  1.0000
  H   H19       1.0  0.12394  0.45653  0.10586  1.0000
  H   H20       1.0  0.06346  0.46545  0.09504  1.0000
  H   H21       1.0  0.05880  0.43259  0.11637  1.0000
  C   C17       1.0  0.05683  0.38944  0.25808  1.0000
  C   C18       1.0  0.03621  0.39525  0.26394  1.0000
  C   C19       1.0  0.02285  0.39513  0.25105  1.0000
  C   C20       1.0  0.03003  0.38967  0.23201  1.0000
  C   C21       1.0  0.05068  0.38469  0.22579  1.0000
  C   C22       1.0  0.06401  0.38437  0.23888  1.0000
  H   H22       1.0  0.03055  0.39943  0.27853  1.0000
  H   H23       1.0  0.00690  0.39902  0.25595  1.0000
  H   H24       1.0  0.05638  0.38054  0.21111  1.0000
  H   H25       1.0  0.07994  0.37994  0.23419  1.0000
  H   H26       1.0  0.05590  0.00522  0.24225  1.0000
  H   H27       1.0  0.16373  0.12578  0.02971  1.0000
  C   C23       1.0  0.99013  0.38293  0.09476  1.0000
  H   H28       1.0  0.10234  0.22903  0.04592  1.0000
  C   C24       1.0  0.06956  0.02090  0.29219  1.0000
  C   C25       1.0  0.19282  0.47293  0.29034  1.0000
  H   H29       1.0  0.20038  0.10310  0.99002  1.0000
  H   H30       1.0  0.16589  0.06836  0.04434  1.0000
  N   N3        1.0  0.09017  0.25936  0.03387  1.0000
  C   C26       1.0  0.06435  0.27646  0.08376  1.0000
  C   C27       1.0  0.04732  0.26744  0.08796  1.0000
  C   C28       1.0  0.12962  0.45035  0.00518  1.0000
  C   C29       1.0  0.00450  0.03464  0.26338  1.0000
  C   C30       1.0  0.01210  0.01603  0.27386  1.0000
  S   S9        1.0  0.00521  0.06567  0.23129  1.0000
  C   C31       1.0  0.23532  0.02988  0.03397  1.0000
  C   C32       1.0  0.03381  0.03210  0.23756  1.0000
  H   H31       1.0  0.08376  0.23067  0.03053  1.0000
  H   H32       1.0  0.00363  0.00994  0.28797  1.0000
  H   H33       1.0  0.11953  0.26484  0.01838  1.0000
  C   C33       1.0  0.18682  0.47031  0.27304  1.0000
  C   C34       1.0  0.01351  0.24160  0.04421  1.0000
  C   C35       1.0  0.01853  0.22229  0.05483  1.0000
  C   C36       1.0  0.03460  0.20879  0.04643  1.0000
  C   C37       1.0  0.04568  0.21459  0.02746  1.0000
  C   C38       1.0  0.04032  0.23376  0.01673  1.0000
  C   C39       1.0  0.02429  0.24722  0.02507  1.0000
  H   H34       1.0  0.01026  0.21786  0.06962  1.0000
  H   H35       1.0  0.03861  0.19392  0.05477  1.0000
  H   H36       1.0  0.04852  0.23828  0.00205  1.0000
  H   H37       1.0  0.02040  0.26216  0.01681  1.0000
  C   C40       1.0  0.03899  0.05425  0.28283  1.0000
  H   H38       1.0  0.99775  0.00840  0.23284  1.0000
  H   H39       1.0  0.99523  0.36214  0.13129  1.0000
  C   C41       1.0  0.01146  0.31826  0.14194  1.0000
  C   C42       1.0  0.01273  0.30398  0.12960  1.0000
  H   H40       1.0  0.03489  0.00741  0.31032  1.0000
  C   C43       1.0  0.15227  0.47448  0.99330  1.0000
  H   H41       1.0  0.11671  0.26083  0.04511  1.0000
  H   H42       1.0  0.02647  0.30031  0.11937  1.0000
  C   C44       1.0  0.04311  0.34316  0.27665  1.0000
  C   C45       1.0  0.22118  0.45134  0.99030  1.0000
  H   H43       1.0  0.18687  0.04945  0.06837  1.0000
  H   H44       1.0  0.00019  0.34353  0.10460  1.0000
  C   C46       1.0  0.01521  0.04276  0.24517  1.0000
  C   C47       1.0  0.00773  0.33818  0.26595  1.0000
  S   S10       1.0  0.99458  0.25943  0.05472  1.0000
  C   C48       1.0  0.17171  0.12264  0.01467  1.0000
  H   H45       1.0  0.13554  0.41241  0.30848  1.0000
  S   S11       1.0  0.06606  0.19764  0.01748  1.0000
  C   C49       1.0  0.04276  0.34078  0.25705  1.0000
  H   H46       1.0  0.05523  0.24413  0.04775  1.0000
  H   H47       1.0  0.18749  0.40881  0.00999  1.0000
  H   H48       1.0  0.06654  0.28559  0.09402  1.0000
  S   S12       1.0  0.09728  0.48550  0.08167  1.0000
  H   H49       1.0  0.21020  0.47849  0.02820  1.0000
  H   H50       1.0  0.18602  0.12854  0.01177  1.0000
  C   C50       1.0  0.00322  0.47096  0.25640  1.0000
  H   H51       1.0  0.14555  0.09752  0.03075  1.0000
  H   H52       1.0  0.14607  0.10484  0.00427  1.0000
  C   C51       1.0  0.05836  0.25311  0.05750  1.0000
  C   C52       1.0  0.22615  0.00178  0.05945  1.0000
  C   C53       1.0  0.99583  0.45381  0.14020  1.0000
  H   H53       1.0  0.09118  0.28147  0.06402  1.0000
  C   C54       1.0  0.16020  0.45249  0.29345  1.0000
  Fe  Fe5       1.0  0.06346  0.39910  0.30403  1.0000
  C   C55       1.0  0.03060  0.00538  0.26631  1.0000
  C   C56       1.0  0.02450  0.07088  0.27770  1.0000
  H   H54       1.0  0.12062  0.46812  0.29845  1.0000
  H   H55       1.0  0.99597  0.03242  0.21759  1.0000
  H   H56       1.0  0.99042  0.48171  0.20265  1.0000
  C   C57       1.0  0.16679  0.45542  0.31075  1.0000
  H   H57       1.0  0.11967  0.02159  0.31401  1.0000
  H   H58       1.0  0.21985  0.05803  0.06844  1.0000
  C   C58       1.0  0.21904  0.46886  0.01780  1.0000
  H   H59       1.0  0.19435  0.46958  0.00292  1.0000
  H   H60       1.0  0.00624  0.37719  0.09579  1.0000
  C   C59       1.0  0.22306  0.01520  0.04172  1.0000
  C   C60       1.0  0.07591  0.26197  0.05272  1.0000
  C   C61       1.0  0.03982  0.04552  0.30326  1.0000
  S   S13       1.0  0.20182  0.47519  0.07133  1.0000
  H   H61       1.0  0.15581  0.07951  0.01385  1.0000
  H   H62       1.0  0.10558  0.28437  0.03123  1.0000
  C   C62       1.0  0.14780  0.42121  0.30701  1.0000
  H   H63       1.0  0.07508  0.28589  0.01716  1.0000
  H   H64       1.0  0.99768  0.22941  0.00282  1.0000
  H   H65       1.0  0.02472  0.20515  0.00084  1.0000
  C   C63       1.0  0.10874  0.26775  0.03224  1.0000
  H   H66       1.0  0.23224  0.08577  0.04348  1.0000
  C   C64       1.0  0.21006  0.46390  0.00352  1.0000
  C   C65       1.0  0.14036  0.43845  0.99105  1.0000
  H   H67       1.0  0.01296  0.45095  0.21364  1.0000
  S   S14       1.0  0.02278  0.46329  0.31124  1.0000
  H   H68       1.0  0.03090  0.24905  0.07797  1.0000
  H   H69       1.0  0.01107  0.44595  0.13882  1.0000
  C   C66       1.0  0.02508  0.33856  0.25164  1.0000
  C   C67       1.0  0.08031  0.26965  0.01647  1.0000
  C   C68       1.0  0.00659  0.46156  0.22386  1.0000
  H   H70       1.0  0.99400  0.33653  0.26162  1.0000
  N   N4        1.0  0.17480  0.10089  0.01369  1.0000
  C   C69       1.0  0.04432  0.25584  0.07482  1.0000
  C   C70       1.0  0.99627  0.29458  0.13024  1.0000
  H   H71       1.0  0.07809  0.03287  0.28362  1.0000
  C   C71       1.0  0.18665  0.08921  0.02915  1.0000
  C   C72       1.0  0.19192  0.06203  0.05769  1.0000
  S   S15       1.0  0.22318  0.13582  0.98388  1.0000
  C   C73       1.0  0.01038  0.07917  0.29257  1.0000
  H   H72       1.0  0.01143  0.37748  0.30422  1.0000
  S   S16       1.0  0.15289  0.47673  0.05107  1.0000
  H   H73       1.0  0.99297  0.42844  0.20208  1.0000
  H   H74       1.0  0.21123  0.01422  0.03398  1.0000
  C   C74       1.0  0.04157  0.01342  0.24817  1.0000
  H   H75       1.0  0.11194  0.44469  0.30947  1.0000
  C   C75       1.0  0.00794  0.34033  0.28567  1.0000
  H   H76       1.0  0.15088  0.43093  0.26730  1.0000
  C   C76       1.0  0.09629  0.23770  0.03235  1.0000
  H   H77       1.0  0.04876  0.36431  0.30530  1.0000
  H   H78       1.0  0.99910  0.09198  0.28851  1.0000
  H   H79       1.0  0.06705  0.26309  0.01581  1.0000
  Fe  Fe6       1.0  0.08585  0.20886  0.98885  1.0000
  H   H80       1.0  0.16694  0.45877  0.26044  1.0000
  S   S17       1.0  0.07188  0.42784  0.30729  1.0000
  C   C77       1.0  0.21052  0.06682  0.05780  1.0000
  H   H81       1.0  0.02402  0.07721  0.26203  1.0000
  N   N5        1.0  0.13218  0.41591  0.06195  1.0000
  C   C78       1.0  0.12174  0.40547  0.05130  1.0000
  C   C79       1.0  0.13166  0.40475  0.08281  1.0000
  C   C80       1.0  0.12061  0.43639  0.06266  1.0000
  C   C81       1.0  0.15313  0.41736  0.05226  1.0000
  C   C82       1.0  0.16543  0.42587  0.06134  1.0000
  C   C83       1.0  0.16173  0.41119  0.03345  1.0000
  C   C84       1.0  0.18503  0.42804  0.05222  1.0000
  C   C85       1.0  0.18138  0.41339  0.02447  1.0000
  C   C86       1.0  0.19302  0.42169  0.03389  1.0000
  H   H82       1.0  0.12970  0.38990  0.05023  1.0000
  H   H83       1.0  0.10617  0.40436  0.05921  1.0000
  H   H84       1.0  0.12036  0.41367  0.03586  1.0000
  H   H85       1.0  0.14090  0.38953  0.08307  1.0000
  H   H86       1.0  0.11610  0.40292  0.09035  1.0000
  H   H87       1.0  0.13723  0.41263  0.09259  1.0000
  H   H88       1.0  0.12067  0.44546  0.04744  1.0000
  H   H89       1.0  0.10470  0.43613  0.06990  1.0000
  H   H90       1.0  0.12694  0.44491  0.07121  1.0000
  H   H91       1.0  0.15978  0.43148  0.07533  1.0000
  H   H92       1.0  0.15352  0.40487  0.02517  1.0000
  H   H93       1.0  0.19391  0.43507  0.05928  1.0000
  C   C87       1.0  0.01129  0.45742  0.24317  1.0000
  H   H94       1.0  0.21217  0.10515  0.01869  1.0000
  H   H95       1.0  0.16186  0.41274  0.29961  1.0000
  S   S18       1.0  0.13228  0.41609  0.99017  1.0000
  H   H96       1.0  0.19471  0.47613  0.25845  1.0000
  H   H97       1.0  0.04219  0.03825  0.22343  1.0000
  H   H98       1.0  0.02075  0.18469  0.99055  1.0000
  H   H99       1.0  0.09071  0.26850  0.00195  1.0000
  H   H100      1.0  0.05666  0.33777  0.31337  1.0000
  H   H101      1.0  0.99740  0.28373  0.12053  1.0000
  H   H102      1.0  0.11543  0.99089  0.30269  1.0000
  H   H103      1.0  0.04915  0.04841  0.27046  1.0000
  H   H104      1.0  0.12516  0.43166  0.27857  1.0000
  H   H105      1.0  0.00221  0.47761  0.15269  1.0000
  C   C88       1.0  0.13813  0.43974  0.27621  1.0000
  N   N6        1.0  0.05489  0.02789  0.30934  1.0000
  C   C89       1.0  0.01063  0.07088  0.31269  1.0000
  H   H106      1.0  0.08079  0.00785  0.29733  1.0000
  H   H107      1.0  0.06210  0.01569  0.28174  1.0000
  C   C90       1.0  0.99366  0.32288  0.15520  1.0000
  C   C91       1.0  0.99087  0.47187  0.14776  1.0000
  H   H108      1.0  0.99498  0.01135  0.20669  1.0000
  H   H109      1.0  0.19244  0.16955  0.98943  1.0000
  H   H110      1.0  0.99408  0.34011  0.29620  1.0000
  C   C92       1.0  0.04434  0.35068  0.31556  1.0000
  H   H111      1.0  0.14588  0.29258  0.98475  1.0000
  H   H112      1.0  0.98979  0.20402  0.16943  1.0000
  H   H113      1.0  0.19204  0.98982  0.22283  1.0000
  C   C93       1.0  0.12495  0.45275  0.30675  1.0000
  S   S19       1.0  0.11910  0.20487  0.98734  1.0000
  C   C94       1.0  0.02744  0.19864  0.98687  1.0000
  C   C95       1.0  0.18282  0.46551  0.30915  1.0000
  C   C96       1.0  0.99007  0.01802  0.22066  1.0000
  H   H114      1.0  0.07404  0.04595  0.31593  1.0000
  H   H115      1.0  0.04401  0.19423  0.98320  1.0000
  H   H116      1.0  0.01991  0.41085  0.58400  1.0000
  H   H117      1.0  0.18617  0.06595  0.45346  1.0000
  H   H118      1.0  0.19993  0.09565  0.43223  1.0000
  H   H119      1.0  0.17026  0.34840  0.59572  1.0000
  Fe  Fe7       1.0  0.21165  0.35394  0.49638  1.0000
  Fe  Fe8       1.0  0.19321  0.33969  0.53932  1.0000
  S   S20       1.0  0.21833  0.34618  0.55203  1.0000
  S   S21       1.0  0.16688  0.32804  0.56036  1.0000
  Fe  Fe9       1.0  0.21614  0.37486  0.52985  1.0000
  S   S22       1.0  0.21335  0.40676  0.53513  1.0000
  S   S23       1.0  0.18948  0.36940  0.51914  1.0000
  S   S24       1.0  0.21356  0.32341  0.51575  1.0000
  H   H120      1.0  0.02604  0.11235  0.49218  1.0000
  H   H121      1.0  0.01671  0.28921  0.50986  1.0000
  N   N7        1.0  0.01964  0.17903  0.60171  1.0000
  H   H122      1.0  0.02540  0.35289  0.50329  1.0000
  C   C97       1.0  0.01993  0.32889  0.32697  1.0000
  H   H123      1.0  0.18769  0.39662  0.59945  1.0000
  H   H124      1.0  0.17427  0.36981  0.56150  1.0000
  Fe  Fe10      1.0  0.16580  0.04569  0.39982  1.0000
  S   S25       1.0  0.16796  0.01719  0.38808  1.0000
  Fe  Fe11      1.0  0.15202  0.00650  0.41875  1.0000
  Fe  Fe12      1.0  0.12260  0.04514  0.42045  1.0000
  H   H125      1.0  0.21661  0.41476  0.48447  1.0000
  S   S26       1.0  0.09489  0.06236  0.43704  1.0000
  H   H126      1.0  0.12389  0.31316  0.48284  1.0000
  C   C98       1.0  0.17243  0.38291  0.56925  1.0000
  Fe  Fe13      1.0  0.13722  0.02911  0.38063  1.0000
  S   S27       1.0  0.12913  0.02849  0.35035  1.0000
  S   S28       1.0  0.15206  0.03411  0.43128  1.0000
  S   S29       1.0  0.13630  0.05896  0.38970  1.0000
  Fe  Fe14      1.0  0.06042  0.32329  0.54329  1.0000
  S   S30       1.0  0.06355  0.29681  0.56789  1.0000
  S   S31       1.0  0.08304  0.34409  0.53048  1.0000
  Fe  Fe15      1.0  0.02070  0.31487  0.53690  1.0000
  S   S32       1.0  0.02064  0.28749  0.56085  1.0000
  H   H127      1.0  0.01966  0.33102  0.34266  1.0000
  Fe  Fe16      1.0  0.03077  0.30637  0.57860  1.0000
  S   S33       1.0  0.02026  0.30696  0.61157  1.0000
  Fe  Fe17      1.0  0.05325  0.28043  0.54782  1.0000
  S   S34       1.0  0.07112  0.25021  0.54279  1.0000
  S   S35       1.0  0.02837  0.33442  0.55564  1.0000
  S   S36       1.0  0.05246  0.30626  0.52226  1.0000
  Fe  Fe18      1.0  0.04759  0.11784  0.56930  1.0000
  S   S37       1.0  0.01831  0.13265  0.55970  1.0000
  S   S38       1.0  0.05286  0.10983  0.60158  1.0000
  Fe  Fe19      1.0  0.06942  0.11879  0.52585  1.0000
  S   S39       1.0  0.04193  0.13444  0.51290  1.0000
  S   S40       1.0  0.09908  0.10784  0.50716  1.0000
  Fe  Fe20      1.0  0.03635  0.15326  0.53720  1.0000
  S   S41       1.0  0.02174  0.18590  0.53287  1.0000
  Fe  Fe21      1.0  0.02644  0.11253  0.53637  1.0000
  S   S42       1.0  0.06539  0.13973  0.54818  1.0000
  S   S43       1.0  0.05421  0.09569  0.54802  1.0000
  C   C99       1.0  0.18509  0.43316  0.46658  1.0000
  C   C100      1.0  0.02688  0.34842  0.47291  1.0000
  H   H128      1.0  0.15015  0.33360  0.47240  1.0000
  H   H129      1.0  0.10389  0.13323  0.45201  1.0000
  Fe  Fe22      1.0  0.07900  0.41247  0.33757  1.0000
  S   S44       1.0  0.07355  0.38282  0.33278  1.0000
  S   S45       1.0  0.10869  0.41172  0.34749  1.0000
  C   C101      1.0  0.01227  0.10897  0.48970  1.0000
  Fe  Fe23      1.0  0.04183  0.39188  0.34765  1.0000
  S   S46       1.0  0.03010  0.36639  0.37051  1.0000
  H   H130      1.0  0.04657  0.07923  0.50140  1.0000
  S   S47       1.0  0.04784  0.42070  0.35430  1.0000
  C   C102      1.0  0.20804  0.99104  0.35751  1.0000
  C   C103      1.0  0.12605  0.00623  0.34307  1.0000
  H   H131      1.0  0.14503  0.41327  0.36046  1.0000
  H   H132      1.0  0.01010  0.32394  0.45658  1.0000
  H   H133      1.0  0.99946  0.07739  0.32415  1.0000
  C   C104      1.0  0.99230  0.36589  0.59678  1.0000
  H   H134      1.0  0.00983  0.45154  0.35384  1.0000
  C   C105      1.0  0.17116  0.10135  0.46322  1.0000
  C   C106      1.0  0.20612  0.41034  0.42364  1.0000
  C   C107      1.0  0.16650  0.30514  0.51393  1.0000
  H   H135      1.0  0.14983  0.44695  0.62198  1.0000
  C   C108      1.0  0.00950  0.36435  0.31636  1.0000
  C   C109      1.0  0.00562  0.36078  0.37448  1.0000
  H   H136      1.0  0.07827  0.02005  0.32760  1.0000
  C   C110      1.0  0.16602  0.31957  0.49663  1.0000
  Fe  Fe24      1.0  0.04027  0.43383  0.32342  1.0000
  C   C111      1.0  0.03203  0.21252  0.58910  1.0000
  H   H137      1.0  0.01449  0.33086  0.39009  1.0000
  C   C112      1.0  0.17166  0.07276  0.44827  1.0000
  H   H138      1.0  0.01853  0.11867  0.45769  1.0000
  C   C113      1.0  0.23576  0.03220  0.36145  1.0000
  C   C114      1.0  0.22299  0.00771  0.38834  1.0000
  H   H139      1.0  0.15942  0.06711  0.45981  1.0000
  H   H140      1.0  0.13600  0.12121  0.46260  1.0000
  H   H141      1.0  0.17201  0.06666  0.43447  1.0000
  C   C115      1.0  0.98958  0.37463  0.36775  1.0000
  C   C116      1.0  0.00130  0.47162  0.32756  1.0000
  C   C117      1.0  0.05759  0.23275  0.53878  1.0000
  C   C118      1.0  0.03766  0.23846  0.53583  1.0000
  C   C119      1.0  0.02699  0.22403  0.53342  1.0000
  C   C120      1.0  0.03606  0.20385  0.53426  1.0000
  C   C121      1.0  0.05611  0.19825  0.53675  1.0000
  C   C122      1.0  0.06687  0.21268  0.53896  1.0000
  H   H142      1.0  0.03049  0.25397  0.53532  1.0000
  H   H143      1.0  0.01169  0.22852  0.53087  1.0000
  H   H144      1.0  0.06336  0.18282  0.53700  1.0000
  H   H145      1.0  0.08233  0.20823  0.54108  1.0000
  C   C123      1.0  0.09665  0.07514  0.45620  1.0000
  C   C124      1.0  0.11355  0.07081  0.46556  1.0000
  C   C125      1.0  0.11413  0.08079  0.48131  1.0000
  C   C126      1.0  0.09777  0.09502  0.48786  1.0000
  C   C127      1.0  0.08081  0.09918  0.47861  1.0000
  C   C128      1.0  0.08027  0.08928  0.46284  1.0000
  H   H146      1.0  0.12602  0.05964  0.46079  1.0000
  H   H147      1.0  0.12723  0.07742  0.48852  1.0000
  H   H148      1.0  0.06821  0.11024  0.48339  1.0000
  H   H149      1.0  0.06713  0.09269  0.45567  1.0000
  S   S48       1.0  0.20305  0.36002  0.46562  1.0000
  C   C129      1.0  0.14396  0.09800  0.42143  1.0000
  C   C130      1.0  0.03732  0.36024  0.59118  1.0000
  H   H150      1.0  0.99354  0.22947  0.46635  1.0000
  H   H151      1.0  0.19750  0.03287  0.42752  1.0000
  C   C131      1.0  0.08972  0.00741  0.52571  1.0000
  H   H152      1.0  0.99202  0.15652  0.47569  1.0000
  H   H153      1.0  0.00424  0.17269  0.63246  1.0000
  C   C132      1.0  0.07858  0.99337  0.53767  1.0000
  C   C133      1.0  0.99241  0.31301  0.50290  1.0000
  Fe  Fe25      1.0  0.22251  0.45624  0.62305  1.0000
  H   H154      1.0  0.01172  0.26882  0.48593  1.0000
  H   H155      1.0  0.19283  0.43664  0.45087  1.0000
  C   C134      1.0  0.99896  0.10064  0.50583  1.0000
  C   C135      1.0  0.03244  0.11251  0.62132  1.0000
  C   C136      1.0  0.01266  0.11556  0.61803  1.0000
  H   H156      1.0  0.18760  0.46763  0.32256  1.0000
  Fe  Fe26      1.0  0.17080  0.47916  0.37939  1.0000
  H   H157      1.0  0.00962  0.11597  0.60316  1.0000
  C   C137      1.0  0.13553  0.31017  0.49190  1.0000
  C   C138      1.0  0.12955  0.46079  0.37074  1.0000
  C   C139      1.0  0.10992  0.46377  0.36663  1.0000
  C   C140      1.0  0.10305  0.44872  0.35995  1.0000
  C   C141      1.0  0.11573  0.43048  0.35756  1.0000
  C   C142      1.0  0.13518  0.42740  0.36207  1.0000
  C   C143      1.0  0.14213  0.44252  0.36844  1.0000
  C   C144      1.0  0.01294  0.35902  0.43253  1.0000
  H   H158      1.0  0.08806  0.45128  0.35651  1.0000
  S   S49       1.0  0.00419  0.09550  0.53046  1.0000
  H   H159      1.0  0.15718  0.43996  0.37175  1.0000
  C   C145      1.0  0.20021  0.39262  0.43533  1.0000
  H   H160      1.0  0.06005  0.35965  0.49764  1.0000
  H   H161      1.0  0.18691  0.38784  0.43322  1.0000
  H   H162      1.0  0.19734  0.41925  0.41261  1.0000
  C   C146      1.0  0.14358  0.33282  0.55201  1.0000
  C   C147      1.0  0.14058  0.34554  0.53395  1.0000
  C   C148      1.0  0.12188  0.34905  0.52765  1.0000
  C   C149      1.0  0.10608  0.33980  0.53929  1.0000
  C   C150      1.0  0.10896  0.32732  0.55753  1.0000
  C   C151      1.0  0.12766  0.32386  0.56386  1.0000
  H   H163      1.0  0.15272  0.35247  0.52465  1.0000
  H   H164      1.0  0.11978  0.35870  0.51351  1.0000
  H   H165      1.0  0.09685  0.32027  0.56674  1.0000
  H   H166      1.0  0.12984  0.31409  0.57791  1.0000
  C   C152      1.0  0.99276  0.21358  0.46844  1.0000
  H   H167      1.0  0.03201  0.01598  0.53008  1.0000
  H   H168      1.0  0.02458  0.04836  0.33383  1.0000
  C   C153      1.0  0.21793  0.41129  0.55797  1.0000
  C   C154      1.0  0.21315  0.43094  0.56218  1.0000
  C   C155      1.0  0.21643  0.43509  0.58030  1.0000
  S   S50       1.0  0.03137  0.40591  0.31841  1.0000
  H   H169      1.0  0.12950  0.37245  0.59967  1.0000
  H   H170      1.0  0.20679  0.44302  0.55145  1.0000
  H   H171      1.0  0.22208  0.43671  0.49091  1.0000
  C   C156      1.0  0.00531  0.36650  0.62662  1.0000
  C   C157      1.0  0.14011  0.37536  0.58538  1.0000
  H   H172      1.0  0.10588  0.00466  0.52485  1.0000
  H   H173      1.0  0.16995  0.11794  0.46133  1.0000
  C   C158      1.0  0.11529  0.12374  0.44320  1.0000
  C   C159      1.0  0.00298  0.17433  0.59382  1.0000
  H   H174      1.0  0.16961  0.00411  0.33082  1.0000
  H   H175      1.0  0.17889  0.03744  0.32743  1.0000
  C   C160      1.0  0.15054  0.32212  0.48569  1.0000
  H   H176      1.0  0.09045  0.04061  0.64616  1.0000
  C   C161      1.0  0.21400  0.00998  0.35574  1.0000
  C   C162      1.0  0.99327  0.16340  0.43195  1.0000
  H   H177      1.0  0.14290  0.36152  0.57849  1.0000
  S   S51       1.0  0.22738  0.42403  0.61790  1.0000
  C   C163      1.0  0.11879  0.98993  0.31753  1.0000
  H   H178      1.0  0.03380  0.34569  0.59861  1.0000
  C   C164      1.0  0.13397  0.11660  0.44917  1.0000
  C   C165      1.0  0.01329  0.24286  0.60083  1.0000
  C   C166      1.0  0.12846  0.98761  0.35569  1.0000
  C   C167      1.0  0.21119  0.05582  0.40645  1.0000
  C   C168      1.0  0.13478  0.42758  0.61152  1.0000
  H   H179      1.0  0.04390  0.04506  0.64450  1.0000
  C   C169      1.0  0.18747  0.02444  0.33543  1.0000
  C   C170      1.0  0.10945  0.28567  0.53657  1.0000
  H   H180      1.0  0.11204  0.28258  0.48771  1.0000
  S   S52       1.0  0.19852  0.45822  0.36835  1.0000
  C   C171      1.0  0.05782  0.99679  0.53901  1.0000
  C   C172      1.0  0.02993  0.23310  0.58934  1.0000
  H   H181      1.0  0.03968  0.17616  0.57366  1.0000
  H   H182      1.0  0.99856  0.31864  0.64842  1.0000
  H   H183      1.0  0.00433  0.15785  0.59431  1.0000
  H   H184      1.0  0.23727  0.37874  0.46364  1.0000
  H   H185      1.0  0.11836  0.25046  0.52229  1.0000
  H   H186      1.0  0.15257  0.28242  0.53398  1.0000
  C   C173      1.0  0.03616  0.11180  0.64075  1.0000
  H   H187      1.0  0.03059  0.17315  0.62982  1.0000
  H   H188      1.0  0.00576  0.17147  0.42397  1.0000
  C   C174      1.0  0.15163  0.29311  0.52026  1.0000
  C   C175      1.0  0.21504  0.43142  0.48022  1.0000
  C   C176      1.0  0.03868  0.17008  0.58999  1.0000
  C   C177      1.0  0.99072  0.39706  0.60773  1.0000
  H   H189      1.0  0.09363  0.27548  0.50887  1.0000
  H   H190      1.0  0.10100  0.30123  0.53580  1.0000
  C   C178      1.0  0.13573  0.29514  0.50939  1.0000
  H   H191      1.0  0.99199  0.38935  0.35970  1.0000
  H   H192      1.0  0.11752  0.99101  0.49368  1.0000
  H   H193      1.0  0.01414  0.37408  0.63376  1.0000
  S   S53       1.0  0.23829  0.36176  0.50526  1.0000
  H   H194      1.0  0.07001  0.06564  0.50729  1.0000
  H   H195      1.0  0.12332  0.40667  0.60024  1.0000
  C   C179      1.0  0.11086  0.11792  0.42660  1.0000
  C   C180      1.0  0.22804  0.06544  0.40083  1.0000
  H   H196      1.0  0.04533  0.20598  0.57988  1.0000
  C   C181      1.0  0.22432  0.41955  0.59445  1.0000
  H   H197      1.0  0.04141  0.24149  0.58065  1.0000
  C   C182      1.0  0.15604  0.39838  0.59823  1.0000
  C   C183      1.0  0.22596  0.39575  0.57203  1.0000
  H   H198      1.0  0.03794  0.07122  0.64622  1.0000
  H   H199      1.0  0.18296  0.11835  0.42487  1.0000
  C   C184      1.0  0.22908  0.39987  0.59024  1.0000
  H   H200      1.0  0.05144  0.10988  0.64325  1.0000
  C   C185      1.0  0.05375  0.06501  0.50985  1.0000
  H   H201      1.0  0.12716  0.45451  0.32177  1.0000
  H   H202      1.0  0.04956  0.35633  0.41154  1.0000
  C   C186      1.0  0.01744  0.20103  0.60062  1.0000
  H   H203      1.0  0.06278  0.06089  0.63666  1.0000
  H   H204      1.0  0.01196  0.25874  0.60128  1.0000
  N   N8        1.0  0.04948  0.04712  0.50365  1.0000
  C   C187      1.0  0.02735  0.04909  0.50603  1.0000
  C   C188      1.0  0.12978  0.26063  0.51791  1.0000
  C   C189      1.0  0.05765  0.04734  0.48201  1.0000
  C   C190      1.0  0.05911  0.02869  0.51559  1.0000
  C   C191      1.0  0.04811  0.01420  0.52823  1.0000
  C   C192      1.0  0.08023  0.02477  0.51474  1.0000
  C   C193      1.0  0.02336  0.37813  0.59360  1.0000
  H   H205      1.0  0.17819  0.30356  0.52281  1.0000
  H   H206      1.0  0.02291  0.03634  0.50130  1.0000
  H   H207      1.0  0.02080  0.06299  0.49656  1.0000
  H   H208      1.0  0.05081  0.06101  0.47245  1.0000
  H   H209      1.0  0.05497  0.03400  0.47679  1.0000
  C   C194      1.0  0.04466  0.34165  0.41836  1.0000
  H   H210      1.0  0.05694  0.03659  0.33735  1.0000
  H   H211      1.0  0.04790  0.06524  0.52610  1.0000
  C   C195      1.0  0.04455  0.01088  0.31989  1.0000
  H   H212      1.0  0.14966  0.42129  0.32261  1.0000
  H   H213      1.0  0.22985  0.38057  0.56885  1.0000
  H   H214      1.0  0.99955  0.15057  0.44271  1.0000
  H   H215      1.0  0.99087  0.25868  0.56566  1.0000
  C   C196      1.0  0.03857  0.34775  0.45353  1.0000
  H   H216      1.0  0.00054  0.35998  0.44556  1.0000
  C   C197      1.0  0.05836  0.35205  0.45071  1.0000
  C   C198      1.0  0.03461  0.35265  0.48857  1.0000
  C   C199      1.0  0.06594  0.35624  0.46652  1.0000
  C   C200      1.0  0.05412  0.35645  0.48541  1.0000
  H   H217      1.0  0.20907  0.01828  0.39275  1.0000
  H   H218      1.0  0.99783  0.40620  0.61502  1.0000
  C   C201      1.0  0.22846  0.38753  0.45265  1.0000
  H   H219      1.0  0.12009  0.43653  0.61505  1.0000
  C   C202      1.0  0.18212  0.00564  0.33738  1.0000
  H   H220      1.0  0.03996  0.15350  0.59137  1.0000
  C   C203      1.0  0.12129  0.00728  0.32395  1.0000
  H   H221      1.0  0.05540  0.99691  0.32363  1.0000
  H   H222      1.0  0.08105  0.35944  0.46412  1.0000
  H   H223      1.0  0.05199  0.17262  0.59532  1.0000
  N   N9        1.0  0.00329  0.37710  0.60595  1.0000
  H   H224      1.0  0.13966  0.25609  0.52950  1.0000
  N   N10       1.0  0.16869  0.09503  0.44460  1.0000
  H   H225      1.0  0.16902  0.43978  0.46669  1.0000
  H   H226      1.0  0.06598  0.34668  0.57655  1.0000
  Fe  Fe27      1.0  0.21019  0.46237  0.39517  1.0000
  C   C204      1.0  0.21120  0.38139  0.45011  1.0000
  H   H227      1.0  0.21260  0.45027  0.58342  1.0000
  C   C205      1.0  0.00500  0.29468  0.50082  1.0000
  H   H228      1.0  0.05801  0.32997  0.42081  1.0000
  C   C206      1.0  0.99846  0.23216  0.61187  1.0000
  H   H229      1.0  0.18776  0.38440  0.57073  1.0000
  H   H230      1.0  0.03805  0.33750  0.40665  1.0000
  C   C207      1.0  0.05584  0.36061  0.57857  1.0000
  C   C208      1.0  0.20208  0.47145  0.45575  1.0000
  C   C209      1.0  0.14888  0.10330  0.43851  1.0000
  C   C210      1.0  0.13690  0.41030  0.60298  1.0000
  C   C211      1.0  0.02938  0.39647  0.58300  1.0000
  N   N11       1.0  0.15901  0.38017  0.58893  1.0000
  H   H231      1.0  0.00664  0.20616  0.49492  1.0000
  C   C212      1.0  0.99174  0.17257  0.47333  1.0000
  H   H232      1.0  0.21105  0.46196  0.44538  1.0000
  C   C213      1.0  0.16847  0.36249  0.60204  1.0000
  S   S54       1.0  0.19147  0.06328  0.39235  1.0000
  H   H233      1.0  0.18896  0.43985  0.51291  1.0000
  C   C214      1.0  0.06646  0.03286  0.32313  1.0000
  C   C215      1.0  0.10505  0.28555  0.50306  1.0000
  C   C216      1.0  0.19232  0.46314  0.47488  1.0000
  H   H234      1.0  0.18375  0.36390  0.60376  1.0000
  C   C217      1.0  0.22325  0.41658  0.42649  1.0000
  H   H235      1.0  0.18631  0.41648  0.47016  1.0000
  C   C218      1.0  0.13967  0.48077  0.64584  1.0000
  H   H236      1.0  0.18611  0.09470  0.46748  1.0000
  H   H237      1.0  0.18469  0.09640  0.41408  1.0000
  N   N12       1.0  0.19375  0.44107  0.48081  1.0000
  S   S55       1.0  0.18138  0.48071  0.40779  1.0000
  H   H238      1.0  0.15931  0.36032  0.61731  1.0000
  N   N13       1.0  0.12025  0.28207  0.51643  1.0000
  H   H239      1.0  0.16654  0.39661  0.55914  1.0000
  H   H240      1.0  0.00051  0.35053  0.59534  1.0000
  C   C219      1.0  0.18474  0.10168  0.42829  1.0000
  H   H241      1.0  0.17747  0.32903  0.49185  1.0000
  C   C220      1.0  0.21034  0.04047  0.42310  1.0000
  H   H242      1.0  0.18334  0.42670  0.61447  1.0000
  H   H243      1.0  0.15956  0.44996  0.32573  1.0000
  H   H244      1.0  0.22414  0.43438  0.46503  1.0000
  C   C221      1.0  0.99455  0.31499  0.61924  1.0000
  H   H245      1.0  0.09611  0.12290  0.42246  1.0000
  H   H246      1.0  0.12151  0.10034  0.40302  1.0000
  H   H247      1.0  0.15449  0.08803  0.41250  1.0000
  H   H248      1.0  0.13269  0.38757  0.57476  1.0000
  H   H249      1.0  0.15974  0.09637  0.47621  1.0000
  H   H250      1.0  0.13896  0.25749  0.50330  1.0000
  H   H251      1.0  0.18474  0.41805  0.50534  1.0000
  C   C222      1.0  0.12518  0.10514  0.41570  1.0000
  C   C223      1.0  0.17268  0.40482  0.60267  1.0000
  C   C224      1.0  0.00804  0.11244  0.47011  1.0000
  S   S56       1.0  0.12123  0.01620  0.41067  1.0000
  H   H252      1.0  0.16658  0.44042  0.50266  1.0000
  C   C225      1.0  0.17037  0.42208  0.61123  1.0000
  C   C226      1.0  0.04800  0.39665  0.57042  1.0000
  C   C227      1.0  0.00220  0.34184  0.38512  1.0000
  C   C228      1.0  0.00041  0.21158  0.61176  1.0000
  H   H253      1.0  0.09847  0.27530  0.54286  1.0000
  S   S57       1.0  0.20720  0.48447  0.60585  1.0000
  C   C229      1.0  0.20317  0.02671  0.34440  1.0000
  C   C230      1.0  0.99672  0.11784  0.63411  1.0000
  H   H254      1.0  0.03483  0.31128  0.44859  1.0000
  H   H255      1.0  0.99008  0.37356  0.58137  1.0000
  C   C231      1.0  0.00216  0.28316  0.48728  1.0000
  H   H256      1.0  0.07405  0.04726  0.47859  1.0000
  H   H257      1.0  0.09658  0.30118  0.50204  1.0000
  H   H258      1.0  0.03104  0.31522  0.32410  1.0000
  H   H259      1.0  0.02197  0.15239  0.62429  1.0000
  C   C232      1.0  0.15149  0.43348  0.61554  1.0000
  H   H260      1.0  0.08961  0.03513  0.50556  1.0000
  H   H261      1.0  0.01999  0.05030  0.52179  1.0000
  S   S58       1.0  0.13775  0.48011  0.37886  1.0000
  C   C233      1.0  0.18294  0.43474  0.50132  1.0000
  H   H262      1.0  0.11958  0.28353  0.54773  1.0000
  H   H263      1.0  0.13220  0.99815  0.45768  1.0000
  H   H264      1.0  0.07532  0.37881  0.55792  1.0000
  N   N14       1.0  0.03004  0.34307  0.43725  1.0000
  H   H265      1.0  0.13229  0.98661  0.37037  1.0000
  H   H266      1.0  0.01696  0.31913  0.43159  1.0000
  C   C234      1.0  0.99893  0.46378  0.34807  1.0000
  H   H267      1.0  0.22536  0.02308  0.44711  1.0000
  C   C235      1.0  0.18078  0.47698  0.48731  1.0000
  H   H268      1.0  0.06828  0.35236  0.43643  1.0000
  H   H269      1.0  0.20605  0.04182  0.34273  1.0000
  S   S59       1.0  0.99508  0.32746  0.52011  1.0000
  H   H270      1.0  0.17291  0.47216  0.50214  1.0000
  H   H271      1.0  0.00293  0.18169  0.57786  1.0000
  C   C236      1.0  0.22617  0.03489  0.43415  1.0000
  C   C237      1.0  0.06112  0.37875  0.56807  1.0000
  H   H272      1.0  0.00488  0.32573  0.32654  1.0000
  H   H273      1.0  0.23186  0.46218  0.50523  1.0000
  H   H274      1.0  0.01160  0.34568  0.47619  1.0000
  C   C238      1.0  0.02273  0.32356  0.44378  1.0000
  H   H275      1.0  0.01025  0.36896  0.33071  1.0000
  H   H276      1.0  0.10007  0.47784  0.36846  1.0000
  C   C239      1.0  0.23461  0.40490  0.44069  1.0000
  H   H277      1.0  0.05220  0.41075  0.56221  1.0000
  H   H278      1.0  0.03485  0.01405  0.33420  1.0000
  H   H279      1.0  0.00642  0.35635  0.41996  1.0000
  H   H280      1.0  0.15362  0.47028  0.64508  1.0000
  H   H281      1.0  0.01274  0.35059  0.62697  1.0000
  S   S60       1.0  0.23027  0.43954  0.41388  1.0000
  C   C240      1.0  0.23235  0.47405  0.51320  1.0000
  H   H282      1.0  0.21944  0.99228  0.39351  1.0000
  H   H283      1.0  0.22879  0.07734  0.38794  1.0000
  C   C241      1.0  0.01905  0.16899  0.62295  1.0000
  H   H284      1.0  0.99402  0.36137  0.31777  1.0000
  H   H285      1.0  0.01771  0.37401  0.42790  1.0000
  H   H286      1.0  0.23521  0.38778  0.60111  1.0000
  H   H287      1.0  0.22306  0.04390  0.36627  1.0000
  H   H288      1.0  0.99043  0.36608  0.63650  1.0000
  Fe  Fe28      1.0  0.23860  0.33225  0.52660  1.0000
  C   C242      1.0  0.99031  0.10792  0.46658  1.0000
  N   N15       1.0  0.23000  0.01191  0.36636  1.0000
  C   C243      1.0  0.99958  0.18007  0.48699  1.0000
  C   C244      1.0  0.00017  0.20051  0.48449  1.0000
  H   H289      1.0  0.00554  0.16995  0.49945  1.0000
  C   C245      1.0  0.04961  0.05761  0.64825  1.0000
  H   H290      1.0  0.23433  0.00943  0.39703  1.0000
  H   H291      1.0  0.04346  0.35339  0.33115  1.0000
  C   C246      1.0  0.02510  0.05430  0.31802  1.0000
  C   C247      1.0  0.19239  0.98897  0.34838  1.0000
  C   C248      1.0  0.12126  0.47380  0.64926  1.0000
  H   H292      1.0  0.05787  0.42057  0.88716  1.0000
  H   H293      1.0  0.20417  0.39432  0.95603  1.0000
  H   H294      1.0  0.13350  0.00419  0.79223  1.0000
  C   C249      1.0  0.18161  0.03202  0.84559  1.0000
  C   C250      1.0  0.20791  0.04663  0.82231  1.0000
  Fe  Fe29      1.0  0.01822  0.08927  0.73050  1.0000
  S   S61       1.0  0.00965  0.12141  0.71674  1.0000
  S   S62       1.0  0.05122  0.07622  0.72632  1.0000
  C   C251      1.0  0.05603  0.37219  0.88383  1.0000
  H   H295      1.0  0.12604  0.47762  0.70986  1.0000
  C   C252      1.0  0.05264  0.40766  0.88472  1.0000
  H   H296      1.0  0.99217  0.17652  0.83802  1.0000
  H   H297      1.0  0.99481  0.47490  0.85192  1.0000
  C   C253      1.0  0.07587  0.99874  0.69016  1.0000
  S   S63       1.0  0.02349  0.20092  0.87731  1.0000
  S   S64       1.0  0.20919  0.36793  0.92677  1.0000
  C   C254      1.0  0.06039  0.02856  0.78601  1.0000
  H   H298      1.0  0.18671  0.01686  0.84119  1.0000
  C   C255      1.0  0.03358  0.41090  0.87954  1.0000
  C   C256      1.0  0.18722  0.98792  0.78143  1.0000
  H   H299      1.0  0.14342  0.47936  0.91705  1.0000
  S   S65       1.0  0.12107  0.22703  0.93981  1.0000
  C   C257      1.0  0.11706  0.45801  0.94045  1.0000
  H   H300      1.0  0.07421  0.38010  0.92405  1.0000
  S   S66       1.0  0.08810  0.19685  0.96040  1.0000
  Fe  Fe30      1.0  0.12145  0.19565  0.95744  1.0000
  S   S67       1.0  0.14303  0.16861  0.94738  1.0000
  Fe  Fe31      1.0  0.08753  0.22889  0.94529  1.0000
  S   S68       1.0  0.06589  0.24582  0.92465  1.0000
  C   C258      1.0  0.22649  0.37720  0.93661  1.0000
  H   H301      1.0  0.02097  0.21352  0.93835  1.0000
  C   C259      1.0  0.03686  0.37558  0.87873  1.0000
  Fe  Fe32      1.0  0.13492  0.37095  0.94092  1.0000
  S   S69       1.0  0.15649  0.38006  0.91322  1.0000
  S   S70       1.0  0.11567  0.34900  0.93826  1.0000
  Fe  Fe33      1.0  0.14317  0.40266  0.96192  1.0000
  S   S71       1.0  0.16526  0.41435  0.93574  1.0000
  H   H302      1.0  0.21469  0.03227  0.81671  1.0000
  Fe  Fe34      1.0  0.14305  0.41169  0.91711  1.0000
  S   S72       1.0  0.13649  0.43489  0.89006  1.0000
  Fe  Fe35      1.0  0.17668  0.38170  0.93438  1.0000
  S   S73       1.0  0.12000  0.40260  0.94338  1.0000
  S   S74       1.0  0.15611  0.36995  0.96206  1.0000
  C   C260      1.0  0.02891  0.18563  0.82446  1.0000
  H   H303      1.0  0.19407  0.06358  0.85908  1.0000
  C   C261      1.0  0.15547  0.28045  0.92194  1.0000
  H   H304      1.0  0.15783  0.07970  0.81161  1.0000
  H   H305      1.0  0.20744  0.27300  0.93783  1.0000
  H   H306      1.0  0.09694  0.01194  0.72677  1.0000
  H   H307      1.0  0.11133  0.36317  0.89591  1.0000
  C   C262      1.0  0.11129  0.44399  0.88770  1.0000
  C   C263      1.0  0.10656  0.45499  0.86933  1.0000
  H   H308      1.0  0.16531  0.03346  0.85163  1.0000
  C   C264      1.0  0.07112  0.45827  0.88318  1.0000
  C   C265      1.0  0.07587  0.44761  0.90162  1.0000
  C   C266      1.0  0.09590  0.44048  0.90387  1.0000
  S   S75       1.0  0.22401  0.03772  0.87694  1.0000
  H   H309      1.0  0.02272  0.24220  0.95341  1.0000
  H   H310      1.0  0.09931  0.43232  0.91812  1.0000
  H   H311      1.0  0.06399  0.44474  0.91415  1.0000
  C   C267      1.0  0.02802  0.23139  0.96636  1.0000
  H   H312      1.0  0.01993  0.18902  0.95370  1.0000
  C   C268      1.0  0.09358  0.99545  0.67659  1.0000
  C   C269      1.0  0.16324  0.08245  0.82428  1.0000
  H   H313      1.0  0.17724  0.10554  0.98142  1.0000
  C   C270      1.0  0.16546  0.26136  0.92854  1.0000
  H   H314      1.0  0.18059  0.09606  0.86930  1.0000
  H   H315      1.0  0.05687  0.06032  0.77491  1.0000
  H   H316      1.0  0.04976  0.01885  0.69933  1.0000
  C   C271      1.0  0.18419  0.25908  0.93407  1.0000
  C   C272      1.0  0.01730  0.13379  0.82498  1.0000
  C   C273      1.0  0.12662  0.28331  0.96861  1.0000
  H   H317      1.0  0.01759  0.19459  0.81528  1.0000
  C   C274      1.0  0.13201  0.31779  0.96523  1.0000
  C   C275      1.0  0.11939  0.32400  0.95085  1.0000
  C   C276      1.0  0.10982  0.30997  0.94593  1.0000
  C   C277      1.0  0.11334  0.28967  0.95486  1.0000
  N   N16       1.0  0.18588  0.04822  0.82838  1.0000
  H   H318      1.0  0.04401  0.18451  0.81497  1.0000
  H   H319      1.0  0.09987  0.31471  0.93496  1.0000
  H   H320      1.0  0.10615  0.27888  0.95073  1.0000
  C   C278      1.0  0.03496  0.21334  0.89084  1.0000
  C   C279      1.0  0.02728  0.23312  0.89370  1.0000
  C   C280      1.0  0.03699  0.24290  0.90400  1.0000
  C   C281      1.0  0.05428  0.23292  0.91178  1.0000
  C   C282      1.0  0.06187  0.21305  0.90916  1.0000
  C   C283      1.0  0.05229  0.20334  0.89861  1.0000
  H   H321      1.0  0.01412  0.24107  0.88758  1.0000
  H   H322      1.0  0.03111  0.25832  0.90588  1.0000
  H   H323      1.0  0.07529  0.20528  0.91498  1.0000
  H   H324      1.0  0.05838  0.18806  0.89638  1.0000
  C   C284      1.0  0.17925  0.14376  0.94997  1.0000
  C   C285      1.0  0.16594  0.16034  0.95657  1.0000
  H   H325      1.0  0.17556  0.13654  0.93895  1.0000
  H   H326      1.0  0.21801  0.32365  0.93050  1.0000
  H   H327      1.0  0.20739  0.12362  0.95247  1.0000
  H   H328      1.0  0.17758  0.33231  0.90166  1.0000
  H   H329      1.0  0.02634  0.04205  0.68169  1.0000
  C   C286      1.0  0.06465  0.06836  0.67224  1.0000
  C   C287      1.0  0.19729  0.13645  0.95757  1.0000
  H   H330      1.0  0.15523  0.31192  0.91681  1.0000
  S   S76       1.0  0.13229  0.25781  0.97907  1.0000
  H   H331      1.0  0.07223  0.98697  0.70265  1.0000
  C   C288      1.0  0.17777  0.04449  0.81130  1.0000
  N   N17       1.0  0.10966  0.99132  0.78609  1.0000
  H   H332      1.0  0.02321  0.11311  0.67186  1.0000
  C   C289      1.0  0.23040  0.05568  0.90693  1.0000
  C   C290      1.0  0.06680  0.00791  0.74037  1.0000
  C   C291      1.0  0.08169  0.01928  0.73077  1.0000
  C   C292      1.0  0.07679  0.04030  0.72652  1.0000
  C   C293      1.0  0.05700  0.04992  0.73157  1.0000
  C   C294      1.0  0.04207  0.03850  0.74072  1.0000
  C   C295      1.0  0.04701  0.01753  0.74523  1.0000
  C   C296      1.0  0.09720  0.39891  0.87762  1.0000
  H   H333      1.0  0.08836  0.04913  0.71935  1.0000
  H   H334      1.0  0.02677  0.04583  0.74465  1.0000
  H   H335      1.0  0.03545  0.00877  0.75265  1.0000
  C   C297      1.0  0.06747  0.03296  0.67185  1.0000
  C   C298      1.0  0.16401  0.29740  0.92117  1.0000
  N   N18       1.0  0.19154  0.31389  0.92620  1.0000
  C   C299      1.0  0.21201  0.30956  0.93140  1.0000
  C   C300      1.0  0.19260  0.32634  0.90588  1.0000
  C   C301      1.0  0.17834  0.32583  0.94087  1.0000
  C   C302      1.0  0.18312  0.29565  0.92661  1.0000
  C   C303      1.0  0.19302  0.27590  0.93310  1.0000
  Fe  Fe36      1.0  0.23279  0.47789  0.65338  1.0000
  C   C304      1.0  0.12422  0.99233  0.79888  1.0000
  H   H336      1.0  0.05469  0.08322  0.67204  1.0000
  H   H337      1.0  0.17578  0.46758  0.96873  1.0000
  C   C305      1.0  0.17737  0.06808  0.83438  1.0000
  H   H338      1.0  0.03522  0.14054  0.85504  1.0000
  H   H339      1.0  0.06732  0.99710  0.79434  1.0000
  C   C306      1.0  0.18333  0.07363  0.85075  1.0000
  N   N19       1.0  0.02375  0.16548  0.83357  1.0000
  C   C307      1.0  0.99470  0.45177  0.67259  1.0000
  C   C308      1.0  0.01575  0.12206  0.81116  1.0000
  C   C309      1.0  0.03485  0.05368  0.68304  1.0000
  C   C310      1.0  0.02276  0.15315  0.81860  1.0000
  C   C311      1.0  0.02702  0.15982  0.79751  1.0000
  H   H340      1.0  0.18482  0.33889  0.94224  1.0000
  C   C312      1.0  0.07385  0.01056  0.78901  1.0000
  H   H341      1.0  0.16090  0.18257  0.97574  1.0000
  C   C313      1.0  0.23411  0.39673  0.95894  1.0000
  H   H342      1.0  0.09541  0.47991  0.96710  1.0000
  N   N20       1.0  0.05426  0.05274  0.66900  1.0000
  H   H343      1.0  0.08286  0.47022  0.85272  1.0000
  H   H344      1.0  0.08853  0.35365  0.90422  1.0000
  C   C314      1.0  0.22002  0.38990  0.95096  1.0000
  H   H345      1.0  0.02501  0.06852  0.68003  1.0000
  C   C315      1.0  0.15710  0.44462  0.97797  1.0000
  C   C316      1.0  0.02570  0.39489  0.87651  1.0000
  H   H346      1.0  0.10190  0.45375  0.94523  1.0000
  H   H347      1.0  0.99085  0.40740  0.73352  1.0000
  C   C317      1.0  0.99707  0.21788  0.97561  1.0000
  H   H348      1.0  0.18693  0.00387  0.77652  1.0000
  H   H349      1.0  0.21503  0.06320  0.90736  1.0000
  H   H350      1.0  0.12109  0.45789  0.65090  1.0000
  C   C318      1.0  0.08791  0.04674  0.77335  1.0000
  H   H351      1.0  0.21550  0.04693  0.83503  1.0000
  H   H352      1.0  0.11642  0.99526  0.81404  1.0000
  H   H353      1.0  0.06962  0.06440  0.68715  1.0000
  H   H354      1.0  0.17594  0.31656  0.95609  1.0000
  H   H355      1.0  0.07537  0.40592  0.91359  1.0000
  C   C319      1.0  0.03907  0.15496  0.84610  1.0000
  H   H356      1.0  0.14906  0.48454  0.69514  1.0000
  C   C320      1.0  0.17092  0.16971  0.97066  1.0000
  C   C321      1.0  0.18886  0.16235  0.97833  1.0000
  H   H357      1.0  0.04439  0.02843  0.78901  1.0000
  H   H358      1.0  0.14491  0.11187  0.82250  1.0000
  H   H359      1.0  0.09788  0.38861  0.91703  1.0000
  H   H360      1.0  0.15597  0.12045  0.85125  1.0000
  H   H361      1.0  0.22902  0.40642  0.97013  1.0000
  H   H362      1.0  0.01084  0.10765  0.81634  1.0000
  H   H363      1.0  0.07811  0.07045  0.66064  1.0000
  H   H364      1.0  0.02492  0.42597  0.87792  1.0000
  C   C322      1.0  0.06298  0.01722  0.68799  1.0000
  H   H365      1.0  0.01797  0.12038  0.77990  1.0000
  H   H366      1.0  0.23718  0.41969  0.68586  1.0000
  H   H367      1.0  0.12097  0.47676  0.96953  1.0000
  Fe  Fe37      1.0  0.23573  0.00907  0.86415  1.0000
  H   H368      1.0  0.09322  0.06074  0.76662  1.0000
  C   C323      1.0  0.13576  0.29743  0.97396  1.0000
  H   H369      1.0  0.18441  0.02936  0.80733  1.0000
  C   C324      1.0  0.13651  0.48481  0.93141  1.0000
  H   H370      1.0  0.11843  0.45782  0.85678  1.0000
  C   C325      1.0  0.09600  0.36457  0.89236  1.0000
  N   N21       1.0  0.08483  0.38540  0.89219  1.0000
  C   C326      1.0  0.01987  0.12912  0.79064  1.0000
  N   N22       1.0  0.01913  0.21284  0.97015  1.0000
  H   H371      1.0  0.14699  0.47763  0.94215  1.0000
  C   C327      1.0  0.10152  0.02888  0.77647  1.0000
  S   S77       1.0  0.04588  0.46507  0.88037  1.0000
  C   C328      1.0  0.06739  0.04657  0.77807  1.0000
  S   S78       1.0  0.20648  0.46324  0.65324  1.0000
  H   H372      1.0  0.15849  0.24831  0.92975  1.0000
  H   H373      1.0  0.04241  0.19958  0.94836  1.0000
  H   H374      1.0  0.11011  0.98845  0.75570  1.0000
  H   H375      1.0  0.14071  0.28214  0.91805  1.0000
  C   C329      1.0  0.09858  0.01065  0.66081  1.0000
  H   H376      1.0  0.16129  0.04489  0.81505  1.0000
  H   H377      1.0  0.18946  0.03203  0.85821  1.0000
  H   H378      1.0  0.99928  0.15452  0.85539  1.0000
  C   C330      1.0  0.08647  0.46211  0.86705  1.0000
  H   H379      1.0  0.11255  0.39711  0.88125  1.0000
  Fe  Fe38      1.0  0.11637  0.23632  0.97008  1.0000
  C   C331      1.0  0.12073  0.98850  0.76585  1.0000
  H   H380      1.0  0.18140  0.05549  0.79746  1.0000
  H   H381      1.0  0.09869  0.39598  0.86205  1.0000
  H   H382      1.0  0.12022  0.47952  0.89855  1.0000
  C   C332      1.0  0.17568  0.09227  0.85672  1.0000
  H   H383      1.0  0.12662  0.44913  0.95148  1.0000
  N   N23       1.0  0.11608  0.47991  0.93902  1.0000
  H   H384      1.0  0.16569  0.43538  0.96725  1.0000
  H   H385      1.0  0.01086  0.39746  0.87254  1.0000
  C   C333      1.0  0.10993  0.48473  0.95968  1.0000
  C   C334      1.0  0.08295  0.39028  0.91255  1.0000
  H   H386      1.0  0.12354  0.45288  0.92586  1.0000
  H   H387      1.0  0.19172  0.24415  0.93946  1.0000
  H   H388      1.0  0.03094  0.17441  0.79110  1.0000
  H   H389      1.0  0.09787  0.35978  0.87752  1.0000
  H   H390      1.0  0.16339  0.33202  0.93649  1.0000
  H   H391      1.0  0.03058  0.36312  0.87653  1.0000
  H   H392      1.0  0.04059  0.16420  0.85713  1.0000
  H   H393      1.0  0.09079  0.41503  0.87750  1.0000
  H   H394      1.0  0.04467  0.22809  0.96272  1.0000
  H   H395      1.0  0.11727  0.02970  0.77203  1.0000
  C   C335      1.0  0.06461  0.38827  0.88679  1.0000
  H   H396      1.0  0.21188  0.05917  0.81015  1.0000
  H   H397      1.0  0.06376  0.35685  0.88545  1.0000
  H   H398      1.0  0.13896  0.32863  0.96954  1.0000
  C   C336      1.0  0.09493  0.01018  0.78429  1.0000
  H   H399      1.0  0.11251  0.00799  0.65043  1.0000
  H   H400      1.0  0.19965  0.33979  0.90494  1.0000
  C   C337      1.0  0.16185  0.10599  0.84656  1.0000
  C   C338      1.0  0.15565  0.10110  0.83038  1.0000
  C   C339      1.0  0.02023  0.11369  0.65692  1.0000
  C   C340      1.0  0.20200  0.14557  0.97202  1.0000
  H   H401      1.0  0.02922  0.19462  0.83613  1.0000
  H   H402      1.0  0.99602  0.43070  0.75109  1.0000
  H   H403      1.0  0.12971  0.00051  0.75876  1.0000
  S   S79       1.0  0.99768  0.09243  0.75980  1.0000
  C   C341      1.0  0.98972  0.43657  0.78086  1.0000
  H   H404      1.0  0.00432  0.17796  0.85825  1.0000
  H   H405      1.0  0.01375  0.12774  0.84074  1.0000
  H   H406      1.0  0.22278  0.30061  0.92088  1.0000
  H   H407      1.0  0.20157  0.31756  0.89424  1.0000
  H   H408      1.0  0.21212  0.30151  0.94709  1.0000
  H   H409      1.0  0.03702  0.05190  0.69891  1.0000
  H   H410      1.0  0.00912  0.45655  0.66943  1.0000
  H   H411      1.0  0.05401  0.15168  0.83662  1.0000
  C   C342      1.0  0.02560  0.14787  0.78384  1.0000
  S   S80       1.0  0.08023  0.47786  0.65660  1.0000
  S   S81       1.0  0.21134  0.99180  0.80767  1.0000
  H   H412      1.0  0.00762  0.47488  0.78383  1.0000
  C   C343      1.0  0.00408  0.16868  0.84686  1.0000
  S   S82       1.0  0.08299  0.24103  0.97410  1.0000
  C   C344      1.0  0.02576  0.20330  0.95187  1.0000
  H   H413      1.0  0.23547  0.06924  0.93086  1.0000
  H   H414      1.0  0.02802  0.15352  0.76782  1.0000
  S   S83       1.0  0.99646  0.07817  0.71706  1.0000
  H   H415      1.0  0.00407  0.44118  0.77957  1.0000
  C   C345      1.0  0.16291  0.46275  0.97894  1.0000
  H   H416      1.0  0.21406  0.44733  0.97933  1.0000
  S   S84       1.0  0.21486  0.98801  0.86427  1.0000
  C   C346      1.0  0.00044  0.11674  0.65363  1.0000
  C   C347      1.0  0.08581  0.02918  0.65847  1.0000
  C   C348      1.0  0.99139  0.43732  0.66248  1.0000
  H   H417      1.0  0.02434  0.23926  0.97952  1.0000
  Fe  Fe39      1.0  0.99193  0.21437  0.87179  1.0000
  C   C349      1.0  0.23863  0.04233  0.89329  1.0000
  H   H418      1.0  0.00318  0.43130  0.65129  1.0000
  S   S85       1.0  0.01611  0.67051  0.10744  1.0000
  Fe  Fe40      1.0  0.09866  0.70477  0.02169  1.0000
  S   S86       1.0  0.12959  0.68687  0.01478  1.0000
  S   S87       1.0  0.08446  0.71476  0.05139  1.0000
  C   C350      1.0  0.13355  0.74535  0.07124  1.0000
  S   S88       1.0  0.03915  0.98207  0.28014  1.0000
  Fe  Fe41      1.0  0.11539  0.67194  0.99632  1.0000
  N   N24       1.0  0.00981  0.80581  0.17349  1.0000
  Fe  Fe42      1.0  0.00125  0.79235  0.25165  1.0000
  H   H419      1.0  0.01129  0.77454  0.17175  1.0000
  S   S89       1.0  0.08421  0.68793  0.00560  1.0000
  S   S90       1.0  0.10349  0.72960  0.99546  1.0000
  H   H420      1.0  0.02559  0.71050  0.10443  1.0000
  C   C351      1.0  0.19582  0.56712  0.04203  1.0000
  H   H421      1.0  0.99017  0.62338  0.11571  1.0000
  Fe  Fe43      1.0  0.21410  0.93151  0.13229  1.0000
  H   H422      1.0  0.05260  0.72742  0.08236  1.0000
  S   S91       1.0  0.19225  0.91753  0.15794  1.0000
  H   H423      1.0  0.16768  0.75546  0.05530  1.0000
  C   C352      1.0  0.22892  0.89530  0.06089  1.0000
  H   H424      1.0  0.12632  0.73252  0.02855  1.0000
  H   H425      1.0  0.00361  0.74209  0.98982  1.0000
  Fe  Fe44      1.0  0.11176  0.95561  0.24777  1.0000
  S   S92       1.0  0.12164  0.92954  0.27110  1.0000
  S   S93       1.0  0.13188  0.96813  0.21966  1.0000
  Fe  Fe45      1.0  0.09095  0.92204  0.27301  1.0000
  S   S94       1.0  0.08452  0.89018  0.28048  1.0000
  S   S95       1.0  0.08197  0.94662  0.24807  1.0000
  H   H426      1.0  0.03500  0.78339  0.16490  1.0000
  S   S96       1.0  0.00892  0.76677  0.23294  1.0000
  Fe  Fe46      1.0  0.01134  0.83326  0.25399  1.0000
  S   S97       1.0  0.09925  0.97683  0.27016  1.0000
  S   S98       1.0  0.02584  0.85988  0.23744  1.0000
  Fe  Fe47      1.0  0.00736  0.80217  0.29186  1.0000
  C   C353      1.0  0.22378  0.85085  0.09362  1.0000
  S   S99       1.0  0.02698  0.80154  0.26159  1.0000
  H   H427      1.0  0.01953  0.69893  0.98639  1.0000
  Fe  Fe48      1.0  0.14639  0.53330  0.05443  1.0000
  S   S100      1.0  0.17380  0.51735  0.03691  1.0000
  S   S101      1.0  0.14491  0.56547  0.05835  1.0000
  H   H428      1.0  0.01867  0.81126  0.14129  1.0000
  C   C354      1.0  0.18640  0.71461  0.02158  1.0000
  C   C355      1.0  0.00681  0.92977  0.26670  1.0000
  H   H429      1.0  0.00684  0.67961  0.06476  1.0000
  H   H430      1.0  0.05239  0.67800  0.98574  1.0000
  S   S102      1.0  0.14647  0.50919  0.08189  1.0000
  S   S103      1.0  0.12503  0.52119  0.04126  1.0000
  C   C356      1.0  0.01945  0.71267  0.03980  1.0000
  C   C357      1.0  0.99932  0.71395  0.03728  1.0000
  C   C358      1.0  0.21226  0.51135  0.07227  1.0000
  C   C359      1.0  0.22604  0.52390  0.07192  1.0000
  H   H431      1.0  0.12857  0.75692  0.03240  1.0000
  C   C360      1.0  0.19188  0.74176  0.03593  1.0000
  S   S104      1.0  0.21317  0.93052  0.10012  1.0000
  H   H432      1.0  0.19638  0.51724  0.07416  1.0000
  H   H433      1.0  0.22073  0.53940  0.07364  1.0000
  H   H434      1.0  0.21395  0.72642  0.01491  1.0000
  S   S105      1.0  0.23678  0.81485  0.01241  1.0000
  C   C361      1.0  0.06761  0.88243  0.26869  1.0000
  C   C362      1.0  0.06138  0.89371  0.25110  1.0000
  C   C363      1.0  0.04869  0.88657  0.24155  1.0000
  C   C364      1.0  0.04188  0.86831  0.24970  1.0000
  C   C365      1.0  0.04769  0.85727  0.26755  1.0000
  C   C366      1.0  0.06064  0.86425  0.27692  1.0000
  H   H435      1.0  0.06679  0.90766  0.24457  1.0000
  H   H436      1.0  0.04429  0.89517  0.22771  1.0000
  H   H437      1.0  0.04250  0.84319  0.27397  1.0000
  H   H438      1.0  0.06539  0.85542  0.29052  1.0000
  C   C367      1.0  0.17527  0.93183  0.17480  1.0000
  C   C368      1.0  0.17348  0.95272  0.17211  1.0000
  C   C369      1.0  0.16005  0.96358  0.18594  1.0000
  C   C370      1.0  0.14818  0.95372  0.20251  1.0000
  C   C371      1.0  0.14991  0.93282  0.20517  1.0000
  C   C372      1.0  0.16343  0.92193  0.19138  1.0000
  H   H439      1.0  0.18228  0.96059  0.15930  1.0000
  H   H440      1.0  0.21574  0.94551  0.16903  1.0000
  H   H441      1.0  0.14086  0.92507  0.21788  1.0000
  H   H442      1.0  0.16468  0.90578  0.19358  1.0000
  H   H443      1.0  0.11793  0.74557  0.07954  1.0000
  H   H444      1.0  0.07409  0.67545  0.05373  1.0000
  H   H445      1.0  0.01968  0.91905  0.26171  1.0000
  H   H446      1.0  0.17294  0.86292  0.09661  1.0000
  C   C373      1.0  0.02788  0.83604  0.16512  1.0000
  H   H447      1.0  0.20144  0.75222  0.03667  1.0000
  C   C374      1.0  0.03959  0.82680  0.20288  1.0000
  H   H448      1.0  0.99292  0.80085  0.20353  1.0000
  C   C375      1.0  0.21899  0.49111  0.07070  1.0000
  H   H449      1.0  0.07197  0.64823  0.99436  1.0000
  Fe  Fe49      1.0  0.13337  0.71065  0.98719  1.0000
  Fe  Fe50      1.0  0.15250  0.50304  0.02615  1.0000
  C   C376      1.0  0.18567  0.89056  0.11283  1.0000
  C   C377      1.0  0.12582  0.61920  0.01106  1.0000
  C   C378      1.0  0.12631  0.59955  0.00799  1.0000
  C   C379      1.0  0.13158  0.58294  0.02263  1.0000
  C   C380      1.0  0.13660  0.58590  0.04036  1.0000
  C   C381      1.0  0.13609  0.60554  0.04345  1.0000
  C   C382      1.0  0.13062  0.62217  0.02889  1.0000
  Fe  Fe51      1.0  0.07052  0.96555  0.27231  1.0000
  H   H450      1.0  0.13198  0.56786  0.02010  1.0000
  H   H451      1.0  0.13998  0.60790  0.05714  1.0000
  H   H452      1.0  0.13029  0.63723  0.03139  1.0000
  H   H453      1.0  0.16663  0.96969  0.24246  1.0000
  H   H454      1.0  0.03848  0.73887  0.99517  1.0000
  C   C383      1.0  0.02037  0.78469  0.17523  1.0000
  Fe  Fe52      1.0  0.23140  0.84717  0.99791  1.0000
  H   H455      1.0  0.02895  0.60146  0.14897  1.0000
  C   C384      1.0  0.03475  0.68327  0.09183  1.0000
  C   C385      1.0  0.04849  0.67348  0.07746  1.0000
  C   C386      1.0  0.06350  0.68318  0.06466  1.0000
  C   C387      1.0  0.06514  0.70259  0.06649  1.0000
  C   C388      1.0  0.05141  0.71239  0.08088  1.0000
  C   C389      1.0  0.03609  0.70285  0.09338  1.0000
  H   H456      1.0  0.04757  0.65830  0.07622  1.0000
  H   H457      1.0  0.20851  0.56667  0.04983  1.0000
  H   H458      1.0  0.04277  0.86170  0.16058  1.0000
  C   C390      1.0  0.21231  0.83889  0.06788  1.0000
  C   C391      1.0  0.99486  0.75765  0.21857  1.0000
  C   C392      1.0  0.22453  0.51999  0.99939  1.0000
  C   C393      1.0  0.99403  0.96382  0.27250  1.0000
  C   C394      1.0  0.21345  0.94435  0.20822  1.0000
  S   S106      1.0  0.15933  0.49728  0.99428  1.0000
  C   C395      1.0  0.21721  0.87610  0.12334  1.0000
  Fe  Fe53      1.0  0.12697  0.49572  0.06749  1.0000
  C   C396      1.0  0.21978  0.89094  0.04620  1.0000
  C   C397      1.0  0.23016  0.87741  0.03344  1.0000
  H   H459      1.0  0.99713  0.87348  0.28953  1.0000
  H   H460      1.0  0.02351  0.77838  0.19063  1.0000
  H   H461      1.0  0.02529  0.60999  0.12306  1.0000
  H   H462      1.0  0.10875  0.74438  0.04721  1.0000
  C   C398      1.0  0.99935  0.88935  0.28723  1.0000
  C   C399      1.0  0.00892  0.57439  0.13817  1.0000
  C   C400      1.0  0.02228  0.81869  0.17843  1.0000
  C   C401      1.0  0.17986  0.96262  0.23339  1.0000
  H   H463      1.0  0.18506  0.86736  0.14896  1.0000
  H   H464      1.0  0.21325  0.95945  0.03258  1.0000
  H   H465      1.0  0.99774  0.89357  0.30231  1.0000
  H   H466      1.0  0.21794  0.58771  0.99598  1.0000
  C   C402      1.0  0.21073  0.96498  0.20986  1.0000
  C   C403      1.0  0.12485  0.74204  0.04022  1.0000
  C   C404      1.0  0.00794  0.73383  0.00386  1.0000
  C   C405      1.0  0.22493  0.94630  0.03649  1.0000
  H   H467      1.0  0.01592  0.54374  0.13275  1.0000
  H   H468      1.0  0.22124  0.97445  0.20126  1.0000
  H   H469      1.0  0.00458  0.89934  0.24693  1.0000
  H   H470      1.0  0.99414  0.62944  0.16722  1.0000
  S   S107      1.0  0.99344  0.83446  0.28479  1.0000
  H   H471      1.0  0.02461  0.57565  0.13461  1.0000
  C   C406      1.0  0.02857  0.81443  0.19746  1.0000
  H   H472      1.0  0.22078  0.90577  0.07053  1.0000
  N   N25       1.0  0.99804  0.61046  0.14481  1.0000
  S   S108      1.0  0.07737  0.94030  0.29721  1.0000
  H   H473      1.0  0.14345  0.70419  0.07476  1.0000
  H   H474      1.0  0.01982  0.73552  0.20866  1.0000
  H   H475      1.0  0.00701  0.73336  0.26897  1.0000
  C   C407      1.0  0.15911  0.73062  0.04503  1.0000
  C   C408      1.0  0.18374  0.77470  0.99224  1.0000
  S   S109      1.0  0.11953  0.63952  0.99207  1.0000
  H   H476      1.0  0.18692  0.57460  0.99423  1.0000
  H   H477      1.0  0.05268  0.85361  0.19425  1.0000
  C   C409      1.0  0.07101  0.63766  0.98448  1.0000
  H   H478      1.0  0.02378  0.84057  0.15037  1.0000
  Fe  Fe54      1.0  0.10699  0.95009  0.29346  1.0000
  C   C410      1.0  0.19267  0.84704  0.07504  1.0000
  H   H479      1.0  0.13474  0.76132  0.06489  1.0000
  H   H480      1.0  0.21564  0.83164  0.05472  1.0000
  H   H481      1.0  0.99667  0.97881  0.27243  1.0000
  H   H482      1.0  0.22593  0.88454  0.11017  1.0000
  H   H483      1.0  0.20231  0.60067  0.01526  1.0000
  C   C411      1.0  0.23415  0.54444  0.02253  1.0000
  H   H484      1.0  0.22552  0.58540  0.01989  1.0000
  C   C412      1.0  0.02762  0.73205  0.00682  1.0000
  C   C413      1.0  0.01397  0.73232  0.28201  1.0000
  H   H485      1.0  0.08501  0.62636  0.98494  1.0000
  H   H486      1.0  0.21926  0.93264  0.03553  1.0000
  H   H487      1.0  0.18925  0.55323  0.04846  1.0000
  H   H488      1.0  0.13207  0.70327  0.05370  1.0000
  H   H489      1.0  0.99840  0.52492  0.20487  1.0000
  C   C414      1.0  0.23141  0.91381  0.19433  1.0000
  C   C415      1.0  0.13263  0.71269  0.06485  1.0000
  C   C416      1.0  0.99262  0.68261  0.05864  1.0000
  H   H490      1.0  0.17415  0.56099  0.01694  1.0000
  Fe  Fe55      1.0  0.22391  0.96011  0.09305  1.0000
  C   C417      1.0  0.18844  0.85708  0.09153  1.0000
  C   C418      1.0  0.04460  0.84381  0.18965  1.0000
  H   H491      1.0  0.02457  0.70490  0.05354  1.0000
  S   S110      1.0  0.21122  0.98312  0.06878  1.0000
  C   C419      1.0  0.01958  0.61228  0.13888  1.0000
  H   H492      1.0  0.21322  0.88558  0.13535  1.0000
  C   C420      1.0  0.16387  0.77136  0.99867  1.0000
  H   H493      1.0  0.18389  0.90062  0.12413  1.0000
  C   C421      1.0  0.99390  0.72494  0.01880  1.0000
  C   C422      1.0  0.00488  0.81182  0.15287  1.0000
  H   H494      1.0  0.17067  0.93378  0.24068  1.0000
  H   H495      1.0  0.00222  0.72408  0.18593  1.0000
  Fe  Fe56      1.0  0.21940  0.80891  0.99041  1.0000
  H   H496      1.0  0.05816  0.62973  0.99146  1.0000
  C   C423      1.0  0.00991  0.94929  0.26622  1.0000
  C   C424      1.0  0.03336  0.72151  0.02477  1.0000
  H   H497      1.0  0.02469  0.80169  0.20852  1.0000
  C   C425      1.0  0.00446  0.74227  0.20747  1.0000
  H   H498      1.0  0.04540  0.75540  0.29742  1.0000
  H   H499      1.0  0.19158  0.89882  0.09791  1.0000
  C   C426      1.0  0.18220  0.94230  0.23237  1.0000
  H   H500      1.0  0.03310  0.82608  0.31268  1.0000
  H   H501      1.0  0.18074  0.84581  0.06748  1.0000
  C   C427      1.0  0.00415  0.55587  0.13705  1.0000
  H   H502      1.0  0.17475  0.85577  0.13317  1.0000
  H   H503      1.0  0.04387  0.82349  0.21767  1.0000
  H   H504      1.0  0.20458  0.89806  0.04470  1.0000
  S   S111      1.0  0.19137  0.79420  0.00071  1.0000
  Fe  Fe57      1.0  0.17234  0.49234  0.06309  1.0000
  H   H505      1.0  0.03021  0.75635  0.26839  1.0000
  H   H506      1.0  0.15734  0.70693  0.02892  1.0000
  C   C428      1.0  0.19896  0.72728  0.02358  1.0000
  C   C429      1.0  0.17227  0.74351  0.04652  1.0000
  H   H507      1.0  0.11732  0.71398  0.07402  1.0000
  C   C430      1.0  0.22776  0.84051  0.07736  1.0000
  N   N26       1.0  0.13797  0.73268  0.05528  1.0000
  C   C431      1.0  0.16672  0.71635  0.03194  1.0000
  C   C432      1.0  0.99371  0.59058  0.14354  1.0000
  H   H508      1.0  0.99583  0.82716  0.15077  1.0000
  H   H509      1.0  0.18420  0.58002  0.04625  1.0000
  H   H510      1.0  0.19159  0.70404  0.01114  1.0000
  H   H511      1.0  0.21791  0.91135  0.18919  1.0000
  H   H512      1.0  0.14382  0.73964  0.08244  1.0000
  N   N27       1.0  0.19918  0.87124  0.11791  1.0000
  C   C433      1.0  0.21242  0.58638  0.01245  1.0000
  H   H513      1.0  0.19863  0.84464  0.14029  1.0000
  H   H514      1.0  0.15881  0.97973  0.18379  1.0000
  C   C434      1.0  0.02709  0.74531  0.28172  1.0000
  H   H515      1.0  0.23664  0.85213  0.09966  1.0000
  H   H516      1.0  0.02216  0.62757  0.13965  1.0000
  C   C435      1.0  0.03887  0.84836  0.17077  1.0000
  H   H517      1.0  0.04867  0.72027  0.02711  1.0000
  H   H518      1.0  0.17025  0.88854  0.11241  1.0000
  H   H519      1.0  0.12264  0.59715  0.99421  1.0000
  C   C436      1.0  0.20394  0.85984  0.10097  1.0000
  H   H520      1.0  0.99921  0.70834  0.29935  1.0000
  H   H521      1.0  0.17377  0.58724  0.01441  1.0000
  N   N28       1.0  0.20200  0.56881  0.01994  1.0000
  C   C437      1.0  0.23740  0.93098  0.99694  1.0000
  C   C438      1.0  0.19412  0.97393  0.22221  1.0000
  C   C439      1.0  0.18894  0.85922  0.13587  1.0000
  H   H522      1.0  0.02484  0.95309  0.26131  1.0000
  H   H523      1.0  0.23151  0.96223  0.17174  1.0000
  C   C440      1.0  0.21571  0.55028  0.01516  1.0000
  C   C441      1.0  0.03592  0.74440  0.29852  1.0000
  C   C442      1.0  0.18349  0.57298  0.01089  1.0000
  H   H524      1.0  0.22726  0.86241  0.12929  1.0000
  S   S112      1.0  0.21820  0.87297  0.01488  1.0000
  C   C443      1.0  0.21127  0.53748  0.00339  1.0000
  S   S113      1.0  0.22186  0.96257  0.12544  1.0000
  H   H525      1.0  0.19747  0.54039  0.99743  1.0000
  H   H526      1.0  0.23249  0.90465  0.20944  1.0000
  H   H527      1.0  0.10985  0.89179  0.30889  1.0000
  H   H528      1.0  0.22605  0.94552  0.05253  1.0000
  C   C444      1.0  0.99156  0.61438  0.16574  1.0000
  H   H529      1.0  0.01522  0.88929  0.27992  1.0000
  C   C445      1.0  0.23007  0.94617  0.17367  1.0000
  C   C446      1.0  0.00962  0.71826  0.29914  1.0000
  C   C447      1.0  0.15725  0.75551  0.99315  1.0000
  C   C448      1.0  0.99453  0.73574  0.19451  1.0000
  H   H530      1.0  0.99575  0.80154  0.14969  1.0000
  N   N29       1.0  0.23081  0.93546  0.19446  1.0000
  H   H531      1.0  0.15355  0.78110  0.00800  1.0000
  C   C449      1.0  0.19863  0.93322  0.21992  1.0000
  H   H532      1.0  0.19901  0.91762  0.21936  1.0000
  H   H533      1.0  0.14189  0.75329  0.99783  1.0000
  H   H534      1.0  0.99679  0.71105  0.07788  1.0000
  H   H535      1.0  0.99967  0.60285  0.17638  1.0000
  H   H536      1.0  0.99082  0.64138  0.13103  1.0000
  H   H537      1.0  0.22066  0.51030  0.99065  1.0000
  H   H538      1.0  0.23503  0.91775  0.00801  1.0000
  C   C450      1.0  0.99065  0.48885  0.25030  1.0000
  H   H539      1.0  0.99540  0.67515  0.04520  1.0000
  H   H540      1.0  0.23842  0.55312  0.03195  1.0000
  C   C451      1.0  0.99063  0.80671  0.18778  1.0000
  C   C452      1.0  0.01847  0.71710  0.31599  1.0000
  C   C453      1.0  0.98906  0.89793  0.25466  1.0000
  H   H541      1.0  0.98897  0.49351  0.30425  1.0000
  C   C454      1.0  0.03204  0.73003  0.31616  1.0000
  C   C455      1.0  0.12600  0.97023  0.34925  1.0000
  C   C456      1.0  0.99847  0.62125  0.54119  1.0000
  Fe  Fe58      1.0  0.20784  0.60550  0.50830  1.0000
  S   S114      1.0  0.19786  0.59396  0.54107  1.0000
  Fe  Fe59      1.0  0.18904  0.62917  0.47235  1.0000
  C   C457      1.0  0.09866  0.86183  0.37396  1.0000
  S   S115      1.0  0.15871  0.64523  0.46470  1.0000
  H   H542      1.0  0.02509  0.52506  0.32259  1.0000
  C   C458      1.0  0.16346  0.95489  0.47153  1.0000
  S   S116      1.0  0.19457  0.59641  0.48509  1.0000
  S   S117      1.0  0.19980  0.63843  0.49729  1.0000
  Fe  Fe60      1.0  0.13809  0.92676  0.53993  1.0000
  S   S118      1.0  0.15442  0.90195  0.52306  1.0000
  S   S119      1.0  0.12727  0.95828  0.52516  1.0000
  Fe  Fe61      1.0  0.13564  0.89973  0.58066  1.0000
  S   S120      1.0  0.15127  0.87250  0.56673  1.0000
  S   S121      1.0  0.12525  0.89677  0.61462  1.0000
  Fe  Fe62      1.0  0.17223  0.89327  0.54850  1.0000
  S   S122      1.0  0.20608  0.88358  0.54279  1.0000
  Fe  Fe63      1.0  0.13211  0.88347  0.54229  1.0000
  S   S123      1.0  0.11193  0.86631  0.53124  1.0000
  S   S124      1.0  0.15758  0.91963  0.56374  1.0000
  S   S125      1.0  0.11479  0.90902  0.55800  1.0000
  C   C459      1.0  0.19070  0.87612  0.60087  1.0000
  C   C460      1.0  0.18420  0.91100  0.64762  1.0000
  C   C461      1.0  0.01892  0.59033  0.34387  1.0000
  C   C462      1.0  0.01530  0.82573  0.58601  1.0000
  H   H543      1.0  0.01465  0.76945  0.42734  1.0000
  H   H544      1.0  0.23589  0.89225  0.61495  1.0000
  C   C463      1.0  0.09923  0.84837  0.63351  1.0000
  C   C464      1.0  0.23302  0.54359  0.42861  1.0000
  Fe  Fe64      1.0  0.02912  0.64064  0.44943  1.0000
  S   S126      1.0  0.01387  0.65232  0.42261  1.0000
  Fe  Fe65      1.0  0.06893  0.62480  0.42488  1.0000
  S   S127      1.0  0.05678  0.63568  0.39585  1.0000
  S   S128      1.0  0.10106  0.60869  0.42556  1.0000
  Fe  Fe66      1.0  0.04276  0.66381  0.40911  1.0000
  S   S129      1.0  0.04368  0.69633  0.39420  1.0000
  Fe  Fe67      1.0  0.02884  0.62314  0.41206  1.0000
  S   S130      1.0  0.01475  0.59954  0.40263  1.0000
  S   S131      1.0  0.05700  0.65353  0.43659  1.0000
  S   S132      1.0  0.04207  0.61061  0.44039  1.0000
  Fe  Fe68      1.0  0.06133  0.81916  0.40559  1.0000
  S   S133      1.0  0.08858  0.80189  0.41840  1.0000
  S   S134      1.0  0.06045  0.82995  0.37225  1.0000
  Fe  Fe69      1.0  0.03603  0.81927  0.44708  1.0000
  S   S135      1.0  0.06096  0.80179  0.46312  1.0000
  S   S136      1.0  0.00434  0.82887  0.46190  1.0000
  Fe  Fe70      1.0  0.08024  0.82232  0.44199  1.0000
  S   S137      1.0  0.10411  0.83669  0.45057  1.0000
  Fe  Fe71      1.0  0.06694  0.78309  0.43853  1.0000
  S   S138      1.0  0.07023  0.74920  0.44679  1.0000
  S   S139      1.0  0.05469  0.84111  0.42729  1.0000
  S   S140      1.0  0.04049  0.79910  0.42432  1.0000
  H   H545      1.0  0.21300  0.93221  0.64359  1.0000
  H   H546      1.0  0.99783  0.61673  0.58114  1.0000
  H   H547      1.0  0.07227  0.89750  0.32194  1.0000
  C   C465      1.0  0.02862  0.51364  0.36262  1.0000
  H   H548      1.0  0.22407  0.90628  0.64460  1.0000
  C   C466      1.0  0.04929  0.71207  0.40906  1.0000
  C   C467      1.0  0.05530  0.73058  0.40004  1.0000
  C   C468      1.0  0.06094  0.74260  0.41158  1.0000
  C   C469      1.0  0.06110  0.73592  0.43212  1.0000
  C   C470      1.0  0.05466  0.71771  0.44117  1.0000
  C   C471      1.0  0.04827  0.70617  0.42982  1.0000
  H   H549      1.0  0.05608  0.73546  0.38404  1.0000
  H   H550      1.0  0.06589  0.75665  0.40441  1.0000
  H   H551      1.0  0.05460  0.71245  0.45707  1.0000
  H   H552      1.0  0.04253  0.69271  0.43724  1.0000
  C   C472      1.0  0.13097  0.56182  0.40798  1.0000
  H   H553      1.0  0.01025  0.71798  0.45813  1.0000
  H   H554      1.0  0.11152  0.90710  0.32603  1.0000
  C   C473      1.0  0.07595  0.89583  0.33728  1.0000
  C   C474      1.0  0.11069  0.85695  0.50907  1.0000
  C   C475      1.0  0.12646  0.85612  0.49276  1.0000
  C   C476      1.0  0.12417  0.84983  0.47514  1.0000
  C   C477      1.0  0.10626  0.84388  0.47357  1.0000
  C   C478      1.0  0.09062  0.84434  0.49001  1.0000
  C   C479      1.0  0.09284  0.85083  0.50756  1.0000
  H   H555      1.0  0.14051  0.86018  0.49374  1.0000
  H   H556      1.0  0.13649  0.84936  0.46267  1.0000
  H   H557      1.0  0.07673  0.83985  0.48915  1.0000
  H   H558      1.0  0.08052  0.85130  0.52002  1.0000
  C   C480      1.0  0.13875  0.96400  0.50004  1.0000
  H   H559      1.0  0.01405  0.72353  0.35528  1.0000
  H   H560      1.0  0.00213  0.73465  0.52728  1.0000
  C   C481      1.0  0.15551  0.95118  0.49202  1.0000
  C   C482      1.0  0.18836  0.50532  0.46159  1.0000
  H   H561      1.0  0.01463  0.77433  0.51854  1.0000
  H   H562      1.0  0.16247  0.93849  0.50160  1.0000
  H   H563      1.0  0.01443  0.70613  0.32901  1.0000
  C   C483      1.0  0.21668  0.91168  0.56086  1.0000
  H   H564      1.0  0.10256  0.91139  0.35783  1.0000
  C   C484      1.0  0.20006  0.49218  0.44926  1.0000
  H   H565      1.0  0.20108  0.91852  0.56270  1.0000
  C   C485      1.0  0.21683  0.91955  0.63490  1.0000
  H   H566      1.0  0.99813  0.52913  0.32774  1.0000
  C   C486      1.0  0.02880  0.80046  0.33575  1.0000
  H   H567      1.0  0.01180  0.50531  0.33599  1.0000
  C   C487      1.0  0.04496  0.82768  0.33902  1.0000
  C   C488      1.0  0.04801  0.81842  0.35856  1.0000
  C   C489      1.0  0.04145  0.80009  0.36661  1.0000
  C   C490      1.0  0.03197  0.79114  0.35523  1.0000
  H   H568      1.0  0.99350  0.75779  0.42777  1.0000
  H   H569      1.0  0.05006  0.84180  0.33259  1.0000
  H   H570      1.0  0.04388  0.79268  0.38150  1.0000
  H   H571      1.0  0.02705  0.77695  0.36161  1.0000
  C   C491      1.0  0.13954  0.94493  0.63173  1.0000
  C   C492      1.0  0.13594  0.93202  0.61981  1.0000
  C   C493      1.0  0.12834  0.91443  0.62890  1.0000
  C   C494      1.0  0.10572  0.89519  0.38706  1.0000
  H   H572      1.0  0.14563  0.95838  0.62458  1.0000
  H   H573      1.0  0.13923  0.93559  0.60361  1.0000
  S   S141      1.0  0.18256  0.50690  0.36243  1.0000
  C   C495      1.0  0.14277  0.63314  0.45569  1.0000
  C   C496      1.0  0.12224  0.64102  0.45776  1.0000
  C   C497      1.0  0.10931  0.63327  0.44908  1.0000
  C   C498      1.0  0.11676  0.61761  0.43807  1.0000
  C   C499      1.0  0.13722  0.60924  0.43652  1.0000
  C   C500      1.0  0.15019  0.61695  0.44532  1.0000
  H   H574      1.0  0.11632  0.65332  0.46594  1.0000
  H   H575      1.0  0.09363  0.63966  0.45072  1.0000
  H   H576      1.0  0.14318  0.59708  0.42810  1.0000
  H   H577      1.0  0.16601  0.61080  0.44354  1.0000
  C   C501      1.0  0.20177  0.54483  0.41692  1.0000
  C   C502      1.0  0.19344  0.56161  0.42635  1.0000
  C   C503      1.0  0.20484  0.56940  0.43678  1.0000
  H   H578      1.0  0.17813  0.56875  0.42546  1.0000
  H   H579      1.0  0.19829  0.58245  0.44378  1.0000
  H   H580      1.0  0.06348  0.88980  0.34822  1.0000
  H   H581      1.0  0.09234  0.86503  0.31737  1.0000
  C   C504      1.0  0.20404  0.56163  0.57064  1.0000
  C   C505      1.0  0.21277  0.57313  0.55313  1.0000
  C   C506      1.0  0.10249  0.89684  0.36734  1.0000
  S   S142      1.0  0.18660  0.53564  0.40417  1.0000
  H   H582      1.0  0.20839  0.53529  0.59334  1.0000
  H   H583      1.0  0.18838  0.56583  0.57670  1.0000
  C   C507      1.0  0.01016  0.79787  0.49326  1.0000
  H   H584      1.0  0.10786  0.87560  0.41550  1.0000
  H   H585      1.0  0.12278  0.56366  0.42333  1.0000
  C   C508      1.0  0.23553  0.53874  0.57225  1.0000
  C   C509      1.0  0.00443  0.78706  0.51238  1.0000
  N   N30       1.0  0.12578  0.54474  0.40098  1.0000
  C   C510      1.0  0.13205  0.52614  0.41492  1.0000
  C   C511      1.0  0.13766  0.54328  0.38070  1.0000
  C   C512      1.0  0.10418  0.54689  0.40013  1.0000
  C   C513      1.0  0.09670  0.53141  0.39457  1.0000
  C   C514      1.0  0.09002  0.56413  0.40469  1.0000
  C   C515      1.0  0.07629  0.53290  0.39410  1.0000
  C   C516      1.0  0.06968  0.56550  0.40407  1.0000
  C   C517      1.0  0.06279  0.54989  0.39894  1.0000
  H   H586      1.0  0.12264  0.52604  0.43005  1.0000
  H   H587      1.0  0.14794  0.52464  0.41679  1.0000
  H   H588      1.0  0.13115  0.51229  0.40941  1.0000
  H   H589      1.0  0.02461  0.79325  0.48469  1.0000
  N   N31       1.0  0.22138  0.53151  0.50684  1.0000
  H   H590      1.0  0.13629  0.52956  0.37521  1.0000
  H   H591      1.0  0.10663  0.51797  0.39062  1.0000
  H   H592      1.0  0.09421  0.57678  0.40888  1.0000
  H   H593      1.0  0.07099  0.52071  0.39009  1.0000
  H   H594      1.0  0.05913  0.57877  0.40772  1.0000
  H   H595      1.0  0.04694  0.55107  0.39879  1.0000
  N   N32       1.0  0.11046  0.91797  0.47940  1.0000
  C   C518      1.0  0.10295  0.92741  0.49768  1.0000
  C   C519      1.0  0.09649  0.90437  0.47888  1.0000
  C   C520      1.0  0.13046  0.90592  0.48159  1.0000
  C   C521      1.0  0.11222  0.93259  0.46047  1.0000
  C   C522      1.0  0.11886  0.92574  0.44174  1.0000
  C   C523      1.0  0.10791  0.95371  0.45996  1.0000
  C   C524      1.0  0.12132  0.93921  0.42367  1.0000
  C   C525      1.0  0.11025  0.96702  0.44180  1.0000
  S   S143      1.0  0.22459  0.48912  0.37946  1.0000
  H   H596      1.0  0.08778  0.93655  0.49729  1.0000
  H   H597      1.0  0.10185  0.91594  0.51163  1.0000
  H   H598      1.0  0.11331  0.93707  0.49958  1.0000
  H   H599      1.0  0.08191  0.91305  0.47519  1.0000
  H   H600      1.0  0.09329  0.89448  0.49363  1.0000
  H   H601      1.0  0.10261  0.89411  0.46773  1.0000
  H   H602      1.0  0.14157  0.91579  0.48105  1.0000
  H   H603      1.0  0.12995  0.89540  0.49614  1.0000
  H   H604      1.0  0.13641  0.89656  0.46965  1.0000
  H   H605      1.0  0.12257  0.90987  0.44101  1.0000
  H   H606      1.0  0.10317  0.96038  0.47340  1.0000
  C   C526      1.0  0.23213  0.97303  0.48102  1.0000
  H   H607      1.0  0.21496  0.97779  0.36653  1.0000
  H   H608      1.0  0.04355  0.51452  0.35304  1.0000
  H   H609      1.0  0.12687  0.93370  0.40958  1.0000
  H   H610      1.0  0.02625  0.49777  0.36454  1.0000
  H   H611      1.0  0.00607  0.63237  0.54511  1.0000
  H   H612      1.0  0.08123  0.85638  0.34227  1.0000
  C   C527      1.0  0.99177  0.80516  0.58355  1.0000
  C   C528      1.0  0.99726  0.81468  0.48545  1.0000
  H   H613      1.0  0.12765  0.57625  0.39764  1.0000
  C   C529      1.0  0.22004  0.95855  0.48955  1.0000
  H   H614      1.0  0.21569  0.93286  0.51252  1.0000
  C   C530      1.0  0.01497  0.69114  0.50867  1.0000
  H   H615      1.0  0.12437  0.73687  0.42823  1.0000
  C   C531      1.0  0.11138  0.70382  0.45171  1.0000
  C   C532      1.0  0.13796  0.67298  0.41674  1.0000
  C   C533      1.0  0.13452  0.65867  0.40658  1.0000
  H   H616      1.0  0.11403  0.68875  0.46118  1.0000
  H   H617      1.0  0.11280  0.71520  0.46052  1.0000
  H   H618      1.0  0.09553  0.70684  0.44941  1.0000
  H   H619      1.0  0.15236  0.67025  0.42153  1.0000
  H   H620      1.0  0.14602  0.64578  0.40398  1.0000
  C   C534      1.0  0.22730  0.51001  0.51505  1.0000
  H   H621      1.0  0.04136  0.54513  0.36489  1.0000
  H   H622      1.0  0.20661  0.95856  0.48363  1.0000
  H   H623      1.0  0.22010  0.60922  0.56672  1.0000
  H   H624      1.0  0.04946  0.75796  0.32847  1.0000
  C   C535      1.0  0.99327  0.52582  0.36707  1.0000
  H   H625      1.0  0.19853  0.63358  0.54975  1.0000
  H   H626      1.0  0.13286  0.55655  0.36953  1.0000
  H   H627      1.0  0.02618  0.68401  0.49763  1.0000
  Fe  Fe72      1.0  0.19344  0.49264  0.63624  1.0000
  C   C536      1.0  0.00397  0.58459  0.33651  1.0000
  C   C537      1.0  0.09431  0.86305  0.33334  1.0000
  H   H628      1.0  0.22808  0.92404  0.62152  1.0000
  H   H629      1.0  0.20088  0.55746  0.51606  1.0000
  H   H630      1.0  0.01686  0.74303  0.43328  1.0000
  H   H631      1.0  0.23679  0.63941  0.51749  1.0000
  H   H632      1.0  0.01984  0.60611  0.34222  1.0000
  H   H633      1.0  0.01324  0.56761  0.58062  1.0000
  H   H634      1.0  0.99670  0.58460  0.53444  1.0000
  C   C538      1.0  0.11708  0.95983  0.42372  1.0000
  C   C539      1.0  0.99404  0.60016  0.39045  1.0000
  H   H635      1.0  0.22558  0.93272  0.57532  1.0000
  C   C540      1.0  0.00212  0.56434  0.33947  1.0000
  C   C541      1.0  0.99956  0.68118  0.51957  1.0000
  N   N33       1.0  0.09532  0.88236  0.33925  1.0000
  C   C542      1.0  0.21333  0.53493  0.48778  1.0000
  H   H636      1.0  0.02493  0.81278  0.54868  1.0000
  C   C543      1.0  0.00109  0.71961  0.52570  1.0000
  C   C544      1.0  0.01375  0.82513  0.54367  1.0000
  N   N34       1.0  0.99610  0.82593  0.57932  1.0000
  C   C545      1.0  0.00134  0.84763  0.51544  1.0000
  C   C546      1.0  0.01537  0.54915  0.34973  1.0000
  C   C547      1.0  0.19011  0.93380  0.61635  1.0000
  S   S144      1.0  0.11815  0.94912  0.32259  1.0000
  H   H637      1.0  0.01250  0.75741  0.48320  1.0000
  C   C548      1.0  0.01567  0.83230  0.52303  1.0000
  C   C549      1.0  0.02112  0.59224  0.55677  1.0000
  C   C550      1.0  0.02520  0.57440  0.57075  1.0000
  C   C551      1.0  0.03794  0.59963  0.54407  1.0000
  C   C552      1.0  0.04479  0.56485  0.57236  1.0000
  C   C553      1.0  0.05752  0.58988  0.54573  1.0000
  C   C554      1.0  0.06093  0.57260  0.55990  1.0000
  H   H638      1.0  0.02770  0.71810  0.50307  1.0000
  C   C555      1.0  0.12110  0.97131  0.33017  1.0000
  C   C556      1.0  0.18710  0.89180  0.61187  1.0000
  H   H639      1.0  0.23567  0.51548  0.54223  1.0000
  H   H640      1.0  0.23009  0.67331  0.52454  1.0000
  N   N35       1.0  0.00016  0.60215  0.55570  1.0000
  H   H641      1.0  0.98983  0.73757  0.55914  1.0000
  H   H642      1.0  0.06070  0.84740  0.64156  1.0000
  H   H643      1.0  0.21072  0.54047  0.53605  1.0000
  H   H644      1.0  0.00272  0.85283  0.49935  1.0000
  H   H645      1.0  0.03644  0.61286  0.53269  1.0000
  H   H646      1.0  0.99774  0.79110  0.45004  1.0000
  H   H647      1.0  0.07014  0.59576  0.53593  1.0000
  H   H648      1.0  0.07612  0.56515  0.56121  1.0000
  H   H649      1.0  0.20730  0.49807  0.43435  1.0000
  C   C557      1.0  0.20562  0.54119  0.52163  1.0000
  C   C558      1.0  0.13874  0.98505  0.46723  1.0000
  Fe  Fe73      1.0  0.01568  0.52707  0.64604  1.0000
  C   C559      1.0  0.99750  0.61352  0.48631  1.0000
  H   H650      1.0  0.07609  0.91119  0.33994  1.0000
  H   H651      1.0  0.19987  0.52783  0.48969  1.0000
  H   H652      1.0  0.02663  0.76795  0.46001  1.0000
  H   H653      1.0  0.99889  0.66641  0.51678  1.0000
  C   C560      1.0  0.99757  0.83350  0.55746  1.0000
  H   H654      1.0  0.22998  0.61587  0.53031  1.0000
  H   H655      1.0  0.06305  0.74004  0.34520  1.0000
  C   C561      1.0  0.22612  0.87233  0.60086  1.0000
  H   H656      1.0  0.09113  0.84990  0.62071  1.0000
  C   C562      1.0  0.03064  0.55550  0.35685  1.0000
  H   H657      1.0  0.11940  0.97026  0.40976  1.0000
  Fe  Fe74      1.0  0.23054  0.63582  0.47845  1.0000
  H   H658      1.0  0.09126  0.88542  0.64343  1.0000
  C   C563      1.0  0.15501  0.97176  0.45911  1.0000
  Fe  Fe75      1.0  0.23301  0.49798  0.60940  1.0000
  C   C564      1.0  0.99530  0.72245  0.46597  1.0000
  N   N36       1.0  0.04110  0.72851  0.33427  1.0000
  H   H659      1.0  0.09568  0.84842  0.37007  1.0000
  C   C565      1.0  0.03531  0.81881  0.32769  1.0000
  C   C566      1.0  0.09906  0.88014  0.36009  1.0000
  H   H660      1.0  0.22825  0.52296  0.41080  1.0000
  C   C567      1.0  0.22304  0.89478  0.55140  1.0000
  C   C568      1.0  0.01571  0.71035  0.51168  1.0000
  H   H661      1.0  0.21292  0.85486  0.58604  1.0000
  H   H662      1.0  0.22483  0.52929  0.47544  1.0000
  C   C569      1.0  0.23302  0.56767  0.54540  1.0000
  H   H663      1.0  0.05981  0.70633  0.35251  1.0000
  H   H664      1.0  0.16964  0.50804  0.49014  1.0000
  H   H665      1.0  0.10151  0.84628  0.40400  1.0000
  H   H666      1.0  0.00336  0.79490  0.57502  1.0000
  C   C570      1.0  0.00633  0.75716  0.43551  1.0000
  N   N37       1.0  0.12561  0.70472  0.43246  1.0000
  H   H667      1.0  0.10575  0.72961  0.41827  1.0000
  H   H668      1.0  0.17622  0.94475  0.46531  1.0000
  C   C571      1.0  0.20302  0.89829  0.61772  1.0000
  H   H669      1.0  0.04737  0.55135  0.58340  1.0000
  H   H670      1.0  0.08615  0.97981  0.54591  1.0000
  C   C572      1.0  0.12283  0.68956  0.42120  1.0000
  C   C573      1.0  0.11150  0.89129  0.32475  1.0000
  H   H671      1.0  0.99320  0.59594  0.32919  1.0000
  C   C574      1.0  0.12161  0.72516  0.42055  1.0000
  H   H672      1.0  0.14970  0.68712  0.44732  1.0000
  H   H673      1.0  0.15767  0.70227  0.42349  1.0000
  C   C575      1.0  0.01186  0.52171  0.33410  1.0000
  N   N38       1.0  0.22901  0.63694  0.54975  1.0000
  C   C576      1.0  0.01708  0.75630  0.46698  1.0000
  H   H674      1.0  0.18658  0.52139  0.45622  1.0000
  H   H675      1.0  0.10652  0.83242  0.63688  1.0000
  C   C577      1.0  0.22515  0.94412  0.50580  1.0000
  C   C578      1.0  0.14612  0.70175  0.43731  1.0000
  C   C579      1.0  0.11603  0.66027  0.40075  1.0000
  N   N39       1.0  0.19879  0.91530  0.62896  1.0000
  S   S145      1.0  0.21908  0.62912  0.45223  1.0000
  H   H676      1.0  0.13124  0.72617  0.40548  1.0000
  H   H677      1.0  0.11322  0.64869  0.39361  1.0000
  H   H678      1.0  0.01416  0.82148  0.60265  1.0000
  H   H679      1.0  0.20874  0.55124  0.48230  1.0000
  S   S146      1.0  0.01242  0.64857  0.47898  1.0000
  C   C580      1.0  0.17883  0.49775  0.48062  1.0000
  S   S147      1.0  0.16470  0.97590  0.43343  1.0000
  C   C581      1.0  0.10429  0.69087  0.41472  1.0000
  H   H680      1.0  0.14785  0.71353  0.44549  1.0000
  C   C582      1.0  0.05127  0.70760  0.34009  1.0000
  N   N40       1.0  0.99939  0.75882  0.45706  1.0000
  H   H681      1.0  0.16950  0.90941  0.64451  1.0000
  C   C583      1.0  0.10097  0.67641  0.40471  1.0000
  Fe  Fe76      1.0  0.19490  0.50724  0.39018  1.0000
  H   H682      1.0  0.08650  0.67753  0.40034  1.0000
  H   H683      1.0  0.04352  0.58051  0.36011  1.0000
  H   H684      1.0  0.17173  0.89905  0.61537  1.0000
  H   H685      1.0  0.01180  0.60700  0.47856  1.0000
  H   H686      1.0  0.09207  0.70292  0.41768  1.0000
  H   H687      1.0  0.07054  0.88097  0.63405  1.0000
  C   C584      1.0  0.22659  0.49418  0.50489  1.0000
  C   C585      1.0  0.20760  0.64549  0.54894  1.0000
  C   C586      1.0  0.23431  0.50437  0.53374  1.0000
  C   C587      1.0  0.10189  0.86037  0.39363  1.0000
  H   H688      1.0  0.11121  0.85766  0.62759  1.0000
  H   H689      1.0  0.12794  0.95587  0.35907  1.0000
  H   H690      1.0  0.99271  0.53124  0.38136  1.0000
  H   H691      1.0  0.00500  0.61871  0.52560  1.0000
  S   S148      1.0  0.01723  0.78822  0.32194  1.0000
  C   C588      1.0  0.22161  0.53578  0.41814  1.0000
  H   H692      1.0  0.02811  0.82565  0.51274  1.0000
  C   C589      1.0  0.13050  0.98106  0.48764  1.0000
  H   H693      1.0  0.02693  0.74158  0.46592  1.0000
  Fe  Fe77      1.0  0.22520  0.59657  0.46662  1.0000
  H   H694      1.0  0.15395  0.54250  0.38060  1.0000
  H   H695      1.0  0.19211  0.53384  0.52518  1.0000
  N   N41       1.0  0.01250  0.52792  0.35335  1.0000
  H   H696      1.0  0.17679  0.93179  0.61078  1.0000
  H   H697      1.0  0.10822  0.85195  0.33506  1.0000
  H   H698      1.0  0.10835  0.90814  0.39219  1.0000
  C   C590      1.0  0.21534  0.54434  0.58007  1.0000
  C   C591      1.0  0.07864  0.87681  0.64709  1.0000
  C   C592      1.0  0.21016  0.86644  0.59532  1.0000
  H   H699      1.0  0.14724  0.55966  0.40871  1.0000
  H   H700      1.0  0.02774  0.81466  0.57965  1.0000
  C   C593      1.0  0.99383  0.63378  0.48833  1.0000
  C   C594      1.0  0.10545  0.87696  0.40017  1.0000
  C   C595      1.0  0.22473  0.56050  0.43786  1.0000
  H   H701      1.0  0.04056  0.69688  0.34581  1.0000
  H   H702      1.0  0.20542  0.65584  0.53467  1.0000
  H   H703      1.0  0.17835  0.87179  0.59617  1.0000
  S   S149      1.0  0.21844  0.50808  0.63871  1.0000
  H   H704      1.0  0.06864  0.73860  0.31891  1.0000
  H   H705      1.0  0.01992  0.84080  0.58161  1.0000
  H   H706      1.0  0.01664  0.74938  0.34692  1.0000
  C   C596      1.0  0.02507  0.73399  0.35104  1.0000
  H   H707      1.0  0.06199  0.70219  0.32716  1.0000
  H   H708      1.0  0.22385  0.62617  0.58167  1.0000
  H   H709      1.0  0.04923  0.98586  0.54851  1.0000
  C   C597      1.0  0.12167  0.51473  0.64562  1.0000
  C   C598      1.0  0.22273  0.88804  0.61185  1.0000
  C   C599      1.0  0.23780  0.62810  0.53142  1.0000
  H   H710      1.0  0.12650  0.88250  0.32690  1.0000
  H   H711      1.0  0.20086  0.65381  0.56160  1.0000
  C   C600      1.0  0.23055  0.91961  0.56816  1.0000
  H   H712      1.0  0.18777  0.97447  0.35029  1.0000
  H   H713      1.0  0.12175  0.53063  0.64425  1.0000
  C   C601      1.0  0.03223  0.57584  0.35400  1.0000
  H   H714      1.0  0.20106  0.93832  0.60283  1.0000
  H   H715      1.0  0.02899  0.51634  0.37791  1.0000
  H   H716      1.0  0.18530  0.94663  0.62480  1.0000
  C   C602      1.0  0.05624  0.74183  0.33148  1.0000
  H   H717      1.0  0.99060  0.69163  0.47394  1.0000
  H   H718      1.0  0.03122  0.73367  0.36485  1.0000
  S   S150      1.0  0.00386  0.53944  0.61682  1.0000
  C   C603      1.0  0.13989  0.50126  0.64427  1.0000
  H   H719      1.0  0.98977  0.71321  0.57440  1.0000
  H   H720      1.0  0.10730  0.98306  0.44182  1.0000
  H   H721      1.0  0.22184  0.49693  0.49044  1.0000
  H   H722      1.0  0.99564  0.56801  0.39737  1.0000
  C   C604      1.0  0.22957  0.62037  0.56728  1.0000
  H   H723      1.0  0.23519  0.55801  0.49673  1.0000
  H   H724      1.0  0.98982  0.56078  0.33412  1.0000
  H   H725      1.0  0.99094  0.79867  0.59978  1.0000
  S   S151      1.0  0.16219  0.51046  0.64318  1.0000
  H   H726      1.0  0.22803  0.98431  0.46842  1.0000
  C   C605      1.0  0.98941  0.58848  0.54944  1.0000
  H   H727      1.0  0.99082  0.50992  0.37091  1.0000
  C   C606      1.0  0.98990  0.60685  0.57572  1.0000
  Fe  Fe78      1.0  0.21111  0.48624  0.35330  1.0000
  S   S152      1.0  0.22578  0.48657  0.32069  1.0000
  H   H728      1.0  0.98910  0.59323  0.58738  1.0000
  H   H729      1.0  0.98901  0.57416  0.56013  1.0000
  C   C607      1.0  0.10331  0.50776  0.64915  1.0000
  C   C608      1.0  0.06791  0.84469  0.65514  1.0000
  C   C609      1.0  0.11602  0.84568  0.70248  1.0000
  S   S153      1.0  0.06606  0.72483  0.96132  1.0000
  H   H730      1.0  0.99977  0.93796  0.70564  1.0000
  S   S154      1.0  0.01642  0.69486  0.84991  1.0000
  S   S155      1.0  0.12150  0.69422  0.96807  1.0000
  C   C610      1.0  0.10303  0.48724  0.65116  1.0000
  S   S156      1.0  0.00301  0.72100  0.88698  1.0000
  H   H731      1.0  0.00691  0.67070  0.94151  1.0000
  S   S157      1.0  0.99718  0.52873  0.67647  1.0000
  C   C611      1.0  0.04916  0.66084  0.96351  1.0000
  Fe  Fe79      1.0  0.02568  0.69426  0.87968  1.0000
  S   S158      1.0  0.05763  0.69228  0.88403  1.0000
  H   H732      1.0  0.12222  0.86416  0.65281  1.0000
  S   S159      1.0  0.00675  0.67151  0.89682  1.0000
  H   H733      1.0  0.18196  0.82998  0.90436  1.0000
  S   S160      1.0  0.03823  0.87570  0.69641  1.0000
  H   H734      1.0  0.23563  0.94688  0.94718  1.0000
  Fe  Fe80      1.0  0.14381  0.94480  0.74362  1.0000
  S   S161      1.0  0.13214  0.97153  0.72159  1.0000
  S   S162      1.0  0.16504  0.94258  0.76641  1.0000
  Fe  Fe81      1.0  0.11546  0.91886  0.73457  1.0000
  S   S163      1.0  0.10172  0.94394  0.71292  1.0000
  S   S164      1.0  0.10368  0.88927  0.74308  1.0000
  Fe  Fe82      1.0  0.13325  0.94910  0.70126  1.0000
  S   S165      1.0  0.14297  0.95526  0.66735  1.0000
  Fe  Fe83      1.0  0.10165  0.96362  0.73509  1.0000
  S   S166      1.0  0.14738  0.92285  0.72200  1.0000
  S   S167      1.0  0.11305  0.93813  0.75786  1.0000
  C   C612      1.0  0.08495  0.66045  0.95620  1.0000
  C   C613      1.0  0.12463  0.85457  0.68361  1.0000
  Fe  Fe84      1.0  0.02583  0.53074  0.68605  1.0000
  S   S168      1.0  0.02399  0.55192  0.70766  1.0000
  Fe  Fe85      1.0  0.03046  0.53761  0.85024  1.0000
  S   S169      1.0  0.05789  0.51510  0.84219  1.0000
  S   S170      1.0  0.03699  0.56185  0.86452  1.0000
  H   H735      1.0  0.20312  0.81003  0.90239  1.0000
  C   C614      1.0  0.19827  0.97780  0.79672  1.0000
  S   S171      1.0  0.07229  0.98172  0.74714  1.0000
  Fe  Fe86      1.0  0.00332  0.51435  0.83751  1.0000
  H   H736      1.0  0.00026  0.51457  0.73837  1.0000
  Fe  Fe87      1.0  0.04517  0.51581  0.81449  1.0000
  S   S172      1.0  0.06486  0.51485  0.78422  1.0000
  S   S173      1.0  0.01204  0.51432  0.86712  1.0000
  S   S174      1.0  0.01907  0.54008  0.82128  1.0000
  H   H737      1.0  0.19453  0.78011  0.91892  1.0000
  H   H738      1.0  0.02427  0.65943  0.81328  1.0000
  C   C615      1.0  0.03601  0.54200  0.72854  1.0000
  C   C616      1.0  0.05138  0.52536  0.72815  1.0000
  C   C617      1.0  0.06005  0.51704  0.74539  1.0000
  C   C618      1.0  0.05339  0.52529  0.76305  1.0000
  C   C619      1.0  0.03804  0.54193  0.76344  1.0000
  C   C620      1.0  0.02952  0.55041  0.74615  1.0000
  H   H739      1.0  0.05648  0.51885  0.71462  1.0000
  H   H740      1.0  0.07159  0.50388  0.74522  1.0000
  H   H741      1.0  0.03287  0.54835  0.77698  1.0000
  C   C621      1.0  0.14401  0.79178  0.95409  1.0000
  C   C622      1.0  0.17745  0.95679  0.77782  1.0000
  H   H742      1.0  0.18087  0.92335  0.65669  1.0000
  H   H743      1.0  0.13140  0.97405  0.76630  1.0000
  H   H744      1.0  0.06604  0.51892  0.88725  1.0000
  C   C623      1.0  0.19859  0.95710  0.80264  1.0000
  C   C624      1.0  0.18831  0.94673  0.79325  1.0000
  H   H745      1.0  0.08355  0.67253  0.96518  1.0000
  C   C625      1.0  0.01978  0.94435  0.73436  1.0000
  H   H746      1.0  0.18893  0.93070  0.79790  1.0000
  C   C626      1.0  0.11770  0.51104  0.74308  1.0000
  C   C627      1.0  0.12748  0.92311  0.66187  1.0000
  H   H747      1.0  0.12435  0.91939  0.67808  1.0000
  C   C628      1.0  0.05623  0.87919  0.70973  1.0000
  C   C629      1.0  0.06782  0.89431  0.70150  1.0000
  C   C630      1.0  0.08249  0.89738  0.71150  1.0000
  C   C631      1.0  0.08563  0.88545  0.72991  1.0000
  C   C632      1.0  0.07405  0.87025  0.73814  1.0000
  C   C633      1.0  0.05932  0.86717  0.72813  1.0000
  H   H748      1.0  0.06557  0.90367  0.68727  1.0000
  H   H749      1.0  0.09154  0.90881  0.70477  1.0000
  H   H750      1.0  0.07645  0.86090  0.75234  1.0000
  H   H751      1.0  0.05054  0.85539  0.73455  1.0000
  Fe  Fe88      1.0  0.05051  0.49847  0.66324  1.0000
  C   C634      1.0  0.01004  0.74668  0.80608  1.0000
  C   C635      1.0  0.02018  0.75469  0.78725  1.0000
  C   C636      1.0  0.01353  0.77428  0.77784  1.0000
  C   C637      1.0  0.19031  0.74620  0.97458  1.0000
  H   H752      1.0  0.18121  0.82987  0.95898  1.0000
  H   H753      1.0  0.01527  0.73160  0.81320  1.0000
  C   C638      1.0  0.00300  0.49077  0.78605  1.0000
  C   C639      1.0  0.03574  0.65949  0.95081  1.0000
  C   C640      1.0  0.99971  0.62493  0.85995  1.0000
  C   C641      1.0  0.15223  0.49928  0.72935  1.0000
  S   S175      1.0  0.99059  0.85512  0.69639  1.0000
  C   C642      1.0  0.02159  0.58560  0.86375  1.0000
  C   C643      1.0  0.02666  0.60025  0.87243  1.0000
  C   C644      1.0  0.01571  0.61987  0.87060  1.0000
  Fe  Fe89      1.0  0.00722  0.49551  0.68303  1.0000
  H   H754      1.0  0.09117  0.83211  0.71955  1.0000
  H   H755      1.0  0.06836  0.88229  0.66024  1.0000
  H   H756      1.0  0.01995  0.63118  0.87699  1.0000
  H   H757      1.0  0.01276  0.88634  0.73340  1.0000
  C   C645      1.0  0.06010  0.70107  0.90564  1.0000
  C   C646      1.0  0.07920  0.70086  0.90984  1.0000
  C   C647      1.0  0.08131  0.70789  0.92702  1.0000
  C   C648      1.0  0.06430  0.71552  0.93983  1.0000
  C   C649      1.0  0.04529  0.71623  0.93528  1.0000
  C   C650      1.0  0.04318  0.70862  0.91854  1.0000
  H   H758      1.0  0.09239  0.69512  0.89988  1.0000
  H   H759      1.0  0.09607  0.70759  0.93026  1.0000
  H   H760      1.0  0.03208  0.72228  0.94500  1.0000
  H   H761      1.0  0.02839  0.70849  0.91581  1.0000
  N   N42       1.0  0.00005  0.91750  0.73392  1.0000
  C   C651      1.0  0.99653  0.78575  0.78725  1.0000
  N   N43       1.0  0.19096  0.81568  0.93264  1.0000
  C   C652      1.0  0.23393  0.91712  0.90852  1.0000
  C   C653      1.0  0.18406  0.83388  0.94228  1.0000
  H   H762      1.0  0.99813  0.53086  0.77483  1.0000
  C   C654      1.0  0.17615  0.80189  0.93703  1.0000
  C   C655      1.0  0.15745  0.80537  0.95002  1.0000
  H   H763      1.0  0.20635  0.83355  0.90702  1.0000
  C   C656      1.0  0.18047  0.78400  0.92859  1.0000
  H   H764      1.0  0.01677  0.49668  0.78643  1.0000
  S   S176      1.0  0.99725  0.80749  0.66823  1.0000
  H   H765      1.0  0.20673  0.79998  0.95653  1.0000
  C   C657      1.0  0.07278  0.63212  0.95088  1.0000
  N   N44       1.0  0.12725  0.50919  0.70568  1.0000
  S   S177      1.0  0.03435  0.49751  0.69516  1.0000
  Fe  Fe90      1.0  0.09135  0.71123  0.97868  1.0000
  H   H766      1.0  0.03939  0.59654  0.88020  1.0000
  H   H767      1.0  0.06132  0.62209  0.95571  1.0000
  H   H768      1.0  0.06319  0.94172  0.75167  1.0000
  H   H769      1.0  0.10891  0.50104  0.95973  1.0000
  H   H770      1.0  0.09182  0.97413  0.81020  1.0000
  S   S178      1.0  0.00553  0.84333  0.74098  1.0000
  Fe  Fe91      1.0  0.99915  0.82241  0.69420  1.0000
  C   C658      1.0  0.14881  0.77434  0.94561  1.0000
  C   C659      1.0  0.09797  0.83876  0.70477  1.0000
  C   C660      1.0  0.05039  0.93688  0.74840  1.0000
  Fe  Fe92      1.0  0.03864  0.49199  0.85696  1.0000
  H   H771      1.0  0.10216  0.51688  0.74213  1.0000
  C   C661      1.0  0.01725  0.92389  0.73930  1.0000
  H   H772      1.0  0.21232  0.76435  0.97514  1.0000
  H   H773      1.0  0.12311  0.84452  0.71544  1.0000
  C   C662      1.0  0.03613  0.95069  0.73890  1.0000
  C   C663      1.0  0.10680  0.48909  0.90443  1.0000
  H   H774      1.0  0.13637  0.53824  0.69733  1.0000
  N   N45       1.0  0.06906  0.64791  0.96367  1.0000
  H   H775      1.0  0.18988  0.89686  0.65727  1.0000
  Fe  Fe93      1.0  0.99515  0.67446  0.86799  1.0000
  C   C664      1.0  0.08382  0.50326  0.93147  1.0000
  H   H776      1.0  0.09615  0.50594  0.71416  1.0000
  H   H777      1.0  0.13853  0.86021  0.68192  1.0000
  C   C665      1.0  0.08808  0.84131  0.68838  1.0000
  H   H778      1.0  0.01196  0.48892  0.74631  1.0000
  C   C666      1.0  0.22935  0.90725  0.92831  1.0000
  H   H779      1.0  0.99806  0.89156  0.75727  1.0000
  H   H780      1.0  0.01608  0.91431  0.70428  1.0000
  H   H781      1.0  0.07886  0.50541  0.94688  1.0000
  S   S179      1.0  0.02862  0.49028  0.82847  1.0000
  H   H782      1.0  0.15300  0.81824  0.95757  1.0000
  C   C667      1.0  0.07103  0.51323  0.91788  1.0000
  C   C668      1.0  0.13577  0.94028  0.65281  1.0000
  H   H783      1.0  0.03331  0.74573  0.77998  1.0000
  C   C669      1.0  0.03207  0.91023  0.74908  1.0000
  C   C670      1.0  0.99929  0.89576  0.74067  1.0000
  C   C671      1.0  0.16701  0.77044  0.93293  1.0000
  H   H784      1.0  0.09030  0.97062  0.78518  1.0000
  C   C672      1.0  0.00498  0.59039  0.85398  1.0000
  H   H785      1.0  0.99652  0.69546  0.96436  1.0000
  S   S180      1.0  0.02752  0.78441  0.75505  1.0000
  H   H786      1.0  0.02015  0.50944  0.75242  1.0000
  C   C673      1.0  0.13224  0.50665  0.72605  1.0000
  C   C674      1.0  0.99419  0.61007  0.85190  1.0000
  H   H787      1.0  0.09772  0.49755  0.87530  1.0000
  H   H788      1.0  0.14657  0.49804  0.77978  1.0000
  S   S181      1.0  0.04383  0.53211  0.65479  1.0000
  H   H789      1.0  0.11722  0.89728  0.65731  1.0000
  H   H790      1.0  0.99131  0.80087  0.78013  1.0000
  H   H791      1.0  0.13466  0.52704  0.67651  1.0000
  C   C675      1.0  0.17689  0.97756  0.77207  1.0000
  H   H792      1.0  0.17024  0.84299  0.93714  1.0000
  S   S182      1.0  0.16304  0.72196  0.97489  1.0000
  H   H793      1.0  0.07367  0.83652  0.69153  1.0000
  H   H794      1.0  0.13627  0.50131  0.92896  1.0000
  H   H795      1.0  0.22817  0.87885  0.94804  1.0000
  H   H796      1.0  0.03943  0.64927  0.94013  1.0000
  N   N46       1.0  0.05085  0.75309  0.85181  1.0000
  C   C676      1.0  0.04069  0.73951  0.84461  1.0000
  C   C677      1.0  0.07189  0.74304  0.85243  1.0000
  C   C678      1.0  0.04068  0.75526  0.87256  1.0000
  C   C679      1.0  0.05051  0.77315  0.83902  1.0000
  C   C680      1.0  0.04099  0.77883  0.82177  1.0000
  C   C681      1.0  0.06012  0.78767  0.84354  1.0000
  C   C682      1.0  0.04149  0.79764  0.80965  1.0000
  C   C683      1.0  0.06047  0.80651  0.83136  1.0000
  C   C684      1.0  0.05124  0.81145  0.81439  1.0000
  H   H797      1.0  0.04770  0.73689  0.82913  1.0000
  H   H798      1.0  0.04157  0.72447  0.85430  1.0000
  H   H799      1.0  0.02444  0.74556  0.84483  1.0000
  H   H800      1.0  0.08009  0.75105  0.85974  1.0000
  H   H801      1.0  0.08028  0.74187  0.83702  1.0000
  H   H802      1.0  0.07270  0.72752  0.86120  1.0000
  H   H803      1.0  0.02483  0.76287  0.87271  1.0000
  H   H804      1.0  0.04050  0.74036  0.88250  1.0000
  H   H805      1.0  0.04820  0.76402  0.87977  1.0000
  H   H806      1.0  0.03306  0.76904  0.81723  1.0000
  H   H807      1.0  0.06750  0.78452  0.85652  1.0000
  H   H808      1.0  0.03428  0.80144  0.79642  1.0000
  H   H809      1.0  0.06800  0.81733  0.83503  1.0000
  H   H810      1.0  0.05163  0.82599  0.80488  1.0000
  N   N47       1.0  0.04434  0.59463  0.79761  1.0000
  C   C685      1.0  0.05346  0.60076  0.77643  1.0000
  C   C686      1.0  0.05545  0.57457  0.80506  1.0000
  C   C687      1.0  0.02335  0.59223  0.79817  1.0000
  C   C688      1.0  0.04475  0.61028  0.80941  1.0000
  C   C689      1.0  0.03351  0.62985  0.80521  1.0000
  C   C690      1.0  0.05653  0.60688  0.82488  1.0000
  C   C691      1.0  0.03365  0.64486  0.81613  1.0000
  C   C692      1.0  0.05690  0.62217  0.83538  1.0000
  C   C693      1.0  0.04537  0.64105  0.83113  1.0000
  H   H811      1.0  0.06913  0.60316  0.77539  1.0000
  H   H812      1.0  0.05385  0.58917  0.76709  1.0000
  H   H813      1.0  0.04502  0.61501  0.76931  1.0000
  H   H814      1.0  0.05448  0.56295  0.79628  1.0000
  H   H815      1.0  0.04929  0.56914  0.82103  1.0000
  H   H816      1.0  0.07169  0.57480  0.80388  1.0000
  H   H817      1.0  0.02257  0.57997  0.79019  1.0000
  H   H818      1.0  0.01570  0.58858  0.81391  1.0000
  H   H819      1.0  0.01428  0.60594  0.79097  1.0000
  H   H820      1.0  0.02429  0.63370  0.79363  1.0000
  H   H821      1.0  0.06518  0.59242  0.82961  1.0000
  H   H822      1.0  0.06556  0.61912  0.84746  1.0000
  H   H823      1.0  0.11195  0.95924  0.79612  1.0000
  Fe  Fe94      1.0  0.01305  0.81147  0.73520  1.0000
  C   C694      1.0  0.10042  0.97312  0.79485  1.0000
  H   H824      1.0  0.03791  0.96636  0.73496  1.0000
  H   H825      1.0  0.08770  0.62245  0.95167  1.0000
  C   C695      1.0  0.01693  0.67177  0.95138  1.0000
  C   C696      1.0  0.23761  0.94716  0.96235  1.0000
  H   H826      1.0  0.99393  0.49088  0.80130  1.0000
  C   C697      1.0  0.10223  0.49091  0.92508  1.0000
  H   H827      1.0  0.00059  0.57898  0.84785  1.0000
  C   C698      1.0  0.13887  0.52374  0.69172  1.0000
  H   H828      1.0  0.21647  0.79152  0.93297  1.0000
  H   H829      1.0  0.01761  0.56327  0.74648  1.0000
  C   C699      1.0  0.09396  0.49924  0.89099  1.0000
  H   H830      1.0  0.19559  0.84392  0.93857  1.0000
  H   H831      1.0  0.20695  0.94898  0.81431  1.0000
  H   H832      1.0  0.03173  0.89434  0.75316  1.0000
  C   C700      1.0  0.12289  0.50786  0.76219  1.0000
  H   H833      1.0  0.04510  0.65259  0.83984  1.0000
  C   C701      1.0  0.07608  0.51124  0.89770  1.0000
  Fe  Fe95      1.0  0.01922  0.85142  0.70864  1.0000
  S   S183      1.0  0.02908  0.81954  0.70360  1.0000
  H   H834      1.0  0.16408  0.49568  0.71709  1.0000
  Fe  Fe96      1.0  0.99203  0.71998  0.85879  1.0000
  C   C702      1.0  0.99343  0.75843  0.81578  1.0000
  H   H835      1.0  0.23132  0.91726  0.97386  1.0000
  H   H836      1.0  0.13004  0.79446  0.96437  1.0000
  C   C703      1.0  0.19574  0.82255  0.91066  1.0000
  C   C704      1.0  0.20962  0.80499  0.93998  1.0000
  H   H837      1.0  0.10062  0.53167  0.70945  1.0000
  H   H838      1.0  0.05600  0.85046  0.66707  1.0000
  H   H839      1.0  0.05966  0.90607  0.76071  1.0000
  S   S184      1.0  0.02384  0.49347  0.65193  1.0000
  C   C705      1.0  0.15730  0.49630  0.74851  1.0000
  H   H840      1.0  0.11143  0.51103  0.77500  1.0000
  H   H841      1.0  0.13871  0.76346  0.94940  1.0000
  C   C706      1.0  0.10568  0.51669  0.70472  1.0000
  H   H842      1.0  0.15527  0.51804  0.68933  1.0000
  H   H843      1.0  0.05701  0.52252  0.92299  1.0000
  C   C707      1.0  0.04831  0.91676  0.75356  1.0000
  H   H844      1.0  0.07288  0.63880  0.93473  1.0000
  H   H845      1.0  0.10250  0.51854  0.68915  1.0000
  H   H846      1.0  0.17091  0.75650  0.92694  1.0000
  S   S185      1.0  0.21218  0.84162  0.97765  1.0000
  H   H847      1.0  0.22420  0.91588  0.94038  1.0000
  H   H848      1.0  0.16890  0.98556  0.76010  1.0000
  H   H849      1.0  0.10019  0.65139  0.95673  1.0000
  H   H850      1.0  0.00924  0.95558  0.72678  1.0000
  C   C708      1.0  0.01099  0.68577  0.96433  1.0000
  C   C709      1.0  0.09636  0.85054  0.66893  1.0000
  C   C710      1.0  0.13258  0.48955  0.69856  1.0000
  C   C711      1.0  0.23157  0.88626  0.93266  1.0000
  H   H851      1.0  0.22122  0.81483  0.93663  1.0000
  H   H852      1.0  0.08441  0.66778  0.94039  1.0000
  C   C712      1.0  0.11510  0.85680  0.66703  1.0000
  H   H853      1.0  0.17268  0.49060  0.75065  1.0000
  C   C713      1.0  0.19692  0.76214  0.98000  1.0000
  C   C714      1.0  0.00662  0.50394  0.75089  1.0000
  S   S186      1.0  0.23281  0.94332  0.90455  1.0000
  Fe  Fe97      1.0  0.23075  0.98493  0.83284  1.0000
  H   H854      1.0  0.20065  0.73636  0.96537  1.0000
  C   C715      1.0  0.00137  0.92165  0.71177  1.0000
  H   H855      1.0  0.12685  0.49016  0.68447  1.0000
  H   H856      1.0  0.13510  0.97800  0.80087  1.0000
  H   H857      1.0  0.08939  0.51825  0.65041  1.0000
  C   C716      1.0  0.12365  0.91039  0.64998  1.0000
  N   N48       1.0  0.08565  0.85486  0.65154  1.0000
  C   C717      1.0  0.02388  0.68765  0.97675  1.0000
  C   C718      1.0  0.04272  0.67551  0.97629  1.0000
  H   H858      1.0  0.07208  0.82815  0.65953  1.0000
  C   C719      1.0  0.23516  0.93055  0.97733  1.0000
  H   H859      1.0  0.98946  0.91587  0.70695  1.0000
  N   N49       1.0  0.99206  0.50288  0.76997  1.0000
  H   H860      1.0  0.10357  0.98113  0.67835  1.0000
  C   C720      1.0  0.14264  0.50051  0.76492  1.0000
  C   C721      1.0  0.23819  0.87495  0.91718  1.0000
  C   C722      1.0  0.17052  0.74265  0.98136  1.0000
  S   S187      1.0  0.38116  0.43827  0.25697  1.0000
  C   C723      1.0  0.34877  0.42568  0.31144  1.0000
  C   C724      1.0  0.46771  0.08553  0.00124  1.0000
  S   S188      1.0  0.46674  0.40926  0.20827  1.0000
  H   H861      1.0  0.47753  0.00268  0.24409  1.0000
  H   H862      1.0  0.41264  0.02489  0.13878  1.0000
  S   S189      1.0  0.26495  0.05040  0.03606  1.0000
  C   C725      1.0  0.33669  0.44983  0.01978  1.0000
  Fe  Fe98      1.0  0.48177  0.37712  0.21567  1.0000
  S   S190      1.0  0.46890  0.34850  0.22242  1.0000
  H   H863      1.0  0.28269  0.05387  0.06828  1.0000
  H   H864      1.0  0.44805  0.10170  0.18058  1.0000
  C   C726      1.0  0.24139  0.00309  0.06946  1.0000
  Fe  Fe99      1.0  0.36554  0.46868  0.24397  1.0000
  H   H865      1.0  0.44152  0.38869  0.24199  1.0000
  Fe  Fe100     1.0  0.43104  0.29698  0.10675  1.0000
  S   S191      1.0  0.40414  0.29412  0.09446  1.0000
  S   S192      1.0  0.42556  0.31171  0.13450  1.0000
  Fe  Fe101     1.0  0.45931  0.28156  0.07146  1.0000
  S   S193      1.0  0.43500  0.27812  0.05571  1.0000
  H   H866      1.0  0.47342  0.46411  0.22791  1.0000
  Fe  Fe102     1.0  0.41969  0.30792  0.06462  1.0000
  S   S194      1.0  0.40175  0.33567  0.04873  1.0000
  Fe  Fe103     1.0  0.42138  0.26459  0.08666  1.0000
  S   S195      1.0  0.40659  0.23681  0.09430  1.0000
  S   S196      1.0  0.44560  0.31256  0.07736  1.0000
  S   S197      1.0  0.44677  0.26609  0.10188  1.0000
  Fe  Fe104     1.0  0.38438  0.11041  0.05480  1.0000
  S   S198      1.0  0.39438  0.12483  0.07693  1.0000
  S   S199      1.0  0.35196  0.10846  0.05521  1.0000
  Fe  Fe105     1.0  0.42677  0.09790  0.03436  1.0000
  S   S200      1.0  0.44071  0.11099  0.05447  1.0000
  S   S201      1.0  0.44234  0.08352  0.00760  1.0000
  Fe  Fe106     1.0  0.41843  0.09735  0.07929  1.0000
  S   S202      1.0  0.42432  0.08023  0.10990  1.0000
  Fe  Fe107     1.0  0.41586  0.13742  0.05054  1.0000
  S   S203      1.0  0.42411  0.16863  0.04003  1.0000
  S   S204      1.0  0.40658  0.08205  0.05938  1.0000
  S   S205      1.0  0.40377  0.12528  0.02830  1.0000
  C   C727      1.0  0.41173  0.21798  0.07904  1.0000
  C   C728      1.0  0.42104  0.22145  0.05898  1.0000
  C   C729      1.0  0.42465  0.20620  0.04721  1.0000
  C   C730      1.0  0.41891  0.18741  0.05534  1.0000
  C   C731      1.0  0.40949  0.18399  0.07536  1.0000
  C   C732      1.0  0.40584  0.19926  0.08712  1.0000
  H   H867      1.0  0.42533  0.23590  0.05252  1.0000
  H   H868      1.0  0.43194  0.20893  0.03172  1.0000
  H   H869      1.0  0.40496  0.16960  0.08177  1.0000
  H   H870      1.0  0.39847  0.19652  0.10258  1.0000
  H   H871      1.0  0.45087  0.01271  0.09553  1.0000
  C   C733      1.0  0.45516  0.10186  0.16511  1.0000
  H   H872      1.0  0.44636  0.12770  0.00665  1.0000
  C   C734      1.0  0.24138  0.44375  0.99128  1.0000
  C   C735      1.0  0.48391  0.98673  0.24284  1.0000
  H   H873      1.0  0.47168  0.30448  0.03419  1.0000
  H   H874      1.0  0.43329  0.17247  0.99757  1.0000
  H   H875      1.0  0.38989  0.30871  0.99189  1.0000
  C   C736      1.0  0.48406  0.98903  0.28373  1.0000
  C   C737      1.0  0.33239  0.45836  0.29849  1.0000
  C   C738      1.0  0.47859  0.08666  0.01591  1.0000
  H   H876      1.0  0.32322  0.41336  0.29304  1.0000
  H   H877      1.0  0.47176  0.08484  0.03157  1.0000
  H   H878      1.0  0.47617  0.14285  0.04167  1.0000
  C   C739      1.0  0.38716  0.32156  0.99945  1.0000
  C   C740      1.0  0.39600  0.32039  0.01644  1.0000
  C   C741      1.0  0.39219  0.33680  0.02653  1.0000
  C   C742      1.0  0.38004  0.35457  0.01913  1.0000
  C   C743      1.0  0.37145  0.35585  0.00197  1.0000
  H   H879      1.0  0.29284  0.07630  0.06421  1.0000
  H   H880      1.0  0.40577  0.30685  0.02169  1.0000
  H   H881      1.0  0.37712  0.36737  0.02679  1.0000
  C   C744      1.0  0.25113  0.44872  0.00547  1.0000
  C   C745      1.0  0.47542  0.06538  0.18895  1.0000
  C   C746      1.0  0.47634  0.23155  0.03737  1.0000
  C   C747      1.0  0.33949  0.43082  0.01436  1.0000
  H   H882      1.0  0.42817  0.04247  0.09455  1.0000
  H   H883      1.0  0.33922  0.41761  0.02587  1.0000
  H   H884      1.0  0.34519  0.05468  0.06364  1.0000
  C   C748      1.0  0.47149  0.04831  0.13568  1.0000
  C   C749      1.0  0.45206  0.05755  0.13236  1.0000
  C   C750      1.0  0.44877  0.06821  0.11335  1.0000
  C   C751      1.0  0.46499  0.06934  0.09760  1.0000
  C   C752      1.0  0.32956  0.05992  0.07064  1.0000
  H   H885      1.0  0.47391  0.04014  0.15033  1.0000
  H   H886      1.0  0.43956  0.05659  0.14459  1.0000
  H   H887      1.0  0.46263  0.07740  0.08288  1.0000
  C   C753      1.0  0.46194  0.27765  0.21748  1.0000
  C   C754      1.0  0.33148  0.10331  0.99725  1.0000
  C   C755      1.0  0.31763  0.10593  0.01474  1.0000
  C   C756      1.0  0.32409  0.10781  0.03225  1.0000
  C   C757      1.0  0.34450  0.10686  0.03256  1.0000
  C   C758      1.0  0.35842  0.10418  0.01511  1.0000
  C   C759      1.0  0.35191  0.10252  0.99748  1.0000
  H   H888      1.0  0.30188  0.10688  0.01471  1.0000
  H   H889      1.0  0.31319  0.11018  0.04556  1.0000
  H   H890      1.0  0.37420  0.10334  0.01518  1.0000
  H   H891      1.0  0.40343  0.04454  0.10786  1.0000
  H   H892      1.0  0.48328  0.30399  0.22007  1.0000
  N   N50       1.0  0.46484  0.28251  0.23667  1.0000
  C   C760      1.0  0.46497  0.30318  0.14073  1.0000
  C   C761      1.0  0.44560  0.31338  0.14623  1.0000
  C   C762      1.0  0.44197  0.32502  0.16158  1.0000
  C   C763      1.0  0.45756  0.32647  0.17135  1.0000
  C   C764      1.0  0.48458  0.99047  0.30358  1.0000
  H   H893      1.0  0.46796  0.29414  0.12897  1.0000
  H   H894      1.0  0.42702  0.33295  0.16593  1.0000
  H   H895      1.0  0.45460  0.33550  0.18311  1.0000
  C   C765      1.0  0.44308  0.41697  0.22218  1.0000
  C   C766      1.0  0.43325  0.43670  0.21721  1.0000
  C   C767      1.0  0.41431  0.44336  0.22789  1.0000
  C   C768      1.0  0.40508  0.43028  0.24360  1.0000
  C   C769      1.0  0.41502  0.41059  0.24876  1.0000
  C   C770      1.0  0.43399  0.40391  0.23804  1.0000
  H   H896      1.0  0.44023  0.44680  0.20494  1.0000
  H   H897      1.0  0.40689  0.45859  0.22394  1.0000
  H   H898      1.0  0.40798  0.40043  0.26094  1.0000
  C   C771      1.0  0.23959  0.48352  0.06867  1.0000
  H   H899      1.0  0.33551  0.48147  0.00888  1.0000
  H   H900      1.0  0.38136  0.02655  0.12797  1.0000
  C   C772      1.0  0.38844  0.43311  0.01371  1.0000
  H   H901      1.0  0.48415  0.05577  0.20037  1.0000
  C   C773      1.0  0.47170  0.22162  0.07320  1.0000
  H   H902      1.0  0.24377  0.99286  0.08320  1.0000
  C   C774      1.0  0.33048  0.31811  0.02005  1.0000
  C   C775      1.0  0.32622  0.42903  0.28829  1.0000
  C   C776      1.0  0.32541  0.48580  0.15166  1.0000
  C   C777      1.0  0.33733  0.46682  0.00483  1.0000
  H   H903      1.0  0.47474  0.10220  0.19647  1.0000
  H   H904      1.0  0.30735  0.04121  0.04024  1.0000
  H   H905      1.0  0.26567  0.41410  0.02727  1.0000
  H   H906      1.0  0.34554  0.41410  0.98998  1.0000
  C   C778      1.0  0.48711  0.46738  0.23103  1.0000
  C   C779      1.0  0.47037  0.25118  0.28804  1.0000
  C   C780      1.0  0.34039  0.46487  0.98452  1.0000
  C   C781      1.0  0.48780  0.05009  0.12010  1.0000
  C   C782      1.0  0.39078  0.46704  0.01635  1.0000
  C   C783      1.0  0.48357  0.29101  0.23258  1.0000
  C   C784      1.0  0.48620  0.29903  0.02604  1.0000
  C   C785      1.0  0.40277  0.00324  0.11420  1.0000
  H   H907      1.0  0.35290  0.00861  0.13539  1.0000
  H   H908      1.0  0.47806  0.10363  0.10879  1.0000
  Fe  Fe108     1.0  0.32714  0.48406  0.05039  1.0000
  H   H909      1.0  0.34776  0.24943  0.06370  1.0000
  H   H910      1.0  0.43361  0.29197  0.24770  1.0000
  H   H911      1.0  0.35479  0.98636  0.08042  1.0000
  H   H912      1.0  0.47682  0.24694  0.03976  1.0000
  H   H913      1.0  0.27310  0.47540  0.17376  1.0000
  C   C786      1.0  0.31785  0.04959  0.04416  1.0000
  N   N51       1.0  0.42004  0.01404  0.11040  1.0000
  C   C787      1.0  0.42501  0.01571  0.12989  1.0000
  C   C788      1.0  0.43840  0.00388  0.09869  1.0000
  C   C789      1.0  0.41497  0.03457  0.09898  1.0000
  H   H914      1.0  0.47503  0.26719  0.21105  1.0000
  C   C790      1.0  0.33689  0.01558  0.07345  1.0000
  C   C791      1.0  0.44779  0.29822  0.24276  1.0000
  S   S206      1.0  0.47761  0.32326  0.27668  1.0000
  H   H915      1.0  0.27335  0.44434  0.03643  1.0000
  H   H916      1.0  0.33357  0.46564  0.31114  1.0000
  H   H917      1.0  0.42814  0.00060  0.13925  1.0000
  H   H918      1.0  0.45908  0.18857  0.07799  1.0000
  H   H919      1.0  0.36273  0.10054  0.98402  1.0000
  C   C792      1.0  0.26073  0.47848  0.14681  1.0000
  H   H920      1.0  0.42824  0.11841  0.15443  1.0000
  H   H921      1.0  0.36199  0.36955  0.99649  1.0000
  H   H922      1.0  0.45019  0.30505  0.25523  1.0000
  S   S207      1.0  0.33225  0.47255  0.24570  1.0000
  H   H923      1.0  0.44808  0.27110  0.21945  1.0000
  H   H924      1.0  0.25153  0.48470  0.28271  1.0000
  C   C793      1.0  0.47689  0.31607  0.16599  1.0000
  N   N52       1.0  0.27254  0.44038  0.00623  1.0000
  H   H925      1.0  0.34004  0.33972  0.03290  1.0000
  C   C794      1.0  0.48094  0.19596  0.05078  1.0000
  H   H926      1.0  0.29076  0.41137  0.01314  1.0000
  H   H927      1.0  0.47354  0.21912  0.29661  1.0000
  H   H928      1.0  0.32911  0.05832  0.08711  1.0000
  C   C795      1.0  0.46678  0.16479  0.06129  1.0000
  C   C796      1.0  0.39196  0.47325  0.99523  1.0000
  H   H929      1.0  0.46054  0.29130  0.20565  1.0000
  H   H930      1.0  0.28699  0.02689  0.09253  1.0000
  H   H931      1.0  0.46658  0.24142  0.23562  1.0000
  H   H932      1.0  0.47074  0.21347  0.26301  1.0000
  H   H933      1.0  0.34943  0.02133  0.06353  1.0000
  C   C797      1.0  0.38898  0.44727  0.02536  1.0000
  H   H934      1.0  0.43851  0.02291  0.12777  1.0000
  H   H935      1.0  0.47268  0.12754  0.00173  1.0000
  C   C798      1.0  0.27485  0.41827  0.01232  1.0000
  N   N53       1.0  0.31485  0.04911  0.06617  1.0000
  C   C799      1.0  0.34277  0.42884  0.99404  1.0000
  C   C800      1.0  0.28090  0.44842  0.02067  1.0000
  H   H936      1.0  0.45667  0.15591  0.07178  1.0000
  H   H937      1.0  0.34165  0.26771  0.03209  1.0000
  C   C801      1.0  0.45199  0.11225  0.13004  1.0000
  H   H938      1.0  0.29707  0.44222  0.02060  1.0000
  C   C802      1.0  0.31780  0.02794  0.07650  1.0000
  H   H939      1.0  0.33946  0.42892  0.27595  1.0000
  C   C803      1.0  0.29454  0.06045  0.07222  1.0000
  C   C804      1.0  0.46777  0.26754  0.27258  1.0000
  H   H940      1.0  0.44288  0.11921  0.11857  1.0000
  H   H941      1.0  0.26498  0.01906  0.06988  1.0000
  H   H942      1.0  0.25557  0.46414  0.15105  1.0000
  H   H943      1.0  0.46065  0.23104  0.03615  1.0000
  Fe  Fe109     1.0  0.26318  0.06918  0.00556  1.0000
  H   H944      1.0  0.43558  0.00178  0.08397  1.0000
  H   H945      1.0  0.33333  0.04290  0.03803  1.0000
  H   H946      1.0  0.48608  0.29646  0.24586  1.0000
  H   H947      1.0  0.37262  0.24161  0.06920  1.0000
  C   C805      1.0  0.46633  0.26496  0.25302  1.0000
  H   H948      1.0  0.31337  0.43813  0.28137  1.0000
  H   H949      1.0  0.44422  0.98902  0.10712  1.0000
  H   H950      1.0  0.27007  0.41096  0.00147  1.0000
  C   C806      1.0  0.37479  0.33925  0.99222  1.0000
  N   N54       1.0  0.40501  0.36875  0.09689  1.0000
  C   C807      1.0  0.39496  0.35099  0.10023  1.0000
  C   C808      1.0  0.42149  0.36741  0.07944  1.0000
  C   C809      1.0  0.41425  0.36762  0.11490  1.0000
  C   C810      1.0  0.39036  0.38732  0.09272  1.0000
  C   C811      1.0  0.38523  0.40237  0.10518  1.0000
  C   C812      1.0  0.38076  0.39083  0.07562  1.0000
  C   C813      1.0  0.37148  0.41983  0.10062  1.0000
  C   C814      1.0  0.36701  0.40834  0.07125  1.0000
  C   C815      1.0  0.36241  0.42281  0.08371  1.0000
  H   H951      1.0  0.38869  0.34986  0.08694  1.0000
  H   H952      1.0  0.40557  0.33673  0.10339  1.0000
  H   H953      1.0  0.38248  0.35138  0.11324  1.0000
  H   H954      1.0  0.41634  0.36512  0.06589  1.0000
  H   H955      1.0  0.43359  0.35447  0.08264  1.0000
  H   H956      1.0  0.42837  0.38126  0.07541  1.0000
  H   H957      1.0  0.40287  0.36736  0.12887  1.0000
  H   H958      1.0  0.42534  0.35356  0.11744  1.0000
  H   H959      1.0  0.42249  0.38030  0.11333  1.0000
  H   H960      1.0  0.39158  0.40104  0.11858  1.0000
  H   H961      1.0  0.38379  0.37997  0.06555  1.0000
  H   H962      1.0  0.36775  0.43115  0.11030  1.0000
  H   H963      1.0  0.35972  0.41077  0.05819  1.0000
  H   H964      1.0  0.35169  0.43634  0.08031  1.0000
  H   H965      1.0  0.40946  0.03412  0.08500  1.0000
  H   H966      1.0  0.32658  0.07629  0.06471  1.0000
  C   C816      1.0  0.48444  0.06046  0.10103  1.0000
  H   H967      1.0  0.35906  0.31476  0.05536  1.0000
  H   H968      1.0  0.44441  0.99173  0.25906  1.0000
  N   N55       1.0  0.48324  0.21597  0.05391  1.0000
  C   C817      1.0  0.47757  0.15751  0.04414  1.0000
  H   H969      1.0  0.29135  0.06095  0.08860  1.0000
  S   S208      1.0  0.33197  0.45205  0.04529  1.0000
  S   S209      1.0  0.26653  0.10117  0.00313  1.0000
  C   C818      1.0  0.44373  0.11162  0.15027  1.0000
  C   C819      1.0  0.47520  0.09208  0.16006  1.0000
  H   H970      1.0  0.34243  0.27583  0.08601  1.0000
  N   N56       1.0  0.36461  0.27359  0.05938  1.0000
  C   C820      1.0  0.38580  0.27619  0.05258  1.0000
  C   C821      1.0  0.35859  0.27665  0.08063  1.0000
  C   C822      1.0  0.36340  0.25241  0.05886  1.0000
  C   C823      1.0  0.35207  0.28857  0.04645  1.0000
  C   C824      1.0  0.35100  0.30942  0.04613  1.0000
  C   C825      1.0  0.34163  0.28314  0.03306  1.0000
  C   C826      1.0  0.34024  0.32390  0.03321  1.0000
  C   C827      1.0  0.33106  0.29779  0.02006  1.0000
  H   H971      1.0  0.24483  0.46781  0.06772  1.0000
  H   H972      1.0  0.38838  0.29104  0.05457  1.0000
  H   H973      1.0  0.39593  0.26462  0.06119  1.0000
  H   H974      1.0  0.39065  0.27498  0.03640  1.0000
  H   H975      1.0  0.36121  0.29135  0.08291  1.0000
  H   H976      1.0  0.36737  0.26507  0.09078  1.0000
  H   H977      1.0  0.36929  0.24841  0.04365  1.0000
  C   C828      1.0  0.27051  0.48487  0.15960  1.0000
  H   H978      1.0  0.34614  0.45967  0.28699  1.0000
  H   H979      1.0  0.45528  0.22286  0.07392  1.0000
  C   C829      1.0  0.46984  0.22865  0.26562  1.0000
  C   C830      1.0  0.46830  0.18374  0.06463  1.0000
  H   H980      1.0  0.44167  0.48355  0.19424  1.0000
  C   C831      1.0  0.25036  0.03135  0.04422  1.0000
  H   H981      1.0  0.32276  0.32941  0.00955  1.0000
  H   H982      1.0  0.31511  0.06524  0.03582  1.0000
  C   C832      1.0  0.30209  0.01887  0.08946  1.0000
  C   C833      1.0  0.38366  0.01196  0.12358  1.0000
  N   N57       1.0  0.32965  0.43717  0.30546  1.0000
  H   H983      1.0  0.47183  0.25356  0.30275  1.0000
  H   H984      1.0  0.47634  0.21069  0.08635  1.0000
  H   H985      1.0  0.45635  0.14632  0.01462  1.0000
  H   H986      1.0  0.44545  0.31100  0.23022  1.0000
  C   C834      1.0  0.38938  0.43873  0.99302  1.0000
  H   H987      1.0  0.36151  0.42657  0.29861  1.0000
  C   C835      1.0  0.28486  0.44498  0.98610  1.0000
  H   H988      1.0  0.27973  0.46505  0.01693  1.0000
  C   C836      1.0  0.36729  0.00177  0.12800  1.0000
  H   H989      1.0  0.46104  0.07193  0.19752  1.0000
  C   C837      1.0  0.48048  0.30441  0.15068  1.0000
  S   S210      1.0  0.24091  0.07589  0.98434  1.0000
  H   H990      1.0  0.38750  0.44303  0.04155  1.0000
  C   C838      1.0  0.23924  0.46141  0.01890  1.0000
  H   H991      1.0  0.31518  0.47512  0.15628  1.0000
  C   C839      1.0  0.32441  0.98716  0.09561  1.0000
  C   C840      1.0  0.47140  0.23177  0.28457  1.0000
  C   C841      1.0  0.45797  0.13759  0.00229  1.0000
  H   H992      1.0  0.29041  0.45453  0.30371  1.0000
  H   H993      1.0  0.48579  0.22978  0.02256  1.0000
  H   H994      1.0  0.29326  0.99203  0.10856  1.0000
  C   C842      1.0  0.34010  0.99554  0.08296  1.0000
  C   C843      1.0  0.46740  0.24493  0.24997  1.0000
  N   N58       1.0  0.48659  0.08090  0.17608  1.0000
  C   C844      1.0  0.25338  0.01795  0.06192  1.0000
  C   C845      1.0  0.48207  0.29500  0.31036  1.0000
  C   C846      1.0  0.30546  0.99877  0.09882  1.0000
  C   C847      1.0  0.48330  0.09339  0.13924  1.0000
  H   H995      1.0  0.32351  0.29341  0.00968  1.0000
  C   C848      1.0  0.47180  0.10343  0.12456  1.0000
  H   H996      1.0  0.46724  0.28226  0.27600  1.0000
  H   H997      1.0  0.24504  0.46580  0.03050  1.0000
  H   H998      1.0  0.39080  0.47726  0.02633  1.0000
  C   C849      1.0  0.43561  0.16348  0.98531  1.0000
  H   H999      1.0  0.30116  0.43995  0.98645  1.0000
  H   H1000     1.0  0.38664  0.41792  0.02079  1.0000
  H   H1001     1.0  0.47198  0.05535  0.17976  1.0000
  H   H1002     1.0  0.48243  0.32062  0.99915  1.0000
  H   H1003     1.0  0.47406  0.23653  0.07527  1.0000
  H   H1004     1.0  0.42366  0.15394  0.98958  1.0000
  H   H1005     1.0  0.31967  0.46748  0.29143  1.0000
  C   C850      1.0  0.39084  0.45853  0.98390  1.0000
  H   H1006     1.0  0.38816  0.42788  0.98409  1.0000
  H   H1007     1.0  0.24999  0.48564  0.11856  1.0000
  C   C851      1.0  0.48734  0.48588  0.23615  1.0000
  N   N59       1.0  0.45593  0.15112  0.98294  1.0000
  H   H1008     1.0  0.34924  0.24534  0.47160  1.0000
  C   C852      1.0  0.39488  0.03635  0.44554  1.0000
  C   C853      1.0  0.31987  0.29151  0.46732  1.0000
  S   S211      1.0  0.26840  0.31271  0.53195  1.0000
  H   H1009     1.0  0.36686  0.01583  0.43870  1.0000
  H   H1010     1.0  0.35452  0.05939  0.57824  1.0000
  H   H1011     1.0  0.30632  0.13279  0.50058  1.0000
  C   C854      1.0  0.37879  0.00942  0.42722  1.0000
  C   C855      1.0  0.37810  0.16238  0.63439  1.0000
  C   C856      1.0  0.40204  0.17749  0.64516  1.0000
  Fe  Fe110     1.0  0.33210  0.20961  0.51012  1.0000
  S   S212      1.0  0.34126  0.17869  0.52711  1.0000
  S   S213      1.0  0.29974  0.22490  0.51016  1.0000
  Fe  Fe111     1.0  0.37411  0.21162  0.48803  1.0000
  S   S214      1.0  0.38684  0.18089  0.50262  1.0000
  S   S215      1.0  0.39267  0.23370  0.46832  1.0000
  Fe  Fe112     1.0  0.35910  0.17147  0.49768  1.0000
  S   S216      1.0  0.36042  0.13969  0.49238  1.0000
  Fe  Fe113     1.0  0.36832  0.18999  0.53100  1.0000
  S   S217      1.0  0.38146  0.17766  0.55948  1.0000
  S   S218      1.0  0.34808  0.20151  0.48024  1.0000
  S   S219      1.0  0.35748  0.22165  0.51682  1.0000
  C   C857      1.0  0.31375  0.42601  0.34175  1.0000
  H   H1012     1.0  0.45817  0.18300  0.43818  1.0000
  S   S220      1.0  0.43330  0.22490  0.59381  1.0000
  S   S221      1.0  0.46834  0.17691  0.61696  1.0000
  Fe  Fe114     1.0  0.31804  0.08021  0.43150  1.0000
  S   S222      1.0  0.30623  0.06848  0.40854  1.0000
  S   S223      1.0  0.31907  0.11324  0.42953  1.0000
  Fe  Fe115     1.0  0.32962  0.03845  0.45461  1.0000
  S   S224      1.0  0.31896  0.02334  0.43389  1.0000
  S   S225      1.0  0.34448  0.02205  0.48085  1.0000
  Fe  Fe116     1.0  0.33381  0.04463  0.40927  1.0000
  S   S226      1.0  0.35654  0.03452  0.38315  1.0000
  Fe  Fe117     1.0  0.29222  0.04804  0.43520  1.0000
  S   S227      1.0  0.26236  0.03691  0.44313  1.0000
  S   S228      1.0  0.34651  0.05806  0.42998  1.0000
  S   S229      1.0  0.30191  0.06167  0.45806  1.0000
  H   H1013     1.0  0.47206  0.22028  0.57024  1.0000
  H   H1014     1.0  0.24107  0.03637  0.34507  1.0000
  C   C858      1.0  0.27817  0.43589  0.35295  1.0000
  H   H1015     1.0  0.25695  0.06717  0.40738  1.0000
  C   C859      1.0  0.38841  0.10609  0.41412  1.0000
  H   H1016     1.0  0.48602  0.16235  0.46686  1.0000
  C   C860      1.0  0.29693  0.42594  0.35698  1.0000
  H   H1017     1.0  0.48489  0.03462  0.63019  1.0000
  H   H1018     1.0  0.26500  0.17222  0.46385  1.0000
  H   H1019     1.0  0.47309  0.21287  0.43791  1.0000
  H   H1020     1.0  0.32780  0.41810  0.34599  1.0000
  C   C861      1.0  0.35898  0.00928  0.38005  1.0000
  C   C862      1.0  0.24400  0.05971  0.41179  1.0000
  H   H1021     1.0  0.33006  0.00500  0.39720  1.0000
  C   C863      1.0  0.29256  0.11936  0.48322  1.0000
  H   H1022     1.0  0.37074  0.11498  0.61511  1.0000
  C   C864      1.0  0.39696  0.19079  0.56756  1.0000
  C   C865      1.0  0.39589  0.21155  0.56180  1.0000
  C   C866      1.0  0.40738  0.22179  0.56970  1.0000
  C   C867      1.0  0.42021  0.21133  0.58316  1.0000
  C   C868      1.0  0.42190  0.19045  0.58824  1.0000
  C   C869      1.0  0.41009  0.18025  0.58069  1.0000
  H   H1023     1.0  0.38576  0.21981  0.55174  1.0000
  H   H1024     1.0  0.40606  0.23795  0.56564  1.0000
  H   H1025     1.0  0.43202  0.18218  0.59825  1.0000
  H   H1026     1.0  0.41110  0.16415  0.58512  1.0000
  C   C870      1.0  0.33162  0.12039  0.44629  1.0000
  C   C871      1.0  0.34044  0.10613  0.46085  1.0000
  C   C872      1.0  0.34944  0.11229  0.47467  1.0000
  C   C873      1.0  0.34981  0.13271  0.47400  1.0000
  C   C874      1.0  0.34153  0.14694  0.45908  1.0000
  C   C875      1.0  0.33236  0.14080  0.44533  1.0000
  H   H1027     1.0  0.34000  0.09037  0.46172  1.0000
  H   H1028     1.0  0.35594  0.10117  0.48609  1.0000
  H   H1029     1.0  0.34232  0.16261  0.45807  1.0000
  H   H1030     1.0  0.32574  0.15188  0.43397  1.0000
  C   C876      1.0  0.42998  0.21394  0.41082  1.0000
  C   C877      1.0  0.41397  0.20421  0.42109  1.0000
  C   C878      1.0  0.40241  0.21016  0.43880  1.0000
  C   C879      1.0  0.40647  0.22627  0.44593  1.0000
  C   C880      1.0  0.42212  0.23634  0.43539  1.0000
  C   C881      1.0  0.43412  0.22994  0.41808  1.0000
  H   H1031     1.0  0.41068  0.19189  0.41544  1.0000
  H   H1032     1.0  0.39033  0.20234  0.44683  1.0000
  H   H1033     1.0  0.42519  0.24892  0.44078  1.0000
  H   H1034     1.0  0.44112  0.14582  0.62596  1.0000
  C   C882      1.0  0.27671  0.28832  0.52574  1.0000
  C   C883      1.0  0.26537  0.27939  0.51644  1.0000
  C   C884      1.0  0.27258  0.25995  0.51176  1.0000
  C   C885      1.0  0.29122  0.24935  0.51620  1.0000
  C   C886      1.0  0.30262  0.25835  0.52533  1.0000
  C   C887      1.0  0.29537  0.27772  0.53010  1.0000
  H   H1035     1.0  0.26913  0.32842  0.46244  1.0000
  H   H1036     1.0  0.26366  0.25313  0.50468  1.0000
  H   H1037     1.0  0.31684  0.25025  0.52908  1.0000
  H   H1038     1.0  0.30418  0.28449  0.53738  1.0000
  C   C888      1.0  0.28324  0.31833  0.46365  1.0000
  C   C889      1.0  0.46941  0.18032  0.50119  1.0000
  H   H1039     1.0  0.36085  0.09803  0.41122  1.0000
  H   H1040     1.0  0.33715  0.27303  0.50101  1.0000
  H   H1041     1.0  0.38101  0.14072  0.54351  1.0000
  H   H1042     1.0  0.35874  0.07394  0.60758  1.0000
  S   S230      1.0  0.41690  0.08317  0.62726  1.0000
  Fe  Fe118     1.0  0.41446  0.05139  0.64334  1.0000
  S   S231      1.0  0.45191  0.01005  0.37755  1.0000
  C   C890      1.0  0.46767  0.21178  0.45441  1.0000
  S   S232      1.0  0.37968  0.00530  0.61929  1.0000
  H   H1043     1.0  0.36063  0.20265  0.62627  1.0000
  H   H1044     1.0  0.34119  0.99361  0.45645  1.0000
  N   N60       1.0  0.41629  0.06836  0.36958  1.0000
  C   C891      1.0  0.40981  0.04841  0.37513  1.0000
  C   C892      1.0  0.40974  0.07854  0.35036  1.0000
  C   C893      1.0  0.43858  0.06474  0.36618  1.0000
  C   C894      1.0  0.40710  0.08091  0.38527  1.0000
  C   C895      1.0  0.41833  0.09170  0.39325  1.0000
  C   C896      1.0  0.38607  0.08363  0.39213  1.0000
  C   C897      1.0  0.40903  0.10403  0.40750  1.0000
  C   C898      1.0  0.37697  0.09600  0.40637  1.0000
  H   H1045     1.0  0.39357  0.04929  0.37530  1.0000
  H   H1046     1.0  0.41751  0.03821  0.36424  1.0000
  H   H1047     1.0  0.41319  0.04084  0.39017  1.0000
  H   H1048     1.0  0.39318  0.08054  0.35144  1.0000
  H   H1049     1.0  0.41654  0.06977  0.33801  1.0000
  H   H1050     1.0  0.41413  0.09370  0.34575  1.0000
  H   H1051     1.0  0.44446  0.05760  0.38028  1.0000
  H   H1052     1.0  0.44503  0.05439  0.35514  1.0000
  H   H1053     1.0  0.44489  0.07879  0.35987  1.0000
  H   H1054     1.0  0.43431  0.09108  0.38856  1.0000
  H   H1055     1.0  0.37637  0.07651  0.38631  1.0000
  H   H1056     1.0  0.41783  0.11229  0.41325  1.0000
  H   H1057     1.0  0.42903  0.20863  0.48151  1.0000
  C   C899      1.0  0.31216  0.43623  0.32187  1.0000
  H   H1058     1.0  0.40436  0.03815  0.58960  1.0000
  H   H1059     1.0  0.35659  0.29792  0.44923  1.0000
  C   C900      1.0  0.37139  0.16406  0.61581  1.0000
  C   C901      1.0  0.43050  0.20005  0.51261  1.0000
  H   H1060     1.0  0.26066  0.14300  0.45113  1.0000
  N   N61       1.0  0.46606  0.19082  0.46417  1.0000
  C   C902      1.0  0.24306  0.04444  0.42854  1.0000
  C   C903      1.0  0.34364  0.99815  0.38857  1.0000
  C   C904      1.0  0.27610  0.44590  0.33364  1.0000
  C   C905      1.0  0.39196  0.09913  0.57811  1.0000
  C   C906      1.0  0.48360  0.08356  0.63116  1.0000
  C   C907      1.0  0.42681  0.02358  0.42669  1.0000
  H   H1061     1.0  0.44628  0.23766  0.41006  1.0000
  C   C908      1.0  0.40679  0.02099  0.43526  1.0000
  S   S233      1.0  0.48038  0.22003  0.61968  1.0000
  N   N62       1.0  0.28903  0.17363  0.49066  1.0000
  C   C909      1.0  0.29611  0.18852  0.47325  1.0000
  C   C910      1.0  0.26981  0.18305  0.50160  1.0000
  C   C911      1.0  0.30395  0.16906  0.50442  1.0000
  C   C912      1.0  0.28601  0.15569  0.48362  1.0000
  C   C913      1.0  0.29573  0.13591  0.49032  1.0000
  C   C914      1.0  0.27293  0.15771  0.46959  1.0000
  H   H1062     1.0  0.24800  0.40955  0.44278  1.0000
  H   H1063     1.0  0.24797  0.03314  0.36944  1.0000
  C   C915      1.0  0.37652  0.19938  0.62859  1.0000
  H   H1064     1.0  0.28471  0.19481  0.46337  1.0000
  H   H1065     1.0  0.29983  0.20161  0.47814  1.0000
  H   H1066     1.0  0.30979  0.18163  0.46386  1.0000
  H   H1067     1.0  0.25815  0.18838  0.49187  1.0000
  H   H1068     1.0  0.27167  0.19642  0.50748  1.0000
  H   H1069     1.0  0.26382  0.17225  0.51464  1.0000
  H   H1070     1.0  0.31900  0.16249  0.49694  1.0000
  H   H1071     1.0  0.30581  0.18284  0.50941  1.0000
  H   H1072     1.0  0.29930  0.15859  0.51834  1.0000
  Fe  Fe119     1.0  0.48158  0.02058  0.36679  1.0000
  H   H1073     1.0  0.47010  0.17233  0.53302  1.0000
  H   H1074     1.0  0.37369  0.04988  0.61436  1.0000
  H   H1075     1.0  0.37982  0.03505  0.45323  1.0000
  H   H1076     1.0  0.26519  0.43597  0.36483  1.0000
  H   H1077     1.0  0.36331  0.11781  0.53313  1.0000
  C   C916      1.0  0.29276  0.31728  0.47989  1.0000
  C   C917      1.0  0.46131  0.18012  0.52152  1.0000
  H   H1078     1.0  0.38831  0.00884  0.36185  1.0000
  C   C918      1.0  0.23897  0.46910  0.53166  1.0000
  H   H1079     1.0  0.25104  0.28742  0.51293  1.0000
  S   S234      1.0  0.42546  0.02683  0.62480  1.0000
  C   C919      1.0  0.27015  0.14107  0.46237  1.0000
  H   H1080     1.0  0.48550  0.27322  0.33737  1.0000
  H   H1081     1.0  0.43739  0.19282  0.45507  1.0000
  C   C920      1.0  0.43398  0.04093  0.42752  1.0000
  H   H1082     1.0  0.36177  0.26650  0.48758  1.0000
  H   H1083     1.0  0.42966  0.12124  0.61085  1.0000
  H   H1084     1.0  0.39253  0.06537  0.45381  1.0000
  H   H1085     1.0  0.27787  0.98899  0.50196  1.0000
  C   C921      1.0  0.27998  0.12195  0.46914  1.0000
  C   C922      1.0  0.31075  0.30406  0.48186  1.0000
  H   H1086     1.0  0.39938  0.12900  0.57211  1.0000
  Fe  Fe120     1.0  0.45289  0.20873  0.61681  1.0000
  H   H1087     1.0  0.26146  0.45369  0.33059  1.0000
  H   H1088     1.0  0.35824  0.99824  0.59021  1.0000
  H   H1089     1.0  0.41534  0.20760  0.51710  1.0000
  C   C923      1.0  0.48619  0.17840  0.46011  1.0000
  H   H1090     1.0  0.38635  0.19952  0.61368  1.0000
  H   H1091     1.0  0.34981  0.28031  0.43683  1.0000
  C   C924      1.0  0.43088  0.11802  0.62662  1.0000
  C   C925      1.0  0.35412  0.28216  0.45095  1.0000
  C   C926      1.0  0.37637  0.00032  0.36851  1.0000
  N   N63       1.0  0.33887  0.27725  0.46886  1.0000
  H   H1092     1.0  0.44925  0.22528  0.54569  1.0000
  H   H1093     1.0  0.38118  0.11577  0.42505  1.0000
  C   C927      1.0  0.39157  0.11881  0.56772  1.0000
  H   H1094     1.0  0.46784  0.30285  0.31693  1.0000
  H   H1095     1.0  0.36884  0.27212  0.45200  1.0000
  H   H1096     1.0  0.42722  0.06945  0.43771  1.0000
  C   C928      1.0  0.37134  0.09285  0.55620  1.0000
  H   H1097     1.0  0.35106  0.29245  0.48695  1.0000
  H   H1098     1.0  0.33061  0.25443  0.45604  1.0000
  H   H1099     1.0  0.31693  0.30379  0.49512  1.0000
  C   C929      1.0  0.37067  0.05260  0.57683  1.0000
  C   C930      1.0  0.37900  0.12596  0.63880  1.0000
  H   H1100     1.0  0.28594  0.32655  0.49129  1.0000
  C   C931      1.0  0.37117  0.11253  0.54585  1.0000
  H   H1101     1.0  0.45307  0.22201  0.45631  1.0000
  C   C932      1.0  0.45237  0.18325  0.45448  1.0000
  C   C933      1.0  0.38174  0.08554  0.57276  1.0000
  H   H1102     1.0  0.26106  0.99930  0.36784  1.0000
  S   S235      1.0  0.48788  0.03941  0.33651  1.0000
  C   C934      1.0  0.37423  0.06529  0.60561  1.0000
  C   C935      1.0  0.40343  0.05421  0.58228  1.0000
  C   C936      1.0  0.38120  0.12549  0.55162  1.0000
  C   C937      1.0  0.34751  0.27742  0.48691  1.0000
  H   H1103     1.0  0.37133  0.03714  0.58578  1.0000
  N   N64       1.0  0.38239  0.06478  0.58405  1.0000
  H   H1104     1.0  0.42390  0.98741  0.37090  1.0000
  N   N65       1.0  0.39847  0.00311  0.43414  1.0000
  H   H1105     1.0  0.44924  0.04265  0.42064  1.0000
  H   H1106     1.0  0.27834  0.10916  0.46303  1.0000
  S   S236      1.0  0.44431  0.20602  0.38884  1.0000
  H   H1107     1.0  0.46265  0.22992  0.50924  1.0000
  C   C938      1.0  0.45808  0.19035  0.48586  1.0000
  C   C939      1.0  0.44189  0.18985  0.52720  1.0000
  C   C940      1.0  0.47277  0.22782  0.51994  1.0000
  H   H1108     1.0  0.45010  0.16777  0.46182  1.0000
  C   C941      1.0  0.29177  0.30628  0.44912  1.0000
  H   H1109     1.0  0.38351  0.07217  0.61290  1.0000
  C   C942      1.0  0.43846  0.20042  0.49224  1.0000
  H   H1110     1.0  0.31579  0.28399  0.43925  1.0000
  C   C943      1.0  0.30982  0.29309  0.45085  1.0000
  H   H1111     1.0  0.37661  0.05066  0.56096  1.0000
  H   H1112     1.0  0.37315  0.99670  0.42370  1.0000
  C   C944      1.0  0.33539  0.25652  0.46982  1.0000
  H   H1113     1.0  0.43569  0.18956  0.54297  1.0000
  H   H1114     1.0  0.41279  0.06101  0.58959  1.0000
  H   H1115     1.0  0.41053  0.05451  0.56625  1.0000
  H   H1116     1.0  0.36330  0.08369  0.55080  1.0000
  C   C945      1.0  0.42162  0.05601  0.43714  1.0000
  H   H1117     1.0  0.40041  0.09460  0.59035  1.0000
  H   H1118     1.0  0.47286  0.09671  0.63469  1.0000
  H   H1119     1.0  0.32358  0.25247  0.48275  1.0000
  H   H1120     1.0  0.28425  0.30712  0.43653  1.0000
  C   C946      1.0  0.46516  0.22515  0.54044  1.0000
  C   C947      1.0  0.24837  0.99728  0.36111  1.0000
  C   C948      1.0  0.36879  0.14710  0.60902  1.0000
  H   H1121     1.0  0.30059  0.10449  0.48799  1.0000
  C   C949      1.0  0.37257  0.12811  0.62049  1.0000
  Fe  Fe121     1.0  0.47677  0.20974  0.38195  1.0000
  H   H1122     1.0  0.36403  0.14876  0.59460  1.0000
  S   S237      1.0  0.24958  0.46909  0.62415  1.0000
  H   H1123     1.0  0.36834  0.17824  0.60599  1.0000
  H   H1124     1.0  0.38523  0.99926  0.46554  1.0000
  C   C950      1.0  0.43734  0.13203  0.63519  1.0000
  H   H1125     1.0  0.47839  0.21786  0.46069  1.0000
  C   C951      1.0  0.47721  0.06527  0.63298  1.0000
  H   H1126     1.0  0.41460  0.99917  0.40465  1.0000
  C   C952      1.0  0.40213  0.05369  0.44619  1.0000
  H   H1127     1.0  0.29841  0.41823  0.37209  1.0000
  C   C953      1.0  0.42586  0.10000  0.63836  1.0000
  H   H1128     1.0  0.25325  0.99900  0.34452  1.0000
  H   H1129     1.0  0.37985  0.02092  0.41337  1.0000
  C   C954      1.0  0.34383  0.99619  0.48635  1.0000
  H   H1130     1.0  0.35297  0.43177  0.32351  1.0000
  N   N66       1.0  0.38098  0.17995  0.64216  1.0000
  H   H1131     1.0  0.46141  0.06436  0.63778  1.0000
  S   S238      1.0  0.48737  0.09126  0.34879  1.0000
  H   H1132     1.0  0.41265  0.17523  0.63105  1.0000
  H   H1133     1.0  0.34751  0.99353  0.51714  1.0000
  H   H1134     1.0  0.47694  0.13317  0.35127  1.0000
  H   H1135     1.0  0.43725  0.01250  0.41909  1.0000
  C   C955      1.0  0.47801  0.22238  0.55428  1.0000
  H   H1136     1.0  0.48452  0.17245  0.49790  1.0000
  Fe  Fe122     1.0  0.39796  0.01353  0.64025  1.0000
  H   H1137     1.0  0.27785  0.42404  0.64141  1.0000
  H   H1138     1.0  0.37918  0.21225  0.63467  1.0000
  C   C956      1.0  0.39558  0.99071  0.45438  1.0000
  S   S239      1.0  0.47232  0.99662  0.64707  1.0000
  C   C957      1.0  0.41154  0.99032  0.42002  1.0000
  H   H1139     1.0  0.24511  0.48046  0.55631  1.0000
  H   H1140     1.0  0.38227  0.11110  0.64754  1.0000
  C   C958      1.0  0.38191  0.14276  0.64563  1.0000
  H   H1141     1.0  0.24350  0.45350  0.53801  1.0000
  H   H1142     1.0  0.34795  0.40945  0.31646  1.0000
  C   C959      1.0  0.29279  0.44619  0.31832  1.0000
  C   C960      1.0  0.23991  0.48425  0.54193  1.0000
  C   C961      1.0  0.26177  0.04926  0.91982  1.0000
  C   C962      1.0  0.32127  0.02981  0.79889  1.0000
  S   S240      1.0  0.44527  0.14603  0.66749  1.0000
  H   H1143     1.0  0.44774  0.03392  0.95470  1.0000
  C   C963      1.0  0.47681  0.08726  0.98106  1.0000
  Fe  Fe123     1.0  0.34533  0.44992  0.72987  1.0000
  S   S241      1.0  0.37870  0.44082  0.72276  1.0000
  N   N67       1.0  0.35134  0.46180  0.88248  1.0000
  Fe  Fe124     1.0  0.34640  0.43796  0.77475  1.0000
  S   S242      1.0  0.37975  0.42801  0.77090  1.0000
  S   S243      1.0  0.32664  0.43866  0.80520  1.0000
  Fe  Fe125     1.0  0.38092  0.45590  0.74782  1.0000
  Fe  Fe126     1.0  0.37530  0.41361  0.74606  1.0000
  S   S244      1.0  0.39462  0.38557  0.73628  1.0000
  S   S245      1.0  0.34785  0.46737  0.75340  1.0000
  S   S246      1.0  0.34159  0.42121  0.75148  1.0000
  H   H1144     1.0  0.41875  0.30433  0.78345  1.0000
  H   H1145     1.0  0.25639  0.42746  0.69457  1.0000
  S   S247      1.0  0.44953  0.32792  0.79419  1.0000
  C   C964      1.0  0.45755  0.00120  0.78848  1.0000
  H   H1146     1.0  0.34778  0.46837  0.91253  1.0000
  S   S248      1.0  0.25027  0.00804  0.83213  1.0000
  H   H1147     1.0  0.25217  0.36169  0.91908  1.0000
  H   H1148     1.0  0.32653  0.45057  0.87617  1.0000
  C   C965      1.0  0.45496  0.28866  0.75466  1.0000
  Fe  Fe127     1.0  0.40327  0.02206  0.68127  1.0000
  S   S249      1.0  0.43094  0.03557  0.66837  1.0000
  S   S250      1.0  0.39235  0.01717  0.71504  1.0000
  H   H1149     1.0  0.37710  0.34458  0.75015  1.0000
  H   H1150     1.0  0.34057  0.47808  0.97302  1.0000
  H   H1151     1.0  0.48022  0.10211  0.90284  1.0000
  S   S251      1.0  0.38576  0.03968  0.65716  1.0000
  Fe  Fe128     1.0  0.39209  0.03567  0.84659  1.0000
  S   S252      1.0  0.40667  0.06238  0.83061  1.0000
  S   S253      1.0  0.35814  0.03812  0.85657  1.0000
  Fe  Fe129     1.0  0.43217  0.00814  0.84489  1.0000
  S   S254      1.0  0.44999  0.03205  0.82810  1.0000
  Fe  Fe130     1.0  0.43086  0.05123  0.85007  1.0000
  S   S255      1.0  0.44106  0.07123  0.86818  1.0000
  Fe  Fe131     1.0  0.42478  0.04130  0.80992  1.0000
  S   S256      1.0  0.43064  0.05065  0.77585  1.0000
  S   S257      1.0  0.41436  0.02642  0.86791  1.0000
  S   S258      1.0  0.40889  0.01554  0.82485  1.0000
  C   C966      1.0  0.48116  0.09280  0.89168  1.0000
  Fe  Fe132     1.0  0.30487  0.39349  0.95042  1.0000
  S   S259      1.0  0.32479  0.36756  0.93720  1.0000
  S   S260      1.0  0.27190  0.39971  0.96303  1.0000
  Fe  Fe133     1.0  0.33914  0.41488  0.94912  1.0000
  S   S261      1.0  0.36209  0.39128  0.93584  1.0000
  S   S262      1.0  0.27705  0.05257  0.93615  1.0000
  Fe  Fe134     1.0  0.34012  0.39128  0.91590  1.0000
  S   S263      1.0  0.35607  0.38757  0.88453  1.0000
  Fe  Fe135     1.0  0.34561  0.36914  0.95788  1.0000
  S   S264      1.0  0.31850  0.41710  0.92726  1.0000
  H   H1152     1.0  0.44497  0.25254  0.77441  1.0000
  C   C967      1.0  0.24192  0.05909  0.92026  1.0000
  H   H1153     1.0  0.45289  0.25582  0.73990  1.0000
  C   C968      1.0  0.31588  0.41114  0.68774  1.0000
  Fe  Fe136     1.0  0.26812  0.07235  0.96008  1.0000
  C   C969      1.0  0.29667  0.41657  0.68277  1.0000
  C   C970      1.0  0.25471  0.39105  0.95248  1.0000
  C   C971      1.0  0.26119  0.37847  0.93803  1.0000
  H   H1154     1.0  0.41934  0.43585  0.77582  1.0000
  H   H1155     1.0  0.32279  0.45696  0.90060  1.0000
  C   C972      1.0  0.33142  0.02164  0.76576  1.0000
  H   H1156     1.0  0.27704  0.37404  0.93297  1.0000
  C   C973      1.0  0.47830  0.98704  0.86049  1.0000
  C   C974      1.0  0.46414  0.07639  0.87279  1.0000
  C   C975      1.0  0.46345  0.08846  0.88729  1.0000
  C   C976      1.0  0.45541  0.99237  0.73587  1.0000
  H   H1157     1.0  0.44216  0.99707  0.92229  1.0000
  H   H1158     1.0  0.44907  0.09460  0.89520  1.0000
  C   C977      1.0  0.34133  0.98983  0.84209  1.0000
  C   C978      1.0  0.40368  0.02625  0.73154  1.0000
  C   C979      1.0  0.40053  0.01825  0.75210  1.0000
  C   C980      1.0  0.40870  0.02550  0.76585  1.0000
  C   C981      1.0  0.42032  0.04074  0.75910  1.0000
  C   C982      1.0  0.42388  0.04841  0.73845  1.0000
  C   C983      1.0  0.41556  0.04126  0.72472  1.0000
  H   H1159     1.0  0.26524  0.02304  0.88193  1.0000
  H   H1160     1.0  0.40571  0.01951  0.78168  1.0000
  H   H1161     1.0  0.43277  0.06026  0.73308  1.0000
  H   H1162     1.0  0.41795  0.04774  0.70898  1.0000
  H   H1163     1.0  0.31106  0.01847  0.80240  1.0000
  C   C984      1.0  0.45694  0.13879  0.96728  1.0000
  S   S265      1.0  0.24353  0.47041  0.68369  1.0000
  C   C985      1.0  0.25855  0.03283  0.89273  1.0000
  S   S266      1.0  0.47196  0.23938  0.66960  1.0000
  C   C986      1.0  0.46326  0.46938  0.75605  1.0000
  H   H1164     1.0  0.44324  0.00603  0.94451  1.0000
  C   C987      1.0  0.34390  0.02064  0.85296  1.0000
  C   C988      1.0  0.32283  0.02503  0.85678  1.0000
  C   C989      1.0  0.31109  0.01213  0.85285  1.0000
  H   H1165     1.0  0.39163  0.00647  0.75741  1.0000
  H   H1166     1.0  0.26968  0.44047  0.65975  1.0000
  H   H1167     1.0  0.31550  0.03870  0.86243  1.0000
  H   H1168     1.0  0.29493  0.01604  0.85533  1.0000
  C   C990      1.0  0.41136  0.37158  0.75207  1.0000
  C   C991      1.0  0.40758  0.37234  0.77262  1.0000
  C   C992      1.0  0.41980  0.35924  0.78535  1.0000
  C   C993      1.0  0.43605  0.34566  0.77753  1.0000
  C   C994      1.0  0.44046  0.34561  0.75684  1.0000
  C   C995      1.0  0.42798  0.35840  0.74416  1.0000
  H   H1169     1.0  0.39471  0.38234  0.77884  1.0000
  H   H1170     1.0  0.41635  0.35934  0.80136  1.0000
  H   H1171     1.0  0.45289  0.33514  0.75071  1.0000
  H   H1172     1.0  0.43083  0.35769  0.72828  1.0000
  C   C996      1.0  0.33448  0.42346  0.82701  1.0000
  C   C997      1.0  0.32187  0.42423  0.84568  1.0000
  C   C998      1.0  0.32813  0.41306  0.86347  1.0000
  C   C999      1.0  0.34705  0.40103  0.86263  1.0000
  C   C1000     1.0  0.35954  0.40005  0.84397  1.0000
  C   C1001     1.0  0.35329  0.41122  0.82622  1.0000
  H   H1173     1.0  0.30724  0.43358  0.84637  1.0000
  H   H1174     1.0  0.31831  0.41373  0.87776  1.0000
  H   H1175     1.0  0.37418  0.39073  0.84321  1.0000
  H   H1176     1.0  0.36306  0.41038  0.81196  1.0000
  H   H1177     1.0  0.47114  0.12800  0.96541  1.0000
  C   C1002     1.0  0.41215  0.30806  0.76994  1.0000
  H   H1178     1.0  0.25871  0.37991  0.67570  1.0000
  S   S267      1.0  0.28966  0.06288  0.98193  1.0000
  C   C1003     1.0  0.48506  0.19507  0.96993  1.0000
  C   C1004     1.0  0.46828  0.00816  0.70251  1.0000
  C   C1005     1.0  0.43346  0.11029  0.66740  1.0000
  C   C1006     1.0  0.25275  0.41471  0.68911  1.0000
  H   H1179     1.0  0.29463  0.45481  0.72740  1.0000
  H   H1180     1.0  0.46863  0.04930  0.96981  1.0000
  H   H1181     1.0  0.44597  0.42428  0.79676  1.0000
  H   H1182     1.0  0.43423  0.10728  0.68328  1.0000
  H   H1183     1.0  0.42330  0.08243  0.66805  1.0000
  C   C1007     1.0  0.46464  0.40539  0.77640  1.0000
  S   S268      1.0  0.32432  0.39286  0.97310  1.0000
  C   C1008     1.0  0.26808  0.46940  0.68837  1.0000
  C   C1009     1.0  0.45132  0.00465  0.92908  1.0000
  C   C1010     1.0  0.29169  0.46034  0.71226  1.0000
  C   C1011     1.0  0.30727  0.46561  0.69692  1.0000
  C   C1012     1.0  0.45094  0.40411  0.74704  1.0000
  H   H1184     1.0  0.38746  0.14018  0.65968  1.0000
  H   H1185     1.0  0.32245  0.42190  0.69281  1.0000
  C   C1013     1.0  0.46684  0.39759  0.75836  1.0000
  H   H1186     1.0  0.43353  0.99581  0.70728  1.0000
  H   H1187     1.0  0.35752  0.00621  0.80435  1.0000
  H   H1188     1.0  0.39152  0.33276  0.78125  1.0000
  H   H1189     1.0  0.44578  0.27820  0.72337  1.0000
  H   H1190     1.0  0.45339  0.29678  0.76747  1.0000
  H   H1191     1.0  0.44530  0.30188  0.86532  1.0000
  H   H1192     1.0  0.43281  0.17377  0.97114  1.0000
  H   H1193     1.0  0.25271  0.40185  0.70177  1.0000
  N   N68       1.0  0.47697  0.47926  0.76332  1.0000
  H   H1194     1.0  0.42634  0.03908  0.93144  1.0000
  C   C1014     1.0  0.32662  0.39198  0.68621  1.0000
  N   N69       1.0  0.33898  0.02457  0.78351  1.0000
  H   H1195     1.0  0.45318  0.01365  0.88972  1.0000
  H   H1196     1.0  0.47407  0.35844  0.77200  1.0000
  H   H1197     1.0  0.40612  0.16442  0.65682  1.0000
  C   C1015     1.0  0.35173  0.04036  0.77898  1.0000
  C   C1016     1.0  0.35771  0.05037  0.75914  1.0000
  C   C1017     1.0  0.35897  0.04584  0.79468  1.0000
  C   C1018     1.0  0.36999  0.06501  0.75545  1.0000
  C   C1019     1.0  0.37120  0.06050  0.79080  1.0000
  C   C1020     1.0  0.37672  0.07005  0.77123  1.0000
  C   C1021     1.0  0.27004  0.03626  0.90593  1.0000
  C   C1022     1.0  0.32960  0.46144  0.88464  1.0000
  H   H1198     1.0  0.46262  0.45388  0.76417  1.0000
  C   C1023     1.0  0.35806  0.45854  0.84594  1.0000
  N   N70       1.0  0.46331  0.98903  0.71493  1.0000
  C   C1024     1.0  0.36176  0.44113  0.88880  1.0000
  C   C1025     1.0  0.35307  0.00278  0.84589  1.0000
  C   C1026     1.0  0.48606  0.03920  0.91507  1.0000
  Fe  Fe137     1.0  0.48043  0.31228  0.78284  1.0000
  H   H1199     1.0  0.35361  0.04682  0.74610  1.0000
  H   H1200     1.0  0.35551  0.03866  0.81013  1.0000
  H   H1201     1.0  0.37490  0.07201  0.74017  1.0000
  H   H1202     1.0  0.37674  0.06419  0.80302  1.0000
  H   H1203     1.0  0.38677  0.08091  0.76825  1.0000
  C   C1027     1.0  0.46765  0.03350  0.92576  1.0000
  H   H1204     1.0  0.46560  0.46717  0.79416  1.0000
  H   H1205     1.0  0.43293  0.32482  0.83636  1.0000
  N   N71       1.0  0.45466  0.02435  0.91677  1.0000
  H   H1206     1.0  0.34391  0.01643  0.75398  1.0000
  C   C1028     1.0  0.30314  0.47277  0.67732  1.0000
  H   H1207     1.0  0.47466  0.00612  0.68671  1.0000
  H   H1208     1.0  0.34152  0.38785  0.69010  1.0000
  H   H1209     1.0  0.31509  0.47685  0.66533  1.0000
  H   H1210     1.0  0.36893  0.19486  0.66777  1.0000
  H   H1211     1.0  0.42712  0.26308  0.73689  1.0000
  C   C1029     1.0  0.43245  0.42520  0.77109  1.0000
  C   C1030     1.0  0.44063  0.26898  0.73802  1.0000
  C   C1031     1.0  0.32031  0.99462  0.84512  1.0000
  H   H1212     1.0  0.32242  0.03573  0.75903  1.0000
  C   C1032     1.0  0.46172  0.03744  0.94576  1.0000
  C   C1033     1.0  0.24709  0.37147  0.93020  1.0000
  H   H1213     1.0  0.37827  0.44051  0.88639  1.0000
  H   H1214     1.0  0.28077  0.48000  0.65785  1.0000
  H   H1215     1.0  0.24925  0.43379  0.98090  1.0000
  H   H1216     1.0  0.44131  0.00348  0.73680  1.0000
  H   H1217     1.0  0.46599  0.99839  0.74234  1.0000
  H   H1218     1.0  0.35677  0.43544  0.90499  1.0000
  H   H1219     1.0  0.36923  0.99901  0.84316  1.0000
  Fe  Fe138     1.0  0.29191  0.09524  0.97816  1.0000
  C   C1034     1.0  0.43852  0.12830  0.65569  1.0000
  H   H1220     1.0  0.46835  0.08649  0.96970  1.0000
  H   H1221     1.0  0.37138  0.16820  0.67343  1.0000
  H   H1222     1.0  0.28544  0.02877  0.90535  1.0000
  H   H1223     1.0  0.43296  0.27253  0.78739  1.0000
  H   H1224     1.0  0.47208  0.36790  0.73503  1.0000
  C   C1035     1.0  0.48083  0.24282  0.69111  1.0000
  C   C1036     1.0  0.36477  0.46538  0.82566  1.0000
  S   S269      1.0  0.48638  0.18174  0.65649  1.0000
  Fe  Fe139     1.0  0.43959  0.01003  0.65108  1.0000
  H   H1225     1.0  0.42542  0.03263  0.90781  1.0000
  H   H1226     1.0  0.44267  0.00808  0.78562  1.0000
  H   H1227     1.0  0.31249  0.04473  0.79384  1.0000
  H   H1228     1.0  0.45477  0.02009  0.70211  1.0000
  H   H1229     1.0  0.46822  0.27653  0.75569  1.0000
  C   C1037     1.0  0.29891  0.38354  0.67465  1.0000
  H   H1230     1.0  0.47121  0.00234  0.85627  1.0000
  H   H1231     1.0  0.45575  0.14841  0.95239  1.0000
  N   N72       1.0  0.33391  0.06832  0.91807  1.0000
  C   C1038     1.0  0.33188  0.05541  0.93813  1.0000
  C   C1039     1.0  0.31846  0.08666  0.91884  1.0000
  C   C1040     1.0  0.32955  0.05712  0.90355  1.0000
  C   C1041     1.0  0.35411  0.07403  0.91280  1.0000
  C   C1042     1.0  0.36057  0.08460  0.92536  1.0000
  C   C1043     1.0  0.36783  0.06950  0.89528  1.0000
  C   C1044     1.0  0.37953  0.09024  0.92070  1.0000
  C   C1045     1.0  0.38672  0.07528  0.89074  1.0000
  C   C1046     1.0  0.39258  0.08561  0.90340  1.0000
  H   H1232     1.0  0.33247  0.06355  0.95037  1.0000
  H   H1233     1.0  0.31724  0.04996  0.94215  1.0000
  H   H1234     1.0  0.34391  0.04201  0.93857  1.0000
  H   H1235     1.0  0.31923  0.09482  0.93100  1.0000
  H   H1236     1.0  0.30303  0.08299  0.92188  1.0000
  H   H1237     1.0  0.32007  0.09728  0.90438  1.0000
  H   H1238     1.0  0.34027  0.04281  0.90255  1.0000
  H   H1239     1.0  0.31429  0.05299  0.90797  1.0000
  H   H1240     1.0  0.33001  0.06623  0.88822  1.0000
  H   H1241     1.0  0.35090  0.08873  0.93885  1.0000
  H   H1242     1.0  0.36431  0.06162  0.88472  1.0000
  H   H1243     1.0  0.38399  0.09844  0.93049  1.0000
  H   H1244     1.0  0.39685  0.07190  0.87718  1.0000
  H   H1245     1.0  0.40720  0.09017  0.89961  1.0000
  H   H1246     1.0  0.35888  0.43014  0.88038  1.0000
  H   H1247     1.0  0.26023  0.45823  0.71998  1.0000
  Fe  Fe140     1.0  0.47023  0.21377  0.65331  1.0000
  H   H1248     1.0  0.39040  0.46233  0.96800  1.0000
  H   H1249     1.0  0.44761  0.47765  0.75815  1.0000
  H   H1250     1.0  0.46798  0.46849  0.73978  1.0000
  C   C1047     1.0  0.42730  0.09614  0.65878  1.0000
  H   H1251     1.0  0.38947  0.32684  0.72113  1.0000
  C   C1048     1.0  0.48148  0.26247  0.69361  1.0000
  H   H1252     1.0  0.45844  0.29944  0.74059  1.0000
  C   C1049     1.0  0.31817  0.37822  0.67966  1.0000
  H   H1253     1.0  0.36569  0.48363  0.70767  1.0000
  H   H1254     1.0  0.32158  0.00995  0.76985  1.0000
  C   C1050     1.0  0.48756  0.22674  0.70545  1.0000
  S   S270      1.0  0.34666  0.44374  0.95362  1.0000
  C   C1051     1.0  0.43412  0.41783  0.75333  1.0000
  H   H1255     1.0  0.47153  0.02489  0.76937  1.0000
  C   C1052     1.0  0.38850  0.33123  0.75125  1.0000
  H   H1256     1.0  0.32549  0.03038  0.81344  1.0000
  C   C1053     1.0  0.44756  0.41882  0.78274  1.0000
  C   C1054     1.0  0.47391  0.01055  0.77928  1.0000
  H   H1257     1.0  0.28900  0.43158  0.68419  1.0000
  H   H1258     1.0  0.42216  0.42265  0.74443  1.0000
  C   C1055     1.0  0.39665  0.32454  0.76879  1.0000
  N   N73       1.0  0.39414  0.33213  0.91160  1.0000
  C   C1056     1.0  0.40155  0.31617  0.92766  1.0000
  C   C1057     1.0  0.39679  0.35163  0.91572  1.0000
  C   C1058     1.0  0.37237  0.33208  0.91325  1.0000
  C   C1059     1.0  0.40473  0.32952  0.89110  1.0000
  C   C1060     1.0  0.39828  0.34258  0.87403  1.0000
  C   C1061     1.0  0.42207  0.31475  0.88743  1.0000
  C   C1062     1.0  0.40828  0.34077  0.85455  1.0000
  C   C1063     1.0  0.43202  0.31315  0.86786  1.0000
  C   C1064     1.0  0.42512  0.32609  0.85147  1.0000
  H   H1259     1.0  0.41739  0.31642  0.92860  1.0000
  H   H1260     1.0  0.39281  0.31823  0.94281  1.0000
  H   H1261     1.0  0.40018  0.30103  0.92532  1.0000
  H   H1262     1.0  0.41294  0.35268  0.91381  1.0000
  H   H1263     1.0  0.38983  0.35375  0.93137  1.0000
  H   H1264     1.0  0.38975  0.36456  0.90549  1.0000
  H   H1265     1.0  0.36973  0.31826  0.90892  1.0000
  H   H1266     1.0  0.36423  0.33293  0.92884  1.0000
  H   H1267     1.0  0.36487  0.34521  0.90363  1.0000
  H   H1268     1.0  0.38553  0.35446  0.87559  1.0000
  H   H1269     1.0  0.42837  0.30434  0.89937  1.0000
  H   H1270     1.0  0.40301  0.35092  0.84177  1.0000
  H   H1271     1.0  0.32664  0.36334  0.67843  1.0000
  H   H1272     1.0  0.41839  0.26091  0.77550  1.0000
  H   H1273     1.0  0.45429  0.19302  0.97853  1.0000
  C   C1065     1.0  0.48298  0.06858  0.86283  1.0000
  C   C1066     1.0  0.28368  0.47459  0.67302  1.0000
  S   S271      1.0  0.27241  0.10466  0.95424  1.0000
  H   H1274     1.0  0.32136  0.47647  0.87898  1.0000
  H   H1275     1.0  0.43717  0.05331  0.90866  1.0000
  C   C1067     1.0  0.41964  0.29737  0.75363  1.0000
  C   C1068     1.0  0.28753  0.40299  0.67611  1.0000
  C   C1069     1.0  0.27218  0.46233  0.70800  1.0000
  C   C1070     1.0  0.46899  0.48145  0.78459  1.0000
  H   H1276     1.0  0.47607  0.40097  0.78582  1.0000
  S   S272      1.0  0.36333  0.33991  0.97133  1.0000
  C   C1071     1.0  0.35929  0.46911  0.86121  1.0000
  H   H1277     1.0  0.41589  0.29777  0.72259  1.0000
  C   C1072     1.0  0.39561  0.32126  0.73488  1.0000
  Fe  Fe141     1.0  0.45845  0.17348  0.65023  1.0000
  H   H1278     1.0  0.47637  0.27504  0.68261  1.0000
  C   C1073     1.0  0.41092  0.30455  0.73595  1.0000
  S   S273      1.0  0.41304  0.99499  0.66570  1.0000
  H   H1279     1.0  0.48394  0.05931  0.85163  1.0000
  N   N74       1.0  0.43667  0.28050  0.75489  1.0000
  S   S274      1.0  0.33210  0.46359  0.70134  1.0000
  C   C1074     1.0  0.46318  0.02073  0.89597  1.0000
  S   S275      1.0  0.40753  0.47201  0.74147  1.0000
  C   C1075     1.0  0.43299  0.26606  0.77385  1.0000
  C   C1076     1.0  0.36766  0.18140  0.66176  1.0000
  H   H1280     1.0  0.26939  0.38929  0.65000  1.0000
  C   C1077     1.0  0.43505  0.03784  0.91621  1.0000
  N   N75       1.0  0.26706  0.40926  0.67111  1.0000
  C   C1078     1.0  0.47353  0.04632  0.95454  1.0000
  H   H1281     1.0  0.47926  0.01429  0.70831  1.0000
  H   H1282     1.0  0.28252  0.46139  0.98028  1.0000
  C   C1079     1.0  0.34304  0.44588  0.97910  1.0000
  C   C1080     1.0  0.35381  0.47441  0.89667  1.0000
  H   H1283     1.0  0.36317  0.45718  0.81431  1.0000
  H   H1284     1.0  0.46512  0.03498  0.88551  1.0000
  H   H1285     1.0  0.44475  0.12955  0.97110  1.0000
  H   H1286     1.0  0.35171  0.18241  0.66033  1.0000
  H   H1287     1.0  0.35165  0.44498  0.84954  1.0000
  C   C1081     1.0  0.25968  0.39354  0.66400  1.0000
  H   H1288     1.0  0.48223  0.21132  0.96832  1.0000
  H   H1289     1.0  0.45094  0.39876  0.73334  1.0000
  H   H1290     1.0  0.47790  0.01049  0.89533  1.0000
  C   C1082     1.0  0.26663  0.42706  0.65497  1.0000
  H   H1291     1.0  0.48704  0.21155  0.70392  1.0000
  H   H1292     1.0  0.36989  0.47488  0.89625  1.0000
  H   H1293     1.0  0.24436  0.39896  0.66012  1.0000
  H   H1294     1.0  0.48791  0.44111  0.78336  1.0000
  C   C1083     1.0  0.35063  0.00511  0.79148  1.0000
  C   C1084     1.0  0.46909  0.18432  0.97566  1.0000
  H   H1295     1.0  0.46585  0.99440  0.93042  1.0000
  H   H1296     1.0  0.34105  0.99322  0.79683  1.0000
  C   C1085     1.0  0.47242  0.16304  0.97735  1.0000
  H   H1297     1.0  0.36308  0.99974  0.77987  1.0000
  S   S276      1.0  0.32362  0.10107  0.97498  1.0000
  H   H1298     1.0  0.29331  0.37218  0.66966  1.0000
  H   H1299     1.0  0.28148  0.43720  0.97480  1.0000
  Fe  Fe142     1.0  0.24644  0.10787  0.97979  1.0000
  C   C1086     1.0  0.37315  0.48284  0.81998  1.0000
  N   N76       1.0  0.48515  0.38349  0.75198  1.0000
  H   H1300     1.0  0.48398  0.38853  0.72024  1.0000
  C   C1087     1.0  0.48486  0.37606  0.73324  1.0000
  H   H1301     1.0  0.25164  0.43152  0.65025  1.0000
  C   C1088     1.0  0.48765  0.36571  0.76796  1.0000
  H   H1302     1.0  0.40502  0.19082  0.65013  1.0000
  S   S277      1.0  0.44136  0.20505  0.64999  1.0000
  C   C1089     1.0  0.46905  0.97040  0.14885  1.0000
  S   S278      1.0  0.45955  0.53384  0.25975  1.0000
  S   S279      1.0  0.45971  0.59399  0.24888  1.0000
  Fe  Fe143     1.0  0.33078  0.50042  0.25833  1.0000
  C   C1090     1.0  0.47457  0.69993  0.01597  1.0000
  S   S280      1.0  0.31211  0.50991  0.28689  1.0000
  Fe  Fe144     1.0  0.36652  0.51288  0.22805  1.0000
  S   S281      1.0  0.44350  0.79400  0.99152  1.0000
  S   S282      1.0  0.38344  0.53898  0.21966  1.0000
  H   H1303     1.0  0.44012  0.86309  0.04306  1.0000
  C   C1091     1.0  0.39728  0.50685  0.99862  1.0000
  H   H1304     1.0  0.46607  0.89370  0.14744  1.0000
  S   S283      1.0  0.33330  0.52029  0.22819  1.0000
  C   C1092     1.0  0.43127  0.51537  0.19116  1.0000
  S   S284      1.0  0.26351  0.53307  0.06750  1.0000
  Fe  Fe145     1.0  0.24573  0.91743  0.09758  1.0000
  C   C1093     1.0  0.48216  0.97121  0.16165  1.0000
  S   S285      1.0  0.32131  0.48718  0.19173  1.0000
  H   H1305     1.0  0.40111  0.58856  0.28535  1.0000
  S   S286      1.0  0.25662  0.94701  0.08848  1.0000
  S   S287      1.0  0.26036  0.89154  0.08117  1.0000
  Fe  Fe146     1.0  0.25395  0.94673  0.12156  1.0000
  S   S288      1.0  0.27528  0.95627  0.13743  1.0000
  Fe  Fe147     1.0  0.38753  0.91301  0.14387  1.0000
  S   S289      1.0  0.39333  0.88601  0.16771  1.0000
  S   S290      1.0  0.36667  0.91550  0.12171  1.0000
  Fe  Fe148     1.0  0.42116  0.93131  0.15115  1.0000
  S   S291      1.0  0.42973  0.90596  0.17544  1.0000
  S   S292      1.0  0.43849  0.95668  0.13913  1.0000
  Fe  Fe149     1.0  0.42594  0.88597  0.15506  1.0000
  S   S293      1.0  0.44822  0.85717  0.15262  1.0000
  Fe  Fe150     1.0  0.39676  0.90828  0.18616  1.0000
  S   S294      1.0  0.38371  0.90551  0.21928  1.0000
  S   S295      1.0  0.42000  0.91116  0.12982  1.0000
  S   S296      1.0  0.38823  0.93542  0.16322  1.0000
  H   H1306     1.0  0.48291  0.68685  0.04488  1.0000
  S   S297      1.0  0.30980  0.50923  0.03155  1.0000
  C   C1094     1.0  0.47406  0.88022  0.18594  1.0000
  Fe  Fe151     1.0  0.33597  0.51144  0.07569  1.0000
  S   S298      1.0  0.31955  0.53902  0.05863  1.0000
  S   S299      1.0  0.35231  0.51569  0.09945  1.0000
  Fe  Fe152     1.0  0.29625  0.51988  0.06065  1.0000
  Fe  Fe153     1.0  0.33470  0.52598  0.03110  1.0000
  S   S300      1.0  0.34679  0.54368  0.00138  1.0000
  H   H1307     1.0  0.41646  0.85027  0.26005  1.0000
  C   C1095     1.0  0.46536  0.96155  0.29592  1.0000
  C   C1096     1.0  0.41275  0.86995  0.30236  1.0000
  Fe  Fe154     1.0  0.47680  0.59984  0.27122  1.0000
  H   H1308     1.0  0.36131  0.50325  0.99119  1.0000
  C   C1097     1.0  0.25058  0.96670  0.02604  1.0000
  C   C1098     1.0  0.39855  0.91557  0.27000  1.0000
  H   H1309     1.0  0.45749  0.95025  0.29381  1.0000
  H   H1310     1.0  0.24458  0.90765  0.18375  1.0000
  Fe  Fe155     1.0  0.42020  0.91819  0.31403  1.0000
  C   C1099     1.0  0.33185  0.49339  0.16626  1.0000
  C   C1100     1.0  0.44611  0.57385  0.18261  1.0000
  C   C1101     1.0  0.48153  0.86869  0.09722  1.0000
  H   H1311     1.0  0.41849  0.97546  0.10318  1.0000
  C   C1102     1.0  0.46856  0.79433  0.99286  1.0000
  C   C1103     1.0  0.48564  0.64049  0.98600  1.0000
  N   N77       1.0  0.39326  0.49420  0.98525  1.0000
  C   C1104     1.0  0.36860  0.55406  0.99922  1.0000
  H   H1312     1.0  0.47725  0.57268  0.19822  1.0000
  H   H1313     1.0  0.28371  0.54105  0.15828  1.0000
  C   C1105     1.0  0.46624  0.96298  0.31567  1.0000
  C   C1106     1.0  0.36767  0.55881  0.28239  1.0000
  C   C1107     1.0  0.37881  0.55122  0.01543  1.0000
  H   H1314     1.0  0.35576  0.53745  0.25967  1.0000
  H   H1315     1.0  0.45093  0.59827  0.00930  1.0000
  H   H1316     1.0  0.43749  0.57473  0.17036  1.0000
  H   H1317     1.0  0.37274  0.54343  0.02994  1.0000
  H   H1318     1.0  0.47335  0.83228  0.05600  1.0000
  C   C1108     1.0  0.34726  0.55284  0.26020  1.0000
  C   C1109     1.0  0.47078  0.82205  0.28983  1.0000
  C   C1110     1.0  0.48292  0.83642  0.28112  1.0000
  H   H1319     1.0  0.28744  0.53481  0.09703  1.0000
  H   H1320     1.0  0.46981  0.87117  0.17689  1.0000
  H   H1321     1.0  0.44826  0.56456  0.03086  1.0000
  C   C1111     1.0  0.46728  0.87095  0.11462  1.0000
  H   H1322     1.0  0.44738  0.87744  0.27334  1.0000
  H   H1323     1.0  0.45768  0.88523  0.11585  1.0000
  C   C1112     1.0  0.39692  0.91181  0.23592  1.0000
  C   C1113     1.0  0.41611  0.91678  0.22950  1.0000
  C   C1114     1.0  0.42651  0.92100  0.24330  1.0000
  C   C1115     1.0  0.41784  0.92026  0.26360  1.0000
  C   C1116     1.0  0.38816  0.91132  0.25620  1.0000
  H   H1324     1.0  0.42294  0.91743  0.21394  1.0000
  H   H1325     1.0  0.44134  0.92482  0.23819  1.0000
  C   C1117     1.0  0.47405  0.55737  0.19875  1.0000
  C   C1118     1.0  0.40517  0.56824  0.99398  1.0000
  C   C1119     1.0  0.46316  0.95109  0.18879  1.0000
  C   C1120     1.0  0.44999  0.95037  0.17602  1.0000
  C   C1121     1.0  0.45324  0.95958  0.15591  1.0000
  C   C1122     1.0  0.45342  0.86181  0.27799  1.0000
  H   H1326     1.0  0.30664  0.52827  0.14535  1.0000
  H   H1327     1.0  0.43733  0.94272  0.18179  1.0000
  H   H1328     1.0  0.25145  0.95346  0.19875  1.0000
  C   C1123     1.0  0.30055  0.94453  0.13332  1.0000
  C   C1124     1.0  0.30773  0.93299  0.11806  1.0000
  C   C1125     1.0  0.32804  0.92418  0.11469  1.0000
  C   C1126     1.0  0.34123  0.92652  0.12679  1.0000
  C   C1127     1.0  0.33404  0.93798  0.14215  1.0000
  C   C1128     1.0  0.31378  0.94710  0.14528  1.0000
  H   H1329     1.0  0.29768  0.93096  0.10872  1.0000
  H   H1330     1.0  0.33351  0.91538  0.10276  1.0000
  H   H1331     1.0  0.34410  0.93987  0.15154  1.0000
  H   H1332     1.0  0.30832  0.95605  0.15710  1.0000
  H   H1333     1.0  0.41100  0.83123  0.31532  1.0000
  C   C1129     1.0  0.29536  0.53550  0.10931  1.0000
  H   H1334     1.0  0.48214  0.95025  0.23909  1.0000
  H   H1335     1.0  0.30233  0.54930  0.10458  1.0000
  H   H1336     1.0  0.37625  0.52630  0.28414  1.0000
  H   H1337     1.0  0.27449  0.93161  0.01994  1.0000
  H   H1338     1.0  0.44315  0.96545  0.26582  1.0000
  H   H1339     1.0  0.26530  0.96903  0.01668  1.0000
  C   C1130     1.0  0.24851  0.88613  0.06296  1.0000
  C   C1131     1.0  0.47433  0.97447  0.27929  1.0000
  C   C1132     1.0  0.34503  0.50609  0.12505  1.0000
  C   C1133     1.0  0.47263  0.80276  0.00812  1.0000
  Fe  Fe156     1.0  0.26363  0.81220  0.98765  1.0000
  H   H1340     1.0  0.37325  0.90768  0.26123  1.0000
  C   C1134     1.0  0.47108  0.63684  0.30373  1.0000
  H   H1341     1.0  0.41883  0.87517  0.26203  1.0000
  H   H1342     1.0  0.40504  0.55572  0.02529  1.0000
  C   C1135     1.0  0.28820  0.50316  0.29609  1.0000
  H   H1343     1.0  0.45630  0.86653  0.21260  1.0000
  C   C1136     1.0  0.35206  0.51311  0.13966  1.0000
  C   C1137     1.0  0.47791  0.83617  0.12836  1.0000
  H   H1344     1.0  0.32056  0.54695  0.29513  1.0000
  H   H1345     1.0  0.41558  0.51386  0.19348  1.0000
  H   H1346     1.0  0.45045  0.97576  0.24016  1.0000
  H   H1347     1.0  0.36232  0.52378  0.13506  1.0000
  S   S301      1.0  0.48806  0.56696  0.28034  1.0000
  H   H1348     1.0  0.48699  0.62630  0.15345  1.0000
  H   H1349     1.0  0.48372  0.86748  0.26863  1.0000
  C   C1138     1.0  0.27887  0.50571  0.31569  1.0000
  S   S302      1.0  0.46196  0.61754  0.29642  1.0000
  H   H1350     1.0  0.36682  0.59121  0.28049  1.0000
  H   H1351     1.0  0.26314  0.93057  0.19030  1.0000
  C   C1139     1.0  0.43812  0.53552  0.24891  1.0000
  C   C1140     1.0  0.43044  0.51802  0.24949  1.0000
  C   C1141     1.0  0.41330  0.51896  0.24105  1.0000
  C   C1142     1.0  0.40390  0.53742  0.23184  1.0000
  C   C1143     1.0  0.41145  0.55493  0.23143  1.0000
  C   C1144     1.0  0.42851  0.55400  0.23996  1.0000
  H   H1352     1.0  0.43770  0.50368  0.25653  1.0000
  H   H1353     1.0  0.40765  0.50536  0.24129  1.0000
  H   H1354     1.0  0.40408  0.56925  0.22448  1.0000
  H   H1355     1.0  0.43412  0.56761  0.23971  1.0000
  S   S303      1.0  0.43177  0.92465  0.28060  1.0000
  H   H1356     1.0  0.39952  0.52210  0.99038  1.0000
  C   C1145     1.0  0.27734  0.50330  0.15416  1.0000
  S   S304      1.0  0.36375  0.49501  0.25907  1.0000
  C   C1146     1.0  0.34548  0.50680  0.16022  1.0000
  S   S305      1.0  0.24607  0.91580  0.13038  1.0000
  H   H1357     1.0  0.30777  0.52248  0.10987  1.0000
  C   C1147     1.0  0.39527  0.57505  0.28545  1.0000
  H   H1358     1.0  0.25560  0.91623  0.02956  1.0000
  C   C1148     1.0  0.47180  0.58639  0.03857  1.0000
  C   C1149     1.0  0.46604  0.50013  0.18904  1.0000
  S   S306      1.0  0.29390  0.79540  0.99430  1.0000
  C   C1150     1.0  0.29317  0.53994  0.14331  1.0000
  C   C1151     1.0  0.47838  0.70070  0.03496  1.0000
  H   H1359     1.0  0.25208  0.96613  0.04197  1.0000
  S   S307      1.0  0.35312  0.49987  0.04779  1.0000
  C   C1152     1.0  0.47150  0.51913  0.18603  1.0000
  H   H1360     1.0  0.25070  0.93021  0.21601  1.0000
  C   C1153     1.0  0.27471  0.51585  0.13547  1.0000
  H   H1361     1.0  0.43934  0.74276  0.98411  1.0000
  C   C1154     1.0  0.46657  0.73624  0.00954  1.0000
  C   C1155     1.0  0.36950  0.98256  0.12344  1.0000
  C   C1156     1.0  0.24664  0.51651  0.06926  1.0000
  N   N78       1.0  0.47551  0.57702  0.02024  1.0000
  C   C1157     1.0  0.24471  0.96483  0.98653  1.0000
  C   C1158     1.0  0.47041  0.73686  0.02855  1.0000
  C   C1159     1.0  0.38087  0.54017  0.28489  1.0000
  C   C1160     1.0  0.25764  0.49055  0.12855  1.0000
  C   C1161     1.0  0.39712  0.55815  0.01275  1.0000
  H   H1362     1.0  0.33349  0.58570  0.29299  1.0000
  C   C1162     1.0  0.44058  0.84756  0.28691  1.0000
  H   H1363     1.0  0.47654  0.68516  0.01213  1.0000
  H   H1364     1.0  0.42249  0.84623  0.04498  1.0000
  H   H1365     1.0  0.33747  0.54922  0.31099  1.0000
  H   H1366     1.0  0.47151  0.97773  0.13335  1.0000
  C   C1163     1.0  0.47660  0.56022  0.16289  1.0000
  H   H1367     1.0  0.46511  0.85466  0.06705  1.0000
  H   H1368     1.0  0.28500  0.50711  0.16474  1.0000
  N   N79       1.0  0.28189  0.53538  0.12901  1.0000
  C   C1164     1.0  0.40446  0.98364  0.10967  1.0000
  C   C1165     1.0  0.44992  0.82743  0.29274  1.0000
  H   H1369     1.0  0.47914  0.71964  0.05605  1.0000
  H   H1370     1.0  0.31879  0.57959  0.27713  1.0000
  C   C1166     1.0  0.24976  0.86816  0.03549  1.0000
  C   C1167     1.0  0.44594  0.49826  0.19170  1.0000
  H   H1371     1.0  0.24252  0.93947  0.16279  1.0000
  N   N80       1.0  0.34686  0.55949  0.27946  1.0000
  C   C1168     1.0  0.33444  0.57980  0.27887  1.0000
  C   C1169     1.0  0.24253  0.51479  0.00680  1.0000
  C   C1170     1.0  0.26444  0.50896  0.12297  1.0000
  H   H1372     1.0  0.46039  0.80902  0.01873  1.0000
  H   H1373     1.0  0.48087  0.57543  0.15977  1.0000
  H   H1374     1.0  0.46186  0.75043  0.00033  1.0000
  H   H1375     1.0  0.46865  0.75122  0.03346  1.0000
  H   H1376     1.0  0.26932  0.49040  0.06579  1.0000
  C   C1171     1.0  0.27836  0.49541  0.28428  1.0000
  C   C1172     1.0  0.25916  0.49052  0.29198  1.0000
  H   H1377     1.0  0.38440  0.50945  0.01095  1.0000
  H   H1378     1.0  0.25788  0.85771  0.02566  1.0000
  C   C1173     1.0  0.48310  0.90319  0.21089  1.0000
  H   H1379     1.0  0.25272  0.50121  0.00374  1.0000
  C   C1174     1.0  0.33668  0.54582  0.29608  1.0000
  H   H1380     1.0  0.35695  0.97446  0.12732  1.0000
  Fe  Fe157     1.0  0.48825  0.59653  0.22684  1.0000
  H   H1381     1.0  0.26162  0.51777  0.10870  1.0000
  H   H1382     1.0  0.47088  0.54766  0.03617  1.0000
  H   H1383     1.0  0.46448  0.55339  0.01134  1.0000
  H   H1384     1.0  0.26121  0.52283  0.02440  1.0000
  C   C1175     1.0  0.24733  0.52700  0.01834  1.0000
  H   H1385     1.0  0.44838  0.80863  0.05938  1.0000
  H   H1386     1.0  0.48726  0.51982  0.18423  1.0000
  C   C1176     1.0  0.24979  0.93750  0.20020  1.0000
  H   H1387     1.0  0.46071  0.94374  0.20427  1.0000
  H   H1388     1.0  0.27409  0.86534  0.05178  1.0000
  H   H1389     1.0  0.34321  0.52973  0.29583  1.0000
  C   C1177     1.0  0.46549  0.85471  0.13030  1.0000
  H   H1390     1.0  0.43575  0.57264  0.19724  1.0000
  H   H1391     1.0  0.42309  0.55553  0.29003  1.0000
  H   H1392     1.0  0.26171  0.93052  0.04553  1.0000
  H   H1393     1.0  0.33586  0.78586  0.99691  1.0000
  C   C1178     1.0  0.47589  0.90524  0.14458  1.0000
  H   H1394     1.0  0.47378  0.49704  0.23699  1.0000
  H   H1395     1.0  0.24308  0.83438  0.07154  1.0000
  H   H1396     1.0  0.39159  0.91531  0.28554  1.0000
  C   C1179     1.0  0.26452  0.55175  0.12680  1.0000
  C   C1180     1.0  0.46442  0.55987  0.02490  1.0000
  H   H1397     1.0  0.44154  0.81555  0.30001  1.0000
  C   C1181     1.0  0.43655  0.53444  0.18808  1.0000
  H   H1398     1.0  0.32687  0.97156  0.10283  1.0000
  H   H1399     1.0  0.35462  0.56280  0.24723  1.0000
  H   H1400     1.0  0.29877  0.55446  0.13785  1.0000
  H   H1401     1.0  0.46753  0.83038  0.08250  1.0000
  H   H1402     1.0  0.45550  0.59131  0.04364  1.0000
  C   C1182     1.0  0.46272  0.83892  0.06832  1.0000
  H   H1403     1.0  0.44839  0.83909  0.03545  1.0000
  Fe  Fe158     1.0  0.47347  0.56161  0.25609  1.0000
  H   H1404     1.0  0.25635  0.55034  0.11489  1.0000
  C   C1183     1.0  0.40725  0.83742  0.30003  1.0000
  H   H1405     1.0  0.41035  0.52468  0.28966  1.0000
  H   H1406     1.0  0.26926  0.56676  0.12247  1.0000
  H   H1407     1.0  0.46925  0.55894  0.15033  1.0000
  H   H1408     1.0  0.42427  0.54692  0.18819  1.0000
  C   C1184     1.0  0.47426  0.85626  0.27520  1.0000
  C   C1185     1.0  0.40767  0.55646  0.28822  1.0000
  C   C1186     1.0  0.37553  0.57633  0.28261  1.0000
  H   H1409     1.0  0.34041  0.59061  0.26583  1.0000
  C   C1187     1.0  0.47953  0.96110  0.18148  1.0000
  H   H1410     1.0  0.45133  0.58856  0.18042  1.0000
  H   H1411     1.0  0.38980  0.95834  0.11129  1.0000
  H   H1412     1.0  0.41902  0.88374  0.29511  1.0000
  H   H1413     1.0  0.46654  0.91909  0.14950  1.0000
  N   N81       1.0  0.44157  0.83821  0.06761  1.0000
  C   C1188     1.0  0.43888  0.81688  0.07124  1.0000
  C   C1189     1.0  0.43790  0.84712  0.04691  1.0000
  N   N82       1.0  0.24441  0.94816  0.02316  1.0000
  C   C1190     1.0  0.42810  0.84865  0.08335  1.0000
  C   C1191     1.0  0.41269  0.86521  0.07900  1.0000
  C   C1192     1.0  0.43003  0.84212  0.10388  1.0000
  C   C1193     1.0  0.40013  0.87450  0.09434  1.0000
  C   C1194     1.0  0.41724  0.85140  0.11905  1.0000
  C   C1195     1.0  0.40236  0.86757  0.11429  1.0000
  H   H1414     1.0  0.42299  0.81569  0.07153  1.0000
  H   H1415     1.0  0.46967  0.65138  0.01301  1.0000
  H   H1416     1.0  0.44308  0.80860  0.08580  1.0000
  C   C1196     1.0  0.46840  0.71775  0.00269  1.0000
  C   C1197     1.0  0.40046  0.53907  0.28800  1.0000
  H   H1417     1.0  0.47346  0.94045  0.26452  1.0000
  H   H1418     1.0  0.39077  0.84276  0.30217  1.0000
  N   N83       1.0  0.41856  0.85389  0.28984  1.0000
  H   H1419     1.0  0.47753  0.80666  0.29484  1.0000
  H   H1420     1.0  0.40997  0.87134  0.06393  1.0000
  H   H1421     1.0  0.44149  0.82981  0.10843  1.0000
  H   H1422     1.0  0.38848  0.88719  0.09087  1.0000
  H   H1423     1.0  0.41896  0.84615  0.13464  1.0000
  H   H1424     1.0  0.39253  0.87482  0.12609  1.0000
  N   N84       1.0  0.46312  0.55679  0.18249  1.0000
  H   H1425     1.0  0.39558  0.86667  0.27158  1.0000
  C   C1198     1.0  0.25344  0.49625  0.06768  1.0000
  H   H1426     1.0  0.33192  0.55257  0.25761  1.0000
  C   C1199     1.0  0.45691  0.53689  0.18548  1.0000
  H   H1427     1.0  0.41027  0.82501  0.29113  1.0000
  C   C1200     1.0  0.25890  0.87251  0.05026  1.0000
  H   H1428     1.0  0.28539  0.49345  0.26913  1.0000
  H   H1429     1.0  0.35057  0.51269  0.17138  1.0000
  H   H1430     1.0  0.48633  0.91242  0.22050  1.0000
  H   H1431     1.0  0.41102  0.50010  0.00521  1.0000
  C   C1201     1.0  0.41212  0.86180  0.27006  1.0000
  S   S308      1.0  0.48592  0.61370  0.19567  1.0000
  S   S309      1.0  0.42860  0.57593  0.99102  1.0000
  C   C1202     1.0  0.46699  0.59216  0.00435  1.0000
  C   C1203     1.0  0.38803  0.97353  0.11431  1.0000
  H   H1432     1.0  0.24824  0.97860  0.98902  1.0000
  H   H1433     1.0  0.46516  0.55296  0.21380  1.0000
  C   C1204     1.0  0.24978  0.49315  0.31156  1.0000
  C   C1205     1.0  0.47629  0.71912  0.04126  1.0000
  H   H1434     1.0  0.43223  0.71854  0.99358  1.0000
  H   H1435     1.0  0.23919  0.98024  0.02251  1.0000
  C   C1206     1.0  0.48338  0.64297  0.00608  1.0000
  C   C1207     1.0  0.47063  0.88898  0.21889  1.0000
  H   H1436     1.0  0.48279  0.88132  0.08512  1.0000
  C   C1208     1.0  0.25969  0.93094  0.02978  1.0000
  C   C1209     1.0  0.33191  0.49216  0.13111  1.0000
  C   C1210     1.0  0.46623  0.87741  0.20646  1.0000
  C   C1211     1.0  0.48204  0.95191  0.25486  1.0000
  H   H1437     1.0  0.47742  0.48676  0.18940  1.0000
  H   H1438     1.0  0.32666  0.48639  0.12000  1.0000
  H   H1439     1.0  0.46411  0.88715  0.23468  1.0000
  N   N85       1.0  0.47318  0.97260  0.25851  1.0000
  H   H1440     1.0  0.39620  0.87461  0.30562  1.0000
  H   H1441     1.0  0.46755  0.58591  0.99058  1.0000
  H   H1442     1.0  0.47759  0.57573  0.05133  1.0000
  Fe  Fe159     1.0  0.33771  0.49188  0.21530  1.0000
  H   H1443     1.0  0.45673  0.68756  0.98823  1.0000
  H   H1444     1.0  0.48871  0.54715  0.19791  1.0000
  C   C1212     1.0  0.45190  0.97659  0.25578  1.0000
  C   C1213     1.0  0.48633  0.89498  0.17714  1.0000
  H   H1445     1.0  0.48044  0.90863  0.12799  1.0000
  H   H1446     1.0  0.25360  0.55171  0.14108  1.0000
  S   S310      1.0  0.31144  0.49324  0.07989  1.0000
  H   H1447     1.0  0.48285  0.98489  0.22740  1.0000
  C   C1214     1.0  0.24234  0.94810  0.00218  1.0000
  H   H1448     1.0  0.47532  0.60490  0.99990  1.0000
  H   H1449     1.0  0.47879  0.60014  0.03580  1.0000
  H   H1450     1.0  0.47659  0.82354  0.14046  1.0000
  S   S311      1.0  0.37126  0.48602  0.21261  1.0000
  H   H1451     1.0  0.36837  0.93387  0.41269  1.0000
  C   C1215     1.0  0.48825  0.89287  0.62580  1.0000
  H   H1452     1.0  0.26145  0.69915  0.47398  1.0000
  Fe  Fe160     1.0  0.45376  0.74338  0.61257  1.0000
  S   S312      1.0  0.43356  0.75536  0.58916  1.0000
  H   H1453     1.0  0.35743  0.84250  0.60581  1.0000
  Fe  Fe161     1.0  0.32942  0.71012  0.51876  1.0000
  S   S313      1.0  0.33650  0.73710  0.49545  1.0000
  S   S314      1.0  0.31365  0.68401  0.51749  1.0000
  Fe  Fe162     1.0  0.35592  0.71864  0.54663  1.0000
  S   S315      1.0  0.36500  0.74530  0.52517  1.0000
  S   S316      1.0  0.36821  0.70873  0.57582  1.0000
  Fe  Fe163     1.0  0.33281  0.75335  0.52195  1.0000
  S   S317      1.0  0.31722  0.78529  0.52492  1.0000
  Fe  Fe164     1.0  0.36822  0.72685  0.50114  1.0000
  S   S318      1.0  0.39831  0.72474  0.48102  1.0000
  S   S319      1.0  0.32315  0.72721  0.54475  1.0000
  S   S320      1.0  0.36165  0.69927  0.52290  1.0000
  Fe  Fe165     1.0  0.46691  0.74847  0.35201  1.0000
  S   S321      1.0  0.45341  0.74211  0.38443  1.0000
  S   S322      1.0  0.39166  0.90779  0.33088  1.0000
  H   H1454     1.0  0.39158  0.97378  0.35611  1.0000
  S   S323      1.0  0.46528  0.69397  0.38088  1.0000
  Fe  Fe166     1.0  0.43980  0.71922  0.37529  1.0000
  S   S324      1.0  0.40779  0.71732  0.38956  1.0000
  S   S325      1.0  0.45119  0.72745  0.34215  1.0000
  Fe  Fe167     1.0  0.43633  0.91590  0.35234  1.0000
  S   S326      1.0  0.40969  0.90478  0.37223  1.0000
  H   H1455     1.0  0.34800  0.86403  0.61765  1.0000
  H   H1456     1.0  0.24130  0.86523  0.59586  1.0000
  H   H1457     1.0  0.33738  0.80173  0.59540  1.0000
  Fe  Fe168     1.0  0.39198  0.92848  0.35232  1.0000
  S   S327      1.0  0.36364  0.94509  0.36859  1.0000
  Fe  Fe169     1.0  0.41171  0.88500  0.34948  1.0000
  S   S328      1.0  0.40503  0.85327  0.35903  1.0000
  C   C1216     1.0  0.26485  0.66541  0.56400  1.0000
  H   H1458     1.0  0.45959  0.66572  0.34089  1.0000
  Fe  Fe170     1.0  0.33713  0.87828  0.56322  1.0000
  S   S329      1.0  0.32204  0.89362  0.58960  1.0000
  S   S330      1.0  0.34942  0.84474  0.56629  1.0000
  Fe  Fe171     1.0  0.33520  0.91782  0.53430  1.0000
  S   S331      1.0  0.31997  0.93633  0.55826  1.0000
  S   S332      1.0  0.34112  0.92924  0.50100  1.0000
  Fe  Fe172     1.0  0.34217  0.91701  0.57716  1.0000
  S   S333      1.0  0.36055  0.92442  0.59864  1.0000
  Fe  Fe173     1.0  0.30123  0.91173  0.56869  1.0000
  S   S334      1.0  0.26744  0.92054  0.57671  1.0000
  S   S335      1.0  0.35868  0.90018  0.55205  1.0000
  S   S336      1.0  0.31499  0.89473  0.54344  1.0000
  C   C1217     1.0  0.34265  0.95485  0.49551  1.0000
  C   C1218     1.0  0.34125  0.96527  0.47609  1.0000
  C   C1219     1.0  0.34502  0.96502  0.51029  1.0000
  H   H1459     1.0  0.36300  0.90892  0.39731  1.0000
  H   H1460     1.0  0.34654  0.95698  0.52522  1.0000
  Fe  Fe174     1.0  0.47990  0.71770  0.38748  1.0000
  C   C1220     1.0  0.25727  0.89405  0.55643  1.0000
  H   H1461     1.0  0.27280  0.88694  0.55489  1.0000
  H   H1462     1.0  0.33318  0.97018  0.39119  1.0000
  Fe  Fe175     1.0  0.47173  0.76093  0.64120  1.0000
  H   H1463     1.0  0.27501  0.63782  0.50228  1.0000
  H   H1464     1.0  0.37340  0.87791  0.38407  1.0000
  C   C1221     1.0  0.46786  0.65954  0.32780  1.0000
  C   C1222     1.0  0.47408  0.95129  0.37632  1.0000
  C   C1223     1.0  0.43580  0.76166  0.44036  1.0000
  C   C1224     1.0  0.45827  0.94442  0.37141  1.0000
  C   C1225     1.0  0.36540  0.94722  0.60422  1.0000
  C   C1226     1.0  0.35894  0.96625  0.59366  1.0000
  C   C1227     1.0  0.24997  0.68584  0.53633  1.0000
  H   H1465     1.0  0.25794  0.98494  0.48140  1.0000
  C   C1228     1.0  0.37644  0.94604  0.61969  1.0000
  H   H1466     1.0  0.35044  0.96755  0.58174  1.0000
  H   H1467     1.0  0.30358  0.76385  0.62646  1.0000
  C   C1229     1.0  0.45342  0.79990  0.34400  1.0000
  C   C1230     1.0  0.45817  0.81929  0.34013  1.0000
  C   C1231     1.0  0.44351  0.83574  0.34489  1.0000
  C   C1232     1.0  0.42400  0.83287  0.35361  1.0000
  C   C1233     1.0  0.41932  0.81341  0.35776  1.0000
  C   C1234     1.0  0.43398  0.79694  0.35297  1.0000
  C   C1235     1.0  0.37458  0.98252  0.61389  1.0000
  H   H1468     1.0  0.44735  0.85060  0.34175  1.0000
  H   H1469     1.0  0.40423  0.81109  0.36448  1.0000
  H   H1470     1.0  0.43018  0.78202  0.35601  1.0000
  C   C1236     1.0  0.40015  0.72261  0.45575  1.0000
  C   C1237     1.0  0.38326  0.72626  0.44643  1.0000
  C   C1238     1.0  0.38554  0.72471  0.42600  1.0000
  C   C1239     1.0  0.40469  0.71953  0.41500  1.0000
  C   C1240     1.0  0.42147  0.71587  0.42445  1.0000
  C   C1241     1.0  0.41920  0.71739  0.44474  1.0000
  H   H1471     1.0  0.36855  0.73042  0.45488  1.0000
  H   H1472     1.0  0.37255  0.72760  0.41870  1.0000
  H   H1473     1.0  0.43624  0.71156  0.41619  1.0000
  H   H1474     1.0  0.43231  0.71443  0.45187  1.0000
  C   C1242     1.0  0.32738  0.80235  0.53467  1.0000
  C   C1243     1.0  0.34600  0.79714  0.54113  1.0000
  C   C1244     1.0  0.35269  0.81035  0.55052  1.0000
  C   C1245     1.0  0.34111  0.82919  0.55309  1.0000
  C   C1246     1.0  0.32279  0.83470  0.54609  1.0000
  C   C1247     1.0  0.31594  0.82131  0.53704  1.0000
  H   H1475     1.0  0.35517  0.78281  0.53923  1.0000
  H   H1476     1.0  0.36688  0.80590  0.55585  1.0000
  H   H1477     1.0  0.31363  0.84908  0.54807  1.0000
  H   H1478     1.0  0.30154  0.82556  0.53209  1.0000
  C   C1248     1.0  0.41465  0.74258  0.58699  1.0000
  C   C1249     1.0  0.41311  0.72319  0.59747  1.0000
  C   C1250     1.0  0.39856  0.71303  0.59423  1.0000
  C   C1251     1.0  0.38557  0.72217  0.58049  1.0000
  C   C1252     1.0  0.38668  0.74183  0.57066  1.0000
  C   C1253     1.0  0.40128  0.75190  0.57373  1.0000
  H   H1479     1.0  0.42330  0.71592  0.60781  1.0000
  H   H1480     1.0  0.39762  0.69792  0.60213  1.0000
  H   H1481     1.0  0.37623  0.74940  0.56080  1.0000
  H   H1482     1.0  0.40216  0.76701  0.56583  1.0000
  C   C1254     1.0  0.26611  0.66784  0.48727  1.0000
  C   C1255     1.0  0.26989  0.68771  0.48370  1.0000
  C   C1256     1.0  0.28426  0.69303  0.49279  1.0000
  C   C1257     1.0  0.29514  0.67847  0.50559  1.0000
  C   C1258     1.0  0.29157  0.65856  0.50893  1.0000
  C   C1259     1.0  0.27725  0.65324  0.49979  1.0000
  S   S337      1.0  0.41866  0.94104  0.33367  1.0000
  H   H1483     1.0  0.28671  0.70842  0.49008  1.0000
  H   H1484     1.0  0.29997  0.64711  0.51868  1.0000
  H   H1485     1.0  0.36773  0.80275  0.60706  1.0000
  H   H1486     1.0  0.27214  0.69431  0.54938  1.0000
  H   H1487     1.0  0.34944  0.94621  0.43002  1.0000
  C   C1260     1.0  0.25977  0.50062  0.32346  1.0000
  H   H1488     1.0  0.24554  0.54073  0.51653  1.0000
  H   H1489     1.0  0.38837  0.77164  0.62178  1.0000
  C   C1261     1.0  0.36027  0.85081  0.61694  1.0000
  C   C1262     1.0  0.42104  0.77016  0.42863  1.0000
  C   C1263     1.0  0.34541  0.97843  0.38508  1.0000
  H   H1490     1.0  0.40883  0.84111  0.63711  1.0000
  N   N86       1.0  0.27283  0.95860  0.51424  1.0000
  H   H1491     1.0  0.24623  0.98146  0.36670  1.0000
  C   C1264     1.0  0.44444  0.90671  0.62627  1.0000
  C   C1265     1.0  0.37447  0.77099  0.61707  1.0000
  C   C1266     1.0  0.28547  0.93837  0.51586  1.0000
  H   H1492     1.0  0.29963  0.93830  0.52124  1.0000
  H   H1493     1.0  0.27802  0.92684  0.52682  1.0000
  H   H1494     1.0  0.40888  0.91683  0.59623  1.0000
  H   H1495     1.0  0.37792  0.86245  0.57975  1.0000
  C   C1267     1.0  0.36261  0.96957  0.37326  1.0000
  H   H1496     1.0  0.41946  0.93066  0.62210  1.0000
  H   H1497     1.0  0.25271  0.50264  0.33858  1.0000
  S   S338      1.0  0.24748  0.66221  0.47557  1.0000
  H   H1498     1.0  0.40589  0.76706  0.43370  1.0000
  H   H1499     1.0  0.25690  0.95293  0.54464  1.0000
  S   S339      1.0  0.44018  0.89400  0.33127  1.0000
  H   H1500     1.0  0.30364  0.79642  0.60159  1.0000
  H   H1501     1.0  0.33624  0.90090  0.46433  1.0000
  S   S340      1.0  0.48039  0.75877  0.60856  1.0000
  H   H1502     1.0  0.41815  0.86480  0.31699  1.0000
  C   C1268     1.0  0.46105  0.77711  0.41476  1.0000
  H   H1503     1.0  0.38580  0.91425  0.44127  1.0000
  C   C1269     1.0  0.24344  0.88621  0.54898  1.0000
  C   C1270     1.0  0.34534  0.78760  0.60204  1.0000
  H   H1504     1.0  0.43189  0.75213  0.45463  1.0000
  H   H1505     1.0  0.28965  0.93317  0.50107  1.0000
  H   H1506     1.0  0.34755  0.73664  0.61293  1.0000
  S   S341      1.0  0.47087  0.71224  0.62034  1.0000
  H   H1507     1.0  0.42609  0.98341  0.42503  1.0000
  S   S342      1.0  0.44371  0.74796  0.64453  1.0000
  H   H1508     1.0  0.36688  0.92929  0.45669  1.0000
  H   H1509     1.0  0.48211  0.90638  0.63298  1.0000
  C   C1271     1.0  0.46054  0.64510  0.32067  1.0000
  H   H1510     1.0  0.33700  0.76294  0.56737  1.0000
  H   H1511     1.0  0.31398  0.74058  0.61749  1.0000
  C   C1272     1.0  0.45556  0.76493  0.43358  1.0000
  C   C1273     1.0  0.37049  0.91507  0.45040  1.0000
  H   H1512     1.0  0.37862  0.84534  0.40650  1.0000
  H   H1513     1.0  0.36205  0.87480  0.45788  1.0000
  C   C1274     1.0  0.33577  0.91340  0.45134  1.0000
  N   N87       1.0  0.38026  0.85700  0.61141  1.0000
  H   H1514     1.0  0.29134  0.97020  0.48692  1.0000
  H   H1515     1.0  0.44664  0.64026  0.32840  1.0000
  C   C1275     1.0  0.38159  0.86972  0.59124  1.0000
  C   C1276     1.0  0.39593  0.83884  0.61110  1.0000
  C   C1277     1.0  0.39774  0.82619  0.59666  1.0000
  C   C1278     1.0  0.40918  0.83269  0.62540  1.0000
  C   C1279     1.0  0.42464  0.80299  0.61071  1.0000
  C   C1280     1.0  0.25506  0.95861  0.50525  1.0000
  C   C1281     1.0  0.38168  0.86978  0.62591  1.0000
  C   C1282     1.0  0.25082  0.91066  0.56628  1.0000
  H   H1516     1.0  0.37898  0.86190  0.64171  1.0000
  H   H1517     1.0  0.31713  0.79568  0.57638  1.0000
  C   C1283     1.0  0.24940  0.97318  0.48868  1.0000
  C   C1284     1.0  0.48602  0.66563  0.31823  1.0000
  H   H1518     1.0  0.39680  0.87360  0.58581  1.0000
  H   H1519     1.0  0.26007  0.54628  0.54902  1.0000
  H   H1520     1.0  0.37077  0.88404  0.59138  1.0000
  H   H1521     1.0  0.27893  0.96351  0.54225  1.0000
  H   H1522     1.0  0.38793  0.82960  0.58556  1.0000
  H   H1523     1.0  0.44847  0.91343  0.63748  1.0000
  C   C1285     1.0  0.35386  0.93244  0.42297  1.0000
  C   C1286     1.0  0.24232  0.94416  0.51360  1.0000
  N   N88       1.0  0.35555  0.91379  0.43815  1.0000
  N   N89       1.0  0.34007  0.68444  0.45204  1.0000
  C   C1287     1.0  0.32963  0.66766  0.46309  1.0000
  C   C1288     1.0  0.33010  0.70308  0.46002  1.0000
  C   C1289     1.0  0.33748  0.68755  0.43069  1.0000
  C   C1290     1.0  0.36130  0.67978  0.45489  1.0000
  C   C1291     1.0  0.37758  0.67768  0.43871  1.0000
  C   C1292     1.0  0.36619  0.67725  0.47440  1.0000
  C   C1293     1.0  0.39743  0.67364  0.44197  1.0000
  C   C1294     1.0  0.38610  0.67336  0.47744  1.0000
  C   C1295     1.0  0.40168  0.67162  0.46125  1.0000
  H   H1524     1.0  0.32991  0.66510  0.47949  1.0000
  H   H1525     1.0  0.31353  0.67059  0.46146  1.0000
  H   H1526     1.0  0.33674  0.65333  0.45763  1.0000
  H   H1527     1.0  0.31435  0.70762  0.45730  1.0000
  H   H1528     1.0  0.33826  0.71579  0.45294  1.0000
  H   H1529     1.0  0.32926  0.70134  0.47653  1.0000
  H   H1530     1.0  0.34388  0.67381  0.42388  1.0000
  H   H1531     1.0  0.32136  0.69116  0.42910  1.0000
  H   H1532     1.0  0.34468  0.70031  0.42159  1.0000
  H   H1533     1.0  0.37552  0.67969  0.42327  1.0000
  H   H1534     1.0  0.35463  0.67852  0.48746  1.0000
  H   H1535     1.0  0.40960  0.67286  0.42930  1.0000
  H   H1536     1.0  0.38944  0.67210  0.49240  1.0000
  H   H1537     1.0  0.41709  0.66917  0.46357  1.0000
  N   N90       1.0  0.43588  0.72015  0.52584  1.0000
  C   C1296     1.0  0.42031  0.73804  0.52236  1.0000
  C   C1297     1.0  0.42767  0.70200  0.52506  1.0000
  C   C1298     1.0  0.44007  0.71812  0.54656  1.0000
  C   C1299     1.0  0.45375  0.72254  0.51017  1.0000
  C   C1300     1.0  0.47091  0.72871  0.51392  1.0000
  C   C1301     1.0  0.45390  0.72006  0.49015  1.0000
  C   C1302     1.0  0.37082  0.87745  0.40022  1.0000
  C   C1303     1.0  0.47057  0.72256  0.47513  1.0000
  H   H1538     1.0  0.45686  0.86721  0.60035  1.0000
  H   H1539     1.0  0.41626  0.74027  0.50714  1.0000
  H   H1540     1.0  0.40631  0.73662  0.53335  1.0000
  H   H1541     1.0  0.42538  0.75196  0.52374  1.0000
  H   H1542     1.0  0.42089  0.70350  0.51142  1.0000
  H   H1543     1.0  0.41521  0.69912  0.53779  1.0000
  H   H1544     1.0  0.43949  0.68840  0.52561  1.0000
  H   H1545     1.0  0.44309  0.73237  0.54972  1.0000
  H   H1546     1.0  0.42703  0.71437  0.55810  1.0000
  H   H1547     1.0  0.45294  0.70595  0.54945  1.0000
  H   H1548     1.0  0.38896  0.97727  0.45434  1.0000
  C   C1304     1.0  0.44927  0.88093  0.60565  1.0000
  C   C1305     1.0  0.48458  0.86033  0.62132  1.0000
  H   H1549     1.0  0.44106  0.71639  0.48583  1.0000
  S   S343      1.0  0.47199  0.77978  0.33712  1.0000
  H   H1550     1.0  0.41289  0.79896  0.58552  1.0000
  C   C1306     1.0  0.26605  0.96374  0.53468  1.0000
  H   H1551     1.0  0.37020  0.88375  0.62509  1.0000
  C   C1307     1.0  0.43992  0.95726  0.37032  1.0000
  C   C1308     1.0  0.36842  0.75255  0.61890  1.0000
  H   H1552     1.0  0.33942  0.95754  0.46460  1.0000
  C   C1309     1.0  0.47573  0.97747  0.31950  1.0000
  C   C1310     1.0  0.41189  0.80856  0.59653  1.0000
  H   H1553     1.0  0.41441  0.78872  0.40098  1.0000
  H   H1554     1.0  0.29932  0.97236  0.50939  1.0000
  H   H1555     1.0  0.42738  0.95184  0.36740  1.0000
  S   S344      1.0  0.24973  0.51657  0.58306  1.0000
  C   C1311     1.0  0.36484  0.89528  0.40813  1.0000
  Fe  Fe176     1.0  0.47791  0.70376  0.34844  1.0000
  H   H1556     1.0  0.44857  0.79498  0.38880  1.0000
  H   H1557     1.0  0.33311  0.74016  0.58409  1.0000
  C   C1312     1.0  0.33878  0.76897  0.60363  1.0000
  H   H1558     1.0  0.37259  0.84397  0.44344  1.0000
  H   H1559     1.0  0.38131  0.93152  0.62820  1.0000
  C   C1313     1.0  0.45586  0.88860  0.62044  1.0000
  C   C1314     1.0  0.37046  0.85835  0.43360  1.0000
  C   C1315     1.0  0.30851  0.78710  0.58949  1.0000
  H   H1560     1.0  0.29480  0.78542  0.58423  1.0000
  H   H1561     1.0  0.35873  0.84086  0.63183  1.0000
  C   C1316     1.0  0.30714  0.75646  0.61291  1.0000
  C   C1317     1.0  0.42330  0.81502  0.62509  1.0000
  C   C1318     1.0  0.38107  0.96348  0.62445  1.0000
  C   C1319     1.0  0.42180  0.90892  0.60299  1.0000
  C   C1320     1.0  0.37376  0.85905  0.41287  1.0000
  C   C1321     1.0  0.32605  0.75600  0.57953  1.0000
  C   C1322     1.0  0.43257  0.89111  0.59702  1.0000
  C   C1323     1.0  0.36164  0.89518  0.42920  1.0000
  H   H1562     1.0  0.29275  0.75589  0.60828  1.0000
  C   C1324     1.0  0.42774  0.91668  0.61761  1.0000
  N   N91       1.0  0.32041  0.76735  0.59650  1.0000
  H   H1563     1.0  0.37106  0.90285  0.46364  1.0000
  S   S345      1.0  0.23922  0.60308  0.49107  1.0000
  H   H1564     1.0  0.34232  0.93294  0.41360  1.0000
  S   S346      1.0  0.46203  0.92022  0.36552  1.0000
  C   C1325     1.0  0.42587  0.78233  0.41023  1.0000
  C   C1326     1.0  0.35101  0.75144  0.61207  1.0000
  H   H1565     1.0  0.32428  0.91166  0.44285  1.0000
  H   H1566     1.0  0.24851  0.87316  0.54165  1.0000
  H   H1567     1.0  0.43548  0.78921  0.61066  1.0000
  C   C1327     1.0  0.37826  0.98046  0.36524  1.0000
  H   H1568     1.0  0.42810  0.88530  0.58540  1.0000
  H   H1569     1.0  0.25391  0.62160  0.53134  1.0000
  H   H1570     1.0  0.24540  0.93282  0.52639  1.0000
  H   H1571     1.0  0.45946  0.95282  0.32810  1.0000
  H   H1572     1.0  0.48396  0.97637  0.38324  1.0000
  H   H1573     1.0  0.33040  0.92740  0.45793  1.0000
  N   N92       1.0  0.47382  0.87870  0.62948  1.0000
  H   H1574     1.0  0.24841  0.53663  0.42936  1.0000
  H   H1575     1.0  0.31283  0.75561  0.57275  1.0000
  C   C1328     1.0  0.36293  0.78846  0.60869  1.0000
  C   C1329     1.0  0.36446  0.87611  0.44171  1.0000
  C   C1330     1.0  0.44552  0.78584  0.40339  1.0000
  H   H1576     1.0  0.46626  0.75753  0.44324  1.0000
  H   H1577     1.0  0.25609  0.63708  0.57537  1.0000
  H   H1578     1.0  0.47321  0.82166  0.33326  1.0000
  H   H1579     1.0  0.47617  0.97868  0.33483  1.0000
  H   H1580     1.0  0.23991  0.57651  0.53199  1.0000
  H   H1581     1.0  0.25112  0.53511  0.49150  1.0000
  H   H1582     1.0  0.37766  0.73892  0.62505  1.0000
  C   C1331     1.0  0.45402  0.98450  0.37651  1.0000
  H   H1583     1.0  0.47193  0.73165  0.52845  1.0000
  C   C1332     1.0  0.24441  0.55057  0.55505  1.0000
  C   C1333     1.0  0.36346  0.98369  0.59849  1.0000
  H   H1584     1.0  0.39651  0.87476  0.62273  1.0000
  H   H1585     1.0  0.38947  0.96221  0.63643  1.0000
  H   H1586     1.0  0.27537  0.66316  0.57431  1.0000
  H   H1587     1.0  0.47513  0.84835  0.62468  1.0000
  H   H1588     1.0  0.43319  0.81041  0.63620  1.0000
  C   C1334     1.0  0.43785  0.97734  0.37267  1.0000
  H   H1589     1.0  0.40452  0.97760  0.41856  1.0000
  C   C1335     1.0  0.26299  0.68304  0.55003  1.0000
  C   C1336     1.0  0.47188  0.97127  0.37905  1.0000
  C   C1337     1.0  0.48726  0.72828  0.47944  1.0000
  H   H1590     1.0  0.47051  0.72012  0.46004  1.0000
  C   C1338     1.0  0.25366  0.65047  0.56437  1.0000
  H   H1591     1.0  0.28641  0.51166  0.32494  1.0000
  H   H1592     1.0  0.25666  0.97892  0.53420  1.0000
  H   H1593     1.0  0.24492  0.61161  0.56764  1.0000
  C   C1339     1.0  0.48265  0.80216  0.40111  1.0000
  C   C1340     1.0  0.28580  0.97319  0.50254  1.0000
  C   C1341     1.0  0.24026  0.65284  0.55053  1.0000
  N   N93       1.0  0.48193  0.78033  0.40668  1.0000
  H   H1594     1.0  0.24902  0.69931  0.52508  1.0000
  H   H1595     1.0  0.47556  0.81014  0.41396  1.0000
  H   H1596     1.0  0.48009  0.77724  0.37652  1.0000
  H   H1597     1.0  0.47479  0.80939  0.38822  1.0000
  C   C1342     1.0  0.48739  0.73141  0.49874  1.0000
  H   H1598     1.0  0.48810  0.94124  0.37771  1.0000
  C   C1343     1.0  0.23899  0.67089  0.53632  1.0000
  S   S347      1.0  0.23934  0.56976  0.45118  1.0000
  C   C1344     1.0  0.34571  0.98567  0.50567  1.0000
  C   C1345     1.0  0.23905  0.54174  0.50282  1.0000
  C   C1346     1.0  0.34190  0.98586  0.47152  1.0000
  H   H1599     1.0  0.41003  0.98552  0.46009  1.0000
  Fe  Fe177     1.0  0.46272  0.71775  0.65243  1.0000
  Fe  Fe178     1.0  0.46374  0.59052  0.74508  1.0000
  H   H1600     1.0  0.27572  0.94574  0.91178  1.0000
  H   H1601     1.0  0.24753  0.87605  0.88525  1.0000
  Fe  Fe179     1.0  0.42940  0.56799  0.76577  1.0000
  S   S348      1.0  0.43986  0.56149  0.79549  1.0000
  S   S349      1.0  0.40055  0.55740  0.76538  1.0000
  Fe  Fe180     1.0  0.44570  0.59305  0.78861  1.0000
  S   S350      1.0  0.43746  0.61435  0.81102  1.0000
  Fe  Fe181     1.0  0.47047  0.55390  0.77772  1.0000
  C   C1347     1.0  0.46135  0.95945  0.65758  1.0000
  S   S351      1.0  0.43242  0.60065  0.76025  1.0000
  S   S352      1.0  0.45974  0.55820  0.74824  1.0000
  S   S353      1.0  0.25867  0.98506  0.87704  1.0000
  H   H1602     1.0  0.47302  0.86268  0.82674  1.0000
  H   H1603     1.0  0.48573  0.67040  0.66934  1.0000
  C   C1348     1.0  0.46666  0.84348  0.95501  1.0000
  C   C1349     1.0  0.48278  0.64235  0.68965  1.0000
  H   H1604     1.0  0.37577  0.77091  0.94432  1.0000
  H   H1605     1.0  0.40086  0.57910  0.96336  1.0000
  C   C1350     1.0  0.47606  0.66239  0.68123  1.0000
  S   S354      1.0  0.25429  0.95890  0.84338  1.0000
  C   C1351     1.0  0.47122  0.87318  0.93050  1.0000
  C   C1352     1.0  0.37049  0.69959  0.91980  1.0000
  C   C1353     1.0  0.34298  0.70605  0.94663  1.0000
  H   H1606     1.0  0.45170  0.98160  0.69101  1.0000
  H   H1607     1.0  0.48634  0.50827  0.75634  1.0000
  Fe  Fe182     1.0  0.40333  0.80330  0.93544  1.0000
  C   C1354     1.0  0.38044  0.76000  0.90991  1.0000
  S   S355      1.0  0.37108  0.81267  0.93034  1.0000
  Fe  Fe183     1.0  0.44282  0.81849  0.91757  1.0000
  S   S356      1.0  0.46107  0.79232  0.93429  1.0000
  H   H1608     1.0  0.34865  0.97623  0.83633  1.0000
  Fe  Fe184     1.0  0.44169  0.77344  0.92656  1.0000
  S   S357      1.0  0.45819  0.74436  0.91693  1.0000
  H   H1609     1.0  0.44988  0.63946  0.77457  1.0000
  S   S358      1.0  0.42562  0.79925  0.90723  1.0000
  S   S359      1.0  0.41959  0.82419  0.94459  1.0000
  Fe  Fe185     1.0  0.47558  0.61861  0.94701  1.0000
  S   S360      1.0  0.44581  0.62666  0.96584  1.0000
  C   C1355     1.0  0.47922  0.97466  0.80634  1.0000
  Fe  Fe186     1.0  0.45810  0.60146  0.91830  1.0000
  S   S361      1.0  0.42641  0.60861  0.93453  1.0000
  S   S362      1.0  0.46993  0.58304  0.89339  1.0000
  Fe  Fe187     1.0  0.43528  0.63800  0.93629  1.0000
  S   S363      1.0  0.41510  0.66828  0.93460  1.0000
  Fe  Fe188     1.0  0.43957  0.59678  0.96276  1.0000
  C   C1356     1.0  0.37573  0.56535  0.68563  1.0000
  S   S364      1.0  0.46575  0.63179  0.91747  1.0000
  S   S365      1.0  0.47063  0.58767  0.94649  1.0000
  C   C1357     1.0  0.44614  0.72325  0.92271  1.0000
  C   C1358     1.0  0.42611  0.72447  0.93197  1.0000
  C   C1359     1.0  0.41676  0.70742  0.93599  1.0000
  C   C1360     1.0  0.42744  0.68909  0.93079  1.0000
  C   C1361     1.0  0.44766  0.68779  0.92213  1.0000
  C   C1362     1.0  0.45696  0.70483  0.91802  1.0000
  H   H1610     1.0  0.41789  0.73856  0.93594  1.0000
  H   H1611     1.0  0.40126  0.70834  0.94315  1.0000
  H   H1612     1.0  0.45603  0.67382  0.91802  1.0000
  H   H1613     1.0  0.46360  0.68144  0.75657  1.0000
  H   H1614     1.0  0.46952  0.93909  0.86775  1.0000
  C   C1363     1.0  0.48449  0.86646  0.88295  1.0000
  H   H1615     1.0  0.38555  0.72358  0.90505  1.0000
  H   H1616     1.0  0.30440  0.85760  0.94155  1.0000
  S   S366      1.0  0.44438  0.97567  0.85457  1.0000
  C   C1364     1.0  0.33603  0.51480  0.71492  1.0000
  S   S367      1.0  0.30638  0.97907  0.83768  1.0000
  C   C1365     1.0  0.36102  0.73342  0.92865  1.0000
  S   S368      1.0  0.41808  0.77560  0.95397  1.0000
  C   C1366     1.0  0.45889  0.64242  0.75933  1.0000
  H   H1617     1.0  0.29235  0.96170  0.89710  1.0000
  H   H1618     1.0  0.44629  0.96695  0.65648  1.0000
  H   H1619     1.0  0.43854  0.72686  0.96699  1.0000
  H   H1620     1.0  0.38340  0.58255  0.70503  1.0000
  H   H1621     1.0  0.46079  0.88589  0.65904  1.0000
  H   H1622     1.0  0.43348  0.50119  0.73042  1.0000
  H   H1623     1.0  0.37586  0.49525  0.76633  1.0000
  C   C1367     1.0  0.29188  0.94640  0.90609  1.0000
  H   H1624     1.0  0.28898  0.94539  0.86766  1.0000
  H   H1625     1.0  0.47989  0.48691  0.79123  1.0000
  C   C1368     1.0  0.34991  0.80914  0.94905  1.0000
  C   C1369     1.0  0.34572  0.72605  0.94369  1.0000
  H   H1626     1.0  0.37187  0.49726  0.72441  1.0000
  H   H1627     1.0  0.44382  0.86102  0.93864  1.0000
  C   C1370     1.0  0.37056  0.75639  0.94573  1.0000
  C   C1371     1.0  0.40266  0.53349  0.75908  1.0000
  C   C1372     1.0  0.38682  0.52257  0.76613  1.0000
  C   C1373     1.0  0.38801  0.50370  0.76071  1.0000
  C   C1374     1.0  0.47685  0.72942  0.96695  1.0000
  C   C1375     1.0  0.42058  0.50696  0.74067  1.0000
  C   C1376     1.0  0.41951  0.52565  0.74630  1.0000
  H   H1628     1.0  0.37365  0.52874  0.77583  1.0000
  C   C1377     1.0  0.37481  0.49353  0.83456  1.0000
  H   H1629     1.0  0.36741  0.51271  0.67051  1.0000
  H   H1630     1.0  0.43144  0.53429  0.74029  1.0000
  C   C1378     1.0  0.44627  0.60536  0.83398  1.0000
  C   C1379     1.0  0.45833  0.58651  0.83733  1.0000
  C   C1380     1.0  0.46547  0.57978  0.85565  1.0000
  C   C1381     1.0  0.46056  0.59182  0.87069  1.0000
  C   C1382     1.0  0.44856  0.61068  0.86732  1.0000
  C   C1383     1.0  0.44149  0.61745  0.84896  1.0000
  H   H1631     1.0  0.46208  0.57711  0.82583  1.0000
  H   H1632     1.0  0.36168  0.52872  0.73460  1.0000
  H   H1633     1.0  0.44471  0.62005  0.87885  1.0000
  H   H1634     1.0  0.43217  0.63203  0.84643  1.0000
  H   H1635     1.0  0.38302  0.74425  0.94983  1.0000
  C   C1384     1.0  0.45692  0.67208  0.68844  1.0000
  H   H1636     1.0  0.36958  0.49600  0.86533  1.0000
  H   H1637     1.0  0.47313  0.87873  0.87808  1.0000
  C   C1385     1.0  0.47044  0.63183  0.70526  1.0000
  C   C1386     1.0  0.45118  0.64142  0.71216  1.0000
  C   C1387     1.0  0.44454  0.66148  0.70390  1.0000
  C   C1388     1.0  0.33077  0.81619  0.94393  1.0000
  H   H1638     1.0  0.27220  0.88062  0.93982  1.0000
  H   H1639     1.0  0.44141  0.63345  0.72395  1.0000
  C   C1389     1.0  0.37325  0.71960  0.91659  1.0000
  C   C1390     1.0  0.37233  0.55603  0.72161  1.0000
  H   H1640     1.0  0.46529  0.88530  0.91948  1.0000
  H   H1641     1.0  0.48487  0.67495  0.76945  1.0000
  C   C1391     1.0  0.47710  0.97038  0.65286  1.0000
  H   H1642     1.0  0.36877  0.56648  0.96789  1.0000
  H   H1643     1.0  0.44894  0.65320  0.74978  1.0000
  H   H1644     1.0  0.33605  0.73563  0.95362  1.0000
  C   C1392     1.0  0.44258  0.72682  0.98184  1.0000
  H   H1645     1.0  0.48134  0.49955  0.73504  1.0000
  H   H1646     1.0  0.47512  0.72815  0.95155  1.0000
  H   H1647     1.0  0.46306  0.69758  0.96232  1.0000
  H   H1648     1.0  0.40661  0.48785  0.95540  1.0000
  C   C1393     1.0  0.36799  0.48688  0.85491  1.0000
  C   C1394     1.0  0.35546  0.69280  0.93480  1.0000
  H   H1649     1.0  0.47562  0.80682  0.86682  1.0000
  H   H1650     1.0  0.33710  0.51355  0.73101  1.0000
  C   C1395     1.0  0.31528  0.80133  0.97694  1.0000
  C   C1396     1.0  0.36521  0.53871  0.72064  1.0000
  H   H1651     1.0  0.47088  0.95118  0.70230  1.0000
  H   H1652     1.0  0.45482  0.49254  0.78611  1.0000
  H   H1653     1.0  0.32927  0.82440  0.92904  1.0000
  C   C1397     1.0  0.35170  0.79842  0.96829  1.0000
  H   H1654     1.0  0.34556  0.49001  0.89341  1.0000
  H   H1655     1.0  0.46869  0.63917  0.80066  1.0000
  H   H1656     1.0  0.37063  0.49574  0.96714  1.0000
  N   N94       1.0  0.35568  0.51559  0.70150  1.0000
  H   H1657     1.0  0.39529  0.75067  0.91174  1.0000
  H   H1658     1.0  0.34199  0.52644  0.67497  1.0000
  H   H1659     1.0  0.44727  0.97654  0.80971  1.0000
  C   C1398     1.0  0.46505  0.93867  0.66389  1.0000
  H   H1660     1.0  0.37825  0.48818  0.80424  1.0000
  H   H1661     1.0  0.35374  0.67715  0.93745  1.0000
  H   H1662     1.0  0.45271  0.93035  0.66808  1.0000
  H   H1663     1.0  0.34843  0.78451  0.92067  1.0000
  H   H1664     1.0  0.47816  0.66573  0.72889  1.0000
  H   H1665     1.0  0.48801  0.61413  0.82262  1.0000
  C   C1399     1.0  0.48290  0.63148  0.79390  1.0000
  C   C1400     1.0  0.37660  0.56422  0.98049  1.0000
  C   C1401     1.0  0.48459  0.92873  0.66510  1.0000
  H   H1666     1.0  0.47249  0.70378  0.91089  1.0000
  C   C1402     1.0  0.30294  0.91049  0.90709  1.0000
  S   S369      1.0  0.47732  0.58507  0.77323  1.0000
  C   C1403     1.0  0.37028  0.49797  0.70854  1.0000
  H   H1667     1.0  0.29590  0.91859  0.86950  1.0000
  C   C1404     1.0  0.34583  0.76867  0.92386  1.0000
  C   C1405     1.0  0.37765  0.56928  0.70415  1.0000
  C   C1406     1.0  0.35296  0.51370  0.68114  1.0000
  C   C1407     1.0  0.47148  0.66956  0.76718  1.0000
  N   N95       1.0  0.47732  0.65015  0.75959  1.0000
  C   C1408     1.0  0.40962  0.49461  0.96759  1.0000
  N   N96       1.0  0.36451  0.75424  0.92689  1.0000
  C   C1409     1.0  0.47247  0.83499  0.84664  1.0000
  C   C1410     1.0  0.47658  0.49982  0.75140  1.0000
  H   H1668     1.0  0.36637  0.79301  0.97243  1.0000
  H   H1669     1.0  0.45210  0.97818  0.74585  1.0000
  C   C1411     1.0  0.47744  0.95137  0.86686  1.0000
  C   C1412     1.0  0.46790  0.87279  0.65147  1.0000
  C   C1413     1.0  0.48770  0.65437  0.73848  1.0000
  H   H1670     1.0  0.46126  0.50893  0.75322  1.0000
  H   H1671     1.0  0.38548  0.49831  0.69939  1.0000
  S   S370      1.0  0.25936  0.84511  0.97471  1.0000
  H   H1672     1.0  0.47382  0.64720  0.97737  1.0000
  S   S371      1.0  0.24681  0.80330  0.96695  1.0000
  H   H1673     1.0  0.32924  0.92484  0.87314  1.0000
  H   H1674     1.0  0.33137  0.93558  0.89448  1.0000
  H   H1675     1.0  0.38055  0.68904  0.91104  1.0000
  C   C1414     1.0  0.24040  0.90587  0.89293  1.0000
  N   N97       1.0  0.30171  0.93043  0.89400  1.0000
  C   C1415     1.0  0.45905  0.85948  0.94130  1.0000
  H   H1676     1.0  0.48110  0.86556  0.65885  1.0000
  S   S372      1.0  0.46985  0.79011  0.65252  1.0000
  H   H1677     1.0  0.47325  0.74574  0.96770  1.0000
  H   H1678     1.0  0.35802  0.75587  0.95868  1.0000
  H   H1679     1.0  0.38242  0.77588  0.90884  1.0000
  H   H1680     1.0  0.37677  0.75871  0.89527  1.0000
  Fe  Fe189     1.0  0.24053  0.83659  0.95577  1.0000
  C   C1416     1.0  0.44694  0.98373  0.70698  1.0000
  H   H1681     1.0  0.46087  0.66849  0.78165  1.0000
  H   H1682     1.0  0.29933  0.94527  0.91926  1.0000
  H   H1683     1.0  0.33574  0.86764  0.92140  1.0000
  H   H1684     1.0  0.47455  0.56511  0.85828  1.0000
  H   H1685     1.0  0.42412  0.48643  0.97198  1.0000
  H   H1686     1.0  0.34704  0.49973  0.68138  1.0000
  H   H1687     1.0  0.42966  0.66883  0.70947  1.0000
  C   C1417     1.0  0.36850  0.54811  0.68448  1.0000
  H   H1688     1.0  0.32963  0.50146  0.71402  1.0000
  H   H1689     1.0  0.44171  0.96990  0.71603  1.0000
  C   C1418     1.0  0.32167  0.87796  0.92066  1.0000
  C   C1419     1.0  0.31351  0.81239  0.95783  1.0000
  S   S373      1.0  0.48013  0.60733  0.71667  1.0000
  Fe  Fe190     1.0  0.27223  0.98252  0.84525  1.0000
  S   S374      1.0  0.45362  0.84529  0.89657  1.0000
  C   C1420     1.0  0.46019  0.98335  0.80197  1.0000
  H   H1690     1.0  0.41168  0.51029  0.96063  1.0000
  S   S375      1.0  0.44798  0.69755  0.67928  1.0000
  C   C1421     1.0  0.24236  0.96425  0.96694  1.0000
  C   C1422     1.0  0.28960  0.93093  0.87836  1.0000
  C   C1423     1.0  0.40498  0.49584  0.74806  1.0000
  H   H1691     1.0  0.47724  0.82303  0.66787  1.0000
  H   H1692     1.0  0.33389  0.76775  0.93734  1.0000
  H   H1693     1.0  0.45720  0.83272  0.96327  1.0000
  H   H1694     1.0  0.37395  0.55913  0.73599  1.0000
  C   C1424     1.0  0.46819  0.97118  0.86129  1.0000
  H   H1695     1.0  0.29883  0.81771  0.95366  1.0000
  H   H1696     1.0  0.48147  0.77966  0.96734  1.0000
  C   C1425     1.0  0.36297  0.53423  0.70207  1.0000
  C   C1426     1.0  0.28534  0.90409  0.91890  1.0000
  C   C1427     1.0  0.30405  0.87221  0.93204  1.0000
  C   C1428     1.0  0.32153  0.93548  0.88356  1.0000
  S   S376      1.0  0.48832  0.52523  0.79161  1.0000
  H   H1697     1.0  0.32003  0.95069  0.87408  1.0000
  H   H1698     1.0  0.33971  0.76613  0.91100  1.0000
  H   H1699     1.0  0.27091  0.91360  0.91864  1.0000
  H   H1700     1.0  0.47992  0.96115  0.81746  1.0000
  H   H1701     1.0  0.36750  0.54597  0.66965  1.0000
  C   C1429     1.0  0.32124  0.89679  0.90829  1.0000
  H   H1702     1.0  0.46263  0.62804  0.75334  1.0000
  H   H1703     1.0  0.45635  0.83624  0.84831  1.0000
  H   H1704     1.0  0.38126  0.50720  0.82999  1.0000
  H   H1705     1.0  0.45714  0.86204  0.65494  1.0000
  H   H1706     1.0  0.27382  0.92927  0.88489  1.0000
  S   S377      1.0  0.24132  0.84855  0.92269  1.0000
  C   C1430     1.0  0.47896  0.84804  0.89286  1.0000
  H   H1707     1.0  0.37997  0.57572  0.67207  1.0000
  H   H1708     1.0  0.33543  0.90019  0.89982  1.0000
  C   C1431     1.0  0.28592  0.88524  0.93112  1.0000
  H   H1709     1.0  0.32493  0.52841  0.71088  1.0000
  H   H1710     1.0  0.33139  0.70066  0.95840  1.0000
  Fe  Fe191     1.0  0.43652  0.79622  0.96051  1.0000
  H   H1711     1.0  0.37396  0.51964  0.97140  1.0000
  H   H1712     1.0  0.24396  0.91337  0.87761  1.0000
  C   C1432     1.0  0.24242  0.88477  0.89727  1.0000
  C   C1433     1.0  0.48153  0.97343  0.71466  1.0000
  C   C1434     1.0  0.48443  0.78641  0.97902  1.0000
  H   H1713     1.0  0.48422  0.79631  0.71679  1.0000
  C   C1435     1.0  0.37403  0.50356  0.97836  1.0000
  C   C1436     1.0  0.48291  0.95488  0.70800  1.0000
  H   H1714     1.0  0.24405  0.97722  0.95524  1.0000
  C   C1437     1.0  0.39479  0.57137  0.97788  1.0000
  C   C1438     1.0  0.48332  0.81835  0.85709  1.0000
  C   C1439     1.0  0.48217  0.85029  0.83469  1.0000
  Fe  Fe192     1.0  0.23919  0.96360  0.87471  1.0000
  C   C1440     1.0  0.33442  0.79436  0.98211  1.0000
  H   H1715     1.0  0.48709  0.88949  0.81778  1.0000
  C   C1441     1.0  0.48651  0.84110  0.95789  1.0000
  C   C1442     1.0  0.46672  0.69711  0.97749  1.0000
  H   H1716     1.0  0.48253  0.68941  0.97717  1.0000
  N   N98       1.0  0.46379  0.71757  0.98264  1.0000
  S   S378      1.0  0.48853  0.90301  0.67430  1.0000
  C   C1443     1.0  0.62076  0.44428  0.01724  1.0000
  C   C1444     1.0  0.57481  0.35544  0.02020  1.0000
  S   S379      1.0  0.55693  0.35927  0.21259  1.0000
  Fe  Fe193     1.0  0.64667  0.44037  0.20310  1.0000
  S   S380      1.0  0.64425  0.42373  0.23507  1.0000
  S   S381      1.0  0.66455  0.43000  0.17426  1.0000
  H   H1717     1.0  0.57278  0.36884  0.12523  1.0000
  S   S382      1.0  0.61398  0.46408  0.24780  1.0000
  Fe  Fe194     1.0  0.64736  0.45299  0.24363  1.0000
  S   S383      1.0  0.66217  0.45246  0.27104  1.0000
  Fe  Fe195     1.0  0.61135  0.43627  0.23708  1.0000
  S   S384      1.0  0.58395  0.42257  0.25231  1.0000
  N   N99       1.0  0.60208  0.09739  0.98958  1.0000
  S   S385      1.0  0.61364  0.45058  0.20481  1.0000
  H   H1718     1.0  0.59449  0.37286  0.20766  1.0000
  Fe  Fe196     1.0  0.70228  0.10687  0.00319  1.0000
  S   S386      1.0  0.69301  0.09670  0.03645  1.0000
  H   H1719     1.0  0.53808  0.27940  0.99663  1.0000
  C   C1445     1.0  0.60268  0.42996  0.13912  1.0000
  S   S387      1.0  0.72243  0.00862  0.12894  1.0000
  C   C1446     1.0  0.62131  0.42879  0.00666  1.0000
  H   H1720     1.0  0.53330  0.46678  0.27691  1.0000
  H   H1721     1.0  0.59295  0.12837  0.99320  1.0000
  S   S388      1.0  0.54618  0.02755  0.16568  1.0000
  C   C1447     1.0  0.51778  0.27609  0.02467  1.0000
  Fe  Fe197     1.0  0.52730  0.01924  0.19587  1.0000
  S   S389      1.0  0.51824  0.03880  0.22004  1.0000
  Fe  Fe198     1.0  0.52113  0.02122  0.15274  1.0000
  S   S390      1.0  0.51269  0.04078  0.12403  1.0000
  C   C1448     1.0  0.49150  0.18819  0.03329  1.0000
  Fe  Fe199     1.0  0.69981  0.98825  0.14241  1.0000
  C   C1449     1.0  0.50711  0.09295  0.98999  1.0000
  H   H1722     1.0  0.73106  0.36224  0.15264  1.0000
  H   H1723     1.0  0.57179  0.39545  0.11761  1.0000
  C   C1450     1.0  0.58576  0.36027  0.27042  1.0000
  C   C1451     1.0  0.70938  0.46752  0.98735  1.0000
  S   S391      1.0  0.53418  0.00355  0.30904  1.0000
  C   C1452     1.0  0.54562  0.46457  0.26399  1.0000
  N   N100      1.0  0.57593  0.38453  0.14835  1.0000
  Fe  Fe200     1.0  0.64625  0.37848  0.08899  1.0000
  S   S392      1.0  0.66529  0.35424  0.07245  1.0000
  S   S393      1.0  0.63765  0.37561  0.12312  1.0000
  Fe  Fe201     1.0  0.64133  0.40707  0.05022  1.0000
  S   S394      1.0  0.66052  0.38592  0.03031  1.0000
  S   S395      1.0  0.62754  0.43908  0.04109  1.0000
  Fe  Fe202     1.0  0.64349  0.36260  0.05027  1.0000
  S   S396      1.0  0.63048  0.33852  0.04024  1.0000
  Fe  Fe203     1.0  0.68074  0.37921  0.05366  1.0000
  S   S397      1.0  0.71462  0.37562  0.04513  1.0000
  S   S398      1.0  0.62300  0.38452  0.06887  1.0000
  S   S399      1.0  0.66305  0.40261  0.07143  1.0000
  C   C1453     1.0  0.49835  0.09031  0.01028  1.0000
  C   C1454     1.0  0.64388  0.09124  0.02002  1.0000
  C   C1455     1.0  0.52372  0.28502  0.00478  1.0000
  C   C1456     1.0  0.64626  0.98952  0.14287  1.0000
  N   N101      1.0  0.55231  0.33990  0.00465  1.0000
  C   C1457     1.0  0.62602  0.33394  0.01689  1.0000
  H   H1724     1.0  0.49537  0.29628  0.14648  1.0000
  S   S400      1.0  0.50703  0.36640  0.19211  1.0000
  C   C1458     1.0  0.61228  0.31353  0.99911  1.0000
  C   C1459     1.0  0.61627  0.31778  0.01705  1.0000
  S   S401      1.0  0.49681  0.31648  0.17847  1.0000
  H   H1725     1.0  0.60502  0.30089  0.99959  1.0000
  H   H1726     1.0  0.61183  0.30840  0.03120  1.0000
  C   C1460     1.0  0.71946  0.30294  0.03870  1.0000
  H   H1727     1.0  0.72659  0.32840  0.07950  1.0000
  C   C1461     1.0  0.71957  0.39895  0.07175  1.0000
  H   H1728     1.0  0.72397  0.41723  0.09202  1.0000
  H   H1729     1.0  0.70347  0.40278  0.07471  1.0000
  H   H1730     1.0  0.60518  0.39827  0.22228  1.0000
  H   H1731     1.0  0.54610  0.40992  0.25649  1.0000
  H   H1732     1.0  0.72308  0.39195  0.12639  1.0000
  S   S402      1.0  0.51552  0.32521  0.22436  1.0000
  C   C1462     1.0  0.52240  0.02855  0.24479  1.0000
  C   C1463     1.0  0.51463  0.04001  0.26016  1.0000
  C   C1464     1.0  0.51801  0.03244  0.27994  1.0000
  C   C1465     1.0  0.52932  0.01338  0.28446  1.0000
  C   C1466     1.0  0.53687  0.00180  0.26916  1.0000
  C   C1467     1.0  0.53337  0.00932  0.24940  1.0000
  C   C1468     1.0  0.49903  0.28310  0.03528  1.0000
  H   H1733     1.0  0.51215  0.04151  0.29161  1.0000
  S   S403      1.0  0.49983  0.36833  0.24061  1.0000
  H   H1734     1.0  0.69666  0.42406  0.01674  1.0000
  H   H1735     1.0  0.53495  0.44512  0.23406  1.0000
  Fe  Fe204     1.0  0.52432  0.35579  0.21754  1.0000
  H   H1736     1.0  0.58111  0.07658  0.00009  1.0000
  S   S404      1.0  0.67212  0.99904  0.16388  1.0000
  C   C1469     1.0  0.51059  0.26818  0.31375  1.0000
  C   C1470     1.0  0.59518  0.41382  0.13556  1.0000
  C   C1471     1.0  0.70374  0.07194  0.04544  1.0000
  C   C1472     1.0  0.69984  0.06418  0.06601  1.0000
  C   C1473     1.0  0.70848  0.04447  0.07342  1.0000
  S   S405      1.0  0.65229  0.46872  0.21132  1.0000
  H   H1737     1.0  0.51494  0.06213  0.18063  1.0000
  H   H1738     1.0  0.72155  0.12160  0.02467  1.0000
  H   H1739     1.0  0.69006  0.07337  0.07623  1.0000
  H   H1740     1.0  0.70535  0.03851  0.08927  1.0000
  H   H1741     1.0  0.54746  0.44869  0.26190  1.0000
  H   H1742     1.0  0.55235  0.31845  0.98576  1.0000
  C   C1474     1.0  0.72500  0.04035  0.03970  1.0000
  H   H1743     1.0  0.63308  0.00513  0.18817  1.0000
  C   C1475     1.0  0.68894  0.36067  0.13541  1.0000
  C   C1476     1.0  0.67969  0.46487  0.27781  1.0000
  C   C1477     1.0  0.68090  0.46316  0.29830  1.0000
  H   H1744     1.0  0.52231  0.31593  0.30388  1.0000
  N   N102      1.0  0.54129  0.47892  0.24565  1.0000
  C   C1478     1.0  0.69554  0.47124  0.30442  1.0000
  S   S406      1.0  0.69615  0.13981  0.99052  1.0000
  C   C1479     1.0  0.55944  0.33156  0.98575  1.0000
  C   C1480     1.0  0.60487  0.08312  0.02624  1.0000
  H   H1745     1.0  0.68873  0.34424  0.13877  1.0000
  C   C1481     1.0  0.65485  0.41650  0.16009  1.0000
  C   C1482     1.0  0.66128  0.41868  0.13921  1.0000
  C   C1483     1.0  0.65555  0.40678  0.12766  1.0000
  C   C1484     1.0  0.64355  0.39227  0.13689  1.0000
  C   C1485     1.0  0.63690  0.39027  0.15776  1.0000
  C   C1486     1.0  0.64233  0.40245  0.16928  1.0000
  H   H1746     1.0  0.67098  0.42948  0.13195  1.0000
  H   H1747     1.0  0.66084  0.40855  0.11169  1.0000
  H   H1748     1.0  0.62767  0.37912  0.16516  1.0000
  H   H1749     1.0  0.63734  0.40054  0.18537  1.0000
  C   C1487     1.0  0.71676  0.44416  0.16848  1.0000
  H   H1750     1.0  0.49687  0.27967  0.22826  1.0000
  N   N103      1.0  0.53580  0.34088  0.28622  1.0000
  H   H1751     1.0  0.52769  0.26371  0.03179  1.0000
  C   C1488     1.0  0.69165  0.40961  0.29787  1.0000
  H   H1752     1.0  0.53319  0.26701  0.28727  1.0000
  C   C1489     1.0  0.56396  0.37756  0.22314  1.0000
  C   C1490     1.0  0.55029  0.38830  0.23670  1.0000
  C   C1491     1.0  0.55656  0.40216  0.24550  1.0000
  C   C1492     1.0  0.57634  0.40586  0.24028  1.0000
  C   C1493     1.0  0.58987  0.39558  0.22628  1.0000
  C   C1494     1.0  0.58378  0.38117  0.21805  1.0000
  H   H1753     1.0  0.53502  0.38566  0.24073  1.0000
  H   H1754     1.0  0.58992  0.07953  0.02972  1.0000
  H   H1755     1.0  0.63919  0.35833  0.99786  1.0000
  H   H1756     1.0  0.50112  0.19676  0.02193  1.0000
  C   C1495     1.0  0.56375  0.37284  0.98913  1.0000
  H   H1757     1.0  0.54850  0.32788  0.03637  1.0000
  H   H1758     1.0  0.72246  0.10608  0.05939  1.0000
  S   S407      1.0  0.50134  0.01575  0.18258  1.0000
  C   C1496     1.0  0.64840  0.99624  0.16003  1.0000
  H   H1759     1.0  0.49827  0.08620  0.13381  1.0000
  H   H1760     1.0  0.49194  0.00174  0.30667  1.0000
  H   H1761     1.0  0.52476  0.35520  0.01949  1.0000
  C   C1497     1.0  0.73228  0.13103  0.02611  1.0000
  C   C1498     1.0  0.71998  0.43837  0.01962  1.0000
  H   H1762     1.0  0.72418  0.42703  0.03215  1.0000
  C   C1499     1.0  0.53681  0.33314  0.26735  1.0000
  H   H1763     1.0  0.57176  0.34207  0.25822  1.0000
  H   H1764     1.0  0.57601  0.34312  0.03258  1.0000
  C   C1500     1.0  0.61314  0.09226  0.00675  1.0000
  C   C1501     1.0  0.58678  0.36631  0.15949  1.0000
  H   H1765     1.0  0.66452  0.43345  0.00843  1.0000
  H   H1766     1.0  0.60318  0.36445  0.15370  1.0000
  H   H1767     1.0  0.70954  0.98755  0.19944  1.0000
  H   H1768     1.0  0.50685  0.23079  0.05722  1.0000
  H   H1769     1.0  0.59530  0.37886  0.12054  1.0000
  H   H1770     1.0  0.57056  0.40019  0.18304  1.0000
  C   C1502     1.0  0.68621  0.32982  0.02706  1.0000
  H   H1771     1.0  0.65903  0.09434  0.01772  1.0000
  S   S408      1.0  0.49177  0.27162  0.06000  1.0000
  C   C1503     1.0  0.61094  0.98844  0.15619  1.0000
  H   H1772     1.0  0.54792  0.37338  0.15293  1.0000
  C   C1504     1.0  0.71463  0.01965  0.23002  1.0000
  H   H1773     1.0  0.73325  0.48146  0.99136  1.0000
  C   C1505     1.0  0.67169  0.43267  0.99254  1.0000
  C   C1506     1.0  0.52200  0.45692  0.23460  1.0000
  C   C1507     1.0  0.72108  0.03251  0.06024  1.0000
  C   C1508     1.0  0.56364  0.35596  0.00481  1.0000
  H   H1774     1.0  0.50615  0.05491  0.25673  1.0000
  C   C1509     1.0  0.57907  0.38193  0.12698  1.0000
  Fe  Fe205     1.0  0.49570  0.33701  0.20081  1.0000
  C   C1510     1.0  0.50443  0.45298  0.23014  1.0000
  H   H1775     1.0  0.49733  0.10696  0.17957  1.0000
  C   C1511     1.0  0.63176  0.34581  0.99837  1.0000
  C   C1512     1.0  0.55849  0.47564  0.22916  1.0000
  H   H1776     1.0  0.59840  0.36004  0.25820  1.0000
  H   H1777     1.0  0.55065  0.38458  0.17288  1.0000
  C   C1513     1.0  0.61594  0.07822  0.04201  1.0000
  C   C1514     1.0  0.53067  0.34830  0.00574  1.0000
  C   C1515     1.0  0.71764  0.34547  0.10373  1.0000
  C   C1516     1.0  0.69324  0.47510  0.26352  1.0000
  H   H1778     1.0  0.71915  0.34069  0.15550  1.0000
  H   H1779     1.0  0.56242  0.45974  0.22681  1.0000
  H   H1780     1.0  0.52759  0.35994  0.99253  1.0000
  H   H1781     1.0  0.57196  0.10149  0.00636  1.0000
  H   H1782     1.0  0.49140  0.99952  0.27220  1.0000
  C   C1517     1.0  0.70822  0.38725  0.12855  1.0000
  C   C1518     1.0  0.73433  0.11472  0.05990  1.0000
  H   H1783     1.0  0.62481  0.41329  0.01367  1.0000
  C   C1519     1.0  0.63540  0.08226  0.03889  1.0000
  C   C1520     1.0  0.72999  0.45199  0.17637  1.0000
  H   H1784     1.0  0.50363  0.34873  0.28758  1.0000
  H   H1785     1.0  0.54561  0.98703  0.27255  1.0000
  H   H1786     1.0  0.69799  0.28461  0.05599  1.0000
  C   C1521     1.0  0.52274  0.47553  0.24009  1.0000
  C   C1522     1.0  0.73160  0.33627  0.08920  1.0000
  H   H1787     1.0  0.61520  0.47628  0.01651  1.0000
  H   H1788     1.0  0.51423  0.21446  0.03919  1.0000
  Fe  Fe206     1.0  0.61874  0.47758  0.21525  1.0000
  H   H1789     1.0  0.59423  0.36990  0.03140  1.0000
  S   S409      1.0  0.53406  0.98864  0.15303  1.0000
  H   H1790     1.0  0.51298  0.35959  0.30420  1.0000
  H   H1791     1.0  0.68792  0.02898  0.18214  1.0000
  C   C1523     1.0  0.48925  0.09488  0.18875  1.0000
  C   C1524     1.0  0.58321  0.40242  0.15119  1.0000
  N   N104      1.0  0.71593  0.01770  0.19318  1.0000
  C   C1525     1.0  0.50466  0.21627  0.05393  1.0000
  H   H1792     1.0  0.61229  0.43800  0.12713  1.0000
  H   H1793     1.0  0.54554  0.40029  0.14965  1.0000
  C   C1526     1.0  0.71719  0.99796  0.18719  1.0000
  H   H1794     1.0  0.66855  0.30851  0.04548  1.0000
  H   H1795     1.0  0.73486  0.03124  0.02945  1.0000
  C   C1527     1.0  0.61284  0.99600  0.17297  1.0000
  H   H1796     1.0  0.55985  0.46617  0.26834  1.0000
  H   H1797     1.0  0.60944  0.07118  0.05675  1.0000
  C   C1528     1.0  0.71993  0.42411  0.30061  1.0000
  H   H1798     1.0  0.51648  0.08127  0.15907  1.0000
  H   H1799     1.0  0.71514  0.00428  0.03000  1.0000
  H   H1800     1.0  0.50412  0.43855  0.22622  1.0000
  C   C1529     1.0  0.57451  0.38811  0.98878  1.0000
  H   H1801     1.0  0.51510  0.29589  0.26650  1.0000
  H   H1802     1.0  0.51727  0.36921  0.27771  1.0000
  H   H1803     1.0  0.69845  0.39445  0.14099  1.0000
  H   H1804     1.0  0.60506  0.44723  0.16105  1.0000
  Fe  Fe207     1.0  0.72669  0.99416  0.10163  1.0000
  C   C1530     1.0  0.58543  0.37084  0.01973  1.0000
  H   H1805     1.0  0.73185  0.29216  0.04380  1.0000
  H   H1806     1.0  0.71948  0.03385  0.16273  1.0000
  H   H1807     1.0  0.59382  0.39884  0.00367  1.0000
  C   C1531     1.0  0.73124  0.40710  0.08162  1.0000
  C   C1532     1.0  0.63302  0.09615  0.00414  1.0000
  C   C1533     1.0  0.50682  0.07052  0.16826  1.0000
  C   C1534     1.0  0.72666  0.03074  0.17638  1.0000
  H   H1808     1.0  0.70146  0.44401  0.17625  1.0000
  C   C1535     1.0  0.71633  0.05998  0.03230  1.0000
  H   H1809     1.0  0.59959  0.41015  0.12061  1.0000
  C   C1536     1.0  0.53518  0.32372  0.30305  1.0000
  H   H1810     1.0  0.69263  0.47656  0.24773  1.0000
  H   H1811     1.0  0.72486  0.45787  0.19034  1.0000
  H   H1812     1.0  0.70627  0.34888  0.01043  1.0000
  C   C1537     1.0  0.58694  0.42436  0.17383  1.0000
  C   C1538     1.0  0.58481  0.37146  0.28539  1.0000
  C   C1539     1.0  0.63157  0.99982  0.17490  1.0000
  H   H1813     1.0  0.64042  0.10297  0.98975  1.0000
  H   H1814     1.0  0.67059  0.45526  0.30953  1.0000
  C   C1540     1.0  0.70709  0.42036  0.28900  1.0000
  C   C1541     1.0  0.58534  0.38709  0.00406  1.0000
  C   C1542     1.0  0.72877  0.38613  0.05795  1.0000
  C   C1543     1.0  0.69838  0.45140  0.99394  1.0000
  Fe  Fe208     1.0  0.48948  0.33853  0.24545  1.0000
  C   C1544     1.0  0.57017  0.35003  0.27060  1.0000
  H   H1815     1.0  0.67876  0.36731  0.14800  1.0000
  H   H1816     1.0  0.64402  0.07842  0.05107  1.0000
  C   C1545     1.0  0.61590  0.46429  0.00825  1.0000
  H   H1817     1.0  0.71095  0.00472  0.99505  1.0000
  C   C1546     1.0  0.72315  0.43659  0.15057  1.0000
  H   H1818     1.0  0.54943  0.32046  0.26527  1.0000
  C   C1547     1.0  0.70413  0.43682  0.01049  1.0000
  H   H1819     1.0  0.51069  0.20411  0.06553  1.0000
  C   C1548     1.0  0.72273  0.32097  0.02531  1.0000
  C   C1549     1.0  0.51669  0.35525  0.28906  1.0000
  H   H1820     1.0  0.69233  0.04226  0.20021  1.0000
  H   H1821     1.0  0.52297  0.32735  0.26722  1.0000
  C   C1550     1.0  0.56858  0.37191  0.30106  1.0000
  H   H1822     1.0  0.73092  0.17265  0.00410  1.0000
  H   H1823     1.0  0.53954  0.00041  0.23769  1.0000
  H   H1824     1.0  0.68521  0.01750  0.20778  1.0000
  H   H1825     1.0  0.72335  0.14472  0.03171  1.0000
  H   H1826     1.0  0.71268  0.43064  0.14449  1.0000
  S   S410      1.0  0.73221  0.00774  0.06873  1.0000
  H   H1827     1.0  0.71002  0.99955  0.17378  1.0000
  C   C1551     1.0  0.72370  0.35606  0.11659  1.0000
  C   C1552     1.0  0.68356  0.31190  0.03996  1.0000
  S   S411      1.0  0.73422  0.10253  0.98766  1.0000
  N   N105      1.0  0.70955  0.36512  0.13285  1.0000
  C   C1553     1.0  0.55299  0.35082  0.28596  1.0000
  Fe  Fe209     1.0  0.55789  0.99443  0.16804  1.0000
  C   C1554     1.0  0.51887  0.27480  0.29373  1.0000
  H   H1828     1.0  0.58147  0.35246  0.15825  1.0000
  H   H1829     1.0  0.68196  0.36717  0.12178  1.0000
  H   H1830     1.0  0.70583  0.36300  0.16507  1.0000
  C   C1555     1.0  0.70794  0.48310  0.26966  1.0000
  C   C1556     1.0  0.51105  0.30115  0.99559  1.0000
  C   C1557     1.0  0.49228  0.30814  0.00624  1.0000
  H   H1831     1.0  0.57029  0.31548  0.02129  1.0000
  C   C1558     1.0  0.59868  0.43514  0.15823  1.0000
  H   H1832     1.0  0.70843  0.42675  0.27315  1.0000
  C   C1559     1.0  0.71780  0.99031  0.02415  1.0000
  H   H1833     1.0  0.67319  0.34023  0.02268  1.0000
  H   H1834     1.0  0.70174  0.39372  0.11463  1.0000
  C   C1560     1.0  0.70543  0.33449  0.01994  1.0000
  C   C1561     1.0  0.61260  0.46889  0.98833  1.0000
  H   H1835     1.0  0.63844  0.20073  0.98469  1.0000
  S   S412      1.0  0.54106  0.98657  0.19940  1.0000
  H   H1836     1.0  0.54577  0.31104  0.02092  1.0000
  H   H1837     1.0  0.69895  0.02618  0.23206  1.0000
  C   C1562     1.0  0.71675  0.35741  0.15232  1.0000
  C   C1563     1.0  0.50873  0.29131  0.28200  1.0000
  H   H1838     1.0  0.50665  0.09155  0.02160  1.0000
  H   H1839     1.0  0.49797  0.16362  0.01659  1.0000
  H   H1840     1.0  0.53843  0.34518  0.25401  1.0000
  H   H1841     1.0  0.57240  0.47932  0.23239  1.0000
  C   C1564     1.0  0.72537  0.01475  0.21128  1.0000
  C   C1565     1.0  0.57926  0.40831  0.17039  1.0000
  C   C1566     1.0  0.48981  0.16923  0.03008  1.0000
  H   H1842     1.0  0.49700  0.06182  0.08889  1.0000
  H   H1843     1.0  0.52167  0.33648  0.00600  1.0000
  H   H1844     1.0  0.60007  0.99820  0.18477  1.0000
  C   C1567     1.0  0.70014  0.29850  0.04584  1.0000
  H   H1845     1.0  0.71945  0.06582  0.01642  1.0000
  H   H1846     1.0  0.58474  0.36690  0.17579  1.0000
  H   H1847     1.0  0.73290  0.99044  0.18315  1.0000
  H   H1848     1.0  0.73093  0.43336  0.29283  1.0000
  H   H1849     1.0  0.68121  0.40765  0.28887  1.0000
  C   C1568     1.0  0.55412  0.38585  0.15624  1.0000
  C   C1569     1.0  0.55438  0.32289  0.02159  1.0000
  C   C1570     1.0  0.58133  0.09289  0.99475  1.0000
  H   H1850     1.0  0.70220  0.34415  0.10444  1.0000
  H   H1851     1.0  0.58414  0.42813  0.18880  1.0000
  H   H1852     1.0  0.63045  0.48031  0.12991  1.0000
  H   H1853     1.0  0.50589  0.05934  0.15900  1.0000
  H   H1854     1.0  0.65899  0.98716  0.13111  1.0000
  C   C1571     1.0  0.69444  0.02708  0.19612  1.0000
  C   C1572     1.0  0.70935  0.48110  0.29012  1.0000
  C   C1573     1.0  0.55299  0.36156  0.30153  1.0000
  H   H1855     1.0  0.73641  0.35747  0.00966  1.0000
  H   H1856     1.0  0.72704  0.04536  0.18066  1.0000
  C   C1574     1.0  0.72404  0.01604  0.24691  1.0000
  C   C1575     1.0  0.73045  0.45438  0.01273  1.0000
  H   H1857     1.0  0.66031  0.47067  0.99995  1.0000
  H   H1858     1.0  0.54910  0.31236  0.30137  1.0000
  C   C1576     1.0  0.71538  0.99056  0.00452  1.0000
  H   H1859     1.0  0.72630  0.12845  0.06608  1.0000
  C   C1577     1.0  0.61796  0.43342  0.98670  1.0000
  H   H1860     1.0  0.59661  0.37998  0.28471  1.0000
  H   H1861     1.0  0.71559  0.01982  0.26109  1.0000
  H   H1862     1.0  0.49810  0.08687  0.20076  1.0000
  C   C1578     1.0  0.72513  0.46895  0.99666  1.0000
  H   H1863     1.0  0.56802  0.38051  0.31277  1.0000
  C   C1579     1.0  0.49050  0.30179  0.29044  1.0000
  H   H1864     1.0  0.54084  0.36219  0.31410  1.0000
  H   H1865     1.0  0.57592  0.32651  0.98348  1.0000
  H   H1866     1.0  0.68213  0.41816  0.99196  1.0000
  H   H1867     1.0  0.73771  0.34344  0.98963  1.0000
  H   H1868     1.0  0.55542  0.48527  0.21472  1.0000
  C   C1580     1.0  0.66662  0.46852  0.98419  1.0000
  H   H1869     1.0  0.65953  0.43220  0.98430  1.0000
  N   N106      1.0  0.68199  0.45011  0.98355  1.0000
  S   S413      1.0  0.53080  0.09991  0.98289  1.0000
  Fe  Fe210     1.0  0.64667  0.21529  0.49801  1.0000
  S   S414      1.0  0.61775  0.23681  0.49701  1.0000
  S   S415      1.0  0.67736  0.22302  0.49773  1.0000
  Fe  Fe211     1.0  0.62611  0.17881  0.50156  1.0000
  S   S416      1.0  0.59550  0.19763  0.50149  1.0000
  S   S417      1.0  0.63055  0.14625  0.49765  1.0000
  Fe  Fe212     1.0  0.61078  0.21841  0.47661  1.0000
  S   S418      1.0  0.59804  0.23313  0.44838  1.0000
  Fe  Fe213     1.0  0.60467  0.21435  0.52201  1.0000
  S   S419      1.0  0.58344  0.22845  0.54693  1.0000
  S   S420      1.0  0.64097  0.19876  0.47525  1.0000
  S   S421      1.0  0.63408  0.19369  0.52449  1.0000
  Fe  Fe214     1.0  0.51144  0.22822  0.35616  1.0000
  H   H1870     1.0  0.52298  0.03804  0.58592  1.0000
  Fe  Fe215     1.0  0.51168  0.21344  0.40105  1.0000
  H   H1871     1.0  0.55024  0.24309  0.52314  1.0000
  S   S422      1.0  0.51818  0.21182  0.43235  1.0000
  Fe  Fe216     1.0  0.51730  0.18321  0.37251  1.0000
  S   S423      1.0  0.53444  0.15189  0.37073  1.0000
  S   S424      1.0  0.58295  0.99491  0.59583  1.0000
  H   H1872     1.0  0.55446  0.18796  0.40959  1.0000
  S   S425      1.0  0.53408  0.20752  0.37364  1.0000
  H   H1873     1.0  0.61069  0.28566  0.53271  1.0000
  H   H1874     1.0  0.70872  0.42085  0.36162  1.0000
  S   S426      1.0  0.52577  0.17502  0.60802  1.0000
  C   C1581     1.0  0.73168  0.36629  0.55227  1.0000
  N   N107      1.0  0.66519  0.44304  0.63283  1.0000
  C   C1582     1.0  0.68407  0.42865  0.63450  1.0000
  S   S427      1.0  0.69813  0.31072  0.48946  1.0000
  C   C1583     1.0  0.55255  0.17195  0.41387  1.0000
  H   H1875     1.0  0.69209  0.23821  0.44606  1.0000
  C   C1584     1.0  0.73147  0.38678  0.57738  1.0000
  C   C1585     1.0  0.73040  0.01674  0.59184  1.0000
  H   H1876     1.0  0.69979  0.39924  0.34590  1.0000
  C   C1586     1.0  0.51766  0.06802  0.62003  1.0000
  H   H1877     1.0  0.72860  0.43385  0.36087  1.0000
  Fe  Fe217     1.0  0.63275  0.04163  0.56498  1.0000
  S   S428      1.0  0.63349  0.01714  0.59208  1.0000
  S   S429      1.0  0.63189  0.07319  0.57023  1.0000
  H   H1878     1.0  0.73244  0.39104  0.35294  1.0000
  H   H1879     1.0  0.69282  0.43324  0.64415  1.0000
  S   S430      1.0  0.52459  0.24827  0.32823  1.0000
  C   C1587     1.0  0.68929  0.40203  0.31835  1.0000
  S   S431      1.0  0.65856  0.02528  0.54590  1.0000
  S   S432      1.0  0.60934  0.03093  0.55328  1.0000
  C   C1588     1.0  0.51962  0.10113  0.36055  1.0000
  H   H1880     1.0  0.60547  0.25211  0.56776  1.0000
  H   H1881     1.0  0.58202  0.21241  0.64761  1.0000
  H   H1882     1.0  0.72664  0.21937  0.44206  1.0000
  S   S433      1.0  0.73232  0.39596  0.46068  1.0000
  S   S434      1.0  0.64011  0.00624  0.50501  1.0000
  S   S435      1.0  0.53826  0.00899  0.40348  1.0000
  C   C1589     1.0  0.69624  0.01207  0.59250  1.0000
  C   C1590     1.0  0.70966  0.02289  0.59672  1.0000
  H   H1883     1.0  0.68605  0.27443  0.44773  1.0000
  H   H1884     1.0  0.71019  0.09566  0.51132  1.0000
  H   H1885     1.0  0.52031  0.20677  0.63450  1.0000
  H   H1886     1.0  0.68026  0.01713  0.59592  1.0000
  H   H1887     1.0  0.70395  0.03622  0.60349  1.0000
  C   C1591     1.0  0.59160  0.14545  0.43903  1.0000
  H   H1888     1.0  0.53104  0.24053  0.54447  1.0000
  S   S436      1.0  0.71878  0.40581  0.59122  1.0000
  C   C1592     1.0  0.56722  0.13742  0.41353  1.0000
  Fe  Fe218     1.0  0.61190  0.00513  0.57902  1.0000
  Fe  Fe219     1.0  0.50015  0.05820  0.35284  1.0000
  C   C1593     1.0  0.60520  0.18208  0.43277  1.0000
  H   H1889     1.0  0.60874  0.13694  0.46341  1.0000
  C   C1594     1.0  0.60421  0.14861  0.45126  1.0000
  H   H1890     1.0  0.72512  0.41714  0.50083  1.0000
  C   C1595     1.0  0.58535  0.16073  0.42322  1.0000
  H   H1891     1.0  0.54478  0.10964  0.36898  1.0000
  C   C1596     1.0  0.61104  0.16684  0.44809  1.0000
  C   C1597     1.0  0.52112  0.13501  0.36502  1.0000
  C   C1598     1.0  0.50191  0.14153  0.36016  1.0000
  C   C1599     1.0  0.65409  0.43633  0.61977  1.0000
  H   H1892     1.0  0.69373  0.42790  0.61959  1.0000
  Fe  Fe220     1.0  0.51867  0.02096  0.33407  1.0000
  C   C1600     1.0  0.57554  0.99444  0.38399  1.0000
  H   H1893     1.0  0.67978  0.46832  0.63136  1.0000
  C   C1601     1.0  0.68289  0.24749  0.49547  1.0000
  C   C1602     1.0  0.66881  0.26467  0.49110  1.0000
  C   C1603     1.0  0.67374  0.28387  0.48946  1.0000
  C   C1604     1.0  0.69283  0.28611  0.49197  1.0000
  C   C1605     1.0  0.70689  0.26891  0.49644  1.0000
  C   C1606     1.0  0.70195  0.24970  0.49811  1.0000
  H   H1894     1.0  0.65429  0.26317  0.48859  1.0000
  H   H1895     1.0  0.66276  0.29709  0.48601  1.0000
  H   H1896     1.0  0.71291  0.23646  0.50155  1.0000
  C   C1607     1.0  0.57649  0.22616  0.44345  1.0000
  C   C1608     1.0  0.56913  0.23512  0.42561  1.0000
  C   C1609     1.0  0.55163  0.23031  0.42161  1.0000
  C   C1610     1.0  0.54125  0.21675  0.43562  1.0000
  C   C1611     1.0  0.54892  0.20731  0.45313  1.0000
  C   C1612     1.0  0.56656  0.21188  0.45696  1.0000
  H   H1897     1.0  0.57686  0.24603  0.41497  1.0000
  H   H1898     1.0  0.54584  0.23760  0.40801  1.0000
  H   H1899     1.0  0.54123  0.19640  0.46375  1.0000
  H   H1900     1.0  0.57244  0.20436  0.47036  1.0000
  C   C1613     1.0  0.56777  0.21343  0.56414  1.0000
  C   C1614     1.0  0.55090  0.22266  0.57609  1.0000
  C   C1615     1.0  0.53751  0.21111  0.58915  1.0000
  C   C1616     1.0  0.54142  0.19018  0.59094  1.0000
  C   C1617     1.0  0.55855  0.18095  0.57932  1.0000
  C   C1618     1.0  0.57157  0.19254  0.56574  1.0000
  H   H1901     1.0  0.54794  0.23884  0.57494  1.0000
  H   H1902     1.0  0.52427  0.21840  0.59787  1.0000
  H   H1903     1.0  0.56170  0.16474  0.58070  1.0000
  H   H1904     1.0  0.58458  0.18527  0.55663  1.0000
  C   C1619     1.0  0.63064  0.12623  0.51810  1.0000
  C   C1620     1.0  0.62920  0.12943  0.53778  1.0000
  C   C1621     1.0  0.62947  0.11304  0.55367  1.0000
  C   C1622     1.0  0.63102  0.09342  0.55000  1.0000
  C   C1623     1.0  0.63250  0.09022  0.53033  1.0000
  C   C1624     1.0  0.63236  0.10658  0.51443  1.0000
  H   H1905     1.0  0.62792  0.14450  0.54074  1.0000
  H   H1906     1.0  0.62841  0.11557  0.56887  1.0000
  H   H1907     1.0  0.63376  0.07515  0.52736  1.0000
  H   H1908     1.0  0.63350  0.10403  0.49923  1.0000
  N   N108      1.0  0.63091  0.26058  0.54624  1.0000
  C   C1625     1.0  0.65893  0.30348  0.54393  1.0000
  S   S437      1.0  0.49646  0.18771  0.40100  1.0000
  C   C1626     1.0  0.63783  0.23930  0.54352  1.0000
  C   C1627     1.0  0.64753  0.27165  0.54501  1.0000
  H   H1909     1.0  0.65100  0.42081  0.62551  1.0000
  C   C1628     1.0  0.66794  0.26218  0.54354  1.0000
  H   H1910     1.0  0.57142  0.16012  0.37847  1.0000
  C   C1629     1.0  0.68321  0.27317  0.54235  1.0000
  C   C1630     1.0  0.67876  0.29380  0.54224  1.0000
  H   H1911     1.0  0.64620  0.23049  0.55552  1.0000
  H   H1912     1.0  0.62507  0.23149  0.54410  1.0000
  H   H1913     1.0  0.64754  0.23819  0.52867  1.0000
  H   H1914     1.0  0.67265  0.24641  0.54270  1.0000
  H   H1915     1.0  0.68379  0.09521  0.53846  1.0000
  H   H1916     1.0  0.69871  0.26578  0.54071  1.0000
  H   H1917     1.0  0.69076  0.30236  0.54039  1.0000
  H   H1918     1.0  0.59594  0.15377  0.38543  1.0000
  H   H1919     1.0  0.61040  0.19634  0.43052  1.0000
  N   N109      1.0  0.52849  0.22559  0.52056  1.0000
  H   H1920     1.0  0.52758  0.24307  0.49085  1.0000
  S   S438      1.0  0.72395  0.35060  0.50219  1.0000
  H   H1921     1.0  0.59488  0.98943  0.48193  1.0000
  Fe  Fe221     1.0  0.72681  0.32282  0.48852  1.0000
  C   C1631     1.0  0.72425  0.98790  0.58018  1.0000
  H   H1922     1.0  0.60666  0.26172  0.53031  1.0000
  N   N110      1.0  0.52675  0.03139  0.61692  1.0000
  C   C1632     1.0  0.61734  0.99619  0.44411  1.0000
  H   H1923     1.0  0.72887  0.40370  0.52527  1.0000
  C   C1633     1.0  0.51845  0.01240  0.62130  1.0000
  C   C1634     1.0  0.51173  0.04905  0.62202  1.0000
  H   H1924     1.0  0.60764  0.98670  0.52834  1.0000
  C   C1635     1.0  0.52634  0.21666  0.64190  1.0000
  H   H1925     1.0  0.68569  0.07583  0.52350  1.0000
  C   C1636     1.0  0.73582  0.40589  0.50919  1.0000
  H   H1926     1.0  0.69610  0.46987  0.32019  1.0000
  C   C1637     1.0  0.64487  0.01130  0.44921  1.0000
  S   S439      1.0  0.73580  0.41227  0.64110  1.0000
  C   C1638     1.0  0.49170  0.12796  0.35525  1.0000
  Fe  Fe222     1.0  0.63534  0.01216  0.53668  1.0000
  H   H1927     1.0  0.50864  0.09929  0.62310  1.0000
  H   H1928     1.0  0.53663  0.19339  0.52379  1.0000
  H   H1929     1.0  0.55644  0.20621  0.52517  1.0000
  C   C1639     1.0  0.72352  0.08771  0.51712  1.0000
  C   C1640     1.0  0.65687  0.00492  0.43211  1.0000
  H   H1930     1.0  0.53763  0.02685  0.64493  1.0000
  C   C1641     1.0  0.67077  0.46274  0.62255  1.0000
  H   H1931     1.0  0.58236  0.17905  0.38399  1.0000
  N   N111      1.0  0.70379  0.06768  0.54707  1.0000
  C   C1642     1.0  0.70403  0.04595  0.54803  1.0000
  S   S440      1.0  0.72974  0.47856  0.35763  1.0000
  H   H1932     1.0  0.56405  0.20398  0.62599  1.0000
  C   C1643     1.0  0.53397  0.24226  0.52785  1.0000
  Fe  Fe223     1.0  0.73665  0.41912  0.60770  1.0000
  S   S441      1.0  0.53185  0.04127  0.34793  1.0000
  C   C1644     1.0  0.73741  0.26585  0.44257  1.0000
  H   H1933     1.0  0.52534  0.25699  0.52197  1.0000
  C   C1645     1.0  0.53506  0.03499  0.59518  1.0000
  H   H1934     1.0  0.54326  0.04794  0.59098  1.0000
  Fe  Fe224     1.0  0.52199  0.02191  0.37727  1.0000
  H   H1935     1.0  0.49158  0.17887  0.44373  1.0000
  H   H1936     1.0  0.68733  0.06808  0.57720  1.0000
  C   C1646     1.0  0.70467  0.24593  0.44461  1.0000
  H   H1937     1.0  0.54601  0.02178  0.59059  1.0000
  H   H1938     1.0  0.68023  0.46167  0.60754  1.0000
  C   C1647     1.0  0.54340  0.02820  0.62852  1.0000
  N   N112      1.0  0.73102  0.42048  0.33449  1.0000
  H   H1939     1.0  0.55143  0.22845  0.49419  1.0000
  H   H1940     1.0  0.71387  0.06292  0.57575  1.0000
  H   H1941     1.0  0.66278  0.43614  0.60429  1.0000
  C   C1648     1.0  0.72417  0.23533  0.44247  1.0000
  C   C1649     1.0  0.49199  0.27817  0.32195  1.0000
  H   H1942     1.0  0.69016  0.04114  0.55742  1.0000
  H   H1943     1.0  0.57123  0.99254  0.47393  1.0000
  C   C1650     1.0  0.49327  0.22788  0.51318  1.0000
  H   H1944     1.0  0.53678  0.20328  0.54585  1.0000
  C   C1651     1.0  0.49846  0.22249  0.54775  1.0000
  H   H1945     1.0  0.62675  0.25365  0.57845  1.0000
  C   C1652     1.0  0.68560  0.07873  0.53883  1.0000
  H   H1946     1.0  0.68162  0.41305  0.64086  1.0000
  H   H1947     1.0  0.58395  0.01354  0.46919  1.0000
  H   H1948     1.0  0.70522  0.04223  0.53281  1.0000
  H   H1949     1.0  0.51201  0.00875  0.63749  1.0000
  H   H1950     1.0  0.61102  0.27611  0.56880  1.0000
  C   C1653     1.0  0.61859  0.27038  0.53050  1.0000
  N   N113      1.0  0.57178  0.15813  0.41014  1.0000
  H   H1951     1.0  0.55887  0.13328  0.42891  1.0000
  H   H1952     1.0  0.55747  0.13587  0.40301  1.0000
  H   H1953     1.0  0.50771  0.22042  0.55919  1.0000
  Fe  Fe225     1.0  0.72957  0.44564  0.63974  1.0000
  H   H1954     1.0  0.72140  0.27038  0.49899  1.0000
  H   H1955     1.0  0.58689  0.13098  0.44237  1.0000
  C   C1654     1.0  0.70353  0.99460  0.58412  1.0000
  H   H1956     1.0  0.62075  0.16921  0.45766  1.0000
  H   H1957     1.0  0.57417  0.00831  0.37333  1.0000
  C   C1655     1.0  0.72174  0.38099  0.56399  1.0000
  H   H1958     1.0  0.73791  0.29125  0.46760  1.0000
  S   S442      1.0  0.49643  0.20317  0.35295  1.0000
  C   C1656     1.0  0.71731  0.27613  0.44484  1.0000
  C   C1657     1.0  0.52992  0.11477  0.36526  1.0000
  C   C1658     1.0  0.72278  0.07325  0.53505  1.0000
  H   H1959     1.0  0.55242  0.04050  0.62414  1.0000
  C   C1659     1.0  0.70164  0.07183  0.56778  1.0000
  H   H1960     1.0  0.70651  0.38803  0.56253  1.0000
  H   H1961     1.0  0.54566  0.16967  0.43003  1.0000
  C   C1660     1.0  0.71893  0.43036  0.35131  1.0000
  C   C1661     1.0  0.54002  0.20631  0.52919  1.0000
  H   H1962     1.0  0.72409  0.36200  0.54194  1.0000
  C   C1662     1.0  0.58084  0.16297  0.38866  1.0000
  H   H1963     1.0  0.63946  0.44641  0.61860  1.0000
  C   C1663     1.0  0.73767  0.99913  0.58367  1.0000
  H   H1964     1.0  0.49813  0.23010  0.49711  1.0000
  H   H1965     1.0  0.55427  0.01424  0.62598  1.0000
  H   H1966     1.0  0.65560  0.31958  0.54365  1.0000
  H   H1967     1.0  0.53180  0.21613  0.49192  1.0000
  H   H1968     1.0  0.49496  0.15708  0.35998  1.0000
  C   C1664     1.0  0.55963  0.99065  0.39953  1.0000
  H   H1969     1.0  0.70181  0.08797  0.56766  1.0000
  C   C1665     1.0  0.70222  0.40542  0.33009  1.0000
  H   H1970     1.0  0.65077  0.01919  0.45827  1.0000
  H   H1971     1.0  0.61711  0.01228  0.46876  1.0000
  C   C1666     1.0  0.58464  0.00215  0.43451  1.0000
  H   H1972     1.0  0.53211  0.22861  0.63003  1.0000
  H   H1973     1.0  0.53019  0.99937  0.61770  1.0000
  S   S443      1.0  0.72787  0.45245  0.60675  1.0000
  C   C1667     1.0  0.50677  0.22529  0.52699  1.0000
  H   H1974     1.0  0.65733  0.47425  0.62000  1.0000
  C   C1668     1.0  0.50053  0.10775  0.35538  1.0000
  C   C1669     1.0  0.64348  0.29259  0.54556  1.0000
  H   H1975     1.0  0.73709  0.39139  0.50385  1.0000
  H   H1976     1.0  0.70968  0.44476  0.34559  1.0000
  H   H1977     1.0  0.62835  0.30079  0.54699  1.0000
  H   H1978     1.0  0.52654  0.08559  0.36066  1.0000
  H   H1979     1.0  0.62801  0.27173  0.51533  1.0000
  C   C1670     1.0  0.73805  0.42534  0.42792  1.0000
  H   H1980     1.0  0.58111  0.12621  0.41099  1.0000
  C   C1671     1.0  0.61798  0.26065  0.56619  1.0000
  S   S444      1.0  0.51121  0.00053  0.36318  1.0000
  H   H1981     1.0  0.58762  0.19187  0.40957  1.0000
  H   H1982     1.0  0.56956  0.18408  0.64684  1.0000
  C   C1672     1.0  0.55742  0.19374  0.63918  1.0000
  C   C1673     1.0  0.62536  0.00713  0.45515  1.0000
  H   H1983     1.0  0.55068  0.18343  0.63295  1.0000
  C   C1674     1.0  0.53498  0.22844  0.49843  1.0000
  H   H1984     1.0  0.71671  0.03639  0.55485  1.0000
  H   H1985     1.0  0.67204  0.00802  0.42772  1.0000
  C   C1675     1.0  0.59231  0.17926  0.42070  1.0000
  H   H1986     1.0  0.67174  0.07394  0.54826  1.0000
  H   H1987     1.0  0.54151  0.16982  0.40503  1.0000
  H   H1988     1.0  0.71369  0.29167  0.44695  1.0000
  H   H1989     1.0  0.58394  0.01868  0.43259  1.0000
  H   H1990     1.0  0.53308  0.06995  0.61475  1.0000
  C   C1676     1.0  0.70128  0.26633  0.44556  1.0000
  H   H1991     1.0  0.73818  0.44870  0.31722  1.0000
  Fe  Fe226     1.0  0.49484  0.18771  0.62282  1.0000
  N   N114      1.0  0.59682  0.99134  0.45003  1.0000
  Fe  Fe227     1.0  0.65760  0.99998  0.57190  1.0000
  H   H1992     1.0  0.50664  0.01305  0.61221  1.0000
  H   H1993     1.0  0.72836  0.43548  0.43727  1.0000
  H   H1994     1.0  0.56896  0.99911  0.43834  1.0000
  S   S445      1.0  0.49015  0.23629  0.38402  1.0000
  C   C1677     1.0  0.71777  0.41684  0.32164  1.0000
  H   H1995     1.0  0.53357  0.32850  0.31785  1.0000
  H   H1996     1.0  0.59088  0.99768  0.41959  1.0000
  H   H1997     1.0  0.67715  0.39379  0.32520  1.0000
  C   C1678     1.0  0.50377  0.08495  0.62465  1.0000
  H   H1998     1.0  0.49769  0.18409  0.46566  1.0000
  S   S446      1.0  0.49148  0.04053  0.38330  1.0000
  C   C1679     1.0  0.58633  0.99701  0.46963  1.0000
  C   C1680     1.0  0.49097  0.04822  0.62852  1.0000
  H   H1999     1.0  0.65863  0.98962  0.40735  1.0000
  H   H2000     1.0  0.68548  0.98607  0.53376  1.0000
  C   C1681     1.0  0.64934  0.99453  0.42072  1.0000
  C   C1682     1.0  0.62984  0.99033  0.42649  1.0000
  N   N115      1.0  0.64820  0.21432  0.95426  1.0000
  H   H2001     1.0  0.54449  0.18214  0.67934  1.0000
  Fe  Fe228     1.0  0.58666  0.42163  0.78176  1.0000
  H   H2002     1.0  0.64767  0.04541  0.91084  1.0000
  S   S447      1.0  0.56439  0.40039  0.79444  1.0000
  C   C1683     1.0  0.62296  0.46146  0.83981  1.0000
  C   C1684     1.0  0.64653  0.46162  0.66143  1.0000
  S   S448      1.0  0.61819  0.41330  0.78768  1.0000
  C   C1685     1.0  0.67881  0.22377  0.96323  1.0000
  C   C1686     1.0  0.53326  0.46135  0.74834  1.0000
  H   H2003     1.0  0.62122  0.04903  0.91929  1.0000
  Fe  Fe229     1.0  0.52240  0.31801  0.76286  1.0000
  H   H2004     1.0  0.57129  0.25433  0.68800  1.0000
  S   S449      1.0  0.54044  0.34212  0.74577  1.0000
  Fe  Fe230     1.0  0.51643  0.28673  0.80037  1.0000
  S   S450      1.0  0.52556  0.27220  0.83061  1.0000
  S   S451      1.0  0.53484  0.28498  0.76962  1.0000
  H   H2005     1.0  0.53048  0.23534  0.86307  1.0000
  S   S452      1.0  0.65253  0.41679  0.73626  1.0000
  C   C1687     1.0  0.49307  0.00195  0.78345  1.0000
  H   H2006     1.0  0.50057  0.05871  0.95041  1.0000
  C   C1688     1.0  0.63418  0.01420  0.90498  1.0000
  S   S453      1.0  0.68686  0.02093  0.91369  1.0000
  Fe  Fe231     1.0  0.68681  0.12932  0.96531  1.0000
  S   S454      1.0  0.71773  0.12731  0.94689  1.0000
  S   S455      1.0  0.65854  0.14525  0.95311  1.0000
  H   H2007     1.0  0.58875  0.24336  0.89924  1.0000
  S   S456      1.0  0.70710  0.46194  0.66243  1.0000
  H   H2008     1.0  0.70181  0.43473  0.96105  1.0000
  Fe  Fe232     1.0  0.57535  0.11000  0.91762  1.0000
  S   S457      1.0  0.55763  0.12762  0.89381  1.0000
  S   S458      1.0  0.60897  0.09901  0.91440  1.0000
  Fe  Fe233     1.0  0.53824  0.10915  0.94954  1.0000
  S   S459      1.0  0.51738  0.12703  0.92878  1.0000
  H   H2009     1.0  0.67814  0.44744  0.95392  1.0000
  Fe  Fe234     1.0  0.53457  0.10699  0.90656  1.0000
  S   S460      1.0  0.52314  0.08989  0.88646  1.0000
  Fe  Fe235     1.0  0.54184  0.14599  0.91787  1.0000
  S   S461      1.0  0.53510  0.18008  0.91432  1.0000
  S   S462      1.0  0.55399  0.08793  0.92851  1.0000
  S   S463      1.0  0.56094  0.12954  0.94052  1.0000
  Fe  Fe236     1.0  0.54853  0.29991  0.95524  1.0000
  H   H2010     1.0  0.53525  0.25190  0.69565  1.0000
  Fe  Fe237     1.0  0.57192  0.30133  0.91267  1.0000
  S   S464      1.0  0.59983  0.28373  0.92397  1.0000
  S   S465      1.0  0.57077  0.31327  0.87947  1.0000
  Fe  Fe238     1.0  0.57875  0.26406  0.94396  1.0000
  S   S466      1.0  0.58686  0.22998  0.94657  1.0000
  Fe  Fe239     1.0  0.59274  0.30270  0.94873  1.0000
  S   S467      1.0  0.61426  0.32012  0.95721  1.0000
  S   S468      1.0  0.55140  0.28096  0.93160  1.0000
  S   S469      1.0  0.56670  0.32197  0.93534  1.0000
  C   C1689     1.0  0.54911  0.19326  0.92460  1.0000
  C   C1690     1.0  0.56785  0.18447  0.92982  1.0000
  C   C1691     1.0  0.57913  0.19579  0.93676  1.0000
  C   C1692     1.0  0.57185  0.21604  0.93847  1.0000
  C   C1693     1.0  0.55297  0.22472  0.93352  1.0000
  C   C1694     1.0  0.54169  0.21340  0.92663  1.0000
  H   H2011     1.0  0.57392  0.16910  0.92807  1.0000
  H   H2012     1.0  0.59369  0.18890  0.94053  1.0000
  H   H2013     1.0  0.54703  0.24018  0.93492  1.0000
  H   H2014     1.0  0.52721  0.22039  0.92268  1.0000
  H   H2015     1.0  0.50101  0.40782  0.73758  1.0000
  C   C1695     1.0  0.63511  0.42608  0.68403  1.0000
  C   C1696     1.0  0.73316  0.03694  0.87277  1.0000
  H   H2016     1.0  0.61811  0.44765  0.87097  1.0000
  H   H2017     1.0  0.64842  0.01115  0.91114  1.0000
  C   C1697     1.0  0.58791  0.02893  0.86867  1.0000
  N   N116      1.0  0.72798  0.05681  0.86036  1.0000
  H   H2018     1.0  0.54628  0.46701  0.73907  1.0000
  H   H2019     1.0  0.65083  0.47578  0.65386  1.0000
  H   H2020     1.0  0.51508  0.06690  0.85922  1.0000
  C   C1698     1.0  0.64574  0.13254  0.94111  1.0000
  C   C1699     1.0  0.62705  0.14203  0.93602  1.0000
  C   C1700     1.0  0.61583  0.13197  0.92759  1.0000
  C   C1701     1.0  0.62336  0.11245  0.92380  1.0000
  C   C1702     1.0  0.64243  0.10322  0.92815  1.0000
  C   C1703     1.0  0.65347  0.11311  0.93705  1.0000
  H   H2021     1.0  0.62103  0.15711  0.93895  1.0000
  H   H2022     1.0  0.60141  0.13941  0.92388  1.0000
  H   H2023     1.0  0.64844  0.08815  0.92520  1.0000
  H   H2024     1.0  0.66786  0.10565  0.94089  1.0000
  C   C1704     1.0  0.70127  0.03350  0.92386  1.0000
  C   C1705     1.0  0.70299  0.06149  0.93980  1.0000
  C   C1706     1.0  0.69186  0.05065  0.93223  1.0000
  H   H2025     1.0  0.69567  0.07489  0.94585  1.0000
  H   H2026     1.0  0.67595  0.05573  0.93265  1.0000
  C   C1707     1.0  0.53636  0.28538  0.84422  1.0000
  C   C1708     1.0  0.54636  0.30141  0.83472  1.0000
  C   C1709     1.0  0.55646  0.31016  0.84574  1.0000
  C   C1710     1.0  0.55659  0.30305  0.86635  1.0000
  C   C1711     1.0  0.54604  0.28748  0.87589  1.0000
  C   C1712     1.0  0.53602  0.27871  0.86490  1.0000
  H   H2027     1.0  0.54679  0.30670  0.81878  1.0000
  H   H2028     1.0  0.56452  0.32222  0.83816  1.0000
  H   H2029     1.0  0.54597  0.28178  0.89164  1.0000
  H   H2030     1.0  0.52818  0.26655  0.87252  1.0000
  C   C1713     1.0  0.66776  0.42975  0.71618  1.0000
  C   C1714     1.0  0.66688  0.45055  0.71344  1.0000
  C   C1715     1.0  0.67905  0.46024  0.69691  1.0000
  C   C1716     1.0  0.69209  0.44923  0.68302  1.0000
  C   C1717     1.0  0.69306  0.42842  0.68592  1.0000
  C   C1718     1.0  0.68103  0.41875  0.70246  1.0000
  H   H2031     1.0  0.65673  0.45917  0.72395  1.0000
  H   H2032     1.0  0.50591  0.39709  0.76252  1.0000
  H   H2033     1.0  0.51154  0.05270  0.91543  1.0000
  H   H2034     1.0  0.68175  0.40265  0.70450  1.0000
  C   C1719     1.0  0.55876  0.38398  0.78051  1.0000
  C   C1720     1.0  0.54741  0.36918  0.79070  1.0000
  C   C1721     1.0  0.54220  0.35600  0.78025  1.0000
  C   C1722     1.0  0.54800  0.35767  0.75944  1.0000
  C   C1723     1.0  0.55928  0.37260  0.74918  1.0000
  C   C1724     1.0  0.56476  0.38567  0.75969  1.0000
  H   H2035     1.0  0.54280  0.36770  0.80682  1.0000
  H   H2036     1.0  0.53387  0.34446  0.78844  1.0000
  H   H2037     1.0  0.56387  0.37401  0.73307  1.0000
  H   H2038     1.0  0.57355  0.39702  0.75170  1.0000
  Fe  Fe240     1.0  0.61279  0.44224  0.79966  1.0000
  C   C1725     1.0  0.68173  0.19159  0.95287  1.0000
  H   H2039     1.0  0.50595  0.99529  0.86343  1.0000
  H   H2040     1.0  0.57282  0.24980  0.83103  1.0000
  C   C1726     1.0  0.56559  0.24461  0.68071  1.0000
  C   C1727     1.0  0.59146  0.25956  0.86901  1.0000
  Fe  Fe241     1.0  0.59180  0.46487  0.76498  1.0000
  N   N117      1.0  0.59040  0.37851  0.84995  1.0000
  C   C1728     1.0  0.57763  0.39865  0.84776  1.0000
  C   C1729     1.0  0.60665  0.37787  0.83229  1.0000
  C   C1730     1.0  0.57780  0.36352  0.84953  1.0000
  C   C1731     1.0  0.59926  0.37490  0.86851  1.0000
  C   C1732     1.0  0.61095  0.38849  0.87149  1.0000
  C   C1733     1.0  0.59687  0.35797  0.88391  1.0000
  C   C1734     1.0  0.61944  0.38547  0.88887  1.0000
  C   C1735     1.0  0.60554  0.35505  0.90119  1.0000
  C   C1736     1.0  0.61673  0.36878  0.90371  1.0000
  H   H2041     1.0  0.56985  0.40141  0.83454  1.0000
  H   H2042     1.0  0.56600  0.40023  0.86133  1.0000
  H   H2043     1.0  0.58642  0.41106  0.84527  1.0000
  H   H2044     1.0  0.61580  0.38989  0.83048  1.0000
  H   H2045     1.0  0.60054  0.38002  0.81806  1.0000
  H   H2046     1.0  0.61697  0.36320  0.83360  1.0000
  H   H2047     1.0  0.56512  0.36320  0.86237  1.0000
  H   H2048     1.0  0.57112  0.36688  0.83552  1.0000
  H   H2049     1.0  0.58668  0.34808  0.84996  1.0000
  H   H2050     1.0  0.61368  0.40157  0.86033  1.0000
  H   H2051     1.0  0.58841  0.34670  0.88301  1.0000
  H   H2052     1.0  0.62821  0.39614  0.89080  1.0000
  H   H2053     1.0  0.60363  0.34199  0.91274  1.0000
  H   H2054     1.0  0.62335  0.36639  0.91717  1.0000
  C   C1737     1.0  0.57665  0.24714  0.84589  1.0000
  C   C1738     1.0  0.69818  0.08115  0.87499  1.0000
  C   C1739     1.0  0.62156  0.46095  0.86052  1.0000
  Fe  Fe242     1.0  0.70130  0.99706  0.89464  1.0000
  H   H2055     1.0  0.58472  0.19275  0.85803  1.0000
  C   C1740     1.0  0.62910  0.44392  0.69176  1.0000
  S   S470      1.0  0.69752  0.00655  0.86251  1.0000
  Fe  Fe243     1.0  0.72783  0.98798  0.85507  1.0000
  H   H2056     1.0  0.64443  0.05081  0.86529  1.0000
  H   H2057     1.0  0.62174  0.01219  0.91786  1.0000
  N   N118      1.0  0.55918  0.21652  0.85760  1.0000
  C   C1741     1.0  0.55779  0.21785  0.83611  1.0000
  H   H2058     1.0  0.63199  0.06468  0.89706  1.0000
  H   H2059     1.0  0.67084  0.23815  0.96668  1.0000
  C   C1742     1.0  0.57071  0.23113  0.86103  1.0000
  C   C1743     1.0  0.57559  0.23013  0.88031  1.0000
  C   C1744     1.0  0.61422  0.45350  0.97736  1.0000
  H   H2060     1.0  0.61562  0.12365  0.97572  1.0000
  H   H2061     1.0  0.56649  0.07167  0.88721  1.0000
  H   H2062     1.0  0.56103  0.18430  0.86126  1.0000
  H   H2063     1.0  0.57290  0.21585  0.82668  1.0000
  H   H2064     1.0  0.54974  0.20620  0.83390  1.0000
  H   H2065     1.0  0.54908  0.23251  0.83011  1.0000
  H   H2066     1.0  0.63545  0.00222  0.89589  1.0000
  H   H2067     1.0  0.62884  0.47918  0.81045  1.0000
  H   H2068     1.0  0.56756  0.19231  0.88143  1.0000
  H   H2069     1.0  0.53828  0.21953  0.88511  1.0000
  N   N119      1.0  0.54227  0.20508  0.65323  1.0000
  H   H2070     1.0  0.64769  0.02419  0.86597  1.0000
  C   C1745     1.0  0.65285  0.44368  0.65302  1.0000
  C   C1746     1.0  0.50020  0.44720  0.77336  1.0000
  H   H2071     1.0  0.55914  0.04813  0.86819  1.0000
  H   H2072     1.0  0.61464  0.06938  0.97917  1.0000
  H   H2073     1.0  0.54844  0.47533  0.78136  1.0000
  H   H2074     1.0  0.51304  0.99381  0.82413  1.0000
  H   H2075     1.0  0.67573  0.18030  0.94820  1.0000
  H   H2076     1.0  0.58470  0.01867  0.86014  1.0000
  H   H2077     1.0  0.65117  0.19623  0.93109  1.0000
  H   H2078     1.0  0.59428  0.23454  0.66387  1.0000
  H   H2079     1.0  0.49876  0.36523  0.72910  1.0000
  H   H2080     1.0  0.49859  0.99012  0.72697  1.0000
  H   H2081     1.0  0.58587  0.48198  0.82959  1.0000
  C   C1747     1.0  0.63292  0.04909  0.90559  1.0000
  C   C1748     1.0  0.66956  0.21009  0.95669  1.0000
  C   C1749     1.0  0.49266  0.15332  0.97355  1.0000
  H   H2082     1.0  0.52207  0.23021  0.67949  1.0000
  H   H2083     1.0  0.72546  0.44856  0.70326  1.0000
  H   H2084     1.0  0.55043  0.43318  0.75978  1.0000
  C   C1750     1.0  0.54531  0.24326  0.68499  1.0000
  H   H2085     1.0  0.52612  0.00366  0.80013  1.0000
  H   H2086     1.0  0.67422  0.10201  0.88879  1.0000
  C   C1751     1.0  0.50290  0.39357  0.74847  1.0000
  H   H2087     1.0  0.73073  0.40646  0.69464  1.0000
  H   H2088     1.0  0.51327  0.22404  0.65168  1.0000
  C   C1752     1.0  0.56861  0.19565  0.86483  1.0000
  C   C1753     1.0  0.68991  0.09522  0.88777  1.0000
  H   H2089     1.0  0.50056  0.35428  0.76310  1.0000
  C   C1754     1.0  0.62794  0.34142  0.98040  1.0000
  N   N120      1.0  0.63084  0.03468  0.89301  1.0000
  H   H2090     1.0  0.62307  0.47712  0.88387  1.0000
  H   H2091     1.0  0.52008  0.19728  0.67925  1.0000
  H   H2092     1.0  0.57115  0.21877  0.89270  1.0000
  C   C1755     1.0  0.61110  0.03865  0.88636  1.0000
  C   C1756     1.0  0.60646  0.02559  0.87504  1.0000
  C   C1757     1.0  0.59615  0.05548  0.89050  1.0000
  H   H2093     1.0  0.63119  0.41224  0.69320  1.0000
  C   C1758     1.0  0.57770  0.05872  0.88395  1.0000
  C   C1759     1.0  0.57354  0.04546  0.87315  1.0000
  C   C1760     1.0  0.73000  0.07715  0.88623  1.0000
  C   C1761     1.0  0.49648  0.09110  0.97540  1.0000
  C   C1762     1.0  0.49720  0.46679  0.76181  1.0000
  H   H2094     1.0  0.60504  0.08909  0.96038  1.0000
  S   S471      1.0  0.50629  0.25336  0.74477  1.0000
  C   C1763     1.0  0.53788  0.23069  0.67575  1.0000
  H   H2095     1.0  0.65555  0.22162  0.92208  1.0000
  Fe  Fe244     1.0  0.72181  0.09530  0.96274  1.0000
  C   C1764     1.0  0.49602  0.24995  0.72412  1.0000
  C   C1765     1.0  0.63716  0.19987  0.96905  1.0000
  C   C1766     1.0  0.64668  0.42592  0.66491  1.0000
  C   C1767     1.0  0.72365  0.05531  0.93894  1.0000
  C   C1768     1.0  0.53341  0.19019  0.66952  1.0000
  S   S472      1.0  0.50574  0.31975  0.79409  1.0000
  H   H2096     1.0  0.51679  0.38388  0.74227  1.0000
  S   S473      1.0  0.58064  0.44939  0.79580  1.0000
  H   H2097     1.0  0.61905  0.42150  0.97823  1.0000
  H   H2098     1.0  0.64556  0.24659  0.94650  1.0000
  C   C1769     1.0  0.72185  0.02702  0.92341  1.0000
  S   S474      1.0  0.69032  0.09687  0.97956  1.0000
  H   H2099     1.0  0.50524  0.00996  0.77630  1.0000
  S   S475      1.0  0.49598  0.31304  0.75085  1.0000
  H   H2100     1.0  0.62222  0.23786  0.95489  1.0000
  C   C1770     1.0  0.61297  0.08583  0.97356  1.0000
  S   S476      1.0  0.62390  0.46006  0.76974  1.0000
  H   H2101     1.0  0.52956  0.20891  0.86759  1.0000
  C   C1771     1.0  0.73140  0.43620  0.71468  1.0000
  H   H2102     1.0  0.72917  0.01360  0.91733  1.0000
  H   H2103     1.0  0.71842  0.42841  0.72176  1.0000
  C   C1772     1.0  0.71478  0.05452  0.84669  1.0000
  C   C1773     1.0  0.53850  0.22023  0.86883  1.0000
  C   C1774     1.0  0.55057  0.21885  0.66208  1.0000
  Fe  Fe245     1.0  0.62666  0.43162  0.75729  1.0000
  S   S477      1.0  0.57422  0.28133  0.96968  1.0000
  H   H2104     1.0  0.59073  0.27350  0.83834  1.0000
  H   H2105     1.0  0.70299  0.41970  0.67545  1.0000
  C   C1775     1.0  0.58700  0.26099  0.84989  1.0000
  H   H2106     1.0  0.72611  0.19733  0.96330  1.0000
  C   C1776     1.0  0.57120  0.22069  0.65789  1.0000
  H   H2107     1.0  0.71093  0.17298  0.95210  1.0000
  H   H2108     1.0  0.62825  0.08941  0.96778  1.0000
  H   H2109     1.0  0.68816  0.07775  0.86649  1.0000
  H   H2110     1.0  0.70584  0.47917  0.97489  1.0000
  H   H2111     1.0  0.66188  0.03388  0.87966  1.0000
  H   H2112     1.0  0.67822  0.47635  0.69483  1.0000
  C   C1777     1.0  0.50069  0.07295  0.86718  1.0000
  S   S478      1.0  0.59525  0.43770  0.75040  1.0000
  C   C1778     1.0  0.50467  0.18506  0.96585  1.0000
  H   H2113     1.0  0.62064  0.44385  0.70683  1.0000
  C   C1779     1.0  0.72165  0.09146  0.89869  1.0000
  S   S479      1.0  0.61828  0.44053  0.83136  1.0000
  C   C1780     1.0  0.51436  0.47349  0.74914  1.0000
  H   H2114     1.0  0.73057  0.09506  0.90838  1.0000
  C   C1781     1.0  0.69898  0.21912  0.96557  1.0000
  C   C1782     1.0  0.71865  0.07180  0.87368  1.0000
  H   H2115     1.0  0.59868  0.27087  0.87223  1.0000
  H   H2116     1.0  0.59830  0.06646  0.89872  1.0000
  C   C1783     1.0  0.49773  0.04812  0.92399  1.0000
  Fe  Fe246     1.0  0.72762  0.13498  0.97346  1.0000
  C   C1784     1.0  0.71048  0.20090  0.96150  1.0000
  C   C1785     1.0  0.63807  0.23493  0.95729  1.0000
  H   H2117     1.0  0.61722  0.01270  0.87094  1.0000
  C   C1786     1.0  0.53568  0.44235  0.76008  1.0000
  C   C1787     1.0  0.51921  0.43528  0.77256  1.0000
  S   S480      1.0  0.61301  0.45918  0.95168  1.0000
  H   H2118     1.0  0.63046  0.47535  0.68686  1.0000
  C   C1788     1.0  0.64689  0.03596  0.87518  1.0000
  H   H2119     1.0  0.71041  0.06897  0.83678  1.0000
  H   H2120     1.0  0.69703  0.46148  0.95400  1.0000
  S   S481      1.0  0.48947  0.27910  0.79173  1.0000
  H   H2121     1.0  0.50329  0.09298  0.95973  1.0000
  C   C1789     1.0  0.58575  0.24416  0.88421  1.0000
  H   H2122     1.0  0.65393  0.46782  0.97677  1.0000
  H   H2123     1.0  0.67257  0.48233  0.97615  1.0000
  H   H2124     1.0  0.69517  0.11119  0.90955  1.0000
  H   H2125     1.0  0.63262  0.35065  0.96622  1.0000
  H   H2126     1.0  0.71952  0.03182  0.88224  1.0000
  C   C1790     1.0  0.64638  0.21202  0.93376  1.0000
  H   H2127     1.0  0.52140  0.42059  0.78191  1.0000
  C   C1791     1.0  0.63473  0.46164  0.68048  1.0000
  C   C1792     1.0  0.70188  0.18718  0.95516  1.0000
  C   C1793     1.0  0.50001  0.08517  0.88157  1.0000
  S   S482      1.0  0.51861  0.31332  0.97116  1.0000
  C   C1794     1.0  0.62438  0.47764  0.86786  1.0000
  Fe  Fe247     1.0  0.50685  0.27996  0.76021  1.0000
  C   C1795     1.0  0.57850  0.23342  0.66713  1.0000
  H   H2128     1.0  0.70101  0.04887  0.85523  1.0000
  C   C1796     1.0  0.70165  0.10045  0.89949  1.0000
  H   H2129     1.0  0.63055  0.21627  0.93113  1.0000
  H   H2130     1.0  0.52823  0.17869  0.66341  1.0000
  H   H2131     1.0  0.57464  0.40073  0.97651  1.0000
  H   H2132     1.0  0.72837  0.47492  0.88937  1.0000
  H   H2133     1.0  0.70577  0.22969  0.97061  1.0000
  C   C1797     1.0  0.69012  0.44832  0.96225  1.0000
  C   C1798     1.0  0.49151  0.05165  0.94366  1.0000
  H   H2134     1.0  0.51697  0.19345  0.96099  1.0000
  C   C1799     1.0  0.62750  0.47872  0.82644  1.0000
  H   H2135     1.0  0.62092  0.20281  0.96790  1.0000
  H   H2136     1.0  0.49166  0.03730  0.89965  1.0000
  C   C1800     1.0  0.73303  0.03801  0.93079  1.0000
  H   H2137     1.0  0.49649  0.13715  0.97484  1.0000
  C   C1801     1.0  0.50846  0.16422  0.96775  1.0000
  H   H2138     1.0  0.52373  0.15649  0.96435  1.0000
  S   S483      1.0  0.73822  0.06943  0.94702  1.0000
  H   H2139     1.0  0.63747  0.23734  0.97290  1.0000
  H   H2140     1.0  0.55591  0.34258  0.97228  1.0000
  H   H2141     1.0  0.65103  0.41167  0.65965  1.0000
  H   H2142     1.0  0.72231  0.04332  0.83673  1.0000
  H   H2143     1.0  0.49067  0.36933  0.78194  1.0000
  H   H2144     1.0  0.73539  0.44309  0.72631  1.0000
  H   H2145     1.0  0.55569  0.37424  0.97688  1.0000
  C   C1802     1.0  0.61813  0.32530  0.98057  1.0000
  H   H2146     1.0  0.48963  0.28123  0.71143  1.0000
  H   H2147     1.0  0.50060  0.21772  0.73256  1.0000
  H   H2148     1.0  0.64293  0.18407  0.96676  1.0000
  C   C1803     1.0  0.49523  0.23031  0.72172  1.0000
  H   H2149     1.0  0.59229  0.12362  0.96861  1.0000
  C   C1804     1.0  0.52391  0.98958  0.81077  1.0000
  C   C1805     1.0  0.60069  0.11916  0.98146  1.0000
  H   H2150     1.0  0.60894  0.48438  0.98143  1.0000
  C   C1806     1.0  0.48899  0.26605  0.70997  1.0000
  H   H2151     1.0  0.57353  0.09706  0.98144  1.0000
  H   H2152     1.0  0.73846  0.42785  0.67755  1.0000
  C   C1807     1.0  0.65483  0.77093  0.02163  1.0000
  C   C1808     1.0  0.57845  0.58406  0.99578  1.0000
  C   C1809     1.0  0.50482  0.48999  0.24066  1.0000
  S   S484      1.0  0.49720  0.95994  0.19685  1.0000
  H   H2153     1.0  0.53575  0.75193  0.98942  1.0000
  H   H2154     1.0  0.54439  0.56851  0.02236  1.0000
  Fe  Fe248     1.0  0.51435  0.57188  0.25613  1.0000
  S   S485      1.0  0.54479  0.55800  0.26380  1.0000
  S   S486      1.0  0.50424  0.60517  0.24845  1.0000
  S   S487      1.0  0.69192  0.83608  0.05236  1.0000
  Fe  Fe249     1.0  0.72632  0.95256  0.12603  1.0000
  S   S488      1.0  0.72221  0.96320  0.15561  1.0000
  C   C1810     1.0  0.60055  0.55256  0.00326  1.0000
  S   S489      1.0  0.67821  0.88593  0.07725  1.0000
  H   H2155     1.0  0.51906  0.72541  0.04059  1.0000
  C   C1811     1.0  0.56374  0.86070  0.07655  1.0000
  C   C1812     1.0  0.72749  0.95357  0.02923  1.0000
  C   C1813     1.0  0.49196  0.83380  0.11078  1.0000
  C   C1814     1.0  0.61356  0.50375  0.11106  1.0000
  Fe  Fe250     1.0  0.68730  0.84796  0.02070  1.0000
  S   S490      1.0  0.66269  0.84151  0.00695  1.0000
  C   C1815     1.0  0.55591  0.57222  0.31304  1.0000
  S   S491      1.0  0.68786  0.87968  0.02327  1.0000
  C   C1816     1.0  0.72330  0.89254  0.10367  1.0000
  H   H2156     1.0  0.58587  0.52726  0.06308  1.0000
  C   C1817     1.0  0.50833  0.79566  0.99564  1.0000
  H   H2157     1.0  0.50706  0.61202  0.12394  1.0000
  Fe  Fe251     1.0  0.56393  0.59693  0.04903  1.0000
  S   S492      1.0  0.55339  0.62969  0.03823  1.0000
  S   S493      1.0  0.58552  0.57228  0.03504  1.0000
  Fe  Fe252     1.0  0.54034  0.59807  0.09136  1.0000
  S   S494      1.0  0.52710  0.63066  0.08452  1.0000
  S   S495      1.0  0.53796  0.57694  0.12098  1.0000
  Fe  Fe253     1.0  0.52341  0.62326  0.05533  1.0000
  Fe  Fe254     1.0  0.55777  0.63495  0.06808  1.0000
  S   S496      1.0  0.57263  0.65993  0.07200  1.0000
  S   S497      1.0  0.53350  0.59013  0.06379  1.0000
  S   S498      1.0  0.57146  0.60287  0.07725  1.0000
  Fe  Fe255     1.0  0.56831  0.79289  0.05628  1.0000
  S   S499      1.0  0.54443  0.79214  0.08391  1.0000
  S   S500      1.0  0.60030  0.78882  0.06134  1.0000
  Fe  Fe256     1.0  0.53807  0.79712  0.02827  1.0000
  S   S501      1.0  0.51228  0.79704  0.05368  1.0000
  S   S502      1.0  0.53320  0.79708  0.99681  1.0000
  Fe  Fe257     1.0  0.52700  0.81753  0.06521  1.0000
  S   S503      1.0  0.51060  0.84776  0.07257  1.0000
  Fe  Fe258     1.0  0.53223  0.77165  0.06945  1.0000
  S   S504      1.0  0.51801  0.74407  0.08222  1.0000
  S   S505      1.0  0.55168  0.81956  0.03839  1.0000
  S   S506      1.0  0.55733  0.77051  0.04336  1.0000
  H   H2158     1.0  0.49458  0.97922  0.15597  1.0000
  H   H2159     1.0  0.60272  0.50866  0.24257  1.0000
  H   H2160     1.0  0.55397  0.70722  0.03795  1.0000
  S   S507      1.0  0.50087  0.56370  0.23265  1.0000
  H   H2161     1.0  0.63400  0.85805  0.08453  1.0000
  C   C1818     1.0  0.58823  0.56970  0.00962  1.0000
  H   H2162     1.0  0.50133  0.81939  0.10933  1.0000
  S   S508      1.0  0.60067  0.50627  0.20151  1.0000
  H   H2163     1.0  0.70326  0.79668  0.03698  1.0000
  H   H2164     1.0  0.60817  0.54139  0.01386  1.0000
  H   H2165     1.0  0.52778  0.61573  0.01712  1.0000
  C   C1819     1.0  0.55728  0.68311  0.07537  1.0000
  C   C1820     1.0  0.56614  0.69970  0.07543  1.0000
  C   C1821     1.0  0.55424  0.71854  0.07739  1.0000
  C   C1822     1.0  0.53337  0.72070  0.07986  1.0000
  C   C1823     1.0  0.52450  0.70402  0.08019  1.0000
  C   C1824     1.0  0.53642  0.68535  0.07766  1.0000
  H   H2166     1.0  0.58227  0.69806  0.07366  1.0000
  H   H2167     1.0  0.56118  0.73130  0.07728  1.0000
  H   H2168     1.0  0.50836  0.70562  0.08216  1.0000
  H   H2169     1.0  0.52942  0.67275  0.07750  1.0000
  H   H2170     1.0  0.52152  0.55901  0.30968  1.0000
  S   S509      1.0  0.72857  0.86212  0.04361  1.0000
  C   C1825     1.0  0.60259  0.87138  0.06531  1.0000
  C   C1826     1.0  0.50292  0.56042  0.99584  1.0000
  H   H2171     1.0  0.51089  0.88183  0.13224  1.0000
  H   H2172     1.0  0.65984  0.74028  0.06602  1.0000
  H   H2173     1.0  0.64339  0.77811  0.01256  1.0000
  C   C1827     1.0  0.56684  0.87924  0.07938  1.0000
  H   H2174     1.0  0.52493  0.61270  0.29540  1.0000
  C   C1828     1.0  0.64558  0.82654  0.02199  1.0000
  C   C1829     1.0  0.62753  0.82651  0.01560  1.0000
  C   C1830     1.0  0.61335  0.81517  0.02762  1.0000
  C   C1831     1.0  0.61730  0.80364  0.04598  1.0000
  C   C1832     1.0  0.63537  0.80363  0.05229  1.0000
  C   C1833     1.0  0.64947  0.81501  0.04033  1.0000
  H   H2175     1.0  0.72420  0.79746  0.01691  1.0000
  H   H2176     1.0  0.59947  0.81521  0.02262  1.0000
  H   H2177     1.0  0.63856  0.79460  0.06641  1.0000
  H   H2178     1.0  0.66343  0.81459  0.04525  1.0000
  H   H2179     1.0  0.52966  0.58905  0.28689  1.0000
  C   C1834     1.0  0.71649  0.91129  0.10981  1.0000
  C   C1835     1.0  0.69828  0.92253  0.10516  1.0000
  C   C1836     1.0  0.68656  0.91465  0.09518  1.0000
  C   C1837     1.0  0.69334  0.89583  0.08918  1.0000
  H   H2180     1.0  0.69298  0.93703  0.10966  1.0000
  H   H2181     1.0  0.67223  0.92314  0.09212  1.0000
  H   H2182     1.0  0.62495  0.53038  0.07664  1.0000
  H   H2183     1.0  0.51051  0.66220  0.29361  1.0000
  C   C1838     1.0  0.51833  0.62028  0.98845  1.0000
  H   H2184     1.0  0.52100  0.66707  0.98626  1.0000
  S   S510      1.0  0.70207  0.97591  0.11405  1.0000
  C   C1839     1.0  0.58595  0.88460  0.07391  1.0000
  C   C1840     1.0  0.49655  0.65743  0.30124  1.0000
  C   C1841     1.0  0.58997  0.51869  0.07766  1.0000
  H   H2185     1.0  0.55421  0.50150  0.25385  1.0000
  C   C1842     1.0  0.56081  0.54453  0.24601  1.0000
  C   C1843     1.0  0.55691  0.54685  0.22645  1.0000
  C   C1844     1.0  0.56947  0.53533  0.21274  1.0000
  H   H2186     1.0  0.73378  0.77010  0.99580  1.0000
  C   C1845     1.0  0.58989  0.51917  0.23806  1.0000
  C   C1846     1.0  0.57751  0.53092  0.25167  1.0000
  H   H2187     1.0  0.54431  0.55760  0.22182  1.0000
  H   H2188     1.0  0.56640  0.53716  0.19763  1.0000
  H   H2189     1.0  0.58724  0.55933  0.30887  1.0000
  H   H2190     1.0  0.58073  0.52920  0.26672  1.0000
  C   C1847     1.0  0.52455  0.67834  0.01201  1.0000
  C   C1848     1.0  0.51475  0.58580  0.17782  1.0000
  C   C1849     1.0  0.52601  0.57766  0.16112  1.0000
  C   C1850     1.0  0.52338  0.58717  0.14165  1.0000
  N   N121      1.0  0.59372  0.53218  0.09032  1.0000
  C   C1851     1.0  0.66406  0.74978  0.05182  1.0000
  H   H2191     1.0  0.51730  0.57870  0.19273  1.0000
  H   H2192     1.0  0.53704  0.56420  0.16331  1.0000
  H   H2193     1.0  0.60859  0.55088  0.06506  1.0000
  C   C1852     1.0  0.52467  0.67944  0.99161  1.0000
  C   C1853     1.0  0.58748  0.52623  0.12868  1.0000
  N   N122      1.0  0.55609  0.63806  0.13745  1.0000
  C   C1854     1.0  0.57183  0.65078  0.13364  1.0000
  C   C1855     1.0  0.56126  0.62418  0.12259  1.0000
  C   C1856     1.0  0.53702  0.65145  0.13365  1.0000
  C   C1857     1.0  0.55502  0.62644  0.15811  1.0000
  C   C1858     1.0  0.53807  0.62953  0.17342  1.0000
  C   C1859     1.0  0.57144  0.61165  0.16355  1.0000
  C   C1860     1.0  0.53763  0.61830  0.19277  1.0000
  C   C1861     1.0  0.57069  0.60029  0.18287  1.0000
  C   C1862     1.0  0.55380  0.60360  0.19745  1.0000
  H   H2194     1.0  0.57295  0.65986  0.11821  1.0000
  H   H2195     1.0  0.56861  0.66138  0.14458  1.0000
  H   H2196     1.0  0.58691  0.64171  0.13483  1.0000
  H   H2197     1.0  0.57653  0.61522  0.12241  1.0000
  H   H2198     1.0  0.56099  0.63244  0.10702  1.0000
  H   H2199     1.0  0.55050  0.61351  0.12567  1.0000
  H   H2200     1.0  0.53279  0.66330  0.14329  1.0000
  H   H2201     1.0  0.53818  0.65952  0.11783  1.0000
  H   H2202     1.0  0.52452  0.64277  0.13619  1.0000
  H   H2203     1.0  0.52475  0.64027  0.17085  1.0000
  H   H2204     1.0  0.58498  0.60868  0.15287  1.0000
  H   H2205     1.0  0.52439  0.62075  0.20408  1.0000
  H   H2206     1.0  0.72533  0.74343  0.03536  1.0000
  C   C1863     1.0  0.50647  0.91405  0.14846  1.0000
  H   H2207     1.0  0.52068  0.66516  0.02248  1.0000
  C   C1864     1.0  0.52954  0.69404  0.01905  1.0000
  N   N123      1.0  0.54131  0.72727  0.01354  1.0000
  H   H2208     1.0  0.56218  0.54236  0.09986  1.0000
  Fe  Fe259     1.0  0.72082  0.87286  0.01260  1.0000
  H   H2209     1.0  0.57112  0.71075  0.01493  1.0000
  C   C1865     1.0  0.51259  0.57289  0.02233  1.0000
  H   H2210     1.0  0.49519  0.86777  0.15099  1.0000
  H   H2211     1.0  0.61057  0.84210  0.05578  1.0000
  H   H2212     1.0  0.56355  0.73002  0.03045  1.0000
  C   C1866     1.0  0.63787  0.86066  0.06785  1.0000
  C   C1867     1.0  0.59251  0.51550  0.14700  1.0000
  C   C1868     1.0  0.53516  0.71132  0.00573  1.0000
  H   H2213     1.0  0.61718  0.89031  0.02899  1.0000
  H   H2214     1.0  0.62139  0.89543  0.08068  1.0000
  H   H2215     1.0  0.58727  0.89919  0.07646  1.0000
  H   H2216     1.0  0.55428  0.88954  0.08575  1.0000
  C   C1869     1.0  0.58582  0.52127  0.21861  1.0000
  C   C1870     1.0  0.68364  0.75384  0.04609  1.0000
  H   H2217     1.0  0.57547  0.53895  0.12956  1.0000
  H   H2218     1.0  0.72551  0.97327  0.05137  1.0000
  H   H2219     1.0  0.55365  0.55143  0.99275  1.0000
  H   H2220     1.0  0.69389  0.74704  0.05644  1.0000
  C   C1871     1.0  0.52423  0.73646  0.02742  1.0000
  S   S511      1.0  0.72878  0.49097  0.29679  1.0000
  H   H2221     1.0  0.50968  0.58049  0.03512  1.0000
  C   C1872     1.0  0.62763  0.98551  0.14104  1.0000
  C   C1873     1.0  0.72437  0.75989  0.03438  1.0000
  C   C1874     1.0  0.64971  0.75825  0.03960  1.0000
  C   C1875     1.0  0.68940  0.76662  0.02775  1.0000
  H   H2222     1.0  0.55348  0.56533  0.30112  1.0000
  C   C1876     1.0  0.72459  0.95435  0.00923  1.0000
  H   H2223     1.0  0.52012  0.90988  0.15564  1.0000
  H   H2224     1.0  0.57826  0.56005  0.09988  1.0000
  H   H2225     1.0  0.64331  0.88228  0.03079  1.0000
  C   C1877     1.0  0.62805  0.87849  0.03651  1.0000
  H   H2226     1.0  0.71717  0.87035  0.08867  1.0000
  H   H2227     1.0  0.62796  0.86428  0.03129  1.0000
  H   H2228     1.0  0.70950  0.77763  0.98925  1.0000
  H   H2229     1.0  0.72285  0.94252  0.07090  1.0000
  H   H2230     1.0  0.49907  0.83217  0.27916  1.0000
  H   H2231     1.0  0.54891  0.85660  0.08070  1.0000
  H   H2232     1.0  0.51159  0.91630  0.13192  1.0000
  H   H2233     1.0  0.58465  0.52014  0.16107  1.0000
  H   H2234     1.0  0.69918  0.80311  0.01142  1.0000
  C   C1878     1.0  0.62496  0.89585  0.06412  1.0000
  H   H2235     1.0  0.63439  0.75557  0.04440  1.0000
  C   C1879     1.0  0.50935  0.60474  0.13891  1.0000
  H   H2236     1.0  0.62243  0.49885  0.09758  1.0000
  H   H2237     1.0  0.62443  0.83539  0.00140  1.0000
  H   H2238     1.0  0.63926  0.84612  0.06270  1.0000
  C   C1880     1.0  0.57973  0.84744  0.06821  1.0000
  H   H2239     1.0  0.52823  0.74855  0.03368  1.0000
  C   C1881     1.0  0.53798  0.55657  0.99832  1.0000
  Fe  Fe260     1.0  0.69538  0.86733  0.05390  1.0000
  C   C1882     1.0  0.59793  0.52065  0.11006  1.0000
  S   S512      1.0  0.71987  0.84202  0.00693  1.0000
  C   C1883     1.0  0.61835  0.49307  0.12949  1.0000
  H   H2240     1.0  0.50002  0.91786  0.18521  1.0000
  H   H2241     1.0  0.72694  0.94081  0.00281  1.0000
  C   C1884     1.0  0.51971  0.59802  0.29784  1.0000
  H   H2242     1.0  0.49696  0.63758  0.28044  1.0000
  C   C1885     1.0  0.52311  0.55370  0.98872  1.0000
  H   H2243     1.0  0.57282  0.55640  0.07687  1.0000
  C   C1886     1.0  0.71878  0.92093  0.04437  1.0000
  H   H2244     1.0  0.49778  0.94794  0.25764  1.0000
  H   H2245     1.0  0.70394  0.92803  0.05177  1.0000
  H   H2246     1.0  0.65317  0.86464  0.06384  1.0000
  C   C1887     1.0  0.51612  0.62290  0.00846  1.0000
  N   N124      1.0  0.70986  0.77156  0.02131  1.0000
  C   C1888     1.0  0.67428  0.77526  0.01583  1.0000
  H   H2247     1.0  0.57751  0.51047  0.08546  1.0000
  Fe  Fe261     1.0  0.72476  0.83168  0.03901  1.0000
  N   N125      1.0  0.62293  0.87665  0.05868  1.0000
  H   H2248     1.0  0.71671  0.91751  0.02990  1.0000
  H   H2249     1.0  0.56893  0.59735  0.00052  1.0000
  H   H2250     1.0  0.71841  0.49079  0.25842  1.0000
  C   C1889     1.0  0.53273  0.56616  0.01505  1.0000
  H   H2251     1.0  0.51741  0.87329  0.15700  1.0000
  H   H2252     1.0  0.71760  0.75176  0.99946  1.0000
  C   C1890     1.0  0.60789  0.49899  0.14741  1.0000
  H   H2253     1.0  0.50371  0.50453  0.24483  1.0000
  N   N126      1.0  0.66353  0.92879  0.16613  1.0000
  C   C1891     1.0  0.67161  0.92260  0.18525  1.0000
  C   C1892     1.0  0.67552  0.94312  0.15249  1.0000
  C   C1893     1.0  0.64271  0.93962  0.17088  1.0000
  C   C1894     1.0  0.66492  0.91111  0.15642  1.0000
  C   C1895     1.0  0.64846  0.90689  0.14937  1.0000
  C   C1896     1.0  0.68348  0.89801  0.15285  1.0000
  C   C1897     1.0  0.65062  0.89059  0.13940  1.0000
  C   C1898     1.0  0.68537  0.88162  0.14312  1.0000
  C   C1899     1.0  0.66904  0.87801  0.13625  1.0000
  H   H2254     1.0  0.66945  0.93544  0.19349  1.0000
  H   H2255     1.0  0.66410  0.91055  0.19531  1.0000
  H   H2256     1.0  0.68802  0.91701  0.18282  1.0000
  H   H2257     1.0  0.69153  0.93628  0.14866  1.0000
  H   H2258     1.0  0.67528  0.95653  0.15930  1.0000
  H   H2259     1.0  0.66963  0.94852  0.13811  1.0000
  H   H2260     1.0  0.63280  0.92966  0.18109  1.0000
  H   H2261     1.0  0.64210  0.95273  0.17832  1.0000
  H   H2262     1.0  0.63604  0.94600  0.15708  1.0000
  H   H2263     1.0  0.63383  0.91615  0.15104  1.0000
  H   H2264     1.0  0.69695  0.90076  0.15680  1.0000
  H   H2265     1.0  0.63805  0.88789  0.13372  1.0000
  H   H2266     1.0  0.69985  0.87217  0.14012  1.0000
  H   H2267     1.0  0.67083  0.86577  0.12797  1.0000
  H   H2268     1.0  0.51127  0.74332  0.01961  1.0000
  C   C1900     1.0  0.59880  0.85272  0.06254  1.0000
  H   H2269     1.0  0.61527  0.90891  0.05660  1.0000
  C   C1901     1.0  0.71795  0.76757  0.00057  1.0000
  H   H2270     1.0  0.61477  0.55175  0.08893  1.0000
  H   H2271     1.0  0.55320  0.59473  0.21240  1.0000
  H   H2272     1.0  0.64061  0.89898  0.05940  1.0000
  C   C1902     1.0  0.50474  0.87955  0.14861  1.0000
  C   C1903     1.0  0.71189  0.88493  0.09315  1.0000
  C   C1904     1.0  0.70904  0.79313  0.02159  1.0000
  H   H2273     1.0  0.49522  0.81153  0.02025  1.0000
  H   H2274     1.0  0.67720  0.78593  0.00223  1.0000
  H   H2275     1.0  0.58325  0.58881  0.18660  1.0000
  H   H2276     1.0  0.57736  0.83297  0.06602  1.0000
  H   H2277     1.0  0.72310  0.90617  0.05380  1.0000
  C   C1905     1.0  0.49795  0.61276  0.15562  1.0000
  H   H2278     1.0  0.52813  0.50276  0.26288  1.0000
  C   C1906     1.0  0.71872  0.97260  0.99708  1.0000
  H   H2279     1.0  0.53713  0.51111  0.23654  1.0000
  H   H2280     1.0  0.55290  0.75516  0.00406  1.0000
  C   C1907     1.0  0.61128  0.54166  0.07982  1.0000
  H   H2281     1.0  0.62621  0.97977  0.12797  1.0000
  C   C1908     1.0  0.55820  0.71846  0.02463  1.0000
  H   H2282     1.0  0.73737  0.88377  0.10724  1.0000
  H   H2283     1.0  0.60334  0.50739  0.07357  1.0000
  H   H2284     1.0  0.52915  0.69239  0.03506  1.0000
  C   C1909     1.0  0.50060  0.60331  0.17511  1.0000
  S   S513      1.0  0.49525  0.63650  0.04264  1.0000
  C   C1910     1.0  0.49856  0.63406  0.01734  1.0000
  H   H2285     1.0  0.72056  0.76380  0.04979  1.0000
  H   H2286     1.0  0.50453  0.60088  0.29367  1.0000
  C   C1911     1.0  0.57598  0.54838  0.09191  1.0000
  C   C1912     1.0  0.49701  0.57009  0.01299  1.0000
  H   H2287     1.0  0.49834  0.92896  0.15201  1.0000
  C   C1913     1.0  0.73701  0.93591  0.06192  1.0000
  H   H2288     1.0  0.61186  0.49095  0.16169  1.0000
  S   S514      1.0  0.73058  0.91963  0.12417  1.0000
  C   C1914     1.0  0.49241  0.80377  0.00928  1.0000
  C   C1915     1.0  0.54805  0.74367  0.99763  1.0000
  N   N127      1.0  0.73403  0.93405  0.04164  1.0000
  H   H2289     1.0  0.49192  0.55811  0.98774  1.0000
  S   S515      1.0  0.58894  0.97990  0.15483  1.0000
  C   C1916     1.0  0.49381  0.85010  0.09519  1.0000
  C   C1917     1.0  0.72379  0.97218  0.03639  1.0000
  C   C1918     1.0  0.53477  0.71218  0.98500  1.0000
  S   S516      1.0  0.73388  0.89930  0.99361  1.0000
  N   N128      1.0  0.49337  0.89848  0.15513  1.0000
  C   C1919     1.0  0.53999  0.49949  0.24987  1.0000
  H   H2290     1.0  0.50020  0.98415  0.24363  1.0000
  H   H2291     1.0  0.56108  0.73790  0.98674  1.0000
  H   H2292     1.0  0.49089  0.54938  0.16226  1.0000
  Fe  Fe262     1.0  0.51634  0.98371  0.18404  1.0000
  C   C1920     1.0  0.60317  0.54974  0.98322  1.0000
  C   C1921     1.0  0.49091  0.90621  0.19036  1.0000
  C   C1922     1.0  0.48897  0.64336  0.29381  1.0000
  C   C1923     1.0  0.57553  0.67948  0.37099  1.0000
  H   H2293     1.0  0.52879  0.67016  0.60716  1.0000
  C   C1924     1.0  0.63440  0.80434  0.41688  1.0000
  C   C1925     1.0  0.57535  0.56870  0.31734  1.0000
  H   H2294     1.0  0.69267  0.93281  0.37824  1.0000
  H   H2295     1.0  0.51058  0.76880  0.56569  1.0000
  S   S517      1.0  0.52871  0.71923  0.60442  1.0000
  H   H2296     1.0  0.50502  0.77294  0.38178  1.0000
  H   H2297     1.0  0.70960  0.64261  0.42768  1.0000
  H   H2298     1.0  0.67234  0.78355  0.44238  1.0000
  S   S518      1.0  0.68988  0.88031  0.44013  1.0000
  Fe  Fe263     1.0  0.57158  0.72362  0.49082  1.0000
  S   S519      1.0  0.58175  0.70031  0.47083  1.0000
  S   S520      1.0  0.54099  0.72542  0.51008  1.0000
  Fe  Fe264     1.0  0.60784  0.74401  0.47379  1.0000
  S   S521      1.0  0.62106  0.72242  0.45210  1.0000
  S   S522      1.0  0.62354  0.76782  0.47916  1.0000
  Fe  Fe265     1.0  0.58926  0.72592  0.44665  1.0000
  S   S523      1.0  0.58032  0.73026  0.41602  1.0000
  Fe  Fe266     1.0  0.61248  0.69850  0.47810  1.0000
  S   S524      1.0  0.62921  0.66718  0.48796  1.0000
  S   S525      1.0  0.57696  0.74951  0.46612  1.0000
  S   S526      1.0  0.60143  0.71983  0.50031  1.0000
  N   N129      1.0  0.71689  0.61212  0.42193  1.0000
  H   H2299     1.0  0.51423  0.55908  0.33626  1.0000
  C   C1926     1.0  0.72863  0.54005  0.41983  1.0000
  H   H2300     1.0  0.68648  0.92233  0.44328  1.0000
  H   H2301     1.0  0.50992  0.67711  0.36545  1.0000
  S   S527      1.0  0.72412  0.64203  0.46870  1.0000
  H   H2302     1.0  0.53362  0.60254  0.34785  1.0000
  H   H2303     1.0  0.50208  0.88584  0.63219  1.0000
  H   H2304     1.0  0.51159  0.77431  0.41461  1.0000
  H   H2305     1.0  0.49273  0.89812  0.60945  1.0000
  C   C1927     1.0  0.69238  0.83507  0.42305  1.0000
  S   S528      1.0  0.72367  0.52256  0.38889  1.0000
  Fe  Fe267     1.0  0.61602  0.88290  0.44730  1.0000
  S   S529      1.0  0.63878  0.89230  0.42066  1.0000
  S   S530      1.0  0.59754  0.85998  0.44526  1.0000
  Fe  Fe268     1.0  0.62156  0.91495  0.46953  1.0000
  S   S531      1.0  0.64449  0.92703  0.44448  1.0000
  S   S532      1.0  0.60987  0.92756  0.49831  1.0000
  Fe  Fe269     1.0  0.62410  0.92382  0.42416  1.0000
  S   S533      1.0  0.61935  0.94751  0.39686  1.0000
  Fe  Fe270     1.0  0.65712  0.89456  0.44335  1.0000
  S   S534      1.0  0.60005  0.91438  0.44928  1.0000
  S   S535      1.0  0.63547  0.88250  0.46988  1.0000
  H   H2306     1.0  0.54092  0.89861  0.40831  1.0000
  Fe  Fe271     1.0  0.49671  0.72813  0.61906  1.0000
  C   C1928     1.0  0.73812  0.91414  0.39246  1.0000
  H   H2307     1.0  0.64606  0.77422  0.42957  1.0000
  C   C1929     1.0  0.54850  0.78156  0.58229  1.0000
  C   C1930     1.0  0.70855  0.63363  0.41623  1.0000
  H   H2308     1.0  0.62490  0.83587  0.40733  1.0000
  C   C1931     1.0  0.58478  0.91573  0.38994  1.0000
  C   C1932     1.0  0.59752  0.96941  0.45170  1.0000
  H   H2309     1.0  0.49716  0.75497  0.42494  1.0000
  C   C1933     1.0  0.71600  0.92634  0.44541  1.0000
  H   H2310     1.0  0.50040  0.73595  0.50196  1.0000
  H   H2311     1.0  0.62239  0.79991  0.41171  1.0000
  N   N130      1.0  0.68057  0.82274  0.43960  1.0000
  S   S536      1.0  0.68710  0.98119  0.57803  1.0000
  C   C1934     1.0  0.70169  0.91503  0.44411  1.0000
  C   C1935     1.0  0.59584  0.96324  0.39723  1.0000
  C   C1936     1.0  0.70850  0.93152  0.37866  1.0000
  H   H2312     1.0  0.55205  0.78467  0.59588  1.0000
  H   H2313     1.0  0.65586  0.97650  0.47947  1.0000
  H   H2314     1.0  0.71122  0.56838  0.36702  1.0000
  C   C1937     1.0  0.57955  0.95903  0.41212  1.0000
  H   H2315     1.0  0.55190  0.98180  0.34400  1.0000
  H   H2316     1.0  0.58084  0.94536  0.42291  1.0000
  C   C1938     1.0  0.58479  0.97070  0.61040  1.0000
  C   C1939     1.0  0.56787  0.96117  0.61601  1.0000
  C   C1940     1.0  0.56936  0.94131  0.62643  1.0000
  C   C1941     1.0  0.58781  0.93090  0.63118  1.0000
  C   C1942     1.0  0.60456  0.94064  0.62607  1.0000
  C   C1943     1.0  0.60303  0.96054  0.61585  1.0000
  H   H2317     1.0  0.55374  0.96890  0.61176  1.0000
  H   H2318     1.0  0.50065  0.72627  0.57688  1.0000
  C   C1944     1.0  0.51047  0.79061  0.64116  1.0000
  H   H2319     1.0  0.61608  0.96786  0.61182  1.0000
  C   C1945     1.0  0.61908  0.94883  0.50064  1.0000
  C   C1946     1.0  0.63622  0.95452  0.48799  1.0000
  C   C1947     1.0  0.64280  0.97200  0.48957  1.0000
  N   N131      1.0  0.54124  0.67699  0.36549  1.0000
  S   S537      1.0  0.49398  0.71223  0.41546  1.0000
  C   C1948     1.0  0.60888  0.96040  0.51528  1.0000
  H   H2320     1.0  0.64448  0.94549  0.47700  1.0000
  C   C1949     1.0  0.72718  0.88532  0.44423  1.0000
  H   H2321     1.0  0.59542  0.95626  0.52487  1.0000
  H   H2322     1.0  0.55553  0.69505  0.33898  1.0000
  S   S538      1.0  0.73307  0.58200  0.48009  1.0000
  C   C1950     1.0  0.56532  0.94486  0.33371  1.0000
  C   C1951     1.0  0.66493  0.81608  0.43184  1.0000
  C   C1952     1.0  0.70723  0.89452  0.44337  1.0000
  C   C1953     1.0  0.56159  0.97281  0.41343  1.0000
  H   H2323     1.0  0.68877  0.60666  0.44096  1.0000
  H   H2324     1.0  0.72994  0.97410  0.57428  1.0000
  H   H2325     1.0  0.70910  0.90498  0.40112  1.0000
  H   H2326     1.0  0.73846  0.49527  0.58851  1.0000
  C   C1954     1.0  0.58885  0.68082  0.38331  1.0000
  H   H2327     1.0  0.68066  0.58650  0.38535  1.0000
  C   C1955     1.0  0.65562  0.66044  0.48245  1.0000
  C   C1956     1.0  0.66470  0.64094  0.48993  1.0000
  C   C1957     1.0  0.68567  0.63508  0.48598  1.0000
  C   C1958     1.0  0.69773  0.64868  0.47442  1.0000
  C   C1959     1.0  0.68862  0.66811  0.46681  1.0000
  C   C1960     1.0  0.66768  0.67400  0.47084  1.0000
  H   H2328     1.0  0.65550  0.63034  0.49892  1.0000
  H   H2329     1.0  0.69248  0.62010  0.49197  1.0000
  H   H2330     1.0  0.69784  0.67872  0.45785  1.0000
  H   H2331     1.0  0.66089  0.68904  0.46499  1.0000
  C   C1961     1.0  0.61538  0.79344  0.47044  1.0000
  C   C1962     1.0  0.59987  0.79965  0.45916  1.0000
  C   C1963     1.0  0.59418  0.82017  0.45193  1.0000
  C   C1964     1.0  0.60396  0.83457  0.45591  1.0000
  C   C1965     1.0  0.61897  0.82841  0.46779  1.0000
  C   C1966     1.0  0.62469  0.80788  0.47500  1.0000
  H   H2332     1.0  0.59260  0.78866  0.45554  1.0000
  H   H2333     1.0  0.58249  0.82488  0.44280  1.0000
  H   H2334     1.0  0.62618  0.83949  0.47128  1.0000
  H   H2335     1.0  0.63649  0.80315  0.48398  1.0000
  C   C1967     1.0  0.51784  0.71785  0.41501  1.0000
  C   C1968     1.0  0.52537  0.71392  0.43307  1.0000
  C   C1969     1.0  0.54417  0.71839  0.43358  1.0000
  C   C1970     1.0  0.55594  0.72620  0.41588  1.0000
  C   C1971     1.0  0.54840  0.73018  0.39774  1.0000
  C   C1972     1.0  0.52928  0.72621  0.39733  1.0000
  H   H2336     1.0  0.51676  0.70710  0.44669  1.0000
  H   H2337     1.0  0.54974  0.71534  0.44763  1.0000
  H   H2338     1.0  0.55744  0.73622  0.38400  1.0000
  H   H2339     1.0  0.52354  0.72943  0.38336  1.0000
  C   C1973     1.0  0.53214  0.72170  0.57815  1.0000
  C   C1974     1.0  0.55157  0.71998  0.56693  1.0000
  C   C1975     1.0  0.55449  0.72142  0.54595  1.0000
  C   C1976     1.0  0.53800  0.72430  0.53620  1.0000
  C   C1977     1.0  0.51861  0.72616  0.54739  1.0000
  C   C1978     1.0  0.51566  0.72495  0.56831  1.0000
  H   H2340     1.0  0.56432  0.71745  0.57455  1.0000
  H   H2341     1.0  0.56941  0.72012  0.53737  1.0000
  H   H2342     1.0  0.50581  0.72845  0.53992  1.0000
  H   H2343     1.0  0.53791  0.70902  0.35614  1.0000
  S   S539      1.0  0.49666  0.68242  0.32773  1.0000
  C   C1979     1.0  0.48936  0.77088  0.38848  1.0000
  C   C1980     1.0  0.73566  0.52116  0.56505  1.0000
  C   C1981     1.0  0.61573  0.97766  0.51719  1.0000
  H   H2344     1.0  0.49830  0.80513  0.39634  1.0000
  H   H2345     1.0  0.71163  0.94228  0.44567  1.0000
  S   S540      1.0  0.63612  0.98562  0.56133  1.0000
  H   H2346     1.0  0.52170  0.95632  0.36499  1.0000
  H   H2347     1.0  0.66084  0.84878  0.44943  1.0000
  H   H2348     1.0  0.68718  0.79671  0.46203  1.0000
  C   C1982     1.0  0.73297  0.59064  0.39488  1.0000
  C   C1983     1.0  0.73121  0.57951  0.38064  1.0000
  S   S541      1.0  0.54081  0.88296  0.64505  1.0000
  C   C1984     1.0  0.58262  0.67958  0.40396  1.0000
  C   C1985     1.0  0.66287  0.79555  0.43434  1.0000
  C   C1986     1.0  0.50429  0.60026  0.33185  1.0000
  C   C1987     1.0  0.56316  0.67664  0.41241  1.0000
  H   H2349     1.0  0.58110  0.68051  0.35507  1.0000
  H   H2350     1.0  0.73158  0.86945  0.44368  1.0000
  H   H2351     1.0  0.57303  0.96957  0.35523  1.0000
  C   C1988     1.0  0.51279  0.56813  0.32116  1.0000
  H   H2352     1.0  0.71677  0.64017  0.40156  1.0000
  C   C1989     1.0  0.69488  0.80590  0.44863  1.0000
  C   C1990     1.0  0.67097  0.83513  0.45531  1.0000
  H   H2353     1.0  0.51450  0.69013  0.38359  1.0000
  H   H2354     1.0  0.60383  0.96389  0.43732  1.0000
  H   H2355     1.0  0.66196  0.82647  0.46805  1.0000
  C   C1991     1.0  0.52028  0.67679  0.37602  1.0000
  H   H2356     1.0  0.51894  0.77612  0.59636  1.0000
  C   C1992     1.0  0.69797  0.98093  0.52262  1.0000
  C   C1993     1.0  0.73795  0.53185  0.40248  1.0000
  H   H2357     1.0  0.53457  0.67410  0.40781  1.0000
  C   C1994     1.0  0.69432  0.97733  0.50464  1.0000
  C   C1995     1.0  0.71756  0.97774  0.52647  1.0000
  H   H2358     1.0  0.48975  0.86367  0.60483  1.0000
  H   H2359     1.0  0.71226  0.95771  0.35636  1.0000
  C   C1996     1.0  0.54960  0.67561  0.40022  1.0000
  H   H2360     1.0  0.54928  0.96980  0.42544  1.0000
  H   H2361     1.0  0.68325  0.84945  0.41713  1.0000
  N   N132      1.0  0.57419  0.77749  0.52860  1.0000
  C   C1997     1.0  0.58027  0.79757  0.52227  1.0000
  C   C1998     1.0  0.59197  0.76236  0.53313  1.0000
  C   C1999     1.0  0.56760  0.77256  0.51119  1.0000
  C   C2000     1.0  0.55859  0.77756  0.54682  1.0000
  C   C2001     1.0  0.53923  0.77303  0.54758  1.0000
  C   C2002     1.0  0.56272  0.78197  0.56470  1.0000
  C   C2003     1.0  0.52510  0.77276  0.56525  1.0000
  H   H2362     1.0  0.68307  0.60685  0.40978  1.0000
  H   H2363     1.0  0.51884  0.66300  0.38740  1.0000
  H   H2364     1.0  0.58717  0.80179  0.53371  1.0000
  H   H2365     1.0  0.59161  0.79817  0.50826  1.0000
  H   H2366     1.0  0.56718  0.80945  0.51926  1.0000
  H   H2367     1.0  0.59928  0.76611  0.54453  1.0000
  H   H2368     1.0  0.60370  0.76110  0.51955  1.0000
  H   H2369     1.0  0.58777  0.74724  0.53891  1.0000
  H   H2370     1.0  0.55455  0.78361  0.50657  1.0000
  H   H2371     1.0  0.57968  0.77279  0.49777  1.0000
  H   H2372     1.0  0.56360  0.75724  0.51451  1.0000
  H   H2373     1.0  0.53472  0.76918  0.53490  1.0000
  H   H2374     1.0  0.57709  0.78550  0.56532  1.0000
  H   H2375     1.0  0.54219  0.79133  0.63296  1.0000
  H   H2376     1.0  0.54816  0.64495  0.36735  1.0000
  C   C2004     1.0  0.53173  0.95219  0.35112  1.0000
  C   C2005     1.0  0.69681  0.59941  0.40193  1.0000
  H   H2377     1.0  0.59275  0.68130  0.41342  1.0000
  H   H2378     1.0  0.50012  0.73042  0.46782  1.0000
  N   N133      1.0  0.55319  0.94971  0.35299  1.0000
  H   H2379     1.0  0.59010  0.93883  0.36503  1.0000
  C   C2006     1.0  0.54549  0.92196  0.38263  1.0000
  C   C2007     1.0  0.63589  0.82457  0.41434  1.0000
  C   C2008     1.0  0.55153  0.90746  0.39860  1.0000
  H   H2380     1.0  0.50762  0.61575  0.32994  1.0000
  C   C2009     1.0  0.57111  0.90439  0.40229  1.0000
  C   C2010     1.0  0.72991  0.96696  0.49420  1.0000
  H   H2381     1.0  0.55640  0.93387  0.63026  1.0000
  C   C2011     1.0  0.64780  0.78989  0.42691  1.0000
  H   H2382     1.0  0.61882  0.93271  0.62993  1.0000
  C   C2012     1.0  0.54767  0.65884  0.35586  1.0000
  H   H2383     1.0  0.56334  0.92999  0.33115  1.0000
  H   H2384     1.0  0.52798  0.93832  0.34790  1.0000
  H   H2385     1.0  0.70665  0.81146  0.45393  1.0000
  H   H2386     1.0  0.62464  0.98240  0.41700  1.0000
  H   H2387     1.0  0.53007  0.92359  0.38076  1.0000
  H   H2388     1.0  0.72111  0.52779  0.57222  1.0000
  C   C2013     1.0  0.71022  0.97015  0.49056  1.0000
  C   C2014     1.0  0.56424  0.58928  0.34324  1.0000
  H   H2389     1.0  0.57569  0.89325  0.41481  1.0000
  N   N134      1.0  0.58448  0.66361  0.54039  1.0000
  C   C2015     1.0  0.59379  0.64236  0.53970  1.0000
  C   C2016     1.0  0.57670  0.67181  0.52129  1.0000
  C   C2017     1.0  0.60030  0.67507  0.54111  1.0000
  C   C2018     1.0  0.56884  0.66483  0.55849  1.0000
  C   C2019     1.0  0.54823  0.67225  0.55748  1.0000
  C   C2020     1.0  0.57408  0.65865  0.57796  1.0000
  C   C2021     1.0  0.53402  0.67378  0.57492  1.0000
  C   C2022     1.0  0.55975  0.66047  0.59528  1.0000
  C   C2023     1.0  0.53979  0.66816  0.59375  1.0000
  H   H2390     1.0  0.58237  0.63313  0.53945  1.0000
  H   H2391     1.0  0.60547  0.64095  0.52602  1.0000
  H   H2392     1.0  0.60135  0.63544  0.55282  1.0000
  H   H2393     1.0  0.56536  0.66335  0.51922  1.0000
  H   H2394     1.0  0.58881  0.67075  0.50801  1.0000
  H   H2395     1.0  0.56993  0.68797  0.52052  1.0000
  H   H2396     1.0  0.61160  0.67568  0.52707  1.0000
  H   H2397     1.0  0.59374  0.69078  0.54312  1.0000
  H   H2398     1.0  0.60887  0.66828  0.55351  1.0000
  H   H2399     1.0  0.54271  0.67756  0.54344  1.0000
  H   H2400     1.0  0.58937  0.65264  0.57994  1.0000
  H   H2401     1.0  0.51850  0.68009  0.57386  1.0000
  H   H2402     1.0  0.59460  0.57431  0.33578  1.0000
  H   H2403     1.0  0.51119  0.77762  0.63430  1.0000
  S   S542      1.0  0.49460  0.72565  0.35567  1.0000
  H   H2404     1.0  0.65095  0.84633  0.41993  1.0000
  C   C2024     1.0  0.65087  0.83041  0.42173  1.0000
  H   H2405     1.0  0.71280  0.54007  0.42512  1.0000
  C   C2025     1.0  0.59366  0.98076  0.38289  1.0000
  H   H2406     1.0  0.56280  0.65857  0.34650  1.0000
  H   H2407     1.0  0.56413  0.65621  0.61000  1.0000
  C   C2026     1.0  0.52977  0.77686  0.58258  1.0000
  C   C2027     1.0  0.71779  0.91583  0.39156  1.0000
  C   C2028     1.0  0.55691  0.96931  0.35587  1.0000
  H   H2408     1.0  0.70490  0.83955  0.42816  1.0000
  C   C2029     1.0  0.52799  0.79836  0.64046  1.0000
  H   H2409     1.0  0.53717  0.65810  0.34573  1.0000
  H   H2410     1.0  0.68223  0.84059  0.46147  1.0000
  H   H2411     1.0  0.70272  0.79598  0.43754  1.0000
  C   C2030     1.0  0.55906  0.93393  0.36981  1.0000
  N   N135      1.0  0.62095  0.92259  0.56815  1.0000
  C   C2031     1.0  0.62361  0.90981  0.58784  1.0000
  C   C2032     1.0  0.60856  0.94212  0.57178  1.0000
  C   C2033     1.0  0.60952  0.91252  0.55818  1.0000
  C   C2034     1.0  0.64070  0.92605  0.55624  1.0000
  C   C2035     1.0  0.65384  0.93456  0.56426  1.0000
  C   C2036     1.0  0.64729  0.92169  0.53641  1.0000
  C   C2037     1.0  0.67238  0.93837  0.55320  1.0000
  C   C2038     1.0  0.66589  0.92555  0.52549  1.0000
  C   C2039     1.0  0.67844  0.93376  0.53390  1.0000
  H   H2412     1.0  0.63007  0.91717  0.59739  1.0000
  H   H2413     1.0  0.60907  0.90635  0.59696  1.0000
  H   H2414     1.0  0.63365  0.89531  0.58585  1.0000
  H   H2415     1.0  0.61578  0.95026  0.57988  1.0000
  H   H2416     1.0  0.59364  0.94029  0.58101  1.0000
  H   H2417     1.0  0.60612  0.95224  0.55746  1.0000
  H   H2418     1.0  0.61800  0.89765  0.55504  1.0000
  H   H2419     1.0  0.59493  0.90987  0.56770  1.0000
  H   H2420     1.0  0.60586  0.92183  0.54379  1.0000
  H   H2421     1.0  0.64973  0.93874  0.57904  1.0000
  H   H2422     1.0  0.63829  0.91554  0.52883  1.0000
  H   H2423     1.0  0.68196  0.94519  0.55961  1.0000
  H   H2424     1.0  0.67047  0.92234  0.51029  1.0000
  H   H2425     1.0  0.69282  0.93670  0.52538  1.0000
  H   H2426     1.0  0.52956  0.69601  0.33997  1.0000
  C   C2040     1.0  0.71572  0.60078  0.40618  1.0000
  H   H2427     1.0  0.55833  0.67597  0.42847  1.0000
  H   H2428     1.0  0.71947  0.98041  0.54083  1.0000
  H   H2429     1.0  0.52776  0.96445  0.33856  1.0000
  H   H2430     1.0  0.69881  0.82678  0.41030  1.0000
  C   C2041     1.0  0.55532  0.67733  0.37900  1.0000
  H   H2431     1.0  0.59995  0.91350  0.39299  1.0000
  H   H2432     1.0  0.60618  0.98409  0.37127  1.0000
  C   C2042     1.0  0.54111  0.69502  0.34952  1.0000
  H   H2433     1.0  0.60400  0.68323  0.37682  1.0000
  H   H2434     1.0  0.50302  0.59328  0.34797  1.0000
  C   C2043     1.0  0.53995  0.58440  0.32377  1.0000
  H   H2435     1.0  0.69244  0.63597  0.41495  1.0000
  C   C2044     1.0  0.69525  0.58796  0.38787  1.0000
  H   H2436     1.0  0.49830  0.85367  0.62808  1.0000
  C   C2045     1.0  0.57894  0.93025  0.37393  1.0000
  S   S543      1.0  0.73258  0.55481  0.53619  1.0000
  C   C2046     1.0  0.57950  0.57716  0.33245  1.0000
  H   H2437     1.0  0.54885  0.97306  0.37068  1.0000
  C   C2047     1.0  0.54471  0.59297  0.33900  1.0000
  C   C2048     1.0  0.70508  0.60411  0.44131  1.0000
  H   H2438     1.0  0.48913  0.75444  0.39204  1.0000
  H   H2439     1.0  0.49143  0.77813  0.43513  1.0000
  H   H2440     1.0  0.71004  0.58765  0.44550  1.0000
  H   H2441     1.0  0.58157  0.94442  0.33320  1.0000
  H   H2442     1.0  0.70729  0.96695  0.47673  1.0000
  H   H2443     1.0  0.73249  0.55442  0.44368  1.0000
  C   C2049     1.0  0.71954  0.94553  0.36640  1.0000
  S   S544      1.0  0.54951  0.82427  0.64866  1.0000
  C   C2050     1.0  0.63253  0.98365  0.50411  1.0000
  H   H2444     1.0  0.70668  0.61148  0.45376  1.0000
  C   C2051     1.0  0.71242  0.57789  0.37737  1.0000
  S   S545      1.0  0.59105  0.90523  0.64178  1.0000
  C   C2052     1.0  0.49605  0.77159  0.42106  1.0000
  N   N136      1.0  0.51950  0.58774  0.31891  1.0000
  H   H2445     1.0  0.58235  0.96514  0.45643  1.0000
  H   H2446     1.0  0.56757  0.59580  0.35501  1.0000
  H   H2447     1.0  0.60695  0.96076  0.46286  1.0000
  C   C2053     1.0  0.73595  0.91722  0.44613  1.0000
  C   C2054     1.0  0.73767  0.61097  0.42535  1.0000
  H   H2448     1.0  0.67907  0.97983  0.50181  1.0000
  C   C2055     1.0  0.73422  0.97106  0.51221  1.0000
  H   H2449     1.0  0.56095  0.95637  0.32073  1.0000
  H   H2450     1.0  0.49682  0.57012  0.31934  1.0000
  H   H2451     1.0  0.48906  0.60216  0.32788  1.0000
  H   H2452     1.0  0.73809  0.61951  0.43730  1.0000
  H   H2453     1.0  0.61271  0.53648  0.97859  1.0000
  H   H2454     1.0  0.54441  0.55028  0.87469  1.0000
  H   H2455     1.0  0.63813  0.88997  0.90652  1.0000
  C   C2056     1.0  0.49947  0.85454  0.94691  1.0000
  C   C2057     1.0  0.63041  0.49538  0.83379  1.0000
  H   H2456     1.0  0.57083  0.52790  0.85678  1.0000
  C   C2058     1.0  0.72665  0.89580  0.93746  1.0000
  H   H2457     1.0  0.52984  0.69709  0.96223  1.0000
  Fe  Fe272     1.0  0.59001  0.90657  0.84697  1.0000
  S   S546      1.0  0.57794  0.88400  0.83497  1.0000
  S   S547      1.0  0.62312  0.90484  0.84700  1.0000
  Fe  Fe273     1.0  0.54882  0.93013  0.85854  1.0000
  S   S548      1.0  0.53321  0.90990  0.84769  1.0000
  S   S549      1.0  0.53312  0.95832  0.87041  1.0000
  Fe  Fe274     1.0  0.55416  0.88483  0.86259  1.0000
  S   S550      1.0  0.54476  0.85611  0.88120  1.0000
  Fe  Fe275     1.0  0.55785  0.91072  0.82098  1.0000
  S   S551      1.0  0.54696  0.91819  0.79100  1.0000
  S   S552      1.0  0.56792  0.90508  0.87574  1.0000
  S   S553      1.0  0.57185  0.93319  0.83064  1.0000
  S   S554      1.0  0.54409  0.89998  0.68603  1.0000
  S   S555      1.0  0.52571  0.85816  0.69035  1.0000
  H   H2458     1.0  0.51262  0.94419  0.80995  1.0000
  H   H2459     1.0  0.54560  0.59906  0.94189  1.0000
  Fe  Fe276     1.0  0.55084  0.86764  0.70031  1.0000
  S   S556      1.0  0.55779  0.85578  0.73171  1.0000
  S   S557      1.0  0.57319  0.85851  0.67387  1.0000
  Fe  Fe277     1.0  0.63302  0.51361  0.89638  1.0000
  H   H2460     1.0  0.51156  0.80719  0.72663  1.0000
  S   S558      1.0  0.63138  0.51654  0.86330  1.0000
  Fe  Fe278     1.0  0.61772  0.53356  0.93370  1.0000
  S   S559      1.0  0.63426  0.50839  0.95340  1.0000
  S   S560      1.0  0.59650  0.56074  0.94402  1.0000
  Fe  Fe279     1.0  0.66006  0.50954  0.92778  1.0000
  S   S561      1.0  0.69140  0.50197  0.93567  1.0000
  S   S562      1.0  0.50487  0.62318  0.95331  1.0000
  H   H2461     1.0  0.57678  0.49646  0.79807  1.0000
  S   S563      1.0  0.64436  0.53630  0.90889  1.0000
  S   S564      1.0  0.60517  0.51317  0.91954  1.0000
  C   C2059     1.0  0.55674  0.53264  0.85121  1.0000
  H   H2462     1.0  0.49771  0.88716  0.84007  1.0000
  H   H2463     1.0  0.53910  0.80087  0.74340  1.0000
  C   C2060     1.0  0.70111  0.54027  0.92601  1.0000
  C   C2061     1.0  0.70650  0.52016  0.93449  1.0000
  H   H2464     1.0  0.53257  0.98523  0.77203  1.0000
  C   C2062     1.0  0.50055  0.93946  0.65951  1.0000
  H   H2465     1.0  0.68708  0.54512  0.92039  1.0000
  C   C2063     1.0  0.73253  0.54781  0.93138  1.0000
  C   C2064     1.0  0.49955  0.79071  0.71054  1.0000
  C   C2065     1.0  0.59356  0.56407  0.96929  1.0000
  C   C2066     1.0  0.49791  0.98304  0.86464  1.0000
  H   H2466     1.0  0.71681  0.97281  0.98179  1.0000
  N   N137      1.0  0.52050  0.85144  0.95022  1.0000
  H   H2467     1.0  0.51376  0.48828  0.74011  1.0000
  C   C2067     1.0  0.51253  0.51706  0.77940  1.0000
  C   C2068     1.0  0.51933  0.85333  0.88571  1.0000
  C   C2069     1.0  0.51477  0.54195  0.91256  1.0000
  H   H2468     1.0  0.57952  0.78152  0.72620  1.0000
  C   C2070     1.0  0.67383  0.88867  0.96557  1.0000
  H   H2469     1.0  0.49770  0.63504  0.68419  1.0000
  C   C2071     1.0  0.50454  0.86921  0.87975  1.0000
  C   C2072     1.0  0.53116  0.83159  0.94545  1.0000
  C   C2073     1.0  0.49210  0.79955  0.65096  1.0000
  H   H2470     1.0  0.49118  0.64076  0.73123  1.0000
  H   H2471     1.0  0.50847  0.88364  0.87276  1.0000
  C   C2074     1.0  0.50753  0.96317  0.86914  1.0000
  H   H2472     1.0  0.55409  0.82070  0.68927  1.0000
  C   C2075     1.0  0.51747  0.95593  0.81596  1.0000
  C   C2076     1.0  0.51477  0.86427  0.79926  1.0000
  H   H2473     1.0  0.49075  0.77319  0.69220  1.0000
  S   S565      1.0  0.65363  0.98226  0.85804  1.0000
  C   C2077     1.0  0.64672  0.92637  0.90404  1.0000
  C   C2078     1.0  0.57532  0.49352  0.83749  1.0000
  H   H2474     1.0  0.53135  0.83067  0.92950  1.0000
  H   H2475     1.0  0.50424  0.93203  0.87490  1.0000
  C   C2079     1.0  0.55131  0.90096  0.77418  1.0000
  C   C2080     1.0  0.56309  0.88198  0.77779  1.0000
  C   C2081     1.0  0.56503  0.86822  0.76466  1.0000
  C   C2082     1.0  0.55560  0.87350  0.74764  1.0000
  C   C2083     1.0  0.54402  0.89254  0.74396  1.0000
  C   C2084     1.0  0.54184  0.90619  0.75722  1.0000
  H   H2476     1.0  0.57071  0.87791  0.79064  1.0000
  H   H2477     1.0  0.57409  0.85353  0.76753  1.0000
  H   H2478     1.0  0.53645  0.89659  0.73109  1.0000
  H   H2479     1.0  0.53262  0.92078  0.75441  1.0000
  C   C2085     1.0  0.64542  0.96109  0.85375  1.0000
  C   C2086     1.0  0.62480  0.96111  0.85570  1.0000
  C   C2087     1.0  0.61779  0.94406  0.85332  1.0000
  C   C2088     1.0  0.63139  0.92698  0.84871  1.0000
  C   C2089     1.0  0.65202  0.92717  0.84625  1.0000
  C   C2090     1.0  0.65903  0.94413  0.84885  1.0000
  C   C2091     1.0  0.73427  0.48846  0.88891  1.0000
  H   H2480     1.0  0.60186  0.94408  0.85526  1.0000
  H   H2481     1.0  0.66261  0.91407  0.84245  1.0000
  H   H2482     1.0  0.67495  0.94412  0.84702  1.0000
  C   C2092     1.0  0.55172  0.50311  0.76127  1.0000
  C   C2093     1.0  0.54212  0.52259  0.75469  1.0000
  C   C2094     1.0  0.52246  0.52954  0.76366  1.0000
  H   H2483     1.0  0.50528  0.55075  0.83345  1.0000
  C   C2095     1.0  0.53069  0.97130  0.78300  1.0000
  H   H2484     1.0  0.63278  0.92463  0.91509  1.0000
  H   H2485     1.0  0.54998  0.53240  0.74279  1.0000
  H   H2486     1.0  0.50087  0.54067  0.90822  1.0000
  Fe  Fe280     1.0  0.52086  0.88964  0.67371  1.0000
  H   H2487     1.0  0.53080  0.52865  0.81503  1.0000
  H   H2488     1.0  0.53852  0.98308  0.81593  1.0000
  H   H2489     1.0  0.51226  0.86626  0.97606  1.0000
  C   C2096     1.0  0.73074  0.92521  0.95822  1.0000
  H   H2490     1.0  0.54006  0.87884  0.81653  1.0000
  C   C2097     1.0  0.52276  0.77083  0.68814  1.0000
  C   C2098     1.0  0.48964  0.63526  0.77284  1.0000
  H   H2491     1.0  0.63403  0.50865  0.82339  1.0000
  S   S566      1.0  0.65092  0.48715  0.91318  1.0000
  C   C2099     1.0  0.51384  0.83484  0.89543  1.0000
  H   H2492     1.0  0.60001  0.51259  0.80716  1.0000
  C   C2100     1.0  0.52321  0.55197  0.85521  1.0000
  C   C2101     1.0  0.51593  0.96195  0.72157  1.0000
  H   H2493     1.0  0.51514  0.54462  0.75862  1.0000
  H   H2494     1.0  0.70674  0.50795  0.88332  1.0000
  H   H2495     1.0  0.72369  0.94896  0.81034  1.0000
  C   C2102     1.0  0.53467  0.53293  0.82786  1.0000
  H   H2496     1.0  0.54779  0.86404  0.94035  1.0000
  C   C2103     1.0  0.51550  0.79687  0.71604  1.0000
  H   H2497     1.0  0.56072  0.81253  0.73345  1.0000
  H   H2498     1.0  0.52423  0.84983  0.79590  1.0000
  N   N138      1.0  0.51308  0.86604  0.82062  1.0000
  C   C2104     1.0  0.50134  0.88607  0.82381  1.0000
  C   C2105     1.0  0.49633  0.98369  0.79711  1.0000
  H   H2499     1.0  0.51571  0.93177  0.66029  1.0000
  C   C2106     1.0  0.54627  0.52653  0.92328  1.0000
  H   H2500     1.0  0.68571  0.91609  0.96062  1.0000
  C   C2107     1.0  0.73757  0.52788  0.94045  1.0000
  C   C2108     1.0  0.72826  0.89074  0.95795  1.0000
  C   C2109     1.0  0.68023  0.91090  0.89124  1.0000
  C   C2110     1.0  0.71420  0.55401  0.92429  1.0000
  C   C2111     1.0  0.53353  0.86542  0.82475  1.0000
  H   H2501     1.0  0.50968  0.89850  0.81602  1.0000
  C   C2112     1.0  0.49366  0.83229  0.89934  1.0000
  C   C2113     1.0  0.65292  0.89259  0.89751  1.0000
  H   H2502     1.0  0.55141  0.49831  0.81063  1.0000
  H   H2503     1.0  0.52968  0.83028  0.84376  1.0000
  C   C2114     1.0  0.53881  0.77698  0.69340  1.0000
  H   H2504     1.0  0.52168  0.87662  0.78904  1.0000
  H   H2505     1.0  0.72822  0.87543  0.96557  1.0000
  C   C2115     1.0  0.50318  0.77763  0.69673  1.0000
  H   H2506     1.0  0.67861  0.91327  0.87519  1.0000
  H   H2507     1.0  0.52418  0.81897  0.95494  1.0000
  H   H2508     1.0  0.55873  0.76803  0.73372  1.0000
  H   H2509     1.0  0.53860  0.72477  0.97374  1.0000
  H   H2510     1.0  0.53036  0.93287  0.71466  1.0000
  C   C2116     1.0  0.56413  0.80726  0.69560  1.0000
  C   C2117     1.0  0.54170  0.54546  0.86158  1.0000
  C   C2118     1.0  0.52201  0.49752  0.78575  1.0000
  Fe  Fe281     1.0  0.71715  0.95408  0.88832  1.0000
  H   H2511     1.0  0.56412  0.54598  0.92883  1.0000
  H   H2512     1.0  0.53805  0.82320  0.72431  1.0000
  N   N139      1.0  0.56990  0.51231  0.82343  1.0000
  H   H2513     1.0  0.52726  0.54629  0.97565  1.0000
  H   H2514     1.0  0.51399  0.62462  0.74953  1.0000
  N   N140      1.0  0.55306  0.79581  0.71343  1.0000
  H   H2515     1.0  0.49988  0.88155  0.92363  1.0000
  S   S567      1.0  0.68640  0.97019  0.89860  1.0000
  C   C2119     1.0  0.55371  0.52597  0.83401  1.0000
  Fe  Fe282     1.0  0.54730  0.85195  0.66255  1.0000
  C   C2120     1.0  0.49136  0.81624  0.66005  1.0000
  C   C2121     1.0  0.53572  0.78995  0.70776  1.0000
  H   H2516     1.0  0.66339  0.87803  0.89743  1.0000
  H   H2517     1.0  0.65285  0.93898  0.90709  1.0000
  H   H2518     1.0  0.54429  0.85228  0.81987  1.0000
  S   S568      1.0  0.73266  0.98027  0.88733  1.0000
  H   H2519     1.0  0.54700  0.82868  0.94791  1.0000
  C   C2122     1.0  0.52083  0.85191  0.97158  1.0000
  S   S569      1.0  0.48998  0.73126  0.65176  1.0000
  H   H2520     1.0  0.54596  0.96406  0.78614  1.0000
  S   S570      1.0  0.71433  0.96067  0.85548  1.0000
  S   S571      1.0  0.57681  0.49517  0.75099  1.0000
  C   C2123     1.0  0.56680  0.77760  0.72093  1.0000
  H   H2521     1.0  0.52543  0.76116  0.67690  1.0000
  H   H2522     1.0  0.72682  0.61683  0.95487  1.0000
  H   H2523     1.0  0.61417  0.97421  0.85940  1.0000
  H   H2524     1.0  0.59436  0.52511  0.82835  1.0000
  H   H2525     1.0  0.51226  0.80402  0.86395  1.0000
  H   H2526     1.0  0.58292  0.49594  0.84939  1.0000
  N   N141      1.0  0.51668  0.97518  0.80169  1.0000
  C   C2124     1.0  0.56429  0.50657  0.80592  1.0000
  C   C2125     1.0  0.58782  0.52214  0.81595  1.0000
  H   H2527     1.0  0.57691  0.81263  0.69930  1.0000
  H   H2528     1.0  0.53022  0.61499  0.91300  1.0000
  C   C2126     1.0  0.62873  0.49496  0.85452  1.0000
  H   H2529     1.0  0.52545  0.96086  0.77553  1.0000
  H   H2530     1.0  0.73267  0.93658  0.96609  1.0000
  H   H2531     1.0  0.73374  0.65100  0.93601  1.0000
  H   H2532     1.0  0.57362  0.76824  0.70912  1.0000
  H   H2533     1.0  0.66148  0.86236  0.96618  1.0000
  H   H2534     1.0  0.56185  0.48674  0.84499  1.0000
  H   H2535     1.0  0.53332  0.86504  0.84101  1.0000
  N   N142      1.0  0.66132  0.90736  0.90502  1.0000
  H   H2536     1.0  0.57027  0.79837  0.68328  1.0000
  C   C2127     1.0  0.72943  0.52454  0.88499  1.0000
  H   H2537     1.0  0.68548  0.92447  0.89323  1.0000
  C   C2128     1.0  0.66535  0.90072  0.92585  1.0000
  C   C2129     1.0  0.67427  0.91281  0.93476  1.0000
  C   C2130     1.0  0.66062  0.88239  0.93783  1.0000
  C   C2131     1.0  0.67836  0.90685  0.95435  1.0000
  C   C2132     1.0  0.66490  0.87653  0.95737  1.0000
  H   H2538     1.0  0.50801  0.95788  0.83066  1.0000
  C   C2133     1.0  0.50292  0.62871  0.97736  1.0000
  C   C2134     1.0  0.51973  0.54574  0.83837  1.0000
  H   H2539     1.0  0.67748  0.88383  0.98056  1.0000
  C   C2135     1.0  0.52857  0.52479  0.91754  1.0000
  H   H2540     1.0  0.52523  0.82234  0.89974  1.0000
  C   C2136     1.0  0.54735  0.80857  0.72937  1.0000
  C   C2137     1.0  0.72475  0.51405  0.94174  1.0000
  H   H2541     1.0  0.53240  0.59969  0.77216  1.0000
  H   H2542     1.0  0.51646  0.78112  0.96953  1.0000
  H   H2543     1.0  0.67861  0.92677  0.92646  1.0000
  H   H2544     1.0  0.65380  0.87218  0.93244  1.0000
  H   H2545     1.0  0.52886  0.96462  0.72669  1.0000
  H   H2546     1.0  0.52527  0.88219  0.94086  1.0000
  Fe  Fe283     1.0  0.68451  0.97867  0.86594  1.0000
  N   N143      1.0  0.54136  0.58313  0.91950  1.0000
  C   C2138     1.0  0.52634  0.60028  0.91218  1.0000
  C   C2139     1.0  0.54220  0.58430  0.94056  1.0000
  C   C2140     1.0  0.56108  0.58581  0.90695  1.0000
  C   C2141     1.0  0.53671  0.56328  0.91871  1.0000
  C   C2142     1.0  0.55028  0.54544  0.92400  1.0000
  C   C2143     1.0  0.51869  0.56094  0.91311  1.0000
  H   H2547     1.0  0.49989  0.86487  0.79512  1.0000
  H   H2548     1.0  0.64230  0.93126  0.88894  1.0000
  H   H2549     1.0  0.65018  0.89796  0.88176  1.0000
  H   H2550     1.0  0.51126  0.59991  0.92158  1.0000
  H   H2551     1.0  0.69258  0.89798  0.89373  1.0000
  H   H2552     1.0  0.52505  0.60048  0.89630  1.0000
  H   H2553     1.0  0.52761  0.58248  0.95047  1.0000
  H   H2554     1.0  0.53290  0.94985  0.81906  1.0000
  H   H2555     1.0  0.55396  0.57263  0.94685  1.0000
  H   H2556     1.0  0.56141  0.58410  0.89117  1.0000
  H   H2557     1.0  0.56472  0.60087  0.90680  1.0000
  H   H2558     1.0  0.57367  0.57483  0.91260  1.0000
  H   H2559     1.0  0.58412  0.53673  0.80598  1.0000
  H   H2560     1.0  0.50727  0.57351  0.90912  1.0000
  S   S572      1.0  0.72474  0.92144  0.90176  1.0000
  H   H2561     1.0  0.51982  0.59407  0.80875  1.0000
  H   H2562     1.0  0.50104  0.92638  0.70303  1.0000
  Fe  Fe284     1.0  0.56481  0.89034  0.65870  1.0000
  H   H2563     1.0  0.51150  0.56180  0.86338  1.0000
  H   H2564     1.0  0.72903  0.49855  0.94832  1.0000
  H   H2565     1.0  0.71015  0.56943  0.91731  1.0000
  C   C2144     1.0  0.50429  0.78706  0.98041  1.0000
  C   C2145     1.0  0.58113  0.58124  0.97565  1.0000
  C   C2146     1.0  0.53203  0.86686  0.93766  1.0000
  C   C2147     1.0  0.73409  0.95170  0.77844  1.0000
  H   H2566     1.0  0.52549  0.51010  0.91704  1.0000
  C   C2148     1.0  0.54144  0.49049  0.77653  1.0000
  C   C2149     1.0  0.50306  0.84966  0.83334  1.0000
  C   C2150     1.0  0.73557  0.95272  0.79807  1.0000
  C   C2151     1.0  0.52966  0.69637  0.97814  1.0000
  H   H2567     1.0  0.57369  0.59246  0.96497  1.0000
  C   C2152     1.0  0.72853  0.93038  0.93790  1.0000
  H   H2568     1.0  0.55698  0.51316  0.92729  1.0000
  H   H2569     1.0  0.71972  0.53897  0.88261  1.0000
  C   C2153     1.0  0.49709  0.94736  0.87081  1.0000
  C   C2154     1.0  0.51377  0.83223  0.84387  1.0000
  H   H2570     1.0  0.56048  0.51991  0.79437  1.0000
  C   C2155     1.0  0.73057  0.90540  0.96829  1.0000
  H   H2571     1.0  0.53640  0.85021  0.97455  1.0000
  H   H2572     1.0  0.55366  0.77177  0.68583  1.0000
  H   H2573     1.0  0.53296  0.86680  0.92133  1.0000
  C   C2156     1.0  0.72674  0.91562  0.92742  1.0000
  C   C2157     1.0  0.51167  0.60563  0.79885  1.0000
  C   C2158     1.0  0.51680  0.94400  0.71485  1.0000
  H   H2574     1.0  0.72099  0.94706  0.77556  1.0000
  C   C2159     1.0  0.50794  0.62339  0.76535  1.0000
  C   C2160     1.0  0.50395  0.81686  0.85552  1.0000
  C   C2161     1.0  0.51873  0.60885  0.77826  1.0000
  C   C2162     1.0  0.72208  0.50707  0.88536  1.0000
  C   C2163     1.0  0.50029  0.94041  0.70825  1.0000
  H   H2575     1.0  0.51434  0.48775  0.79783  1.0000
  H   H2576     1.0  0.50824  0.83646  0.66684  1.0000
  H   H2577     1.0  0.53167  0.61109  0.98183  1.0000
  C   C2164     1.0  0.49382  0.61696  0.80665  1.0000
  Fe  Fe285     1.0  0.62384  0.48823  0.93728  1.0000
  C   C2165     1.0  0.50891  0.82383  0.65954  1.0000
  H   H2578     1.0  0.49290  0.72420  0.96825  1.0000
  C   C2166     1.0  0.49120  0.87075  0.93304  1.0000
  C   C2167     1.0  0.49856  0.97645  0.72157  1.0000
  H   H2579     1.0  0.72525  0.88434  0.92941  1.0000
  H   H2580     1.0  0.49168  0.82849  0.96868  1.0000
  H   H2581     1.0  0.50185  0.66007  0.73759  1.0000
  H   H2582     1.0  0.72871  0.94567  0.93022  1.0000
  C   C2168     1.0  0.49677  0.96036  0.65354  1.0000
  H   H2583     1.0  0.48955  0.81801  0.90684  1.0000
  H   H2584     1.0  0.51427  0.83943  0.98195  1.0000
  C   C2169     1.0  0.52727  0.81497  0.64967  1.0000
  H   H2585     1.0  0.50904  0.96874  0.64979  1.0000
  Fe  Fe286     1.0  0.80339  0.22803  0.01489  1.0000
  S   S573      1.0  0.80076  0.25961  0.99767  1.0000
  S   S574      1.0  0.77712  0.21064  0.02020  1.0000
  Fe  Fe287     1.0  0.84468  0.23023  0.02403  1.0000
  S   S575      1.0  0.84513  0.26154  0.00702  1.0000
  S   S576      1.0  0.87248  0.21405  0.03662  1.0000
  Fe  Fe288     1.0  0.81320  0.26770  0.02231  1.0000
  S   S577      1.0  0.79940  0.29698  0.03396  1.0000
  C   C2170     1.0  0.77138  0.10422  0.01279  1.0000
  S   S578      1.0  0.81330  0.23686  0.04091  1.0000
  S   S579      1.0  0.83497  0.21864  0.99977  1.0000
  S   S580      1.0  0.94037  0.24080  0.13524  1.0000
  H   H2586     1.0  0.83076  0.00315  0.29396  1.0000
  Fe  Fe289     1.0  0.93333  0.24762  0.10389  1.0000
  S   S581      1.0  0.90085  0.25266  0.10008  1.0000
  C   C2171     1.0  0.87019  0.03223  0.31123  1.0000
  Fe  Fe290     1.0  0.94224  0.11767  0.23759  1.0000
  N   N144      1.0  0.74335  0.32525  0.01791  1.0000
  S   S582      1.0  0.92831  0.14517  0.21769  1.0000
  Fe  Fe291     1.0  0.93368  0.07916  0.26578  1.0000
  S   S583      1.0  0.96245  0.07459  0.27770  1.0000
  S   S584      1.0  0.91606  0.05418  0.27966  1.0000
  Fe  Fe292     1.0  0.95582  0.10751  0.27827  1.0000
  S   S585      1.0  0.96260  0.12109  0.30282  1.0000
  H   H2587     1.0  0.98615  0.42943  0.17843  1.0000
  H   H2588     1.0  0.95022  0.45088  0.13056  1.0000
  S   S586      1.0  0.92565  0.11165  0.26933  1.0000
  S   S587      1.0  0.94758  0.08533  0.23330  1.0000
  H   H2589     1.0  0.97038  0.44144  0.26520  1.0000
  Fe  Fe293     1.0  0.83658  0.37439  0.07815  1.0000
  S   S588      1.0  0.81890  0.38597  0.10589  1.0000
  S   S589      1.0  0.84745  0.34116  0.07710  1.0000
  Fe  Fe294     1.0  0.83674  0.41655  0.05453  1.0000
  S   S590      1.0  0.81835  0.43144  0.08001  1.0000
  S   S591      1.0  0.84947  0.43383  0.02512  1.0000
  Fe  Fe295     1.0  0.83865  0.40987  0.09904  1.0000
  S   S592      1.0  0.85468  0.41782  0.12184  1.0000
  Fe  Fe296     1.0  0.80023  0.40653  0.08431  1.0000
  S   S593      1.0  0.76624  0.41179  0.09192  1.0000
  S   S594      1.0  0.85808  0.39618  0.07325  1.0000
  S   S595      1.0  0.81701  0.39381  0.05705  1.0000
  H   H2590     1.0  0.80842  0.44819  0.04121  1.0000
  C   C2172     1.0  0.76144  0.38957  0.06417  1.0000
  H   H2591     1.0  0.96706  0.05050  0.20787  1.0000
  H   H2592     1.0  0.79185  0.08982  0.98989  1.0000
  H   H2593     1.0  0.77753  0.38556  0.06132  1.0000
  C   C2173     1.0  0.83278  0.45555  0.01770  1.0000
  C   C2174     1.0  0.74978  0.38169  0.05404  1.0000
  C   C2175     1.0  0.75220  0.32741  0.03506  1.0000
  C   C2176     1.0  0.87677  0.45925  0.14249  1.0000
  C   C2177     1.0  0.87329  0.44116  0.13813  1.0000
  C   C2178     1.0  0.85884  0.44120  0.12631  1.0000
  C   C2179     1.0  0.84786  0.45963  0.11889  1.0000
  H   H2594     1.0  0.88793  0.45893  0.15158  1.0000
  H   H2595     1.0  0.88182  0.42704  0.14406  1.0000
  H   H2596     1.0  0.83663  0.45997  0.10991  1.0000
  C   C2180     1.0  0.88492  0.48164  0.08080  1.0000
  C   C2181     1.0  0.95665  0.47499  0.14261  1.0000
  Fe  Fe297     1.0  0.83295  0.25064  0.98416  1.0000
  C   C2182     1.0  0.95488  0.22720  0.98733  1.0000
  H   H2597     1.0  0.89947  0.39936  0.10163  1.0000
  Fe  Fe298     1.0  0.96007  0.26445  0.12479  1.0000
  C   C2183     1.0  0.75514  0.00252  0.22752  1.0000
  H   H2598     1.0  0.88247  0.38047  0.14316  1.0000
  C   C2184     1.0  0.96162  0.45685  0.13512  1.0000
  H   H2599     1.0  0.74016  0.13582  0.01070  1.0000
  C   C2185     1.0  0.88267  0.02673  0.24407  1.0000
  C   C2186     1.0  0.89070  0.01535  0.26066  1.0000
  C   C2187     1.0  0.90165  0.02374  0.27087  1.0000
  C   C2188     1.0  0.90482  0.04359  0.26454  1.0000
  C   C2189     1.0  0.89786  0.05476  0.24727  1.0000
  C   C2190     1.0  0.88669  0.04635  0.23710  1.0000
  H   H2600     1.0  0.94570  0.40762  0.21572  1.0000
  H   H2601     1.0  0.90731  0.01491  0.28402  1.0000
  H   H2602     1.0  0.90029  0.07013  0.24228  1.0000
  H   H2603     1.0  0.88061  0.05526  0.22419  1.0000
  C   C2191     1.0  0.86959  0.18718  0.08824  1.0000
  C   C2192     1.0  0.94497  0.18617  0.16927  1.0000
  C   C2193     1.0  0.93425  0.17623  0.18668  1.0000
  C   C2194     1.0  0.94218  0.15690  0.19566  1.0000
  C   C2195     1.0  0.96090  0.14751  0.18707  1.0000
  C   C2196     1.0  0.97140  0.15726  0.16936  1.0000
  H   H2604     1.0  0.93890  0.20123  0.16283  1.0000
  H   H2605     1.0  0.91983  0.18364  0.19334  1.0000
  H   H2606     1.0  0.93061  0.18333  0.22775  1.0000
  H   H2607     1.0  0.77386  0.34970  0.09646  1.0000
  C   C2197     1.0  0.88076  0.22624  0.05288  1.0000
  C   C2198     1.0  0.90063  0.22086  0.05635  1.0000
  C   C2199     1.0  0.90715  0.22928  0.07037  1.0000
  C   C2200     1.0  0.89373  0.24293  0.08122  1.0000
  C   C2201     1.0  0.87396  0.24855  0.07751  1.0000
  C   C2202     1.0  0.86753  0.24036  0.06327  1.0000
  H   H2608     1.0  0.91092  0.20998  0.04831  1.0000
  H   H2609     1.0  0.92245  0.22496  0.07295  1.0000
  H   H2610     1.0  0.86352  0.25920  0.08574  1.0000
  H   H2611     1.0  0.85219  0.24460  0.06071  1.0000
  C   C2203     1.0  0.81323  0.30888  0.04587  1.0000
  C   C2204     1.0  0.80508  0.32811  0.05055  1.0000
  C   C2205     1.0  0.81546  0.33803  0.06005  1.0000
  C   C2206     1.0  0.83417  0.32886  0.06506  1.0000
  C   C2207     1.0  0.84230  0.30953  0.06061  1.0000
  C   C2208     1.0  0.83194  0.29961  0.05096  1.0000
  H   H2612     1.0  0.79076  0.33556  0.04674  1.0000
  H   H2613     1.0  0.80888  0.35275  0.06359  1.0000
  H   H2614     1.0  0.85672  0.30221  0.06452  1.0000
  H   H2615     1.0  0.83839  0.28477  0.04756  1.0000
  S   S596      1.0  0.76889  0.99157  0.15406  1.0000
  C   C2209     1.0  0.75164  0.18899  0.01102  1.0000
  C   C2210     1.0  0.77040  0.19540  0.00532  1.0000
  H   H2616     1.0  0.78797  0.41524  0.15089  1.0000
  H   H2617     1.0  0.85388  0.46686  0.99252  1.0000
  C   C2211     1.0  0.75550  0.08189  0.04047  1.0000
  C   C2212     1.0  0.85119  0.47768  0.12342  1.0000
  H   H2618     1.0  0.76745  0.47162  0.11623  1.0000
  H   H2619     1.0  0.94990  0.25187  0.19499  1.0000
  C   C2213     1.0  0.83916  0.46989  0.00143  1.0000
  C   C2214     1.0  0.93715  0.45679  0.22364  1.0000
  C   C2215     1.0  0.75818  0.34823  0.09881  1.0000
  H   H2620     1.0  0.86115  0.37536  0.12050  1.0000
  H   H2621     1.0  0.79759  0.19410  0.98373  1.0000
  C   C2216     1.0  0.76629  0.06540  0.03182  1.0000
  C   C2217     1.0  0.94363  0.45978  0.25609  1.0000
  H   H2622     1.0  0.75903  0.45877  0.17333  1.0000
  H   H2623     1.0  0.75713  0.37192  0.04332  1.0000
  H   H2624     1.0  0.87041  0.46600  0.02621  1.0000
  C   C2218     1.0  0.97957  0.20934  0.18216  1.0000
  H   H2625     1.0  0.95285  0.43328  0.17360  1.0000
  H   H2626     1.0  0.83166  0.05548  0.27372  1.0000
  H   H2627     1.0  0.98014  0.42588  0.23504  1.0000
  C   C2219     1.0  0.75185  0.33745  0.08691  1.0000
  H   H2628     1.0  0.96126  0.03146  0.19653  1.0000
  C   C2220     1.0  0.90725  0.29322  0.12751  1.0000
  C   C2221     1.0  0.81929  0.03556  0.31068  1.0000
  S   S597      1.0  0.95859  0.22487  0.09192  1.0000
  N   N145      1.0  0.95709  0.18885  0.23611  1.0000
  N   N146      1.0  0.89285  0.30926  0.11762  1.0000
  C   C2222     1.0  0.87331  0.30206  0.12172  1.0000
  C   C2223     1.0  0.90009  0.31189  0.09565  1.0000
  N   N147      1.0  0.77736  0.44522  0.13676  1.0000
  H   H2629     1.0  0.74926  0.30542  0.99610  1.0000
  H   H2630     1.0  0.86234  0.31173  0.11255  1.0000
  H   H2631     1.0  0.87496  0.28681  0.11779  1.0000
  H   H2632     1.0  0.96348  0.31708  0.16617  1.0000
  H   H2633     1.0  0.90219  0.29747  0.08986  1.0000
  H   H2634     1.0  0.91470  0.31735  0.09173  1.0000
  H   H2635     1.0  0.90815  0.27859  0.12268  1.0000
  C   C2224     1.0  0.90296  0.33228  0.13727  1.0000
  H   H2636     1.0  0.93935  0.46649  0.26962  1.0000
  H   H2637     1.0  0.86708  0.44842  0.08012  1.0000
  H   H2638     1.0  0.74241  0.02372  0.17154  1.0000
  C   C2225     1.0  0.76009  0.13315  0.04134  1.0000
  H   H2639     1.0  0.74275  0.33931  0.04320  1.0000
  C   C2226     1.0  0.97116  0.48211  0.14952  1.0000
  H   H2640     1.0  0.88928  0.32277  0.08710  1.0000
  C   C2227     1.0  0.96658  0.43693  0.23620  1.0000
  H   H2641     1.0  0.93481  0.19948  0.12950  1.0000
  H   H2642     1.0  0.85725  0.19003  0.07992  1.0000
  H   H2643     1.0  0.94144  0.48307  0.14370  1.0000
  C   C2228     1.0  0.91505  0.39331  0.10272  1.0000
  H   H2644     1.0  0.78299  0.47088  0.14699  1.0000
  C   C2229     1.0  0.89051  0.32870  0.12463  1.0000
  C   C2230     1.0  0.97719  0.31346  0.15586  1.0000
  C   C2231     1.0  0.74592  0.00621  0.21057  1.0000
  H   H2645     1.0  0.85207  0.01055  0.27682  1.0000
  H   H2646     1.0  0.74513  0.07849  0.05416  1.0000
  H   H2647     1.0  0.95520  0.40605  0.11514  1.0000
  H   H2648     1.0  0.96561  0.40292  0.19497  1.0000
  C   C2232     1.0  0.95951  0.03708  0.21095  1.0000
  S   S598      1.0  0.95062  0.27311  0.09456  1.0000
  N   N148      1.0  0.83885  0.03093  0.29760  1.0000
  H   H2649     1.0  0.93877  0.23059  0.99188  1.0000
  H   H2650     1.0  0.96884  0.01725  0.25810  1.0000
  H   H2651     1.0  0.83853  0.46527  0.05317  1.0000
  C   C2233     1.0  0.95931  0.00264  0.22858  1.0000
  C   C2234     1.0  0.78315  0.18932  0.98831  1.0000
  S   S599      1.0  0.86647  0.01738  0.23282  1.0000
  H   H2652     1.0  0.79184  0.45830  0.10762  1.0000
  C   C2235     1.0  0.98106  0.44592  0.13463  1.0000
  H   H2653     1.0  0.74707  0.43078  0.12659  1.0000
  H   H2654     1.0  0.77195  0.12480  0.05012  1.0000
  C   C2236     1.0  0.74566  0.17675  0.99990  1.0000
  C   C2237     1.0  0.87418  0.47710  0.03399  1.0000
  H   H2655     1.0  0.91508  0.32106  0.14233  1.0000
  H   H2656     1.0  0.90955  0.35312  0.15359  1.0000
  C   C2238     1.0  0.87279  0.36329  0.12525  1.0000
  C   C2239     1.0  0.93828  0.00359  0.23083  1.0000
  H   H2657     1.0  0.76003  0.34648  0.99734  1.0000
  C   C2240     1.0  0.74968  0.45240  0.16635  1.0000
  H   H2658     1.0  0.76734  0.33157  0.02989  1.0000
  C   C2241     1.0  0.84396  0.47697  0.05863  1.0000
  C   C2242     1.0  0.81368  0.45942  0.02905  1.0000
  H   H2659     1.0  0.94625  0.03212  0.25082  1.0000
  H   H2660     1.0  0.96956  0.35858  0.13966  1.0000
  Fe  Fe299     1.0  0.97603  0.08265  0.24548  1.0000
  H   H2661     1.0  0.85239  0.20148  0.11261  1.0000
  H   H2662     1.0  0.88970  0.44843  0.06144  1.0000
  C   C2243     1.0  0.89999  0.35074  0.14389  1.0000
  H   H2663     1.0  0.82743  0.02314  0.27355  1.0000
  H   H2664     1.0  0.76265  0.33032  0.07564  1.0000
  C   C2244     1.0  0.75785  0.10188  0.03125  1.0000
  C   C2245     1.0  0.96271  0.02856  0.24594  1.0000
  C   C2246     1.0  0.86564  0.47768  0.13526  1.0000
  C   C2247     1.0  0.96805  0.16796  0.23623  1.0000
  H   H2665     1.0  0.94713  0.45695  0.18210  1.0000
  C   C2248     1.0  0.83718  0.01636  0.28504  1.0000
  C   C2249     1.0  0.95269  0.22301  0.21449  1.0000
  C   C2250     1.0  0.94757  0.44051  0.18724  1.0000
  H   H2666     1.0  0.94337  0.04292  0.21559  1.0000
  H   H2667     1.0  0.94212  0.22900  0.22654  1.0000
  H   H2668     1.0  0.88818  0.00020  0.26601  1.0000
  H   H2669     1.0  0.74155  0.19378  0.02399  1.0000
  H   H2670     1.0  0.93202  0.43763  0.19314  1.0000
  N   N149      1.0  0.74633  0.11976  0.03967  1.0000
  H   H2671     1.0  0.79170  0.44674  0.16142  1.0000
  C   C2251     1.0  0.74422  0.00743  0.24567  1.0000
  C   C2252     1.0  0.88833  0.17760  0.08016  1.0000
  C   C2253     1.0  0.96180  0.20246  0.21684  1.0000
  C   C2254     1.0  0.93535  0.18792  0.24043  1.0000
  C   C2255     1.0  0.77944  0.06825  0.01373  1.0000
  N   N150      1.0  0.97696  0.36938  0.10805  1.0000
  S   S600      1.0  0.97201  0.11552  0.24683  1.0000
  H   H2672     1.0  0.85777  0.04725  0.27392  1.0000
  C   C2256     1.0  0.95484  0.44229  0.22062  1.0000
  H   H2673     1.0  0.87208  0.04676  0.30237  1.0000
  C   C2257     1.0  0.75669  0.44488  0.14794  1.0000
  H   H2674     1.0  0.96717  0.13263  0.19391  1.0000
  H   H2675     1.0  0.96145  0.23712  0.01259  1.0000
  C   C2258     1.0  0.94676  0.39674  0.11037  1.0000
  C   C2259     1.0  0.92671  0.40452  0.10883  1.0000
  C   C2260     1.0  0.96107  0.44567  0.25358  1.0000
  C   C2261     1.0  0.84298  0.04974  0.28384  1.0000
  Fe  Fe300     1.0  0.85912  0.98622  0.24533  1.0000
  S   S601      1.0  0.95734  0.28807  0.14431  1.0000
  Fe  Fe301     1.0  0.96698  0.21979  0.12272  1.0000
  H   H2676     1.0  0.90283  0.29074  0.14414  1.0000
  H   H2677     1.0  0.89033  0.17311  0.06557  1.0000
  H   H2678     1.0  0.92273  0.29669  0.12360  1.0000
  C   C2262     1.0  0.77664  0.45639  0.11604  1.0000
  H   H2679     1.0  0.78740  0.05541  0.00689  1.0000
  N   N151      1.0  0.91958  0.17982  0.11945  1.0000
  C   C2263     1.0  0.91654  0.16562  0.13860  1.0000
  C   C2264     1.0  0.93932  0.17241  0.10780  1.0000
  C   C2265     1.0  0.92071  0.19969  0.12398  1.0000
  C   C2266     1.0  0.90255  0.18175  0.10873  1.0000
  C   C2267     1.0  0.90465  0.17487  0.09016  1.0000
  C   C2268     1.0  0.88308  0.19089  0.11683  1.0000
  C   C2269     1.0  0.97844  0.29928  0.14340  1.0000
  C   C2270     1.0  0.86694  0.19373  0.10658  1.0000
  H   H2680     1.0  0.79932  0.00041  0.17206  1.0000
  H   H2681     1.0  0.91509  0.15063  0.13588  1.0000
  H   H2682     1.0  0.92932  0.16339  0.14689  1.0000
  H   H2683     1.0  0.90280  0.17100  0.14890  1.0000
  H   H2684     1.0  0.95188  0.17175  0.11601  1.0000
  H   H2685     1.0  0.94249  0.18255  0.09319  1.0000
  H   H2686     1.0  0.94021  0.15689  0.10502  1.0000
  H   H2687     1.0  0.90831  0.20485  0.13574  1.0000
  H   H2688     1.0  0.92016  0.41932  0.11243  1.0000
  H   H2689     1.0  0.92014  0.21139  0.11032  1.0000
  H   H2690     1.0  0.91881  0.16781  0.08273  1.0000
  H   H2691     1.0  0.88028  0.19633  0.13094  1.0000
  H   H2692     1.0  0.80366  0.42394  0.12795  1.0000
  H   H2693     1.0  0.84282  0.06202  0.29220  1.0000
  C   C2271     1.0  0.78780  0.42436  0.13562  1.0000
  C   C2272     1.0  0.95699  0.23622  0.19653  1.0000
  H   H2694     1.0  0.75201  0.14610  0.04878  1.0000
  H   H2695     1.0  0.86646  0.30133  0.13783  1.0000
  N   N152      1.0  0.96093  0.43264  0.20246  1.0000
  H   H2696     1.0  0.77139  0.31168  0.00182  1.0000
  C   C2273     1.0  0.96085  0.41074  0.20825  1.0000
  H   H2697     1.0  0.75840  0.29425  0.01917  1.0000
  C   C2274     1.0  0.88481  0.36615  0.13804  1.0000
  H   H2698     1.0  0.89078  0.47578  0.03123  1.0000
  Fe  Fe302     1.0  0.97662  0.24981  0.08497  1.0000
  H   H2699     1.0  0.86788  0.44193  0.05616  1.0000
  C   C2275     1.0  0.75601  0.30846  0.00831  1.0000
  H   H2700     1.0  0.91802  0.47623  0.24320  1.0000
  C   C2276     1.0  0.75222  0.40224  0.07811  1.0000
  H   H2701     1.0  0.94879  0.35129  0.09641  1.0000
  H   H2702     1.0  0.75415  0.31321  0.04600  1.0000
  H   H2703     1.0  0.96877  0.04257  0.24501  1.0000
  H   H2704     1.0  0.97139  0.40344  0.21883  1.0000
  H   H2705     1.0  0.75612  0.42675  0.31120  1.0000
  C   C2277     1.0  0.74283  0.43683  0.14045  1.0000
  H   H2706     1.0  0.76762  0.13998  0.02643  1.0000
  H   H2707     1.0  0.74272  0.45549  0.01989  1.0000
  H   H2708     1.0  0.95339  0.21137  0.25505  1.0000
  H   H2709     1.0  0.92719  0.46187  0.21274  1.0000
  C   C2278     1.0  0.78970  0.45492  0.14610  1.0000
  C   C2279     1.0  0.96347  0.17658  0.16035  1.0000
  H   H2710     1.0  0.86607  0.34362  0.10843  1.0000
  H   H2711     1.0  0.92595  0.20255  0.24297  1.0000
  C   C2280     1.0  0.74435  0.35757  0.11332  1.0000
  H   H2712     1.0  0.80511  0.45497  0.13730  1.0000
  C   C2281     1.0  0.93165  0.46524  0.24120  1.0000
  H   H2713     1.0  0.83727  0.47658  0.07476  1.0000
  H   H2714     1.0  0.93141  0.17673  0.25407  1.0000
  C   C2282     1.0  0.87565  0.34496  0.11851  1.0000
  H   H2715     1.0  0.97848  0.19808  0.24959  1.0000
  C   C2283     1.0  0.97043  0.22940  0.18040  1.0000
  H   H2716     1.0  0.77013  0.44854  0.10690  1.0000
  H   H2717     1.0  0.77332  0.11895  0.00443  1.0000
  C   C2284     1.0  0.78198  0.08761  0.00423  1.0000
  C   C2285     1.0  0.97532  0.19596  0.20000  1.0000
  N   N153      1.0  0.96789  0.02115  0.22650  1.0000
  C   C2286     1.0  0.96237  0.19650  0.25268  1.0000
  H   H2718     1.0  0.95971  0.18617  0.26729  1.0000
  C   C2287     1.0  0.94340  0.36623  0.09990  1.0000
  C   C2288     1.0  0.92339  0.37425  0.09823  1.0000
  S   S602      1.0  0.97697  0.18801  0.13785  1.0000
  H   H2719     1.0  0.78684  0.48118  0.03403  1.0000
  H   H2720     1.0  0.76408  0.05030  0.03902  1.0000
  C   C2289     1.0  0.96766  0.23082  0.99898  1.0000
  H   H2721     1.0  0.91419  0.36555  0.09360  1.0000
  H   H2722     1.0  0.92811  0.01768  0.23123  1.0000
  N   N154      1.0  0.86617  0.47368  0.05582  1.0000
  H   H2723     1.0  0.78057  0.41656  0.12710  1.0000
  C   C2290     1.0  0.95576  0.37733  0.10598  1.0000
  C   C2291     1.0  0.80143  0.47803  0.02490  1.0000
  H   H2724     1.0  0.96402  0.16078  0.22483  1.0000
  C   C2292     1.0  0.87307  0.45224  0.06383  1.0000
  C   C2293     1.0  0.85441  0.02216  0.31034  1.0000
  H   H2725     1.0  0.75144  0.00449  0.25879  1.0000
  H   H2726     1.0  0.98262  0.18055  0.20004  1.0000
  C   C2294     1.0  0.97947  0.36830  0.12911  1.0000
  S   S603      1.0  0.98612  0.42151  0.12927  1.0000
  H   H2727     1.0  0.89012  0.46603  0.08624  1.0000
  H   H2728     1.0  0.96432  0.15822  0.25100  1.0000
  H   H2729     1.0  0.97369  0.23967  0.16647  1.0000
  H   H2730     1.0  0.74998  0.36618  0.12179  1.0000
  C   C2295     1.0  0.98145  0.43585  0.19259  1.0000
  S   S604      1.0  0.98751  0.24288  0.11465  1.0000
  H   H2731     1.0  0.80719  0.04247  0.30169  1.0000
  H   H2732     1.0  0.74399  0.10583  0.07081  1.0000
  H   H2733     1.0  0.77083  0.99567  0.22652  1.0000
  C   C2296     1.0  0.74430  0.34398  0.00294  1.0000
  H   H2734     1.0  0.75500  0.00212  0.19685  1.0000
  H   H2735     1.0  0.97593  0.38324  0.13386  1.0000
  H   H2736     1.0  0.98237  0.45214  0.18868  1.0000
  H   H2737     1.0  0.97563  0.33767  0.11296  1.0000
  H   H2738     1.0  0.98575  0.14978  0.16260  1.0000
  H   H2739     1.0  0.98332  0.34863  0.08698  1.0000
  C   C2297     1.0  0.98420  0.34895  0.10285  1.0000
  H   H2740     1.0  0.91375  0.98750  0.23410  1.0000
  H   H2741     1.0  0.98699  0.39820  0.09882  1.0000
  H   H2742     1.0  0.98457  0.16736  0.23344  1.0000
  H   H2743     1.0  0.98833  0.38464  0.07879  1.0000
  C   C2298     1.0  0.98843  0.22629  0.99325  1.0000
  C   C2299     1.0  0.92986  0.98634  0.23274  1.0000
  C   C2300     1.0  0.75856  0.17035  0.98312  1.0000
  C   C2301     1.0  0.79572  0.98602  0.17996  1.0000
  H   H2744     1.0  0.89694  0.03118  0.32317  1.0000
  C   C2302     1.0  0.75594  0.44998  0.50166  1.0000
  Fe  Fe303     1.0  0.76103  0.46195  0.35934  1.0000
  Fe  Fe304     1.0  0.75400  0.33735  0.51078  1.0000
  C   C2303     1.0  0.95360  0.12136  0.34344  1.0000
  Fe  Fe305     1.0  0.77081  0.32412  0.47055  1.0000
  S   S605      1.0  0.77135  0.35195  0.48236  1.0000
  S   S606      1.0  0.79710  0.30901  0.45033  1.0000
  H   H2745     1.0  0.90641  0.45000  0.64851  1.0000
  H   H2746     1.0  0.88719  0.07481  0.64684  1.0000
  H   H2747     1.0  0.96451  0.13128  0.34077  1.0000
  Fe  Fe306     1.0  0.76821  0.41605  0.63396  1.0000
  C   C2304     1.0  0.75310  0.29541  0.42838  1.0000
  H   H2748     1.0  0.98051  0.32228  0.39774  1.0000
  S   S607      1.0  0.76965  0.41952  0.60060  1.0000
  H   H2749     1.0  0.96253  0.18570  0.41561  1.0000
  C   C2305     1.0  0.95413  0.33113  0.63115  1.0000
  S   S608      1.0  0.78577  0.01590  0.55002  1.0000
  H   H2750     1.0  0.75570  0.99971  0.51096  1.0000
  Fe  Fe307     1.0  0.82278  0.01015  0.58717  1.0000
  S   S609      1.0  0.80341  0.03966  0.57788  1.0000
  S   S610      1.0  0.77798  0.47239  0.57722  1.0000
  Fe  Fe308     1.0  0.77906  0.02118  0.58185  1.0000
  Fe  Fe309     1.0  0.81178  0.03193  0.54681  1.0000
  S   S611      1.0  0.81690  0.05564  0.51930  1.0000
  C   C2306     1.0  0.96047  0.16540  0.45248  1.0000
  H   H2751     1.0  0.89773  0.37562  0.62553  1.0000
  H   H2752     1.0  0.95790  0.38021  0.36648  1.0000
  Fe  Fe310     1.0  0.95249  0.11308  0.44105  1.0000
  S   S612      1.0  0.92912  0.12100  0.46694  1.0000
  H   H2753     1.0  0.95981  0.22481  0.54053  1.0000
  Fe  Fe311     1.0  0.92196  0.10828  0.41708  1.0000
  S   S613      1.0  0.89583  0.11627  0.44124  1.0000
  S   S614      1.0  0.91575  0.09656  0.39092  1.0000
  Fe  Fe312     1.0  0.91235  0.14048  0.44358  1.0000
  S   S615      1.0  0.89781  0.17036  0.45271  1.0000
  Fe  Fe313     1.0  0.91484  0.09618  0.46244  1.0000
  S   S616      1.0  0.90557  0.07309  0.48919  1.0000
  S   S617      1.0  0.93683  0.13436  0.41761  1.0000
  S   S618      1.0  0.93987  0.08644  0.43836  1.0000
  Fe  Fe314     1.0  0.91134  0.29841  0.44640  1.0000
  S   S619      1.0  0.93132  0.26838  0.45027  1.0000
  S   S620      1.0  0.88397  0.30662  0.46915  1.0000
  Fe  Fe315     1.0  0.93916  0.31541  0.40955  1.0000
  S   S621      1.0  0.96113  0.28661  0.41000  1.0000
  S   S622      1.0  0.94256  0.34432  0.38776  1.0000
  Fe  Fe316     1.0  0.93408  0.27143  0.41690  1.0000
  S   S623      1.0  0.93468  0.24540  0.40141  1.0000
  Fe  Fe317     1.0  0.95658  0.28596  0.44324  1.0000
  C   C2307     1.0  0.94548  0.47520  0.64238  1.0000
  S   S624      1.0  0.91224  0.30037  0.41338  1.0000
  S   S625      1.0  0.93643  0.31584  0.44240  1.0000
  C   C2308     1.0  0.75112  0.37755  0.57926  1.0000
  S   S626      1.0  0.83309  0.00381  0.55558  1.0000
  H   H2754     1.0  0.76600  0.39971  0.47872  1.0000
  H   H2755     1.0  0.75503  0.23585  0.44005  1.0000
  H   H2756     1.0  0.78636  0.27305  0.43767  1.0000
  C   C2309     1.0  0.90735  0.19144  0.43803  1.0000
  C   C2310     1.0  0.90458  0.20912  0.44610  1.0000
  C   C2311     1.0  0.91255  0.22595  0.43484  1.0000
  C   C2312     1.0  0.92310  0.22524  0.41535  1.0000
  C   C2313     1.0  0.92536  0.20775  0.40709  1.0000
  C   C2314     1.0  0.91770  0.19082  0.41847  1.0000
  H   H2757     1.0  0.89637  0.20978  0.46113  1.0000
  H   H2758     1.0  0.91038  0.23948  0.44119  1.0000
  H   H2759     1.0  0.93334  0.20719  0.39195  1.0000
  H   H2760     1.0  0.91952  0.17743  0.41195  1.0000
  H   H2761     1.0  0.88163  0.33534  0.60913  1.0000
  S   S627      1.0  0.76196  0.44907  0.63468  1.0000
  N   N155      1.0  0.75403  0.27632  0.44296  1.0000
  C   C2315     1.0  0.85377  0.00312  0.32277  1.0000
  H   H2762     1.0  0.83684  0.44349  0.63620  1.0000
  H   H2763     1.0  0.98757  0.40560  0.59288  1.0000
  C   C2316     1.0  0.74834  0.46690  0.53059  1.0000
  H   H2764     1.0  0.86632  0.33672  0.64399  1.0000
  H   H2765     1.0  0.82667  0.99126  0.48381  1.0000
  H   H2766     1.0  0.95399  0.15960  0.44166  1.0000
  C   C2317     1.0  0.96053  0.32501  0.61233  1.0000
  H   H2767     1.0  0.94991  0.32672  0.60227  1.0000
  C   C2318     1.0  0.98275  0.47232  0.36128  1.0000
  H   H2768     1.0  0.75542  0.43602  0.33360  1.0000
  H   H2769     1.0  0.77841  0.41955  0.48053  1.0000
  H   H2770     1.0  0.79930  0.38113  0.60100  1.0000
  C   C2319     1.0  0.86761  0.00370  0.45789  1.0000
  C   C2320     1.0  0.84171  0.05973  0.51034  1.0000
  C   C2321     1.0  0.84567  0.07460  0.49360  1.0000
  C   C2322     1.0  0.86520  0.07880  0.48679  1.0000
  C   C2323     1.0  0.88085  0.06819  0.49678  1.0000
  C   C2324     1.0  0.87692  0.05310  0.51329  1.0000
  C   C2325     1.0  0.85742  0.04884  0.52004  1.0000
  H   H2771     1.0  0.83354  0.08302  0.48604  1.0000
  H   H2772     1.0  0.86803  0.09031  0.47391  1.0000
  H   H2773     1.0  0.88896  0.04479  0.52104  1.0000
  H   H2774     1.0  0.85450  0.03743  0.53300  1.0000
  H   H2775     1.0  0.96385  0.09502  0.47996  1.0000
  S   S628      1.0  0.76877  0.42869  0.37092  1.0000
  C   C2326     1.0  0.75953  0.06882  0.53010  1.0000
  C   C2327     1.0  0.75856  0.41982  0.39589  1.0000
  H   H2776     1.0  0.77697  0.25071  0.44953  1.0000
  H   H2777     1.0  0.95636  0.28930  0.52062  1.0000
  C   C2328     1.0  0.92536  0.09588  0.35045  1.0000
  C   C2329     1.0  0.92913  0.10337  0.36659  1.0000
  C   C2330     1.0  0.94336  0.11607  0.36304  1.0000
  C   C2331     1.0  0.75979  0.08292  0.51255  1.0000
  H   H2778     1.0  0.91438  0.08606  0.35307  1.0000
  H   H2779     1.0  0.94642  0.12188  0.37535  1.0000
  H   H2780     1.0  0.75585  0.48159  0.50021  1.0000
  C   C2332     1.0  0.84055  0.00101  0.63231  1.0000
  C   C2333     1.0  0.82438  0.39291  0.60536  1.0000
  H   H2781     1.0  0.80876  0.00547  0.63262  1.0000
  H   H2782     1.0  0.77607  0.35535  0.56943  1.0000
  H   H2783     1.0  0.77262  0.38917  0.39426  1.0000
  H   H2784     1.0  0.85010  0.40109  0.61152  1.0000
  H   H2785     1.0  0.86387  0.99114  0.48935  1.0000
  C   C2334     1.0  0.82293  0.35762  0.60996  1.0000
  H   H2786     1.0  0.81662  0.99083  0.52049  1.0000
  C   C2335     1.0  0.81418  0.37756  0.60491  1.0000
  C   C2336     1.0  0.82120  0.30793  0.45591  1.0000
  C   C2337     1.0  0.83822  0.29981  0.44328  1.0000
  C   C2338     1.0  0.85757  0.29919  0.44724  1.0000
  C   C2339     1.0  0.85999  0.30668  0.46388  1.0000
  C   C2340     1.0  0.84297  0.31470  0.47653  1.0000
  C   C2341     1.0  0.82365  0.31534  0.47256  1.0000
  H   H2787     1.0  0.83644  0.29402  0.43039  1.0000
  H   H2788     1.0  0.87057  0.29282  0.43748  1.0000
  H   H2789     1.0  0.84471  0.32047  0.48945  1.0000
  H   H2790     1.0  0.81067  0.32152  0.48247  1.0000
  H   H2791     1.0  0.91589  0.25597  0.53728  1.0000
  N   N156      1.0  0.94211  0.25568  0.51441  1.0000
  H   H2792     1.0  0.96277  0.31401  0.46876  1.0000
  H   H2793     1.0  0.76375  0.39251  0.53273  1.0000
  H   H2794     1.0  0.81724  0.40844  0.60193  1.0000
  H   H2795     1.0  0.81478  0.34576  0.60982  1.0000
  H   H2796     1.0  0.87276  0.01861  0.42786  1.0000
  C   C2342     1.0  0.88137  0.01491  0.48237  1.0000
  H   H2797     1.0  0.89425  0.02229  0.63862  1.0000
  S   S629      1.0  0.75565  0.30828  0.49977  1.0000
  H   H2798     1.0  0.91140  0.06016  0.64004  1.0000
  N   N157      1.0  0.89507  0.04747  0.43176  1.0000
  C   C2343     1.0  0.89055  0.04818  0.41141  1.0000
  C   C2344     1.0  0.88650  0.06731  0.43781  1.0000
  C   C2345     1.0  0.91718  0.04440  0.43011  1.0000
  C   C2346     1.0  0.88688  0.03150  0.44712  1.0000
  C   C2347     1.0  0.88964  0.02926  0.46736  1.0000
  C   C2348     1.0  0.87567  0.01814  0.44276  1.0000
  C   C2349     1.0  0.94973  0.11397  0.32730  1.0000
  H   H2799     1.0  0.92417  0.27418  0.49291  1.0000
  C   C2350     1.0  0.88472  0.02339  0.32328  1.0000
  H   H2800     1.0  0.87412  0.05137  0.41135  1.0000
  H   H2801     1.0  0.89697  0.06037  0.40026  1.0000
  H   H2802     1.0  0.89715  0.03394  0.40558  1.0000
  H   H2803     1.0  0.89197  0.06922  0.45129  1.0000
  H   H2804     1.0  0.86984  0.06942  0.44128  1.0000
  H   H2805     1.0  0.89071  0.07989  0.42580  1.0000
  H   H2806     1.0  0.92383  0.05594  0.41826  1.0000
  H   H2807     1.0  0.92188  0.04562  0.44428  1.0000
  H   H2808     1.0  0.92421  0.02935  0.42629  1.0000
  H   H2809     1.0  0.89801  0.03881  0.47181  1.0000
  C   C2351     1.0  0.89499  0.05997  0.64290  1.0000
  C   C2352     1.0  0.97451  0.30852  0.47763  1.0000
  H   H2810     1.0  0.89528  0.99762  0.34411  1.0000
  H   H2811     1.0  0.77193  0.38204  0.51051  1.0000
  C   C2353     1.0  0.98158  0.09547  0.50219  1.0000
  H   H2812     1.0  0.84799  0.33724  0.61943  1.0000
  C   C2354     1.0  0.88251  0.38033  0.62136  1.0000
  C   C2355     1.0  0.97554  0.24008  0.55453  1.0000
  H   H2813     1.0  0.86432  0.04375  0.63269  1.0000
  C   C2356     1.0  0.82053  0.00206  0.64164  1.0000
  C   C2357     1.0  0.75311  0.43127  0.51408  1.0000
  C   C2358     1.0  0.98471  0.20630  0.45479  1.0000
  C   C2359     1.0  0.75211  0.28096  0.46338  1.0000
  C   C2360     1.0  0.76091  0.36253  0.56786  1.0000
  C   C2361     1.0  0.85278  0.36819  0.61609  1.0000
  H   H2814     1.0  0.87377  0.39008  0.63225  1.0000
  C   C2362     1.0  0.84193  0.35293  0.61547  1.0000
  C   C2363     1.0  0.87036  0.00217  0.47765  1.0000
  H   H2815     1.0  0.96594  0.15190  0.46305  1.0000
  H   H2816     1.0  0.94276  0.44675  0.63559  1.0000
  H   H2817     1.0  0.88441  0.38953  0.60609  1.0000
  C   C2364     1.0  0.98078  0.31716  0.60627  1.0000
  C   C2365     1.0  0.93563  0.10113  0.33087  1.0000
  H   H2818     1.0  0.77401  0.08646  0.50401  1.0000
  C   C2366     1.0  0.76950  0.39638  0.51647  1.0000
  H   H2819     1.0  0.96752  0.33416  0.49279  1.0000
  C   C2367     1.0  0.92431  0.24693  0.52561  1.0000
  H   H2820     1.0  0.75869  0.38181  0.58964  1.0000
  H   H2821     1.0  0.75840  0.37596  0.42939  1.0000
  H   H2822     1.0  0.97143  0.08865  0.51455  1.0000
  C   C2368     1.0  0.74239  0.40105  0.34296  1.0000
  S   S630      1.0  0.76439  0.33887  0.53942  1.0000
  C   C2369     1.0  0.97027  0.36946  0.37167  1.0000
  N   N158      1.0  0.87292  0.36273  0.62190  1.0000
  Fe  Fe318     1.0  0.80630  0.98850  0.56165  1.0000
  C   C2370     1.0  0.84336  0.38842  0.61095  1.0000
  H   H2823     1.0  0.76460  0.28832  0.46463  1.0000
  H   H2824     1.0  0.94470  0.24229  0.48799  1.0000
  S   S631      1.0  0.92895  0.34182  0.63813  1.0000
  H   H2825     1.0  0.96138  0.47255  0.63685  1.0000
  H   H2826     1.0  0.92617  0.28621  0.51283  1.0000
  C   C2371     1.0  0.74729  0.43139  0.53506  1.0000
  S   S632      1.0  0.98464  0.11367  0.44212  1.0000
  C   C2372     1.0  0.97720  0.09921  0.48263  1.0000
  S   S633      1.0  0.84714  0.00602  0.60596  1.0000
  C   C2373     1.0  0.98291  0.33685  0.38936  1.0000
  C   C2374     1.0  0.96685  0.35059  0.38264  1.0000
  C   C2375     1.0  0.97359  0.27575  0.54333  1.0000
  C   C2376     1.0  0.86835  0.99440  0.33477  1.0000
  N   N159      1.0  0.87692  0.36165  0.40815  1.0000
  C   C2377     1.0  0.88042  0.34572  0.39563  1.0000
  C   C2378     1.0  0.88819  0.37778  0.39682  1.0000
  C   C2379     1.0  0.88556  0.35320  0.42675  1.0000
  C   C2380     1.0  0.85506  0.36865  0.41320  1.0000
  C   C2381     1.0  0.84552  0.38824  0.40563  1.0000
  C   C2382     1.0  0.84247  0.35541  0.42541  1.0000
  C   C2383     1.0  0.82474  0.39409  0.41030  1.0000
  C   C2384     1.0  0.82175  0.36144  0.43006  1.0000
  C   C2385     1.0  0.81292  0.38075  0.42256  1.0000
  H   H2827     1.0  0.87345  0.35115  0.38188  1.0000
  H   H2828     1.0  0.89674  0.34065  0.39071  1.0000
  H   H2829     1.0  0.87406  0.33218  0.40389  1.0000
  H   H2830     1.0  0.88378  0.38373  0.38181  1.0000
  H   H2831     1.0  0.90464  0.37217  0.39386  1.0000
  H   H2832     1.0  0.88603  0.39036  0.40537  1.0000
  H   H2833     1.0  0.87996  0.33928  0.43496  1.0000
  H   H2834     1.0  0.90218  0.34891  0.42345  1.0000
  H   H2835     1.0  0.88200  0.36419  0.43732  1.0000
  H   H2836     1.0  0.85369  0.39931  0.39596  1.0000
  H   H2837     1.0  0.84852  0.34018  0.43134  1.0000
  H   H2838     1.0  0.81766  0.40902  0.40424  1.0000
  H   H2839     1.0  0.81247  0.35098  0.43940  1.0000
  H   H2840     1.0  0.79685  0.38536  0.42613  1.0000
  N   N160      1.0  0.87557  0.12723  0.51269  1.0000
  C   C2386     1.0  0.86699  0.14750  0.51771  1.0000
  C   C2387     1.0  0.89693  0.12292  0.51532  1.0000
  C   C2388     1.0  0.87518  0.12773  0.49118  1.0000
  C   C2389     1.0  0.86356  0.11228  0.52522  1.0000
  C   C2390     1.0  0.87190  0.09517  0.53813  1.0000
  C   C2391     1.0  0.84279  0.11451  0.52462  1.0000
  C   C2392     1.0  0.86003  0.08145  0.54982  1.0000
  C   C2393     1.0  0.83114  0.10056  0.53620  1.0000
  C   C2394     1.0  0.83972  0.08412  0.54883  1.0000
  H   H2841     1.0  0.86628  0.14763  0.53396  1.0000
  H   H2842     1.0  0.87609  0.15899  0.50891  1.0000
  H   H2843     1.0  0.85162  0.15281  0.51416  1.0000
  H   H2844     1.0  0.89847  0.12268  0.53112  1.0000
  H   H2845     1.0  0.90548  0.13450  0.50577  1.0000
  H   H2846     1.0  0.90462  0.10827  0.51075  1.0000
  H   H2847     1.0  0.85982  0.13170  0.48747  1.0000
  H   H2848     1.0  0.88389  0.13897  0.48131  1.0000
  H   H2849     1.0  0.88190  0.11292  0.48674  1.0000
  H   H2850     1.0  0.88765  0.09171  0.53911  1.0000
  H   H2851     1.0  0.83546  0.12685  0.51487  1.0000
  C   C2395     1.0  0.88386  0.00449  0.33496  1.0000
  H   H2852     1.0  0.81547  0.10212  0.53500  1.0000
  H   H2853     1.0  0.83076  0.07303  0.55732  1.0000
  C   C2396     1.0  0.88641  0.35002  0.60800  1.0000
  H   H2854     1.0  0.86675  0.06821  0.55915  1.0000
  C   C2397     1.0  0.77426  0.26434  0.43801  1.0000
  C   C2398     1.0  0.96101  0.27522  0.52994  1.0000
  H   H2855     1.0  0.89115  0.05873  0.62835  1.0000
  Fe  Fe319     1.0  0.76087  0.45247  0.60181  1.0000
  S   S634      1.0  0.74695  0.03181  0.59489  1.0000
  C   C2399     1.0  0.95522  0.25694  0.52854  1.0000
  C   C2400     1.0  0.93463  0.27546  0.50280  1.0000
  S   S635      1.0  0.98309  0.27505  0.45942  1.0000
  H   H2856     1.0  0.97732  0.36413  0.60593  1.0000
  C   C2401     1.0  0.75129  0.35700  0.55420  1.0000
  C   C2402     1.0  0.97725  0.31995  0.49123  1.0000
  C   C2403     1.0  0.91446  0.46188  0.64893  1.0000
  H   H2857     1.0  0.88332  0.01385  0.49780  1.0000
  H   H2858     1.0  0.74210  0.10344  0.49246  1.0000
  H   H2859     1.0  0.97932  0.21732  0.44269  1.0000
  H   H2860     1.0  0.77353  0.06158  0.53516  1.0000
  H   H2861     1.0  0.96760  0.24800  0.49215  1.0000
  H   H2862     1.0  0.81458  0.02181  0.32049  1.0000
  H   H2863     1.0  0.90200  0.34643  0.61125  1.0000
  H   H2864     1.0  0.95556  0.20321  0.43277  1.0000
  N   N161      1.0  0.97660  0.17701  0.44207  1.0000
  C   C2404     1.0  0.85569  0.99658  0.64416  1.0000
  H   H2865     1.0  0.94709  0.28223  0.49269  1.0000
  H   H2866     1.0  0.97984  0.20117  0.41681  1.0000
  C   C2405     1.0  0.96303  0.23935  0.54116  1.0000
  H   H2867     1.0  0.75232  0.26707  0.47486  1.0000
  C   C2406     1.0  0.76295  0.39929  0.40363  1.0000
  H   H2868     1.0  0.77648  0.25984  0.42298  1.0000
  C   C2407     1.0  0.75494  0.39180  0.42350  1.0000
  H   H2869     1.0  0.98116  0.46662  0.37723  1.0000
  H   H2870     1.0  0.93255  0.09535  0.31853  1.0000
  H   H2871     1.0  0.95761  0.22676  0.50707  1.0000
  H   H2872     1.0  0.82826  0.04485  0.63947  1.0000
  H   H2873     1.0  0.88705  0.35775  0.59212  1.0000
  H   H2874     1.0  0.91378  0.24649  0.51544  1.0000
  C   C2408     1.0  0.85670  0.04476  0.64785  1.0000
  C   C2409     1.0  0.96790  0.32880  0.64410  1.0000
  H   H2875     1.0  0.92833  0.23124  0.53322  1.0000
  C   C2410     1.0  0.74137  0.06399  0.54119  1.0000
  S   S636      1.0  0.79766  0.99233  0.59396  1.0000
  H   H2876     1.0  0.78434  0.40095  0.51500  1.0000
  H   H2877     1.0  0.87120  0.99562  0.63701  1.0000
  C   C2411     1.0  0.95343  0.24258  0.49983  1.0000
  H   H2878     1.0  0.80568  0.43200  0.63400  1.0000
  C   C2412     1.0  0.83379  0.42899  0.64433  1.0000
  H   H2879     1.0  0.98167  0.22641  0.56372  1.0000
  H   H2880     1.0  0.75310  0.42475  0.47494  1.0000
  H   H2881     1.0  0.98143  0.12018  0.63151  1.0000
  S   S637      1.0  0.92262  0.39628  0.64357  1.0000
  H   H2882     1.0  0.98575  0.31297  0.59153  1.0000
  H   H2883     1.0  0.75365  0.99406  0.58025  1.0000
  C   C2413     1.0  0.81611  0.42252  0.64310  1.0000
  H   H2884     1.0  0.88615  0.34765  0.64795  1.0000
  C   C2414     1.0  0.96832  0.19251  0.42619  1.0000
  H   H2885     1.0  0.84201  0.99474  0.32324  1.0000
  H   H2886     1.0  0.75133  0.39293  0.33081  1.0000
  C   C2415     1.0  0.74576  0.43354  0.32353  1.0000
  C   C2416     1.0  0.76368  0.41434  0.48412  1.0000
  C   C2417     1.0  0.74184  0.09238  0.50609  1.0000
  S   S638      1.0  0.77253  0.47224  0.32682  1.0000
  H   H2887     1.0  0.97803  0.28984  0.54394  1.0000
  C   C2418     1.0  0.93492  0.46012  0.64160  1.0000
  N   N162      1.0  0.75555  0.41241  0.50596  1.0000
  H   H2888     1.0  0.75322  0.29269  0.41297  1.0000
  H   H2889     1.0  0.75987  0.45155  0.48551  1.0000
  H   H2890     1.0  0.94795  0.17486  0.46098  1.0000
  H   H2891     1.0  0.82001  0.04616  0.32068  1.0000
  C   C2419     1.0  0.87142  0.35128  0.64266  1.0000
  C   C2420     1.0  0.75360  0.46746  0.50990  1.0000
  C   C2421     1.0  0.98683  0.29003  0.47573  1.0000
  H   H2892     1.0  0.98825  0.15662  0.42081  1.0000
  H   H2893     1.0  0.74206  0.05291  0.55470  1.0000
  C   C2422     1.0  0.74607  0.43284  0.40805  1.0000
  H   H2894     1.0  0.74929  0.98943  0.53712  1.0000
  H   H2895     1.0  0.75300  0.40325  0.35227  1.0000
  H   H2896     1.0  0.97583  0.39560  0.61726  1.0000
  C   C2423     1.0  0.98084  0.25824  0.55558  1.0000
  C   C2424     1.0  0.98408  0.18545  0.45676  1.0000
  C   C2425     1.0  0.98800  0.32048  0.63827  1.0000
  C   C2426     1.0  0.75862  0.98624  0.52262  1.0000
  H   H2897     1.0  0.74658  0.48047  0.53691  1.0000
  S   S639      1.0  0.74211  0.33668  0.45839  1.0000
  H   H2898     1.0  0.74262  0.44870  0.40219  1.0000
  H   H2899     1.0  0.76602  0.30308  0.42779  1.0000
  C   C2427     1.0  0.74246  0.40483  0.43568  1.0000
  H   H2900     1.0  0.85899  0.99369  0.45434  1.0000
  Fe  Fe320     1.0  0.74140  0.36319  0.47285  1.0000
  H   H2901     1.0  0.73954  0.30652  0.43238  1.0000
  H   H2902     1.0  0.74423  0.41796  0.54545  1.0000
  C   C2428     1.0  0.74517  0.44891  0.54313  1.0000
  H   H2903     1.0  0.74102  0.44852  0.55924  1.0000
  H   H2904     1.0  0.98555  0.23983  0.62083  1.0000
  C   C2429     1.0  0.74039  0.24505  0.44139  1.0000
  H   H2905     1.0  0.98810  0.17921  0.60264  1.0000
  H   H2906     1.0  0.98864  0.20388  0.62078  1.0000
  H   H2907     1.0  0.92442  0.43667  0.93095  1.0000
  C   C2430     1.0  0.83572  0.18350  0.93163  1.0000
  H   H2908     1.0  0.94354  0.43331  0.68483  1.0000
  Fe  Fe321     1.0  0.98715  0.12405  0.74515  1.0000
  C   C2431     1.0  0.94428  0.46370  0.84445  1.0000
  C   C2432     1.0  0.84074  0.46440  0.91328  1.0000
  H   H2909     1.0  0.78463  0.99526  0.76180  1.0000
  S   S640      1.0  0.95700  0.05947  0.76145  1.0000
  Fe  Fe322     1.0  0.87431  0.01300  0.73411  1.0000
  C   C2433     1.0  0.78053  0.46108  0.67601  1.0000
  S   S641      1.0  0.88279  0.04391  0.72889  1.0000
  H   H2910     1.0  0.92744  0.47038  0.76870  1.0000
  S   S642      1.0  0.95019  0.17782  0.84337  1.0000
  H   H2911     1.0  0.90399  0.29967  0.76610  1.0000
  H   H2912     1.0  0.85372  0.19743  0.89116  1.0000
  C   C2434     1.0  0.78285  0.00558  0.80232  1.0000
  H   H2913     1.0  0.82252  0.22307  0.93534  1.0000
  C   C2435     1.0  0.78599  0.42413  0.70148  1.0000
  S   S643      1.0  0.84207  0.00897  0.74328  1.0000
  Fe  Fe323     1.0  0.95824  0.20336  0.85507  1.0000
  C   C2436     1.0  0.88158  0.00223  0.80197  1.0000
  H   H2914     1.0  0.84437  0.01094  0.82238  1.0000
  Fe  Fe324     1.0  0.96130  0.24708  0.85311  1.0000
  H   H2915     1.0  0.91872  0.44612  0.87781  1.0000
  S   S644      1.0  0.95884  0.27790  0.83389  1.0000
  Fe  Fe325     1.0  0.94885  0.22235  0.89342  1.0000
  S   S645      1.0  0.93434  0.21951  0.92600  1.0000
  S   S646      1.0  0.93580  0.22972  0.86489  1.0000
  S   S647      1.0  0.84395  0.25832  0.95090  1.0000
  Fe  Fe326     1.0  0.87967  0.42189  0.86811  1.0000
  S   S648      1.0  0.89946  0.43864  0.84327  1.0000
  S   S649      1.0  0.85420  0.43417  0.89106  1.0000
  Fe  Fe327     1.0  0.90256  0.38077  0.85973  1.0000
  S   S650      1.0  0.92455  0.39389  0.83423  1.0000
  S   S651      1.0  0.90030  0.34829  0.87275  1.0000
  Fe  Fe328     1.0  0.92484  0.41600  0.85410  1.0000
  H   H2916     1.0  0.90202  0.28403  0.80315  1.0000
  Fe  Fe329     1.0  0.89761  0.41544  0.82522  1.0000
  S   S652      1.0  0.89333  0.42631  0.79300  1.0000
  S   S653      1.0  0.90529  0.40095  0.88046  1.0000
  S   S654      1.0  0.87543  0.40064  0.84908  1.0000
  H   H2917     1.0  0.82275  0.37706  0.67324  1.0000
  S   S655      1.0  0.89588  0.37052  0.68127  1.0000
  H   H2918     1.0  0.93023  0.46070  0.84225  1.0000
  C   C2437     1.0  0.93883  0.31242  0.78723  1.0000
  C   C2438     1.0  0.85424  0.02242  0.82044  1.0000
  S   S656      1.0  0.96275  0.11580  0.73248  1.0000
  C   C2439     1.0  0.92821  0.26759  0.94218  1.0000
  H   H2919     1.0  0.88102  0.32543  0.90957  1.0000
  Fe  Fe330     1.0  0.91635  0.37616  0.70053  1.0000
  S   S657      1.0  0.91588  0.36316  0.73351  1.0000
  H   H2920     1.0  0.95512  0.26275  0.92064  1.0000
  S   S658      1.0  0.91433  0.40913  0.68812  1.0000
  H   H2921     1.0  0.84622  0.03954  0.78424  1.0000
  H   H2922     1.0  0.89211  0.33982  0.92228  1.0000
  H   H2923     1.0  0.81237  0.45963  0.67317  1.0000
  C   C2440     1.0  0.85119  0.45914  0.89489  1.0000
  H   H2924     1.0  0.83459  0.45309  0.92484  1.0000
  C   C2441     1.0  0.89814  0.40814  0.77727  1.0000
  C   C2442     1.0  0.89381  0.41383  0.75770  1.0000
  C   C2443     1.0  0.89903  0.40007  0.74424  1.0000
  C   C2444     1.0  0.90876  0.38059  0.75023  1.0000
  C   C2445     1.0  0.91298  0.37488  0.76984  1.0000
  C   C2446     1.0  0.90748  0.38854  0.78343  1.0000
  H   H2925     1.0  0.88646  0.42896  0.75291  1.0000
  H   H2926     1.0  0.89527  0.40451  0.72934  1.0000
  H   H2927     1.0  0.92059  0.35991  0.77457  1.0000
  H   H2928     1.0  0.91082  0.38399  0.79851  1.0000
  S   S659      1.0  0.95402  0.42309  0.85853  1.0000
  C   C2447     1.0  0.85083  0.99362  0.66524  1.0000
  C   C2448     1.0  0.86714  0.19564  0.91773  1.0000
  H   H2929     1.0  0.91996  0.28839  0.81672  1.0000
  C   C2449     1.0  0.89485  0.03618  0.81290  1.0000
  H   H2930     1.0  0.94918  0.45913  0.70239  1.0000
  H   H2931     1.0  0.86693  0.46992  0.86571  1.0000
  C   C2450     1.0  0.90937  0.23091  0.93244  1.0000
  C   C2451     1.0  0.90049  0.22863  0.95274  1.0000
  C   C2452     1.0  0.88057  0.23743  0.95850  1.0000
  C   C2453     1.0  0.86933  0.24836  0.94394  1.0000
  C   C2454     1.0  0.87824  0.25085  0.92363  1.0000
  C   C2455     1.0  0.89828  0.24216  0.91787  1.0000
  H   H2932     1.0  0.90905  0.21998  0.96406  1.0000
  H   H2933     1.0  0.82706  0.04456  0.70189  1.0000
  H   H2934     1.0  0.86963  0.25937  0.91231  1.0000
  H   H2935     1.0  0.90511  0.24406  0.90220  1.0000
  C   C2456     1.0  0.91731  0.32891  0.86232  1.0000
  C   C2457     1.0  0.91401  0.30903  0.86876  1.0000
  C   C2458     1.0  0.92723  0.29319  0.86075  1.0000
  C   C2459     1.0  0.94360  0.29721  0.84590  1.0000
  C   C2460     1.0  0.94699  0.31707  0.83950  1.0000
  C   C2461     1.0  0.93389  0.33291  0.84772  1.0000
  H   H2936     1.0  0.90113  0.30583  0.87993  1.0000
  H   H2937     1.0  0.92446  0.27793  0.86571  1.0000
  H   H2938     1.0  0.95973  0.32022  0.82811  1.0000
  H   H2939     1.0  0.93659  0.34817  0.84272  1.0000
  H   H2940     1.0  0.76418  0.39244  0.71565  1.0000
  H   H2941     1.0  0.75615  0.40522  0.68176  1.0000
  C   C2462     1.0  0.88444  0.31848  0.95899  1.0000
  C   C2463     1.0  0.95846  0.44803  0.85208  1.0000
  H   H2942     1.0  0.89035  0.33384  0.76642  1.0000
  C   C2464     1.0  0.95786  0.43824  0.68153  1.0000
  C   C2465     1.0  0.96177  0.47582  0.89791  1.0000
  C   C2466     1.0  0.98491  0.43031  0.76457  1.0000
  H   H2943     1.0  0.92938  0.42784  0.75658  1.0000
  H   H2944     1.0  0.94972  0.14264  0.82706  1.0000
  C   C2467     1.0  0.90480  0.04715  0.73637  1.0000
  C   C2468     1.0  0.91467  0.03228  0.74972  1.0000
  C   C2469     1.0  0.93092  0.03609  0.75701  1.0000
  C   C2470     1.0  0.93780  0.05453  0.75056  1.0000
  C   C2471     1.0  0.92846  0.06909  0.73655  1.0000
  C   C2472     1.0  0.91185  0.06548  0.72968  1.0000
  H   H2945     1.0  0.90947  0.01810  0.75489  1.0000
  H   H2946     1.0  0.93807  0.02480  0.76787  1.0000
  H   H2947     1.0  0.93360  0.08337  0.73154  1.0000
  H   H2948     1.0  0.90430  0.07708  0.71937  1.0000
  C   C2473     1.0  0.96061  0.17087  0.81947  1.0000
  S   S660      1.0  0.98284  0.22125  0.84123  1.0000
  S   S661      1.0  0.98614  0.15288  0.75720  1.0000
  N   N163      1.0  0.91899  0.30717  0.78749  1.0000
  H   H2949     1.0  0.87010  0.32856  0.96332  1.0000
  C   C2474     1.0  0.91719  0.28794  0.80147  1.0000
  H   H2950     1.0  0.87384  0.23550  0.97421  1.0000
  H   H2951     1.0  0.91846  0.04805  0.82056  1.0000
  C   C2475     1.0  0.80229  0.43395  0.69284  1.0000
  C   C2476     1.0  0.98083  0.47187  0.84952  1.0000
  C   C2477     1.0  0.82582  0.39156  0.66513  1.0000
  H   H2952     1.0  0.93731  0.42292  0.73158  1.0000
  H   H2953     1.0  0.97333  0.19765  0.80715  1.0000
  C   C2478     1.0  0.96638  0.42367  0.76600  1.0000
  C   C2479     1.0  0.88550  0.19191  0.88382  1.0000
  C   C2480     1.0  0.88093  0.32966  0.92438  1.0000
  C   C2481     1.0  0.96575  0.14655  0.79659  1.0000
  C   C2482     1.0  0.91003  0.28018  0.94707  1.0000
  C   C2483     1.0  0.91854  0.30375  0.76698  1.0000
  H   H2954     1.0  0.77478  0.01902  0.79452  1.0000
  H   H2955     1.0  0.88283  0.45521  0.92439  1.0000
  H   H2956     1.0  0.96302  0.33303  0.65880  1.0000
  H   H2957     1.0  0.95384  0.38888  0.74391  1.0000
  H   H2958     1.0  0.86928  0.29328  0.92871  1.0000
  C   C2484     1.0  0.94137  0.27292  0.92466  1.0000
  C   C2485     1.0  0.98359  0.21470  0.96388  1.0000
  H   H2959     1.0  0.84563  0.23107  0.92298  1.0000
  C   C2486     1.0  0.97953  0.45958  0.68705  1.0000
  H   H2960     1.0  0.91773  0.07671  0.79258  1.0000
  S   S662      1.0  0.97262  0.24169  0.88244  1.0000
  S   S663      1.0  0.98008  0.11967  0.67343  1.0000
  C   C2487     1.0  0.94827  0.48344  0.83964  1.0000
  C   C2488     1.0  0.95413  0.48067  0.75120  1.0000
  C   C2489     1.0  0.90296  0.32335  0.79435  1.0000
  H   H2961     1.0  0.86599  0.33885  0.92850  1.0000
  H   H2962     1.0  0.74361  0.03718  0.88303  1.0000
  H   H2963     1.0  0.89394  0.44425  0.89109  1.0000
  H   H2964     1.0  0.75848  0.06216  0.85648  1.0000
  H   H2965     1.0  0.92846  0.27524  0.79626  1.0000
  H   H2966     1.0  0.94078  0.31429  0.80230  1.0000
  C   C2490     1.0  0.91871  0.30408  0.91716  1.0000
  C   C2491     1.0  0.86851  0.29997  0.94234  1.0000
  C   C2492     1.0  0.90396  0.18970  0.91055  1.0000
  S   S664      1.0  0.96890  0.19458  0.88479  1.0000
  C   C2493     1.0  0.90771  0.05009  0.81053  1.0000
  C   C2494     1.0  0.85005  0.19842  0.95264  1.0000
  H   H2967     1.0  0.90017  0.27509  0.96061  1.0000
  C   C2495     1.0  0.97671  0.45220  0.85466  1.0000
  C   C2496     1.0  0.97886  0.17761  0.78544  1.0000
  C   C2497     1.0  0.76628  0.43273  0.69777  1.0000
  H   H2968     1.0  0.86563  0.36077  0.77855  1.0000
  C   C2498     1.0  0.97300  0.43047  0.66699  1.0000
  S   S665      1.0  0.94452  0.36689  0.67940  1.0000
  H   H2969     1.0  0.74983  0.45839  0.68013  1.0000
  H   H2970     1.0  0.84448  0.03735  0.82075  1.0000
  H   H2971     1.0  0.97165  0.41194  0.71850  1.0000
  H   H2972     1.0  0.76711  0.00001  0.74477  1.0000
  C   C2499     1.0  0.87371  0.35526  0.80791  1.0000
  H   H2973     1.0  0.86277  0.04431  0.69606  1.0000
  S   S666      1.0  0.74764  0.00433  0.82898  1.0000
  N   N164      1.0  0.84779  0.19908  0.93151  1.0000
  C   C2500     1.0  0.90592  0.45366  0.88768  1.0000
  H   H2974     1.0  0.75328  0.05214  0.83664  1.0000
  N   N165      1.0  0.74885  0.42231  0.70589  1.0000
  H   H2975     1.0  0.86180  0.01897  0.83383  1.0000
  H   H2976     1.0  0.91548  0.02200  0.65000  1.0000
  C   C2501     1.0  0.85723  0.02533  0.78478  1.0000
  C   C2502     1.0  0.95794  0.15242  0.81549  1.0000
  H   H2977     1.0  0.91822  0.18786  0.91562  1.0000
  H   H2978     1.0  0.82139  0.18522  0.94247  1.0000
  C   C2503     1.0  0.85602  0.04477  0.68312  1.0000
  H   H2979     1.0  0.84414  0.16816  0.93597  1.0000
  C   C2504     1.0  0.97640  0.41716  0.73086  1.0000
  C   C2505     1.0  0.75290  0.40466  0.72177  1.0000
  C   C2506     1.0  0.76412  0.45141  0.68455  1.0000
  C   C2507     1.0  0.83532  0.04508  0.68671  1.0000
  C   C2508     1.0  0.83598  0.04535  0.65157  1.0000
  S   S667      1.0  0.87940  0.99645  0.70823  1.0000
  H   H2980     1.0  0.74364  0.07807  0.83892  1.0000
  H   H2981     1.0  0.94352  0.44438  0.73861  1.0000
  C   C2509     1.0  0.88603  0.19298  0.92402  1.0000
  Fe  Fe331     1.0  0.94103  0.39938  0.66562  1.0000
  H   H2982     1.0  0.83150  0.18415  0.91676  1.0000
  H   H2983     1.0  0.86882  0.28747  0.95532  1.0000
  H   H2984     1.0  0.74899  0.03310  0.93021  1.0000
  C   C2510     1.0  0.97127  0.18337  0.80438  1.0000
  H   H2985     1.0  0.88641  0.47955  0.91175  1.0000
  H   H2986     1.0  0.81728  0.42694  0.69547  1.0000
  H   H2987     1.0  0.78729  0.17218  0.96429  1.0000
  N   N166      1.0  0.91214  0.45626  0.90619  1.0000
  C   C2511     1.0  0.88137  0.03797  0.79931  1.0000
  C   C2512     1.0  0.88084  0.05511  0.78386  1.0000
  C   C2513     1.0  0.78193  0.99137  0.74780  1.0000
  C   C2514     1.0  0.77307  0.99520  0.82007  1.0000
  S   S668      1.0  0.75195  0.15475  0.96852  1.0000
  C   C2515     1.0  0.90721  0.06637  0.79489  1.0000
  C   C2516     1.0  0.95826  0.39499  0.75589  1.0000
  C   C2517     1.0  0.79956  0.45238  0.68018  1.0000
  C   C2518     1.0  0.87520  0.35123  0.78860  1.0000
  H   H2988     1.0  0.78936  0.40962  0.71059  1.0000
  H   H2989     1.0  0.87292  0.99034  0.80150  1.0000
  C   C2519     1.0  0.81207  0.40377  0.65350  1.0000
  H   H2990     1.0  0.89693  0.32686  0.95785  1.0000
  H   H2991     1.0  0.95178  0.47719  0.73728  1.0000
  C   C2520     1.0  0.88958  0.33555  0.78180  1.0000
  S   S669      1.0  0.82407  0.99241  0.70094  1.0000
  H   H2992     1.0  0.89586  0.02378  0.82523  1.0000
  C   C2521     1.0  0.86745  0.19515  0.89715  1.0000
  H   H2993     1.0  0.91618  0.31804  0.90691  1.0000
  H   H2994     1.0  0.93867  0.41912  0.78693  1.0000
  C   C2522     1.0  0.86739  0.04457  0.66350  1.0000
  H   H2995     1.0  0.81020  0.00666  0.78072  1.0000
  C   C2523     1.0  0.94202  0.42836  0.74381  1.0000
  C   C2524     1.0  0.90455  0.29871  0.93452  1.0000
  H   H2996     1.0  0.93052  0.29129  0.76241  1.0000
  H   H2997     1.0  0.93183  0.42757  0.90710  1.0000
  C   C2525     1.0  0.90437  0.47889  0.65689  1.0000
  S   S670      1.0  0.88576  0.98620  0.75554  1.0000
  N   N167      1.0  0.88500  0.31159  0.93981  1.0000
  H   H2998     1.0  0.80939  0.04500  0.67394  1.0000
  H   H2999     1.0  0.78174  0.47464  0.91780  1.0000
  H   H3000     1.0  0.91770  0.18670  0.88014  1.0000
  H   H3001     1.0  0.86736  0.02557  0.77000  1.0000
  H   H3002     1.0  0.93246  0.47942  0.80009  1.0000
  H   H3003     1.0  0.94093  0.32670  0.77680  1.0000
  C   C2526     1.0  0.89361  0.06903  0.78180  1.0000
  C   C2527     1.0  0.96283  0.21923  0.96981  1.0000
  C   C2528     1.0  0.94769  0.46283  0.90354  1.0000
  C   C2529     1.0  0.95796  0.43042  0.80070  1.0000
  S   S671      1.0  0.98336  0.47758  0.69994  1.0000
  C   C2530     1.0  0.88643  0.34349  0.82062  1.0000
  C   C2531     1.0  0.83079  0.99503  0.67457  1.0000
  C   C2532     1.0  0.93670  0.29118  0.91224  1.0000
  H   H3004     1.0  0.85392  0.38861  0.67551  1.0000
  C   C2533     1.0  0.90080  0.32775  0.81401  1.0000
  C   C2534     1.0  0.96107  0.45288  0.69145  1.0000
  H   H3005     1.0  0.97725  0.47032  0.89976  1.0000
  C   C2535     1.0  0.82532  0.04539  0.67098  1.0000
  H   H3006     1.0  0.88834  0.99723  0.81583  1.0000
  C   C2536     1.0  0.84353  0.39803  0.66634  1.0000
  C   C2537     1.0  0.81567  0.99905  0.66272  1.0000
  H   H3007     1.0  0.91044  0.31923  0.82435  1.0000
  C   C2538     1.0  0.97612  0.15922  0.78140  1.0000
  N   N168      1.0  0.86878  0.02236  0.80145  1.0000
  C   C2539     1.0  0.80291  0.99855  0.79442  1.0000
  H   H3008     1.0  0.80014  0.00013  0.66983  1.0000
  H   H3009     1.0  0.79361  0.99696  0.73545  1.0000
  H   H3010     1.0  0.86291  0.36776  0.81293  1.0000
  H   H3011     1.0  0.88546  0.19161  0.86815  1.0000
  H   H3012     1.0  0.95284  0.21647  0.96073  1.0000
  Fe  Fe332     1.0  0.92406  0.36436  0.65899  1.0000
  Fe  Fe333     1.0  0.84840  0.98973  0.71928  1.0000
  H   H3013     1.0  0.88579  0.30574  0.97170  1.0000
  H   H3014     1.0  0.89361  0.08152  0.76939  1.0000
  Fe  Fe334     1.0  0.98633  0.11062  0.70534  1.0000
  H   H3015     1.0  0.92111  0.31730  0.75548  1.0000
  Fe  Fe335     1.0  0.89594  0.40286  0.66726  1.0000
  H   H3016     1.0  0.95132  0.30045  0.78250  1.0000
  N   N169      1.0  0.88944  0.04340  0.65922  1.0000
  H   H3017     1.0  0.88746  0.19368  0.93917  1.0000
  Fe  Fe336     1.0  0.97484  0.08392  0.74508  1.0000
  H   H3018     1.0  0.83197  0.22012  0.90975  1.0000
  H   H3019     1.0  0.94632  0.39311  0.76919  1.0000
  H   H3020     1.0  0.87130  0.05780  0.77263  1.0000
  H   H3021     1.0  0.85838  0.18370  0.95894  1.0000
  H   H3022     1.0  0.85347  0.30942  0.94510  1.0000
  H   H3023     1.0  0.95318  0.44750  0.90965  1.0000
  H   H3024     1.0  0.88536  0.34674  0.83561  1.0000
  H   H3025     1.0  0.96356  0.13235  0.79370  1.0000
  H   H3026     1.0  0.84843  0.01304  0.78641  1.0000
  C   C2540     1.0  0.85915  0.47378  0.88004  1.0000
  C   C2541     1.0  0.97629  0.43663  0.79888  1.0000
  C   C2542     1.0  0.90372  0.18913  0.89053  1.0000
  H   H3027     1.0  0.89612  0.03208  0.68918  1.0000
  C   C2543     1.0  0.95303  0.42400  0.78459  1.0000
  C   C2544     1.0  0.83646  0.21912  0.92456  1.0000
  H   H3028     1.0  0.90732  0.42646  0.92099  1.0000
  H   H3029     1.0  0.85791  0.21054  0.95394  1.0000
  H   H3030     1.0  0.88842  0.48016  0.66255  1.0000
  N   N170      1.0  0.96102  0.41624  0.74935  1.0000
  H   H3031     1.0  0.90014  0.46820  0.87876  1.0000
  H   H3032     1.0  0.83527  0.20079  0.96265  1.0000
  H   H3033     1.0  0.89139  0.05907  0.68283  1.0000
  H   H3034     1.0  0.93185  0.25328  0.95169  1.0000
  C   C2545     1.0  0.89817  0.04495  0.67678  1.0000
  H   H3035     1.0  0.97224  0.38530  0.76010  1.0000
  C   C2546     1.0  0.84759  0.41675  0.65589  1.0000
  C   C2547     1.0  0.74662  0.06262  0.84758  1.0000
  C   C2548     1.0  0.92742  0.46960  0.90076  1.0000
  C   C2549     1.0  0.91935  0.43590  0.91683  1.0000
  C   C2550     1.0  0.94040  0.47701  0.76877  1.0000
  C   C2551     1.0  0.83867  0.48409  0.91700  1.0000
  H   H3036     1.0  0.94694  0.29527  0.89853  1.0000
  S   S672      1.0  0.86978  0.42524  0.65683  1.0000
  C   C2552     1.0  0.94324  0.48208  0.78644  1.0000
  H   H3037     1.0  0.86069  0.36003  0.65338  1.0000
  H   H3038     1.0  0.89409  0.00221  0.78896  1.0000
  H   H3039     1.0  0.89438  0.01112  0.66436  1.0000
  C   C2553     1.0  0.89428  0.46529  0.91941  1.0000
  H   H3040     1.0  0.94759  0.43041  0.81479  1.0000
  H   H3041     1.0  0.91463  0.04481  0.67299  1.0000
  H   H3042     1.0  0.86257  0.99031  0.67422  1.0000
  H   H3043     1.0  0.75821  0.40894  0.73429  1.0000
  H   H3044     1.0  0.98768  0.44019  0.86071  1.0000
  C   C2554     1.0  0.89882  0.02392  0.65272  1.0000
  H   H3045     1.0  0.76260  0.47246  0.89517  1.0000
  C   C2555     1.0  0.74326  0.41515  0.68926  1.0000
  H   H3046     1.0  0.97918  0.43280  0.72500  1.0000
  H   H3047     1.0  0.74532  0.07000  0.88693  1.0000
  H   H3048     1.0  0.77854  0.47516  0.66570  1.0000
  C   C2556     1.0  0.77726  0.17686  0.97734  1.0000
  S   S673      1.0  0.96923  0.41256  0.65392  1.0000
  S   S674      1.0  0.79016  0.39507  0.65206  1.0000
  H   H3049     1.0  0.98007  0.44136  0.81155  1.0000
  H   H3050     1.0  0.74048  0.02523  0.86336  1.0000
  H   H3051     1.0  0.89848  0.46854  0.93305  1.0000
  H   H3052     1.0  0.79511  0.47732  0.88230  1.0000
  H   H3053     1.0  0.73920  0.39786  0.72839  1.0000
  H   H3054     1.0  0.98686  0.18750  0.77378  1.0000
  H   H3055     1.0  0.98863  0.20869  0.95005  1.0000
  H   H3056     1.0  0.80853  0.53445  0.28719  1.0000
  H   H3057     1.0  0.96722  0.77772  0.22547  1.0000
  S   S675      1.0  0.81738  0.75198  0.00339  1.0000
  H   H3058     1.0  0.84100  0.51366  0.28763  1.0000
  C   C2557     1.0  0.84195  0.55358  0.28179  1.0000
  H   H3059     1.0  0.83755  0.49154  0.05015  1.0000
  H   H3060     1.0  0.95963  0.54196  0.23141  1.0000
  S   S676      1.0  0.82829  0.69485  0.03930  1.0000
  H   H3061     1.0  0.81325  0.55860  0.30223  1.0000
  Fe  Fe337     1.0  0.86208  0.68740  0.03269  1.0000
  S   S677      1.0  0.88175  0.67516  0.05672  1.0000
  Fe  Fe338     1.0  0.94696  0.70868  0.11963  1.0000
  S   S678      1.0  0.96140  0.67655  0.12082  1.0000
  S   S679      1.0  0.92888  0.72427  0.09504  1.0000
  Fe  Fe339     1.0  0.96499  0.71390  0.15555  1.0000
  S   S680      1.0  0.82785  0.98043  0.25831  1.0000
  S   S681      1.0  0.96184  0.73829  0.17514  1.0000
  H   H3062     1.0  0.80000  0.61220  0.01886  1.0000
  Fe  Fe340     1.0  0.95246  0.67372  0.15410  1.0000
  S   S682      1.0  0.94139  0.64607  0.17342  1.0000
  H   H3063     1.0  0.97747  0.73020  0.06849  1.0000
  S   S683      1.0  0.93573  0.70537  0.15290  1.0000
  Fe  Fe341     1.0  0.83497  0.95480  0.24105  1.0000
  S   S684      1.0  0.86493  0.96263  0.22572  1.0000
  S   S685      1.0  0.81274  0.94400  0.22704  1.0000
  Fe  Fe342     1.0  0.84227  0.95857  0.28231  1.0000
  S   S686      1.0  0.87298  0.96616  0.27045  1.0000
  H   H3064     1.0  0.84994  0.86908  0.24863  1.0000
  Fe  Fe343     1.0  0.87709  0.94205  0.25177  1.0000
  S   S687      1.0  0.90825  0.92518  0.24278  1.0000
  H   H3065     1.0  0.96134  0.59847  0.15202  1.0000
  S   S688      1.0  0.84752  0.93227  0.26603  1.0000
  H   H3066     1.0  0.90363  0.82986  0.26126  1.0000
  H   H3067     1.0  0.89921  0.49052  0.10199  1.0000
  S   S689      1.0  0.93788  0.83553  0.28157  1.0000
  Fe  Fe344     1.0  0.90240  0.55274  0.15774  1.0000
  S   S690      1.0  0.87612  0.53785  0.17420  1.0000
  S   S691      1.0  0.90173  0.58515  0.14199  1.0000
  Fe  Fe345     1.0  0.93154  0.51393  0.16400  1.0000
  H   H3068     1.0  0.96251  0.97043  0.28363  1.0000
  Fe  Fe346     1.0  0.88965  0.51234  0.15675  1.0000
  S   S692      1.0  0.86920  0.50113  0.14019  1.0000
  Fe  Fe347     1.0  0.89658  0.52218  0.19639  1.0000
  S   S693      1.0  0.88985  0.51529  0.23041  1.0000
  S   S694      1.0  0.91463  0.52851  0.13886  1.0000
  S   S695      1.0  0.92138  0.53919  0.18133  1.0000
  H   H3069     1.0  0.88830  0.88935  0.18730  1.0000
  C   C2558     1.0  0.87204  0.89069  0.19342  1.0000
  S   S696      1.0  0.93403  0.55646  0.27962  1.0000
  H   H3070     1.0  0.80973  0.53425  0.26131  1.0000
  Fe  Fe348     1.0  0.83157  0.71937  0.01217  1.0000
  C   C2559     1.0  0.76556  0.64519  0.99487  1.0000
  N   N171      1.0  0.97311  0.51283  0.22335  1.0000
  C   C2560     1.0  0.90237  0.52663  0.24396  1.0000
  C   C2561     1.0  0.90953  0.54455  0.23548  1.0000
  C   C2562     1.0  0.91890  0.55367  0.24671  1.0000
  C   C2563     1.0  0.92094  0.54516  0.26662  1.0000
  C   C2564     1.0  0.91361  0.52732  0.27522  1.0000
  C   C2565     1.0  0.90446  0.51803  0.26387  1.0000
  H   H3071     1.0  0.90752  0.55166  0.22039  1.0000
  H   H3072     1.0  0.92443  0.56754  0.24000  1.0000
  H   H3073     1.0  0.91521  0.52055  0.29051  1.0000
  H   H3074     1.0  0.89888  0.50421  0.27063  1.0000
  C   C2566     1.0  0.91631  0.90054  0.25438  1.0000
  C   C2567     1.0  0.90376  0.89027  0.26974  1.0000
  C   C2568     1.0  0.91068  0.87044  0.27837  1.0000
  C   C2569     1.0  0.93011  0.86085  0.27165  1.0000
  C   C2570     1.0  0.94273  0.87126  0.25649  1.0000
  C   C2571     1.0  0.93581  0.89104  0.24783  1.0000
  H   H3075     1.0  0.88871  0.89751  0.27485  1.0000
  H   H3076     1.0  0.90085  0.86239  0.29005  1.0000
  H   H3077     1.0  0.95766  0.86390  0.25114  1.0000
  H   H3078     1.0  0.94550  0.89891  0.23586  1.0000
  H   H3079     1.0  0.73978  0.76323  0.02851  1.0000
  H   H3080     1.0  0.81640  0.98259  0.20070  1.0000
  C   C2572     1.0  0.97495  0.76606  0.21692  1.0000
  S   S697      1.0  0.79285  0.51611  0.00495  1.0000
  H   H3081     1.0  0.94982  0.76656  0.20243  1.0000
  C   C2573     1.0  0.93081  0.62917  0.16418  1.0000
  C   C2574     1.0  0.92832  0.63209  0.14409  1.0000
  C   C2575     1.0  0.91994  0.61819  0.13731  1.0000
  C   C2576     1.0  0.91395  0.60129  0.15053  1.0000
  C   C2577     1.0  0.91680  0.59817  0.17051  1.0000
  C   C2578     1.0  0.92514  0.61209  0.17730  1.0000
  H   H3082     1.0  0.93249  0.64523  0.13385  1.0000
  H   H3083     1.0  0.91791  0.62074  0.12182  1.0000
  H   H3084     1.0  0.91209  0.58534  0.18090  1.0000
  H   H3085     1.0  0.92704  0.60970  0.19286  1.0000
  C   C2579     1.0  0.89558  0.68926  0.06599  1.0000
  C   C2580     1.0  0.89270  0.71025  0.06181  1.0000
  C   C2581     1.0  0.90305  0.72084  0.07073  1.0000
  C   C2582     1.0  0.91611  0.71056  0.08407  1.0000
  C   C2583     1.0  0.91916  0.68958  0.08799  1.0000
  C   C2584     1.0  0.90916  0.67901  0.07880  1.0000
  H   H3086     1.0  0.88226  0.71833  0.05201  1.0000
  H   H3087     1.0  0.90065  0.73708  0.06756  1.0000
  H   H3088     1.0  0.92915  0.68144  0.09816  1.0000
  H   H3089     1.0  0.91170  0.66279  0.08198  1.0000
  C   C2585     1.0  0.76268  0.78795  0.03806  1.0000
  C   C2586     1.0  0.77115  0.76878  0.04702  1.0000
  C   C2587     1.0  0.78772  0.75740  0.03652  1.0000
  C   C2588     1.0  0.79609  0.76525  0.01702  1.0000
  C   C2589     1.0  0.78757  0.78439  0.00805  1.0000
  C   C2590     1.0  0.77085  0.79566  0.01846  1.0000
  H   H3090     1.0  0.76490  0.76271  0.06219  1.0000
  H   H3091     1.0  0.79422  0.74273  0.04361  1.0000
  C   C2591     1.0  0.96457  0.89907  0.28458  1.0000
  H   H3092     1.0  0.76446  0.81039  0.01140  1.0000
  H   H3093     1.0  0.98737  0.98088  0.22818  1.0000
  C   C2592     1.0  0.84588  0.52105  0.27200  1.0000
  H   H3094     1.0  0.87320  0.55120  0.26712  1.0000
  C   C2593     1.0  0.80086  0.95739  0.20658  1.0000
  C   C2594     1.0  0.78653  0.94902  0.20053  1.0000
  C   C2595     1.0  0.77680  0.95910  0.18430  1.0000
  N   N172      1.0  0.83586  0.54226  0.26850  1.0000
  H   H3095     1.0  0.78292  0.93465  0.20845  1.0000
  H   H3096     1.0  0.76576  0.95253  0.17985  1.0000
  S   S698      1.0  0.82694  0.96277  0.31383  1.0000
  H   H3097     1.0  0.95353  0.56620  0.14966  1.0000
  Fe  Fe349     1.0  0.98874  0.68682  0.12532  1.0000
  C   C2596     1.0  0.75332  0.92399  0.03139  1.0000
  C   C2597     1.0  0.81391  0.54236  0.27188  1.0000
  S   S699      1.0  0.98732  0.82433  0.24145  1.0000
  C   C2598     1.0  0.98264  0.71368  0.07169  1.0000
  H   H3098     1.0  0.97527  0.61434  0.17101  1.0000
  C   C2599     1.0  0.96905  0.56844  0.14660  1.0000
  H   H3099     1.0  0.79398  0.79059  0.99299  1.0000
  C   C2600     1.0  0.97481  0.74458  0.19241  1.0000
  H   H3100     1.0  0.95641  0.93674  0.28481  1.0000
  H   H3101     1.0  0.98052  0.79756  0.18439  1.0000
  N   N173      1.0  0.98497  0.70441  0.05355  1.0000
  C   C2601     1.0  0.80797  0.49257  0.00897  1.0000
  H   H3102     1.0  0.95920  0.52189  0.25198  1.0000
  C   C2602     1.0  0.80539  0.97598  0.19624  1.0000
  C   C2603     1.0  0.75381  0.63038  0.99730  1.0000
  C   C2604     1.0  0.82668  0.48837  0.99695  1.0000
  H   H3103     1.0  0.84258  0.49184  0.11763  1.0000
  S   S700      1.0  0.75125  0.96986  0.11183  1.0000
  H   H3104     1.0  0.95447  0.69880  0.06082  1.0000
  S   S701      1.0  0.90803  0.49561  0.18043  1.0000
  C   C2605     1.0  0.97131  0.98322  0.22919  1.0000
  H   H3105     1.0  0.84248  0.51215  0.26167  1.0000
  H   H3106     1.0  0.90749  0.87812  0.21187  1.0000
  H   H3107     1.0  0.96519  0.69970  0.03491  1.0000
  H   H3108     1.0  0.88391  0.56903  0.28911  1.0000
  H   H3109     1.0  0.86708  0.87671  0.19199  1.0000
  S   S702      1.0  0.86539  0.71323  0.00721  1.0000
  S   S703      1.0  0.86243  0.66543  0.01235  1.0000
  H   H3110     1.0  0.86441  0.90339  0.18336  1.0000
  C   C2606     1.0  0.97160  0.93945  0.27961  1.0000
  H   H3111     1.0  0.97133  0.70743  0.08397  1.0000
  H   H3112     1.0  0.86673  0.53870  0.06552  1.0000
  C   C2607     1.0  0.96511  0.75970  0.20379  1.0000
  C   C2608     1.0  0.83495  0.57159  0.31047  1.0000
  C   C2609     1.0  0.87190  0.52274  0.06965  1.0000
  H   H3113     1.0  0.94549  0.50164  0.23487  1.0000
  Fe  Fe350     1.0  0.82914  0.67449  0.01707  1.0000
  C   C2610     1.0  0.95387  0.50845  0.22045  1.0000
  H   H3114     1.0  0.83853  0.91151  0.20983  1.0000
  H   H3115     1.0  0.86242  0.51968  0.26969  1.0000
  C   C2611     1.0  0.86205  0.55686  0.27889  1.0000
  C   C2612     1.0  0.85480  0.57451  0.30716  1.0000
  Fe  Fe351     1.0  0.97064  0.82305  0.27311  1.0000
  H   H3116     1.0  0.97040  0.62813  0.13643  1.0000
  C   C2613     1.0  0.81507  0.63610  0.00131  1.0000
  H   H3117     1.0  0.94399  0.52236  0.21468  1.0000
  C   C2614     1.0  0.82856  0.56112  0.29817  1.0000
  H   H3118     1.0  0.76850  0.65001  0.00790  1.0000
  H   H3119     1.0  0.83604  0.56732  0.24416  1.0000
  H   H3120     1.0  0.93539  0.95429  0.23440  1.0000
  H   H3121     1.0  0.80540  0.55794  0.26991  1.0000
  H   H3122     1.0  0.85726  0.51485  0.04870  1.0000
  C   C2615     1.0  0.87264  0.48794  0.06565  1.0000
  H   H3123     1.0  0.98252  0.82242  0.18741  1.0000
  H   H3124     1.0  0.86693  0.84029  0.26891  1.0000
  H   H3125     1.0  0.97211  0.95140  0.23154  1.0000
  C   C2616     1.0  0.97488  0.95899  0.27896  1.0000
  H   H3126     1.0  0.74749  0.62384  0.01232  1.0000
  H   H3127     1.0  0.98446  0.51432  0.19140  1.0000
  C   C2617     1.0  0.94204  0.96761  0.23291  1.0000
  C   C2618     1.0  0.80774  0.61795  0.00421  1.0000
  N   N174      1.0  0.86159  0.63826  0.11552  1.0000
  C   C2619     1.0  0.84621  0.65225  0.10489  1.0000
  C   C2620     1.0  0.87831  0.63068  0.10034  1.0000
  C   C2621     1.0  0.85221  0.62087  0.12702  1.0000
  C   C2622     1.0  0.86948  0.64871  0.12832  1.0000
  C   C2623     1.0  0.87540  0.66773  0.12061  1.0000
  C   C2624     1.0  0.87261  0.63998  0.14822  1.0000
  C   C2625     1.0  0.88379  0.67741  0.13206  1.0000
  C   C2626     1.0  0.88085  0.64989  0.15961  1.0000
  C   C2627     1.0  0.88655  0.66849  0.15152  1.0000
  H   H3128     1.0  0.83866  0.64434  0.09674  1.0000
  H   H3129     1.0  0.83451  0.66017  0.11558  1.0000
  H   H3130     1.0  0.85272  0.66379  0.09305  1.0000
  H   H3131     1.0  0.88583  0.64301  0.09092  1.0000
  H   H3132     1.0  0.87306  0.62325  0.08991  1.0000
  H   H3133     1.0  0.88988  0.61954  0.10761  1.0000
  H   H3134     1.0  0.84027  0.62543  0.13949  1.0000
  H   H3135     1.0  0.84536  0.61401  0.11732  1.0000
  H   H3136     1.0  0.86345  0.60851  0.13336  1.0000
  H   H3137     1.0  0.87402  0.67512  0.10547  1.0000
  H   H3138     1.0  0.86949  0.62519  0.15512  1.0000
  H   H3139     1.0  0.88854  0.69177  0.12565  1.0000
  H   H3140     1.0  0.88365  0.64272  0.17454  1.0000
  H   H3141     1.0  0.89357  0.67577  0.16019  1.0000
  H   H3142     1.0  0.83641  0.54356  0.23676  1.0000
  C   C2628     1.0  0.89036  0.49560  0.09002  1.0000
  Fe  Fe352     1.0  0.92720  0.55331  0.31363  1.0000
  H   H3143     1.0  0.76495  0.93381  0.02812  1.0000
  S   S704      1.0  0.81048  0.65000  0.02120  1.0000
  C   C2629     1.0  0.98591  0.49378  0.23052  1.0000
  S   S705      1.0  0.98095  0.68167  0.15911  1.0000
  Fe  Fe353     1.0  0.74515  0.98270  0.14039  1.0000
  H   H3144     1.0  0.86782  0.92590  0.20713  1.0000
  H   H3145     1.0  0.97892  0.72696  0.01554  1.0000
  C   C2630     1.0  0.96270  0.96604  0.23122  1.0000
  C   C2631     1.0  0.98310  0.52286  0.20383  1.0000
  H   H3146     1.0  0.85844  0.54881  0.24237  1.0000
  H   H3147     1.0  0.80429  0.59346  0.99053  1.0000
  H   H3148     1.0  0.98498  0.49860  0.26137  1.0000
  H   H3149     1.0  0.89168  0.91095  0.21021  1.0000
  H   H3150     1.0  0.74210  0.92103  0.07082  1.0000
  H   H3151     1.0  0.98062  0.53863  0.14011  1.0000
  S   S706      1.0  0.97499  0.71954  0.12183  1.0000
  C   C2632     1.0  0.86835  0.56712  0.29141  1.0000
  C   C2633     1.0  0.86650  0.50895  0.06019  1.0000
  C   C2634     1.0  0.84191  0.55093  0.24709  1.0000
  S   S707      1.0  0.96441  0.50264  0.16211  1.0000
  H   H3152     1.0  0.92355  0.84883  0.23283  1.0000
  N   N175      1.0  0.86742  0.89401  0.21460  1.0000
  C   C2635     1.0  0.84525  0.89841  0.22015  1.0000
  C   C2636     1.0  0.87534  0.91207  0.21591  1.0000
  C   C2637     1.0  0.87696  0.87635  0.22759  1.0000
  C   C2638     1.0  0.86593  0.86517  0.24427  1.0000
  C   C2639     1.0  0.89803  0.86998  0.22382  1.0000
  C   C2640     1.0  0.87551  0.84850  0.25611  1.0000
  C   C2641     1.0  0.90739  0.85323  0.23567  1.0000
  C   C2642     1.0  0.89616  0.84250  0.25177  1.0000
  H   H3153     1.0  0.84058  0.90249  0.23547  1.0000
  H   H3154     1.0  0.83814  0.88553  0.21937  1.0000
  H   H3155     1.0  0.87304  0.91441  0.23177  1.0000
  H   H3156     1.0  0.75908  0.90960  0.04067  1.0000
  C   C2643     1.0  0.96850  0.52746  0.23753  1.0000
  C   C2644     1.0  0.96469  0.70650  0.04838  1.0000
  H   H3157     1.0  0.86790  0.49216  0.02631  1.0000
  C   C2645     1.0  0.97366  0.58694  0.14781  1.0000
  H   H3158     1.0  0.95600  0.49808  0.20945  1.0000
  C   C2646     1.0  0.98764  0.92410  0.27385  1.0000
  H   H3159     1.0  0.97444  0.53788  0.19878  1.0000
  S   S708      1.0  0.74138  0.80129  0.05156  1.0000
  H   H3160     1.0  0.95730  0.72252  0.04589  1.0000
  H   H3161     1.0  0.88747  0.52668  0.09236  1.0000
  C   C2647     1.0  0.78142  0.97764  0.17387  1.0000
  H   H3162     1.0  0.98188  0.67491  0.07050  1.0000
  H   H3163     1.0  0.96331  0.88298  0.28566  1.0000
  C   C2648     1.0  0.88369  0.51605  0.08463  1.0000
  H   H3164     1.0  0.74164  0.61185  0.98360  1.0000
  H   H3165     1.0  0.96053  0.90249  0.30014  1.0000
  H   H3166     1.0  0.95301  0.90785  0.27559  1.0000
  H   H3167     1.0  0.75194  0.92001  0.01692  1.0000
  H   H3168     1.0  0.98238  0.53105  0.24080  1.0000
  S   S709      1.0  0.98290  0.79047  0.28269  1.0000
  S   S710      1.0  0.82929  0.69952  0.99087  1.0000
  H   H3169     1.0  0.83171  0.49955  0.98456  1.0000
  H   H3170     1.0  0.85794  0.76214  0.98895  1.0000
  H   H3171     1.0  0.74860  0.94533  0.06102  1.0000
  C   C2649     1.0  0.98427  0.55293  0.14121  1.0000
  C   C2650     1.0  0.81009  0.60735  0.98817  1.0000
  H   H3172     1.0  0.97861  0.90785  0.24508  1.0000
  Fe  Fe354     1.0  0.86259  0.69189  0.98766  1.0000
  N   N176      1.0  0.98502  0.90305  0.27514  1.0000
  H   H3173     1.0  0.98739  0.88211  0.25500  1.0000
  C   C2651     1.0  0.98685  0.62643  0.13141  1.0000
  Fe  Fe355     1.0  0.78405  0.59211  0.48961  1.0000
  S   S711      1.0  0.81630  0.59305  0.49169  1.0000
  S   S712      1.0  0.77796  0.56110  0.49069  1.0000
  H   H3174     1.0  0.89165  0.91715  0.61419  1.0000
  C   C2652     1.0  0.77682  0.51740  0.59861  1.0000
  Fe  Fe356     1.0  0.78061  0.49807  0.33712  1.0000
  H   H3175     1.0  0.98254  0.62834  0.54086  1.0000
  Fe  Fe357     1.0  0.81967  0.88969  0.46537  1.0000
  S   S713      1.0  0.79971  0.91753  0.47444  1.0000
  S   S714      1.0  0.82703  0.86082  0.48675  1.0000
  Fe  Fe358     1.0  0.82660  0.90797  0.42119  1.0000
  S   S715      1.0  0.80758  0.93744  0.42642  1.0000
  S   S716      1.0  0.84305  0.89932  0.39155  1.0000
  Fe  Fe359     1.0  0.82261  0.93375  0.45312  1.0000
  S   S717      1.0  0.83303  0.96004  0.46000  1.0000
  Fe  Fe360     1.0  0.78610  0.91903  0.44714  1.0000
  C   C2653     1.0  0.95797  0.80466  0.63277  1.0000
  S   S718      1.0  0.84365  0.90590  0.44618  1.0000
  S   S719      1.0  0.80391  0.88960  0.43980  1.0000
  C   C2654     1.0  0.86407  0.91941  0.57717  1.0000
  Fe  Fe361     1.0  0.92307  0.81252  0.59535  1.0000
  S   S720      1.0  0.89408  0.81309  0.58487  1.0000
  C   C2655     1.0  0.95678  0.73176  0.48732  1.0000
  Fe  Fe362     1.0  0.94771  0.79286  0.56054  1.0000
  S   S721      1.0  0.92123  0.79215  0.54669  1.0000
  C   C2656     1.0  0.75741  0.95095  0.53336  1.0000
  Fe  Fe363     1.0  0.91022  0.82334  0.55394  1.0000
  S   S722      1.0  0.89994  0.85155  0.53285  1.0000
  Fe  Fe364     1.0  0.90744  0.78181  0.57859  1.0000
  S   S723      1.0  0.89142  0.75498  0.58823  1.0000
  S   S724      1.0  0.93830  0.82486  0.56485  1.0000
  S   S725      1.0  0.93491  0.78039  0.59195  1.0000
  Fe  Fe365     1.0  0.88093  0.62457  0.55659  1.0000
  S   S726      1.0  0.89012  0.64163  0.57704  1.0000
  S   S727      1.0  0.84752  0.62698  0.55701  1.0000
  Fe  Fe366     1.0  0.92401  0.61129  0.53826  1.0000
  S   S728      1.0  0.93651  0.62739  0.55682  1.0000
  S   S729      1.0  0.94613  0.59493  0.51600  1.0000
  Fe  Fe367     1.0  0.91432  0.61474  0.58205  1.0000
  S   S730      1.0  0.92393  0.60317  0.61235  1.0000
  Fe  Fe368     1.0  0.91158  0.65268  0.54999  1.0000
  S   S731      1.0  0.91776  0.68422  0.53727  1.0000
  S   S732      1.0  0.90336  0.59667  0.56400  1.0000
  S   S733      1.0  0.90084  0.63751  0.52919  1.0000
  S   S734      1.0  0.77164  0.48615  0.36978  1.0000
  Fe  Fe369     1.0  0.93442  0.52874  0.35392  1.0000
  Fe  Fe370     1.0  0.89394  0.55377  0.34973  1.0000
  H   H3176     1.0  0.96965  0.85548  0.55829  1.0000
  S   S735      1.0  0.86026  0.55550  0.36018  1.0000
  Fe  Fe371     1.0  0.93094  0.57377  0.34854  1.0000
  S   S736      1.0  0.94304  0.59969  0.35593  1.0000
  S   S737      1.0  0.90770  0.57851  0.32827  1.0000
  S   S738      1.0  0.91501  0.55162  0.37151  1.0000
  C   C2657     1.0  0.96254  0.59931  0.36966  1.0000
  S   S739      1.0  0.91236  0.52893  0.33406  1.0000
  C   C2658     1.0  0.96831  0.61757  0.37051  1.0000
  C   C2659     1.0  0.97546  0.64213  0.49857  1.0000
  H   H3177     1.0  0.96079  0.63146  0.36291  1.0000
  C   C2660     1.0  0.96451  0.60981  0.50529  1.0000
  C   C2661     1.0  0.96072  0.63020  0.50683  1.0000
  S   S740      1.0  0.75081  0.51737  0.33306  1.0000
  C   C2662     1.0  0.77414  0.94561  0.38725  1.0000
  H   H3178     1.0  0.98372  0.78248  0.47363  1.0000
  Fe  Fe372     1.0  0.74170  0.49030  0.32543  1.0000
  H   H3179     1.0  0.94632  0.63692  0.51414  1.0000
  H   H3180     1.0  0.74422  0.90176  0.40299  1.0000
  C   C2663     1.0  0.78521  0.54700  0.57417  1.0000
  C   C2664     1.0  0.87127  0.94313  0.60348  1.0000
  C   C2665     1.0  0.97255  0.80945  0.51561  1.0000
  S   S741      1.0  0.95142  0.55063  0.33200  1.0000
  C   C2666     1.0  0.97094  0.49589  0.33330  1.0000
  H   H3181     1.0  0.95806  0.81414  0.52423  1.0000
  S   S742      1.0  0.81132  0.50647  0.32364  1.0000
  C   C2667     1.0  0.74151  0.89662  0.44573  1.0000
  C   C2668     1.0  0.89848  0.73538  0.57395  1.0000
  C   C2669     1.0  0.89621  0.71570  0.58323  1.0000
  C   C2670     1.0  0.90153  0.69986  0.57207  1.0000
  C   C2671     1.0  0.90894  0.70373  0.55150  1.0000
  C   C2672     1.0  0.91076  0.72346  0.54215  1.0000
  C   C2673     1.0  0.90570  0.73922  0.55334  1.0000
  H   H3182     1.0  0.89049  0.71268  0.59915  1.0000
  H   H3183     1.0  0.90024  0.68467  0.57946  1.0000
  H   H3184     1.0  0.91626  0.72654  0.52621  1.0000
  H   H3185     1.0  0.90699  0.75439  0.54597  1.0000
  H   H3186     1.0  0.95646  0.69993  0.49297  1.0000
  Fe  Fe373     1.0  0.74136  0.50399  0.36543  1.0000
  C   C2674     1.0  0.74542  0.50272  0.57424  1.0000
  C   C2675     1.0  0.94578  0.58495  0.61374  1.0000
  C   C2676     1.0  0.95375  0.57357  0.59844  1.0000
  C   C2677     1.0  0.97121  0.55917  0.59994  1.0000
  H   H3187     1.0  0.97332  0.68165  0.54146  1.0000
  H   H3188     1.0  0.83528  0.57521  0.45594  1.0000
  H   H3189     1.0  0.94638  0.57577  0.58552  1.0000
  S   S743      1.0  0.97890  0.77981  0.54772  1.0000
  C   C2678     1.0  0.84664  0.85877  0.50031  1.0000
  C   C2679     1.0  0.85160  0.84104  0.51375  1.0000
  C   C2680     1.0  0.86773  0.83870  0.52410  1.0000
  C   C2681     1.0  0.87910  0.85404  0.52088  1.0000
  C   C2682     1.0  0.87404  0.87182  0.50759  1.0000
  C   C2683     1.0  0.85782  0.87421  0.49738  1.0000
  H   H3190     1.0  0.84295  0.82907  0.51610  1.0000
  H   H3191     1.0  0.87149  0.82499  0.53440  1.0000
  H   H3192     1.0  0.88282  0.88371  0.50502  1.0000
  H   H3193     1.0  0.85408  0.88796  0.48717  1.0000
  H   H3194     1.0  0.88289  0.59792  0.39557  1.0000
  H   H3195     1.0  0.93933  0.58465  0.46261  1.0000
  H   H3196     1.0  0.94175  0.73528  0.49553  1.0000
  C   C2684     1.0  0.85429  0.93961  0.57725  1.0000
  H   H3197     1.0  0.85005  0.96659  0.59010  1.0000
  H   H3198     1.0  0.92166  0.53288  0.64426  1.0000
  C   C2685     1.0  0.76358  0.52256  0.53761  1.0000
  C   C2686     1.0  0.74479  0.53122  0.54679  1.0000
  H   H3199     1.0  0.84749  0.92114  0.31868  1.0000
  H   H3200     1.0  0.75682  0.88943  0.44645  1.0000
  C   C2687     1.0  0.81995  0.94106  0.51962  1.0000
  C   C2688     1.0  0.82614  0.94124  0.49897  1.0000
  C   C2689     1.0  0.82824  0.95937  0.48600  1.0000
  C   C2690     1.0  0.94655  0.83561  0.64619  1.0000
  H   H3201     1.0  0.82906  0.92736  0.49305  1.0000
  C   C2691     1.0  0.83339  0.94533  0.33490  1.0000
  C   C2692     1.0  0.84306  0.92570  0.33329  1.0000
  C   C2693     1.0  0.84641  0.91175  0.35074  1.0000
  C   C2694     1.0  0.84028  0.91742  0.36979  1.0000
  C   C2695     1.0  0.83136  0.93726  0.37125  1.0000
  C   C2696     1.0  0.82772  0.95110  0.35390  1.0000
  C   C2697     1.0  0.98389  0.61803  0.38086  1.0000
  H   H3202     1.0  0.85346  0.89645  0.34947  1.0000
  H   H3203     1.0  0.82719  0.94195  0.38574  1.0000
  H   H3204     1.0  0.82042  0.96632  0.35522  1.0000
  C   C2698     1.0  0.82477  0.51853  0.33572  1.0000
  H   H3205     1.0  0.75473  0.93689  0.52952  1.0000
  C   C2699     1.0  0.85651  0.52838  0.33695  1.0000
  C   C2700     1.0  0.84698  0.54041  0.35135  1.0000
  C   C2701     1.0  0.82629  0.54110  0.35823  1.0000
  C   C2702     1.0  0.81522  0.53016  0.35051  1.0000
  H   H3206     1.0  0.85334  0.75539  0.52846  1.0000
  H   H3207     1.0  0.81866  0.55044  0.36924  1.0000
  S   S744      1.0  0.92382  0.82853  0.62084  1.0000
  H   H3208     1.0  0.82764  0.69811  0.53440  1.0000
  H   H3209     1.0  0.87654  0.68108  0.55147  1.0000
  H   H3210     1.0  0.77058  0.52994  0.52341  1.0000
  C   C2703     1.0  0.82445  0.60309  0.50976  1.0000
  C   C2704     1.0  0.81102  0.61332  0.52391  1.0000
  C   C2705     1.0  0.81827  0.62059  0.53832  1.0000
  C   C2706     1.0  0.83895  0.61779  0.53861  1.0000
  C   C2707     1.0  0.85233  0.60765  0.52441  1.0000
  C   C2708     1.0  0.84509  0.60033  0.51008  1.0000
  H   H3211     1.0  0.79510  0.61566  0.52372  1.0000
  H   H3212     1.0  0.80782  0.62846  0.54924  1.0000
  H   H3213     1.0  0.86826  0.60536  0.52452  1.0000
  H   H3214     1.0  0.85557  0.59239  0.49922  1.0000
  N   N177      1.0  0.94816  0.61281  0.44712  1.0000
  H   H3215     1.0  0.76997  0.94881  0.49491  1.0000
  C   C2709     1.0  0.95588  0.70683  0.56453  1.0000
  C   C2710     1.0  0.93496  0.62409  0.46239  1.0000
  C   C2711     1.0  0.93805  0.61516  0.42956  1.0000
  C   C2712     1.0  0.93371  0.59861  0.42274  1.0000
  C   C2713     1.0  0.93208  0.63460  0.41879  1.0000
  C   C2714     1.0  0.92381  0.60151  0.40632  1.0000
  C   C2715     1.0  0.98571  0.79300  0.52363  1.0000
  C   C2716     1.0  0.91809  0.62078  0.39616  1.0000
  N   N178      1.0  0.97024  0.71977  0.55235  1.0000
  H   H3216     1.0  0.96027  0.59038  0.47032  1.0000
  H   H3217     1.0  0.77296  0.56121  0.53926  1.0000
  H   H3218     1.0  0.94719  0.70202  0.55496  1.0000
  C   C2717     1.0  0.77347  0.50430  0.54693  1.0000
  S   S745      1.0  0.95043  0.50089  0.37066  1.0000
  H   H3219     1.0  0.92016  0.61899  0.46693  1.0000
  H   H3220     1.0  0.94156  0.62193  0.47625  1.0000
  H   H3221     1.0  0.93227  0.64054  0.45701  1.0000
  H   H3222     1.0  0.96044  0.76225  0.47999  1.0000
  H   H3223     1.0  0.81918  0.54982  0.52986  1.0000
  H   H3224     1.0  0.97730  0.61309  0.42887  1.0000
  C   C2718     1.0  0.95304  0.59160  0.45697  1.0000
  H   H3225     1.0  0.91113  0.62283  0.38296  1.0000
  N   N179      1.0  0.85955  0.90734  0.56360  1.0000
  C   C2719     1.0  0.87136  0.88670  0.56492  1.0000
  C   C2720     1.0  0.86380  0.91746  0.54242  1.0000
  H   H3226     1.0  0.86833  0.87777  0.58023  1.0000
  H   H3227     1.0  0.86758  0.87811  0.55449  1.0000
  H   H3228     1.0  0.88775  0.88688  0.56065  1.0000
  H   H3229     1.0  0.83407  0.89616  0.55896  1.0000
  H   H3230     1.0  0.87968  0.91979  0.53825  1.0000
  H   H3231     1.0  0.86106  0.90851  0.53175  1.0000
  H   H3232     1.0  0.85418  0.93239  0.53959  1.0000
  H   H3233     1.0  0.77498  0.58297  0.54869  1.0000
  H   H3234     1.0  0.77925  0.50123  0.60335  1.0000
  H   H3235     1.0  0.85416  0.60083  0.45652  1.0000
  H   H3236     1.0  0.85313  0.50846  0.31798  1.0000
  H   H3237     1.0  0.98828  0.63217  0.38106  1.0000
  C   C2721     1.0  0.96722  0.62088  0.44075  1.0000
  H   H3238     1.0  0.94914  0.59041  0.64251  1.0000
  C   C2722     1.0  0.96771  0.74717  0.47817  1.0000
  S   S746      1.0  0.75350  0.93227  0.44681  1.0000
  H   H3239     1.0  0.93989  0.52626  0.62308  1.0000
  H   H3240     1.0  0.93519  0.64785  0.42287  1.0000
  H   H3241     1.0  0.94455  0.71490  0.57545  1.0000
  C   C2723     1.0  0.98286  0.60148  0.49493  1.0000
  C   C2724     1.0  0.94413  0.82236  0.63414  1.0000
  C   C2725     1.0  0.81635  0.95895  0.52737  1.0000
  H   H3242     1.0  0.79966  0.92299  0.36085  1.0000
  C   C2726     1.0  0.75839  0.53197  0.39568  1.0000
  H   H3243     1.0  0.97720  0.55023  0.58818  1.0000
  C   C2727     1.0  0.98732  0.74296  0.46700  1.0000
  H   H3244     1.0  0.84946  0.74159  0.59232  1.0000
  H   H3245     1.0  0.86431  0.68878  0.53000  1.0000
  H   H3246     1.0  0.95103  0.83981  0.45234  1.0000
  N   N180      1.0  0.79724  0.55663  0.55582  1.0000
  H   H3247     1.0  0.84900  0.72132  0.52742  1.0000
  H   H3248     1.0  0.79925  0.53112  0.35560  1.0000
  H   H3249     1.0  0.91821  0.65221  0.39405  1.0000
  C   C2728     1.0  0.73990  0.94395  0.36711  1.0000
  C   C2729     1.0  0.98292  0.84877  0.54915  1.0000
  C   C2730     1.0  0.84549  0.51754  0.32921  1.0000
  C   C2731     1.0  0.78328  0.92566  0.36063  1.0000
  H   H3250     1.0  0.78584  0.96207  0.50255  1.0000
  H   H3251     1.0  0.90135  0.82348  0.49658  1.0000
  H   H3252     1.0  0.96812  0.74866  0.53287  1.0000
  H   H3253     1.0  0.77283  0.94809  0.53708  1.0000
  H   H3254     1.0  0.81979  0.57572  0.54835  1.0000
  H   H3255     1.0  0.86407  0.57218  0.39408  1.0000
  H   H3256     1.0  0.87229  0.52782  0.33131  1.0000
  C   C2732     1.0  0.81936  0.97696  0.51455  1.0000
  H   H3257     1.0  0.80253  0.53205  0.53938  1.0000
  H   H3258     1.0  0.96377  0.58241  0.44659  1.0000
  C   C2733     1.0  0.96813  0.50502  0.64422  1.0000
  H   H3259     1.0  0.76503  0.94738  0.40231  1.0000
  H   H3260     1.0  0.81911  0.56007  0.57256  1.0000
  C   C2734     1.0  0.74981  0.92826  0.38026  1.0000
  H   H3261     1.0  0.79579  0.90933  0.39513  1.0000
  H   H3262     1.0  0.97250  0.65786  0.49992  1.0000
  N   N181      1.0  0.75486  0.96797  0.51660  1.0000
  H   H3263     1.0  0.93742  0.82450  0.48679  1.0000
  H   H3264     1.0  0.78513  0.54053  0.40033  1.0000
  H   H3265     1.0  0.79231  0.57575  0.52768  1.0000
  H   H3266     1.0  0.78814  0.49780  0.53989  1.0000
  C   C2735     1.0  0.98021  0.72620  0.56661  1.0000
  H   H3267     1.0  0.94715  0.74602  0.55246  1.0000
  C   C2736     1.0  0.76014  0.54856  0.42326  1.0000
  H   H3268     1.0  0.74802  0.59042  0.39718  1.0000
  H   H3269     1.0  0.79005  0.94518  0.38834  1.0000
  H   H3270     1.0  0.84510  0.70761  0.59243  1.0000
  H   H3271     1.0  0.82806  0.92020  0.56654  1.0000
  H   H3272     1.0  0.96791  0.56738  0.37947  1.0000
  H   H3273     1.0  0.96492  0.63719  0.43461  1.0000
  H   H3274     1.0  0.79963  0.51557  0.57330  1.0000
  H   H3275     1.0  0.78033  0.93959  0.34956  1.0000
  C   C2737     1.0  0.97228  0.58150  0.37979  1.0000
  N   N182      1.0  0.88780  0.85694  0.43294  1.0000
  C   C2738     1.0  0.86632  0.85590  0.44086  1.0000
  C   C2739     1.0  0.88961  0.87848  0.42657  1.0000
  C   C2740     1.0  0.89354  0.84692  0.41499  1.0000
  C   C2741     1.0  0.90122  0.84745  0.44775  1.0000
  C   C2742     1.0  0.89408  0.83827  0.46762  1.0000
  C   C2743     1.0  0.92219  0.84751  0.44256  1.0000
  C   C2744     1.0  0.90715  0.83000  0.48136  1.0000
  C   C2745     1.0  0.93510  0.83924  0.45648  1.0000
  C   C2746     1.0  0.92754  0.83058  0.47586  1.0000
  H   H3276     1.0  0.86086  0.86351  0.45420  1.0000
  H   H3277     1.0  0.85653  0.86350  0.42955  1.0000
  H   H3278     1.0  0.86357  0.84013  0.44524  1.0000
  H   H3279     1.0  0.88653  0.88630  0.43981  1.0000
  H   H3280     1.0  0.87888  0.88645  0.41627  1.0000
  H   H3281     1.0  0.90476  0.88068  0.41832  1.0000
  H   H3282     1.0  0.74785  0.95519  0.35736  1.0000
  H   H3283     1.0  0.88335  0.85346  0.40380  1.0000
  H   H3284     1.0  0.90894  0.84851  0.40701  1.0000
  C   C2747     1.0  0.77054  0.96341  0.49916  1.0000
  H   H3285     1.0  0.92873  0.85424  0.42778  1.0000
  Fe  Fe374     1.0  0.74777  0.57196  0.50766  1.0000
  H   H3286     1.0  0.97409  0.61443  0.57550  1.0000
  C   C2748     1.0  0.75819  0.55013  0.60319  1.0000
  H   H3287     1.0  0.98046  0.56555  0.64470  1.0000
  H   H3288     1.0  0.86210  0.66497  0.54516  1.0000
  C   C2749     1.0  0.81096  0.54207  0.54397  1.0000
  N   N183      1.0  0.77131  0.92717  0.38090  1.0000
  S   S747      1.0  0.75461  0.60238  0.50849  1.0000
  H   H3289     1.0  0.81769  0.92709  0.52950  1.0000
  C   C2750     1.0  0.96499  0.71182  0.48582  1.0000
  H   H3290     1.0  0.96846  0.83346  0.49063  1.0000
  H   H3291     1.0  0.97562  0.51748  0.64547  1.0000
  H   H3292     1.0  0.84362  0.94660  0.56739  1.0000
  H   H3293     1.0  0.89290  0.83057  0.41922  1.0000
  H   H3294     1.0  0.96014  0.50821  0.32751  1.0000
  H   H3295     1.0  0.97345  0.86716  0.52235  1.0000
  C   C2751     1.0  0.77957  0.90973  0.39513  1.0000
  C   C2752     1.0  0.78380  0.56967  0.54237  1.0000
  C   C2753     1.0  0.95529  0.58169  0.63059  1.0000
  N   N184      1.0  0.83640  0.55516  0.42362  1.0000
  C   C2754     1.0  0.82373  0.54826  0.44292  1.0000
  C   C2755     1.0  0.82301  0.56352  0.40857  1.0000
  C   C2756     1.0  0.85016  0.53720  0.41726  1.0000
  C   C2757     1.0  0.84800  0.57060  0.42493  1.0000
  C   C2758     1.0  0.86177  0.57781  0.40807  1.0000
  C   C2759     1.0  0.84562  0.57938  0.44245  1.0000
  C   C2760     1.0  0.87260  0.59266  0.40876  1.0000
  C   C2761     1.0  0.85650  0.59426  0.44299  1.0000
  C   C2762     1.0  0.87000  0.60086  0.42621  1.0000
  H   H3296     1.0  0.81208  0.56075  0.44802  1.0000
  H   H3297     1.0  0.81531  0.53657  0.44146  1.0000
  H   H3298     1.0  0.83286  0.54170  0.45497  1.0000
  H   H3299     1.0  0.81398  0.55237  0.40711  1.0000
  H   H3300     1.0  0.83143  0.56806  0.39334  1.0000
  H   H3301     1.0  0.76923  0.97547  0.48585  1.0000
  H   H3302     1.0  0.86121  0.53106  0.42759  1.0000
  H   H3303     1.0  0.84186  0.52506  0.41682  1.0000
  H   H3304     1.0  0.81230  0.57696  0.41286  1.0000
  C   C2763     1.0  0.97836  0.82031  0.49654  1.0000
  H   H3305     1.0  0.77836  0.89523  0.39111  1.0000
  H   H3306     1.0  0.95050  0.73349  0.53120  1.0000
  C   C2764     1.0  0.98489  0.85567  0.52843  1.0000
  H   H3307     1.0  0.87830  0.61248  0.42666  1.0000
  H   H3308     1.0  0.96363  0.69318  0.57332  1.0000
  H   H3309     1.0  0.78016  0.91298  0.35463  1.0000
  H   H3310     1.0  0.92130  0.58867  0.40083  1.0000
  H   H3311     1.0  0.76681  0.57500  0.58178  1.0000
  H   H3312     1.0  0.74143  0.96121  0.48266  1.0000
  H   H3313     1.0  0.76984  0.95943  0.37656  1.0000
  N   N185      1.0  0.84473  0.68998  0.55879  1.0000
  C   C2765     1.0  0.84300  0.67671  0.57870  1.0000
  C   C2766     1.0  0.82672  0.69004  0.55013  1.0000
  C   C2767     1.0  0.86265  0.68086  0.54579  1.0000
  C   C2768     1.0  0.84655  0.71081  0.55975  1.0000
  C   C2769     1.0  0.84649  0.71739  0.57807  1.0000
  C   C2770     1.0  0.84880  0.72520  0.54189  1.0000
  C   C2771     1.0  0.84884  0.73702  0.57829  1.0000
  C   C2772     1.0  0.85125  0.74476  0.54230  1.0000
  C   C2773     1.0  0.85136  0.75062  0.56047  1.0000
  H   H3314     1.0  0.82931  0.68214  0.58906  1.0000
  H   H3315     1.0  0.84195  0.66109  0.57744  1.0000
  H   H3316     1.0  0.85638  0.67550  0.58586  1.0000
  H   H3317     1.0  0.81293  0.69735  0.55911  1.0000
  H   H3318     1.0  0.82470  0.67445  0.54976  1.0000
  H   H3319     1.0  0.80029  0.58190  0.56854  1.0000
  C   C2774     1.0  0.96896  0.48858  0.35392  1.0000
  H   H3320     1.0  0.95612  0.79428  0.62368  1.0000
  C   C2775     1.0  0.83805  0.90542  0.56863  1.0000
  C   C2776     1.0  0.80960  0.56912  0.56158  1.0000
  S   S748      1.0  0.77234  0.60396  0.46068  1.0000
  H   H3321     1.0  0.77442  0.98465  0.52495  1.0000
  S   S749      1.0  0.77467  0.55961  0.43499  1.0000
  H   H3322     1.0  0.85381  0.76561  0.56078  1.0000
  H   H3323     1.0  0.94542  0.54064  0.63967  1.0000
  C   C2777     1.0  0.98107  0.55637  0.61647  1.0000
  Fe  Fe375     1.0  0.76401  0.57368  0.46311  1.0000
  C   C2778     1.0  0.76938  0.54036  0.40596  1.0000
  H   H3324     1.0  0.85872  0.54046  0.40185  1.0000
  C   C2779     1.0  0.97421  0.80034  0.64329  1.0000
  C   C2780     1.0  0.87778  0.91161  0.59085  1.0000
  H   H3325     1.0  0.83412  0.89833  0.58459  1.0000
  H   H3326     1.0  0.88596  0.89644  0.59196  1.0000
  C   C2781     1.0  0.82518  0.97719  0.49382  1.0000
  H   H3327     1.0  0.97553  0.61890  0.45347  1.0000
  H   H3328     1.0  0.87383  0.95223  0.61358  1.0000
  H   H3329     1.0  0.98485  0.78658  0.64226  1.0000
  H   H3330     1.0  0.76567  0.52599  0.38220  1.0000
  C   C2782     1.0  0.78850  0.52594  0.58119  1.0000
  C   C2783     1.0  0.76993  0.55887  0.58594  1.0000
  C   C2784     1.0  0.85785  0.95122  0.59022  1.0000
  C   C2785     1.0  0.98541  0.70969  0.53745  1.0000
  H   H3331     1.0  0.96909  0.73344  0.57828  1.0000
  C   C2786     1.0  0.97296  0.56754  0.63191  1.0000
  C   C2787     1.0  0.88124  0.92339  0.60378  1.0000
  H   H3332     1.0  0.82258  0.53269  0.55250  1.0000
  H   H3333     1.0  0.87842  0.83755  0.47313  1.0000
  H   H3334     1.0  0.97481  0.78260  0.45057  1.0000
  C   C2788     1.0  0.93789  0.52798  0.63913  1.0000
  C   C2789     1.0  0.95852  0.73774  0.54174  1.0000
  S   S750      1.0  0.80714  0.95868  0.55292  1.0000
  C   C2790     1.0  0.92225  0.63729  0.40235  1.0000
  C   C2791     1.0  0.76448  0.49442  0.56531  1.0000
  H   H3335     1.0  0.77185  0.91043  0.41087  1.0000
  H   H3336     1.0  0.93811  0.58322  0.42952  1.0000
  H   H3337     1.0  0.98584  0.58570  0.49373  1.0000
  H   H3338     1.0  0.85983  0.58196  0.31722  1.0000
  H   H3339     1.0  0.93593  0.84938  0.64721  1.0000
  H   H3340     1.0  0.97353  0.59531  0.54837  1.0000
  H   H3341     1.0  0.86764  0.97967  0.34385  1.0000
  H   H3342     1.0  0.98013  0.53448  0.36036  1.0000
  H   H3343     1.0  0.97161  0.50349  0.62806  1.0000
  H   H3344     1.0  0.82469  0.57670  0.32324  1.0000
  H   H3345     1.0  0.74732  0.61752  0.41166  1.0000
  H   H3346     1.0  0.74450  0.57127  0.37271  1.0000
  H   H3347     1.0  0.74688  0.95381  0.54737  1.0000
  H   H3348     1.0  0.97722  0.80471  0.57920  1.0000
  C   C2792     1.0  0.98492  0.69021  0.53375  1.0000
  C   C2793     1.0  0.98011  0.83825  0.59178  1.0000
  Fe  Fe376     1.0  0.74212  0.61166  0.47955  1.0000
  C   C2794     1.0  0.98419  0.70719  0.47509  1.0000
  H   H3349     1.0  0.96484  0.83719  0.58959  1.0000
  C   C2795     1.0  0.73972  0.54828  0.43029  1.0000
  H   H3350     1.0  0.75224  0.52261  0.62260  1.0000
  C   C2796     1.0  0.76156  0.52942  0.60944  1.0000
  H   H3351     1.0  0.74626  0.55945  0.61162  1.0000
  H   H3352     1.0  0.74464  0.59517  0.43029  1.0000
  C   C2797     1.0  0.98716  0.48746  0.32013  1.0000
  C   C2798     1.0  0.98796  0.58194  0.39001  1.0000
  C   C2799     1.0  0.98830  0.77956  0.45791  1.0000
  H   H3353     1.0  0.98033  0.83316  0.60814  1.0000
  H   H3354     1.0  0.98195  0.85431  0.58852  1.0000
  H   H3355     1.0  0.88567  0.64031  0.97073  1.0000
  H   H3356     1.0  0.90728  0.59819  0.92196  1.0000
  C   C2800     1.0  0.94157  0.63860  0.90400  1.0000
  H   H3357     1.0  0.84439  0.77596  0.93900  1.0000
  C   C2801     1.0  0.79700  0.49301  0.88207  1.0000
  C   C2802     1.0  0.92456  0.64217  0.91854  1.0000
  H   H3358     1.0  0.89144  0.60158  0.95493  1.0000
  C   C2803     1.0  0.77442  0.65308  0.97571  1.0000
  H   H3359     1.0  0.87650  0.77744  0.97636  1.0000
  H   H3360     1.0  0.79766  0.49001  0.92214  1.0000
  S   S751      1.0  0.87752  0.69026  0.95580  1.0000
  C   C2804     1.0  0.74784  0.64263  0.92852  1.0000
  C   C2805     1.0  0.82709  0.63302  0.96623  1.0000
  H   H3361     1.0  0.90591  0.69228  0.98078  1.0000
  H   H3362     1.0  0.87211  0.78924  0.92110  1.0000
  H   H3363     1.0  0.92752  0.51804  0.67862  1.0000
  C   C2806     1.0  0.78312  0.49050  0.91735  1.0000
  H   H3364     1.0  0.80300  0.52069  0.90109  1.0000
  N   N186      1.0  0.89333  0.63227  0.94101  1.0000
  C   C2807     1.0  0.78364  0.97788  0.83006  1.0000
  Fe  Fe377     1.0  0.80023  0.53370  0.97418  1.0000
  S   S752      1.0  0.96837  0.70054  0.93428  1.0000
  S   S753      1.0  0.94704  0.85829  0.74336  1.0000
  C   C2808     1.0  0.98094  0.92881  0.74315  1.0000
  S   S754      1.0  0.91882  0.95176  0.71785  1.0000
  Fe  Fe378     1.0  0.81140  0.57315  0.95111  1.0000
  S   S755      1.0  0.80567  0.56636  0.92243  1.0000
  S   S756      1.0  0.82264  0.60257  0.94832  1.0000
  H   H3365     1.0  0.93307  0.76595  0.90024  1.0000
  S   S757      1.0  0.79403  0.52346  0.94741  1.0000
  H   H3366     1.0  0.90617  0.50709  0.66382  1.0000
  Fe  Fe379     1.0  0.82204  0.53533  0.93151  1.0000
  S   S758      1.0  0.84469  0.52340  0.90626  1.0000
  Fe  Fe380     1.0  0.77818  0.55513  0.94050  1.0000
  C   C2809     1.0  0.91471  0.49416  0.65760  1.0000
  S   S759      1.0  0.82984  0.54279  0.95903  1.0000
  S   S760      1.0  0.78232  0.56466  0.96848  1.0000
  H   H3367     1.0  0.81186  0.95758  0.83013  1.0000
  C   C2810     1.0  0.87139  0.76299  0.97695  1.0000
  C   C2811     1.0  0.74927  0.95683  0.76252  1.0000
  H   H3368     1.0  0.93053  0.80836  0.68169  1.0000
  H   H3369     1.0  0.77356  0.60887  0.91932  1.0000
  H   H3370     1.0  0.94176  0.69619  0.97197  1.0000
  H   H3371     1.0  0.87279  0.72907  0.96377  1.0000
  C   C2812     1.0  0.76756  0.96383  0.78612  1.0000
  H   H3372     1.0  0.75854  0.65332  0.92264  1.0000
  C   C2813     1.0  0.93613  0.80016  0.69567  1.0000
  H   H3373     1.0  0.78784  0.53241  0.88251  1.0000
  H   H3374     1.0  0.96555  0.75847  0.75191  1.0000
  C   C2814     1.0  0.76657  0.96306  0.76593  1.0000
  C   C2815     1.0  0.87962  0.64971  0.93214  1.0000
  H   H3375     1.0  0.92169  0.65633  0.92387  1.0000
  C   C2816     1.0  0.95623  0.49572  0.88920  1.0000
  C   C2817     1.0  0.93893  0.88420  0.73600  1.0000
  C   C2818     1.0  0.92095  0.89375  0.74612  1.0000
  C   C2819     1.0  0.91436  0.91447  0.74060  1.0000
  C   C2820     1.0  0.92577  0.92566  0.72490  1.0000
  C   C2821     1.0  0.94361  0.91605  0.71467  1.0000
  C   C2822     1.0  0.95019  0.89541  0.72021  1.0000
  H   H3376     1.0  0.91216  0.88515  0.75836  1.0000
  H   H3377     1.0  0.90059  0.92180  0.74857  1.0000
  H   H3378     1.0  0.95235  0.92464  0.70239  1.0000
  H   H3379     1.0  0.96393  0.88821  0.71219  1.0000
  H   H3380     1.0  0.90412  0.73764  0.95629  1.0000
  C   C2823     1.0  0.77535  0.61523  0.93237  1.0000
  H   H3381     1.0  0.96473  0.84172  0.66570  1.0000
  C   C2824     1.0  0.78767  0.52254  0.89742  1.0000
  C   C2825     1.0  0.95149  0.78303  0.76739  1.0000
  H   H3382     1.0  0.96733  0.50555  0.88428  1.0000
  H   H3383     1.0  0.90582  0.65108  0.95536  1.0000
  H   H3384     1.0  0.94823  0.49814  0.68264  1.0000
  C   C2826     1.0  0.74175  0.61053  0.94701  1.0000
  H   H3385     1.0  0.86887  0.61890  0.96007  1.0000
  C   C2827     1.0  0.94607  0.62074  0.89630  1.0000
  C   C2828     1.0  0.90256  0.69367  0.95009  1.0000
  C   C2829     1.0  0.91209  0.69566  0.93004  1.0000
  C   C2830     1.0  0.93238  0.69749  0.92511  1.0000
  C   C2831     1.0  0.94312  0.69764  0.94021  1.0000
  C   C2832     1.0  0.93348  0.69601  0.96026  1.0000
  C   C2833     1.0  0.91321  0.69391  0.96524  1.0000
  H   H3386     1.0  0.90381  0.69569  0.91826  1.0000
  H   H3387     1.0  0.93960  0.69904  0.90962  1.0000
  H   H3388     1.0  0.95927  0.61812  0.88499  1.0000
  C   C2834     1.0  0.91981  0.76534  0.91171  1.0000
  C   C2835     1.0  0.92021  0.75068  0.92881  1.0000
  C   C2836     1.0  0.88512  0.77819  0.92398  1.0000
  Fe  Fe381     1.0  0.98334  0.69842  0.90236  1.0000
  C   C2837     1.0  0.81969  0.61494  0.96910  1.0000
  S   S761      1.0  0.83876  0.97190  0.79507  1.0000
  H   H3389     1.0  0.90740  0.49607  0.88859  1.0000
  C   C2838     1.0  0.93951  0.80191  0.76619  1.0000
  H   H3390     1.0  0.93252  0.51808  0.87870  1.0000
  H   H3391     1.0  0.83428  0.63908  0.95146  1.0000
  C   C2839     1.0  0.88196  0.61531  0.94820  1.0000
  H   H3392     1.0  0.93710  0.59257  0.89691  1.0000
  H   H3393     1.0  0.75319  0.53767  0.88882  1.0000
  H   H3394     1.0  0.87564  0.61171  0.93593  1.0000
  H   H3395     1.0  0.79301  0.96993  0.71759  1.0000
  C   C2840     1.0  0.93353  0.60640  0.90306  1.0000
  C   C2841     1.0  0.77146  0.64632  0.95888  1.0000
  C   C2842     1.0  0.86117  0.74155  0.95856  1.0000
  H   H3396     1.0  0.80309  0.94225  0.75680  1.0000
  H   H3397     1.0  0.75141  0.52308  0.94635  1.0000
  H   H3398     1.0  0.84709  0.73979  0.96942  1.0000
  H   H3399     1.0  0.74761  0.59613  0.95622  1.0000
  H   H3400     1.0  0.90987  0.62483  0.96562  1.0000
  S   S762      1.0  0.85814  0.96097  0.73946  1.0000
  C   C2843     1.0  0.98527  0.52357  0.77444  1.0000
  H   H3401     1.0  0.76658  0.97474  0.72436  1.0000
  H   H3402     1.0  0.95755  0.77621  0.78099  1.0000
  C   C2844     1.0  0.84675  0.49867  0.90218  1.0000
  H   H3403     1.0  0.85239  0.79235  0.95238  1.0000
  H   H3404     1.0  0.98612  0.89140  0.73666  1.0000
  N   N187      1.0  0.78196  0.50291  0.89723  1.0000
  H   H3405     1.0  0.75329  0.95982  0.81715  1.0000
  S   S763      1.0  0.97211  0.51210  0.83421  1.0000
  H   H3406     1.0  0.77105  0.49660  0.92894  1.0000
  H   H3407     1.0  0.93101  0.78536  0.69900  1.0000
  S   S764      1.0  0.98127  0.74979  0.84016  1.0000
  C   C2845     1.0  0.90310  0.74956  0.94350  1.0000
  Fe  Fe382     1.0  0.85375  0.98080  0.76287  1.0000
  C   C2846     1.0  0.98661  0.77789  0.80622  1.0000
  H   H3408     1.0  0.93717  0.49553  0.83394  1.0000
  H   H3409     1.0  0.78006  0.96866  0.78986  1.0000
  H   H3410     1.0  0.89998  0.82417  0.72794  1.0000
  H   H3411     1.0  0.83107  0.48792  0.93141  1.0000
  H   H3412     1.0  0.78424  0.66398  0.97402  1.0000
  H   H3413     1.0  0.86603  0.65395  0.94324  1.0000
  H   H3414     1.0  0.86331  0.50474  0.87222  1.0000
  C   C2847     1.0  0.96670  0.48752  0.84183  1.0000
  S   S765      1.0  0.98645  0.64965  0.85610  1.0000
  H   H3415     1.0  0.77929  0.65237  0.94443  1.0000
  C   C2848     1.0  0.94335  0.51236  0.67264  1.0000
  C   C2849     1.0  0.80254  0.95880  0.75364  1.0000
  N   N188      1.0  0.78252  0.96950  0.74943  1.0000
  S   S766      1.0  0.74922  0.56505  0.92793  1.0000
  H   H3416     1.0  0.95226  0.52359  0.67423  1.0000
  H   H3417     1.0  0.78243  0.60270  0.94288  1.0000
  H   H3418     1.0  0.87464  0.64649  0.91890  1.0000
  C   C2850     1.0  0.89898  0.63726  0.95890  1.0000
  N   N189      1.0  0.94620  0.50912  0.65152  1.0000
  H   H3419     1.0  0.78038  0.94946  0.72988  1.0000
  C   C2851     1.0  0.97665  0.81359  0.65534  1.0000
  C   C2852     1.0  0.88499  0.76327  0.94156  1.0000
  C   C2853     1.0  0.92235  0.48996  0.89172  1.0000
  C   C2854     1.0  0.93196  0.81090  0.74856  1.0000
  C   C2855     1.0  0.74883  0.52352  0.88862  1.0000
  H   H3420     1.0  0.93385  0.73995  0.93057  1.0000
  H   H3421     1.0  0.95132  0.64979  0.89853  1.0000
  H   H3422     1.0  0.83612  0.77509  0.96534  1.0000
  H   H3423     1.0  0.83063  0.65744  0.97986  1.0000
  N   N190      1.0  0.92881  0.81152  0.71265  1.0000
  C   C2856     1.0  0.90663  0.81427  0.71655  1.0000
  C   C2857     1.0  0.93495  0.83158  0.70598  1.0000
  H   H3424     1.0  0.96125  0.49485  0.80046  1.0000
  C   C2858     1.0  0.93654  0.80137  0.73135  1.0000
  C   C2859     1.0  0.94857  0.78193  0.73318  1.0000
  H   H3425     1.0  0.81257  0.49207  0.88473  1.0000
  H   H3426     1.0  0.95299  0.77347  0.72096  1.0000
  H   H3427     1.0  0.93638  0.80985  0.77887  1.0000
  H   H3428     1.0  0.97673  0.53316  0.76288  1.0000
  C   C2860     1.0  0.75915  0.63163  0.96074  1.0000
  H   H3429     1.0  0.90022  0.82131  0.70268  1.0000
  H   H3430     1.0  0.90136  0.79960  0.72222  1.0000
  H   H3431     1.0  0.92865  0.84194  0.71699  1.0000
  H   H3432     1.0  0.92989  0.83933  0.69161  1.0000
  H   H3433     1.0  0.95152  0.83031  0.70356  1.0000
  C   C2861     1.0  0.93658  0.50275  0.88605  1.0000
  H   H3434     1.0  0.74701  0.95592  0.74771  1.0000
  N   N191      1.0  0.86696  0.76141  0.95717  1.0000
  C   C2862     1.0  0.78040  0.96566  0.72954  1.0000
  C   C2863     1.0  0.96280  0.83128  0.65671  1.0000
  H   H3435     1.0  0.97543  0.52387  0.78934  1.0000
  H   H3436     1.0  0.92290  0.82565  0.74841  1.0000
  H   H3437     1.0  0.96767  0.92356  0.74032  1.0000
  H   H3438     1.0  0.95282  0.79770  0.69197  1.0000
  H   H3439     1.0  0.98083  0.49161  0.73713  1.0000
  H   H3440     1.0  0.78639  0.62563  0.92679  1.0000
  H   H3441     1.0  0.88678  0.66333  0.92704  1.0000
  H   H3442     1.0  0.74446  0.63802  0.91511  1.0000
  C   C2864     1.0  0.84928  0.77696  0.95315  1.0000
  C   C2865     1.0  0.97446  0.49403  0.76919  1.0000
  H   H3443     1.0  0.97375  0.78703  0.81364  1.0000
  N   N192      1.0  0.75597  0.62503  0.94260  1.0000
  H   H3444     1.0  0.77633  0.96977  0.84378  1.0000
  C   C2866     1.0  0.85703  0.49347  0.88373  1.0000
  H   H3445     1.0  0.85891  0.73912  0.94374  1.0000
  C   C2867     1.0  0.76160  0.50473  0.89256  1.0000
  Fe  Fe383     1.0  0.97756  0.84472  0.72843  1.0000
  C   C2868     1.0  0.91146  0.62788  0.92587  1.0000
  S   S767      1.0  0.97004  0.69973  0.87492  1.0000
  C   C2869     1.0  0.97093  0.48904  0.75131  1.0000
  C   C2870     1.0  0.90234  0.77910  0.90933  1.0000
  H   H3446     1.0  0.90213  0.79046  0.89593  1.0000
  C   C2871     1.0  0.95989  0.49065  0.78662  1.0000
  H   H3447     1.0  0.79604  0.50143  0.86663  1.0000
  H   H3448     1.0  0.77727  0.53062  0.90891  1.0000
  H   H3449     1.0  0.81459  0.96220  0.74068  1.0000
  C   C2872     1.0  0.91641  0.60984  0.91758  1.0000
  Fe  Fe384     1.0  0.88903  0.96911  0.73023  1.0000
  H   H3450     1.0  0.97551  0.49126  0.65318  1.0000
  H   H3451     1.0  0.80692  0.96322  0.76662  1.0000
  C   C2873     1.0  0.80378  0.97099  0.82228  1.0000
  H   H3452     1.0  0.98160  0.61387  0.84392  1.0000
  C   C2874     1.0  0.95593  0.77303  0.75096  1.0000
  H   H3453     1.0  0.97995  0.92700  0.75971  1.0000
  C   C2875     1.0  0.75228  0.95878  0.80189  1.0000
  H   H3454     1.0  0.97907  0.94514  0.73707  1.0000
  C   C2876     1.0  0.81346  0.98117  0.80434  1.0000
  S   S768      1.0  0.98395  0.81205  0.72545  1.0000
  C   C2877     1.0  0.75060  0.62361  0.98056  1.0000
  H   H3455     1.0  0.88318  0.75062  0.98216  1.0000
  C   C2878     1.0  0.75378  0.48725  0.89233  1.0000
  C   C2879     1.0  0.82502  0.64344  0.98230  1.0000
  C   C2880     1.0  0.93563  0.49276  0.65046  1.0000
  H   H3456     1.0  0.73920  0.60632  0.93304  1.0000
