data_image0
_chemical_formula_structural       NHSH3Fe2S3FeS2FeS2FeSFeS3C2SC2FeH2C6H8C6H5C2H2CHCNC4H3CFeCHCH4CH6NHC2H11C2HCHNHSHCH3SHC5HSH2NCH3SHC2H2CSCHC3H3C2HC3H2SCSCFeSCSCH2SFeCFeSFeSCSHS2HCFeSCHCSH3C6H8CHC3FeHCH2SHC6HNH2SH4SH2FeHC2HCHCH2CHFeC2HCH2NC9H4SHCH7C5H2C2H2FeS2FeS2FeSFeS5FeCFeSHC2HSHCH2C2H3C6H4C6H7C4FeHSC2NC7H13FeSFeHNC7H14SHC3H3CHC2HSCHC2HNCHCHCH2CHNH4CH2C2HSHCHFeSNSFeS2FeS2FeSFeS3HSHSFeSFeSHC6H4C6H4C2H4CH3CNCH4NC6H12CHC2HCH4C2H3C4HCH2CHSH3CNC9H8CSCHCHC3HC3H2FeC3FeHC2HC3H2CH5CH2CHC2H2SHSCSHS3HC6H8FeH2C8H2C7H4NHSHC2SHCH2CH2NCH2CHC2HFeCH10CH2C2HCHCHCHNCHC2H2C3H4CH3CHC3HCHFeS2FeS2FeSFeS3FeSFeS2FeHS2FeSH3CH3CHSH2CFeHCHC3HC7H4C6H4NC9H13C3H2CH4CH2SN2C9H10C2H3C2H2CHSH2CHSCH2C2H6CHCHCSC5FeHCHC2HC2H2FeHS2HSCHSFeS2FeS2FeSFeS4CHFeSCH2C2HFeH4CHCH2C6H4C2H3C6H4CH2CHC2H4CH2FeCHCSHCNC4HCHCH4C2H4C2HCHNC5H2NH4CH2C2HC4H2NCHSHCSH7CHC2H3C2FeH3C6HCH3C3SH4S2FeSH4SCHC2NHC11H5CHCNC9H2NC3H2CHCH2SH2C2H2CH2SH3C2HC2HC2H3CH4CH7NH2CHC2H3CSCHC2FeHCHC2H2NFeHSHCNSFeS2FeS2FeSFeS3FeSFeHSFeHS2C6H4C2H2C2H3C2HC6H5C3FeSCHNCHFeC6H2FeHSHSC2H9C3SCHCHC2HC2SH3CHCH4C3H9SC2HCNC9H13CH3C2H3CH2CHC4SHCFeSCHCFeS2FeS2FeSFeS3CSH2FeSH3C2H2C6H4C2HC6H5CH2CHCSHC3HCH3NC2HC2H3CHNH6NC9H15CNCH2CH3SH2C2H3CHCH2CFeHC2HCHSH2FeC2H3CSHFeC3SFeCFeSH2FeSFeS2FeSFeS3H2C6H8C3NHCHC3HCH2CH2CSHCNCFeNSHC2HC2HNC2H2SCHCH5CH2CHCH2FeCHSHCHC2HCHSHCSC2HC2HSC4HCSH6CH3CNHC5HC2H2SH3C3H4CHCFeH4CHSHFeSCSFeS2FeS2FeSFeS3FeCFeS2FeS3CN2C3H2C6H4CHCHC8H4C2HC2HCH2C2H3CH3SCH3C3H2CHCHNCH2CSCH2C4H6CNH3C3NC2HCH10CH2FeCHCHCHCHCH2FeH3NH2CH2CH2C2HCHCH10C2HC2H2CSCH3C2H2CHC2HCHC2
_chemical_formula_sum              "N48 H864 S192 Fe96 C720"
_cell_length_a       35.8761
_cell_length_b       35.6945
_cell_length_c       79.3272
_cell_angle_alpha    89.0451
_cell_angle_beta     89.9277
_cell_angle_gamma    90.0682

_space_group_name_H-M_alt    "P 1"
_space_group_IT_number       1

loop_
  _space_group_symop_operation_xyz
  'x, y, z'

loop_
  _atom_site_type_symbol
  _atom_site_label
  _atom_site_symmetry_multiplicity
  _atom_site_fract_x
  _atom_site_fract_y
  _atom_site_fract_z
  _atom_site_occupancy
  N   N1        1.0  0.30784  0.33299  0.30890  1.0000
  H   H1        1.0  0.04724  0.43548  0.21277  1.0000
  S   S1        1.0  0.44616  0.33643  0.11495  1.0000
  H   H2        1.0  0.32646  0.26085  0.15959  1.0000
  H   H3        1.0  0.18469  0.17371  0.16484  1.0000
  H   H4        1.0  0.03733  0.42573  0.19106  1.0000
  Fe  Fe1       1.0  0.40132  0.17087  0.30178  1.0000
  Fe  Fe2       1.0  0.32420  0.20301  0.29356  1.0000
  S   S2        1.0  0.29313  0.24565  0.27715  1.0000
  S   S3        1.0  0.37486  0.22662  0.30622  1.0000
  S   S4        1.0  0.35281  0.14932  0.28696  1.0000
  Fe  Fe3       1.0  0.23538  0.33036  0.15235  1.0000
  S   S5        1.0  0.26050  0.33567  0.17799  1.0000
  S   S6        1.0  0.26973  0.33314  0.12797  1.0000
  Fe  Fe4       1.0  0.15344  0.32736  0.16686  1.0000
  S   S7        1.0  0.17421  0.33161  0.19358  1.0000
  S   S8        1.0  0.09248  0.33081  0.15753  1.0000
  Fe  Fe5       1.0  0.21340  0.37527  0.18299  1.0000
  S   S9        1.0  0.22433  0.42863  0.19686  1.0000
  Fe  Fe6       1.0  0.21947  0.29133  0.18610  1.0000
  S   S10       1.0  0.24136  0.24007  0.20030  1.0000
  S   S11       1.0  0.19084  0.37336  0.15675  1.0000
  S   S12       1.0  0.19617  0.28352  0.15989  1.0000
  C   C1        1.0  0.21190  0.47115  0.18695  1.0000
  C   C2        1.0  0.26415  0.16474  0.13200  1.0000
  S   S13       1.0  0.38273  0.14560  0.32640  1.0000
  C   C3        1.0  0.41743  0.06764  0.27280  1.0000
  C   C4        1.0  0.19882  0.47220  0.17036  1.0000
  Fe  Fe7       1.0  0.33208  0.12714  0.31208  1.0000
  H   H5        1.0  0.42565  0.05291  0.26112  1.0000
  H   H6        1.0  0.19581  0.44684  0.16344  1.0000
  C   C5        1.0  0.27998  0.24331  0.25563  1.0000
  C   C6        1.0  0.26428  0.27528  0.24785  1.0000
  C   C7        1.0  0.25271  0.27478  0.23089  1.0000
  C   C8        1.0  0.25645  0.24212  0.22156  1.0000
  C   C9        1.0  0.27228  0.21015  0.22930  1.0000
  C   C10       1.0  0.28414  0.21074  0.24625  1.0000
  H   H7        1.0  0.26087  0.30059  0.25499  1.0000
  H   H8        1.0  0.24056  0.29954  0.22510  1.0000
  H   H9        1.0  0.27516  0.18472  0.22219  1.0000
  H   H10       1.0  0.29599  0.18591  0.25210  1.0000
  H   H11       1.0  0.37656  0.49402  0.13636  1.0000
  H   H12       1.0  0.17868  0.12864  0.14161  1.0000
  H   H13       1.0  0.45079  0.22988  0.31129  1.0000
  H   H14       1.0  0.28305  0.25274  0.12638  1.0000
  C   C11       1.0  0.39692  0.33569  0.11814  1.0000
  C   C12       1.0  0.37146  0.33832  0.10482  1.0000
  C   C13       1.0  0.33273  0.33726  0.10807  1.0000
  C   C14       1.0  0.31887  0.33375  0.12463  1.0000
  C   C15       1.0  0.34427  0.33128  0.13796  1.0000
  C   C16       1.0  0.38298  0.33216  0.13471  1.0000
  H   H15       1.0  0.38163  0.34095  0.09200  1.0000
  H   H16       1.0  0.31338  0.33920  0.09763  1.0000
  H   H17       1.0  0.33414  0.32865  0.15077  1.0000
  H   H18       1.0  0.40239  0.33005  0.14512  1.0000
  H   H19       1.0  0.33963  0.17022  0.13896  1.0000
  C   C17       1.0  0.04653  0.33214  0.16650  1.0000
  C   C18       1.0  0.03987  0.32759  0.18382  1.0000
  H   H20       1.0  0.02027  0.34155  0.14237  1.0000
  H   H21       1.0  0.06301  0.32232  0.19225  1.0000
  C   C19       1.0  0.20690  0.17116  0.15562  1.0000
  H   H22       1.0  0.12600  0.39362  0.21231  1.0000
  C   C20       1.0  0.23874  0.19353  0.15691  1.0000
  N   N2        1.0  0.09557  0.43318  0.19653  1.0000
  C   C21       1.0  0.05762  0.42073  0.20148  1.0000
  C   C22       1.0  0.10733  0.41066  0.18187  1.0000
  C   C23       1.0  0.12178  0.42436  0.21054  1.0000
  C   C24       1.0  0.41319  0.06442  0.30310  1.0000
  H   H23       1.0  0.10845  0.38022  0.18509  1.0000
  H   H24       1.0  0.27391  0.31640  0.28778  1.0000
  H   H25       1.0  0.38846  0.07829  0.27102  1.0000
  C   C25       1.0  0.49076  0.47576  0.09053  1.0000
  Fe  Fe8       1.0  0.48500  0.34381  0.09197  1.0000
  C   C26       1.0  0.34269  0.32748  0.29917  1.0000
  H   H26       1.0  0.05693  0.39016  0.20456  1.0000
  C   C27       1.0  0.28387  0.43291  0.15434  1.0000
  H   H27       1.0  0.99836  0.32490  0.20361  1.0000
  H   H28       1.0  0.37809  0.43597  0.15085  1.0000
  H   H29       1.0  0.14970  0.43697  0.20803  1.0000
  H   H30       1.0  0.43508  0.09312  0.27387  1.0000
  C   C28       1.0  0.33498  0.19058  0.14920  1.0000
  H   H31       1.0  0.11197  0.43470  0.22288  1.0000
  H   H32       1.0  0.48829  0.44573  0.09229  1.0000
  H   H33       1.0  0.24991  0.34304  0.30310  1.0000
  H   H34       1.0  0.43330  0.08784  0.30449  1.0000
  H   H35       1.0  0.28568  0.16093  0.12266  1.0000
  H   H36       1.0  0.25932  0.44649  0.14826  1.0000
  N   N3        1.0  0.31944  0.44846  0.14757  1.0000
  H   H37       1.0  0.33938  0.30517  0.28960  1.0000
  C   C29       1.0  0.27726  0.34004  0.29663  1.0000
  C   C30       1.0  0.30794  0.23542  0.12966  1.0000
  H   H38       1.0  0.36635  0.31856  0.30732  1.0000
  H   H39       1.0  0.47280  0.39125  0.02080  1.0000
  H   H40       1.0  0.31331  0.21659  0.11894  1.0000
  H   H41       1.0  0.44902  0.48829  0.10921  1.0000
  H   H42       1.0  0.33238  0.25463  0.13014  1.0000
  H   H43       1.0  0.27699  0.26277  0.15751  1.0000
  H   H44       1.0  0.23939  0.21235  0.16739  1.0000
  H   H45       1.0  0.29159  0.27460  0.30963  1.0000
  H   H46       1.0  0.22952  0.12254  0.12071  1.0000
  H   H47       1.0  0.46022  0.29075  0.99645  1.0000
  H   H48       1.0  0.41512  0.04641  0.31460  1.0000
  C   C31       1.0  0.01568  0.33814  0.15579  1.0000
  C   C32       1.0  0.26822  0.19140  0.14498  1.0000
  H   H49       1.0  0.36207  0.02736  0.28542  1.0000
  C   C33       1.0  0.09524  0.47407  0.19296  1.0000
  H   H50       1.0  0.10492  0.47249  0.16559  1.0000
  N   N4        1.0  0.30223  0.21488  0.14589  1.0000
  H   H51       1.0  0.34755  0.39778  0.15546  1.0000
  S   S14       1.0  0.46062  0.16037  0.29345  1.0000
  H   H52       1.0  0.29849  0.23003  0.17219  1.0000
  C   C34       1.0  0.20353  0.14579  0.14257  1.0000
  H   H53       1.0  0.08737  0.41296  0.17116  1.0000
  H   H54       1.0  0.29983  0.45632  0.12212  1.0000
  H   H55       1.0  0.36110  0.20732  0.15029  1.0000
  S   S15       1.0  0.30749  0.06790  0.31070  1.0000
  H   H56       1.0  0.38486  0.07703  0.30290  1.0000
  C   C35       1.0  0.23217  0.14246  0.13082  1.0000
  C   C36       1.0  0.29121  0.39704  0.32058  1.0000
  C   C37       1.0  0.35040  0.42872  0.15632  1.0000
  C   C38       1.0  0.30084  0.24325  0.15940  1.0000
  C   C39       1.0  0.00304  0.32895  0.19023  1.0000
  H   H57       1.0  0.31492  0.40966  0.12704  1.0000
  S   S16       1.0  0.47517  0.37675  0.06785  1.0000
  H   H58       1.0  0.35108  0.35368  0.29237  1.0000
  H   H59       1.0  0.33133  0.17426  0.16119  1.0000
  N   N5        1.0  0.42029  0.04236  0.28781  1.0000
  C   C40       1.0  0.39009  0.01398  0.28653  1.0000
  H   H60       1.0  0.28123  0.40230  0.15197  1.0000
  H   H61       1.0  0.32283  0.28720  0.32584  1.0000
  H   H62       1.0  0.35102  0.43569  0.16996  1.0000
  S   S17       1.0  0.29990  0.18020  0.31794  1.0000
  H   H63       1.0  0.26962  0.40195  0.31136  1.0000
  C   C41       1.0  0.31307  0.36376  0.32099  1.0000
  C   C42       1.0  0.32088  0.43975  0.12933  1.0000
  H   H64       1.0  0.13567  0.41886  0.17744  1.0000
  H   H65       1.0  0.28287  0.36527  0.28860  1.0000
  C   C43       1.0  0.45809  0.02586  0.28893  1.0000
  S   S18       1.0  0.48850  0.30914  0.02923  1.0000
  C   C44       1.0  0.47925  0.22820  0.30709  1.0000
  H   H66       1.0  0.28172  0.43603  0.16827  1.0000
  C   C45       1.0  0.29891  0.29775  0.31825  1.0000
  C   C46       1.0  0.32417  0.02364  0.31818  1.0000
  C   C47       1.0  0.10028  0.48962  0.17649  1.0000
  H   H67       1.0  0.49442  0.28142  0.31755  1.0000
  H   H68       1.0  0.08456  0.49007  0.21899  1.0000
  H   H69       1.0  0.34872  0.44520  0.12364  1.0000
  C   C48       1.0  0.32356  0.48937  0.14989  1.0000
  C   C49       1.0  0.48219  0.41320  0.99564  1.0000
  H   H70       1.0  0.48736  0.07953  0.28790  1.0000
  C   C50       1.0  0.49137  0.19729  0.29800  1.0000
  C   C51       1.0  0.48536  0.41356  0.01322  1.0000
  C   C52       1.0  0.49008  0.04938  0.28882  1.0000
  H   H71       1.0  0.27483  0.30166  0.32689  1.0000
  H   H72       1.0  0.27299  0.49884  0.16491  1.0000
  S   S19       1.0  0.38172  0.44281  0.60809  1.0000
  C   C53       1.0  0.33768  0.13970  0.62120  1.0000
  S   S20       1.0  0.36851  0.40653  0.57011  1.0000
  C   C54       1.0  0.48452  0.30481  0.64252  1.0000
  Fe  Fe9       1.0  0.33848  0.40873  0.59503  1.0000
  S   S21       1.0  0.31002  0.36015  0.60912  1.0000
  C   C55       1.0  0.31979  0.25871  0.58943  1.0000
  S   S22       1.0  0.30593  0.46007  0.58710  1.0000
  C   C56       1.0  0.35772  0.25945  0.58576  1.0000
  H   H73       1.0  0.35262  0.12572  0.61075  1.0000
  H   H74       1.0  0.27493  0.22969  0.60118  1.0000
  S   S23       1.0  0.38998  0.22060  0.64515  1.0000
  Fe  Fe10      1.0  0.35283  0.20069  0.33016  1.0000
  C   C57       1.0  0.34617  0.46509  0.48898  1.0000
  Fe  Fe11      1.0  0.34036  0.46111  0.56311  1.0000
  S   S24       1.0  0.31361  0.48404  0.45724  1.0000
  Fe  Fe12      1.0  0.33895  0.47206  0.43116  1.0000
  S   S25       1.0  0.36681  0.23300  0.35405  1.0000
  C   C58       1.0  0.47359  0.31413  0.35202  1.0000
  S   S26       1.0  0.37301  0.45174  0.38570  1.0000
  H   H75       1.0  0.36834  0.45119  0.51390  1.0000
  S   S27       1.0  0.36115  0.41550  0.42392  1.0000
  S   S28       1.0  0.46365  0.42965  0.40819  1.0000
  H   H76       1.0  0.34541  0.27673  0.41298  1.0000
  C   C59       1.0  0.47587  0.33498  0.63170  1.0000
  Fe  Fe13      1.0  0.32788  0.42231  0.40007  1.0000
  S   S29       1.0  0.29347  0.37706  0.38746  1.0000
  C   C60       1.0  0.28982  0.18203  0.62960  1.0000
  H   H77       1.0  0.28032  0.29514  0.40730  1.0000
  C   C61       1.0  0.31643  0.48137  0.47983  1.0000
  S   S30       1.0  0.38406  0.49857  0.57452  1.0000
  H   H78       1.0  0.24810  0.33869  0.42555  1.0000
  H   H79       1.0  0.22112  0.34588  0.45199  1.0000
  H   H80       1.0  0.30932  0.19678  0.63812  1.0000
  C   C62       1.0  0.34553  0.27288  0.36311  1.0000
  C   C63       1.0  0.36686  0.29554  0.37378  1.0000
  C   C64       1.0  0.35154  0.32785  0.38105  1.0000
  C   C65       1.0  0.31424  0.33729  0.37812  1.0000
  C   C66       1.0  0.29255  0.31402  0.36787  1.0000
  C   C67       1.0  0.30809  0.28200  0.36039  1.0000
  H   H81       1.0  0.39552  0.28807  0.37640  1.0000
  H   H82       1.0  0.36840  0.34510  0.38915  1.0000
  H   H83       1.0  0.26352  0.32076  0.36574  1.0000
  H   H84       1.0  0.29091  0.26392  0.35283  1.0000
  H   H85       1.0  0.46114  0.29013  0.64817  1.0000
  H   H86       1.0  0.27632  0.15906  0.63706  1.0000
  H   H87       1.0  0.34830  0.34563  0.45629  1.0000
  H   H88       1.0  0.25972  0.16574  0.59989  1.0000
  C   C68       1.0  0.29638  0.42511  0.33246  1.0000
  H   H89       1.0  0.24099  0.39842  0.43384  1.0000
  C   C69       1.0  0.34538  0.46358  0.50698  1.0000
  C   C70       1.0  0.28331  0.14751  0.60391  1.0000
  C   C71       1.0  0.46382  0.36722  0.36988  1.0000
  Fe  Fe14      1.0  0.40988  0.44382  0.58289  1.0000
  H   H90       1.0  0.37871  0.30236  0.43755  1.0000
  C   C72       1.0  0.34055  0.36079  0.33381  1.0000
  H   H91       1.0  0.45780  0.10587  0.34627  1.0000
  H   H92       1.0  0.24869  0.42805  0.45145  1.0000
  S   S31       1.0  0.47033  0.42821  0.58303  1.0000
  H   H93       1.0  0.48519  0.15344  0.32924  1.0000
  C   C73       1.0  0.33398  0.32430  0.62057  1.0000
  C   C74       1.0  0.31436  0.30229  0.63251  1.0000
  C   C75       1.0  0.33159  0.27169  0.64087  1.0000
  C   C76       1.0  0.36825  0.26181  0.63686  1.0000
  C   C77       1.0  0.38810  0.28434  0.62522  1.0000
  C   C78       1.0  0.37131  0.31573  0.61730  1.0000
  H   H94       1.0  0.28560  0.30892  0.63526  1.0000
  N   N6        1.0  0.31010  0.16754  0.61477  1.0000
  H   H95       1.0  0.41635  0.27689  0.62192  1.0000
  H   H96       1.0  0.38669  0.33226  0.60809  1.0000
  S   S32       1.0  0.30151  0.47651  0.40811  1.0000
  H   H97       1.0  0.29725  0.13737  0.59229  1.0000
  H   H98       1.0  0.30234  0.28207  0.58546  1.0000
  H   H99       1.0  0.28551  0.41974  0.43686  1.0000
  H   H100      1.0  0.41033  0.23183  0.58907  1.0000
  S   S33       1.0  0.33593  0.04002  0.65930  1.0000
  H   H101      1.0  0.44504  0.38693  0.37579  1.0000
  H   H102      1.0  0.22665  0.37396  0.47024  1.0000
  Fe  Fe15      1.0  0.35156  0.49436  0.59880  1.0000
  H   H103      1.0  0.35859  0.15309  0.62958  1.0000
  C   C79       1.0  0.47215  0.01366  0.34014  1.0000
  C   C80       1.0  0.38063  0.23052  0.59154  1.0000
  H   H104      1.0  0.27910  0.45000  0.33213  1.0000
  C   C81       1.0  0.28544  0.49410  0.50661  1.0000
  H   H105      1.0  0.32668  0.44260  0.35433  1.0000
  C   C82       1.0  0.34556  0.38918  0.34555  1.0000
  H   H106      1.0  0.25010  0.32951  0.46900  1.0000
  H   H107      1.0  0.32422  0.11700  0.62891  1.0000
  C   C83       1.0  0.30452  0.22882  0.59874  1.0000
  H   H108      1.0  0.27090  0.12274  0.61058  1.0000
  Fe  Fe16      1.0  0.40438  0.44902  0.40992  1.0000
  C   C84       1.0  0.32709  0.19901  0.60501  1.0000
  C   C85       1.0  0.31481  0.47823  0.51591  1.0000
  H   H109      1.0  0.38540  0.18006  0.60566  1.0000
  C   C86       1.0  0.36578  0.20076  0.60111  1.0000
  H   H110      1.0  0.44700  0.34258  0.62945  1.0000
  H   H111      1.0  0.26734  0.20206  0.62617  1.0000
  N   N7        1.0  0.27463  0.37348  0.45383  1.0000
  C   C87       1.0  0.29796  0.38817  0.46772  1.0000
  C   C88       1.0  0.26176  0.40611  0.44355  1.0000
  C   C89       1.0  0.24169  0.35488  0.46158  1.0000
  C   C90       1.0  0.29451  0.34662  0.44297  1.0000
  C   C91       1.0  0.33194  0.33512  0.44598  1.0000
  C   C92       1.0  0.27631  0.33099  0.42884  1.0000
  C   C93       1.0  0.34990  0.31008  0.43528  1.0000
  C   C94       1.0  0.29446  0.30580  0.41832  1.0000
  C   C95       1.0  0.33123  0.29553  0.42147  1.0000
  H   H112      1.0  0.32293  0.40331  0.46272  1.0000
  H   H113      1.0  0.28253  0.40886  0.47545  1.0000
  H   H114      1.0  0.30722  0.36552  0.47655  1.0000
  H   H115      1.0  0.36952  0.28318  0.57890  1.0000
  S   S34       1.0  0.31039  0.47820  0.53848  1.0000
  H   H116      1.0  0.36182  0.04547  0.33660  1.0000
  C   C96       1.0  0.47337  0.08122  0.34287  1.0000
  H   H117      1.0  0.36975  0.45385  0.48224  1.0000
  H   H118      1.0  0.42014  0.33908  0.35654  1.0000
  H   H119      1.0  0.46224  0.29255  0.34403  1.0000
  H   H120      1.0  0.36600  0.38602  0.35552  1.0000
  H   H121      1.0  0.31621  0.25550  0.65018  1.0000
  H   H122      1.0  0.35781  0.33609  0.33508  1.0000
  H   H123      1.0  0.42855  0.49715  0.63317  1.0000
  C   C97       1.0  0.28625  0.49564  0.48890  1.0000
  C   C98       1.0  0.35127  0.02045  0.33078  1.0000
  C   C99       1.0  0.44971  0.34018  0.35916  1.0000
  C   C100      1.0  0.45453  0.04696  0.34441  1.0000
  C   C101      1.0  0.47425  0.48105  0.43265  1.0000
  H   H124      1.0  0.48088  0.23102  0.65547  1.0000
  H   H125      1.0  0.42594  0.04621  0.34890  1.0000
  C   C102      1.0  0.49104  0.45908  0.42037  1.0000
  C   C103      1.0  0.32335  0.42111  0.34495  1.0000
  H   H126      1.0  0.44558  0.47618  0.43619  1.0000
  H   H127      1.0  0.45469  0.00659  0.65106  1.0000
  Fe  Fe17      1.0  0.25376  0.32979  0.83119  1.0000
  S   S35       1.0  0.27266  0.34157  0.80468  1.0000
  S   S36       1.0  0.29374  0.35367  0.85086  1.0000
  Fe  Fe18      1.0  0.17940  0.29580  0.81873  1.0000
  S   S37       1.0  0.19505  0.30366  0.79141  1.0000
  S   S38       1.0  0.12237  0.26846  0.82328  1.0000
  Fe  Fe19      1.0  0.25210  0.28385  0.79886  1.0000
  S   S39       1.0  0.29575  0.25145  0.78432  1.0000
  Fe  Fe20      1.0  0.21427  0.36023  0.79954  1.0000
  S   S40       1.0  0.19818  0.41051  0.78368  1.0000
  S   S41       1.0  0.23579  0.27064  0.82578  1.0000
  S   S42       1.0  0.19614  0.35382  0.82646  1.0000
  S   S43       1.0  0.35529  0.10089  0.70062  1.0000
  S   S44       1.0  0.37973  0.18995  0.69312  1.0000
  Fe  Fe21      1.0  0.40710  0.13332  0.69396  1.0000
  C   C104      1.0  0.28444  0.27435  0.70430  1.0000
  Fe  Fe22      1.0  0.32687  0.15683  0.69722  1.0000
  S   S45       1.0  0.27735  0.17602  0.71264  1.0000
  H   H128      1.0  0.01137  0.41022  0.78356  1.0000
  C   C105      1.0  0.44922  0.02026  0.69329  1.0000
  C   C106      1.0  0.48481  0.18764  0.71047  1.0000
  H   H129      1.0  0.44455  0.41350  0.96451  1.0000
  S   S46       1.0  0.43108  0.27543  0.88903  1.0000
  H   H130      1.0  0.16672  0.48490  0.78533  1.0000
  C   C107      1.0  0.47368  0.41120  0.95982  1.0000
  H   H131      1.0  0.04337  0.45018  0.80134  1.0000
  H   H132      1.0  0.29701  0.25628  0.69503  1.0000
  C   C108      1.0  0.07802  0.29122  0.82356  1.0000
  C   C109      1.0  0.07431  0.32921  0.82733  1.0000
  H   H133      1.0  0.48025  0.47725  0.94608  1.0000
  H   H134      1.0  0.09899  0.34574  0.82970  1.0000
  H   H135      1.0  0.04788  0.24065  0.81798  1.0000
  C   C110      1.0  0.33169  0.33091  0.86127  1.0000
  C   C111      1.0  0.36014  0.35288  0.86827  1.0000
  C   C112      1.0  0.39044  0.33628  0.87686  1.0000
  C   C113      1.0  0.39272  0.29730  0.87860  1.0000
  C   C114      1.0  0.36404  0.27523  0.87180  1.0000
  C   C115      1.0  0.33361  0.29195  0.86324  1.0000
  H   H136      1.0  0.35913  0.38289  0.86694  1.0000
  H   H137      1.0  0.41221  0.35364  0.88203  1.0000
  H   H138      1.0  0.36523  0.24509  0.87331  1.0000
  H   H139      1.0  0.31112  0.27486  0.85858  1.0000
  C   C116      1.0  0.28981  0.23132  0.76426  1.0000
  C   C117      1.0  0.32153  0.21969  0.75536  1.0000
  C   C118      1.0  0.31813  0.20288  0.73951  1.0000
  C   C119      1.0  0.28288  0.19716  0.73251  1.0000
  C   C120      1.0  0.25113  0.20881  0.74143  1.0000
  C   C121      1.0  0.25455  0.22609  0.75719  1.0000
  H   H140      1.0  0.34891  0.22362  0.76072  1.0000
  H   H141      1.0  0.34274  0.19404  0.73276  1.0000
  H   H142      1.0  0.22376  0.20432  0.73612  1.0000
  H   H143      1.0  0.22990  0.23456  0.76400  1.0000
  H   H144      1.0  0.03624  0.37443  0.83235  1.0000
  H   H145      1.0  0.42988  0.04469  0.69293  1.0000
  H   H146      1.0  0.48420  0.26273  0.67300  1.0000
  C   C122      1.0  0.25988  0.48361  0.80994  1.0000
  C   C123      1.0  0.48878  0.05171  0.67325  1.0000
  C   C124      1.0  0.24707  0.45097  0.80235  1.0000
  C   C125      1.0  0.21356  0.45140  0.79342  1.0000
  Fe  Fe23      1.0  0.34869  0.09491  0.67272  1.0000
  H   H147      1.0  0.26348  0.42563  0.80314  1.0000
  S   S47       1.0  0.46261  0.11539  0.70428  1.0000
  C   C126      1.0  0.25753  0.48844  0.85842  1.0000
  C   C127      1.0  0.40729  0.34233  0.83084  1.0000
  N   N8        1.0  0.23634  0.34228  0.74331  1.0000
  C   C128      1.0  0.25846  0.33696  0.75894  1.0000
  C   C129      1.0  0.23778  0.38242  0.73820  1.0000
  C   C130      1.0  0.19695  0.33308  0.74751  1.0000
  C   C131      1.0  0.25211  0.31906  0.72974  1.0000
  C   C132      1.0  0.23105  0.29133  0.72126  1.0000
  C   C133      1.0  0.28985  0.32378  0.72465  1.0000
  C   C134      1.0  0.30571  0.30155  0.71219  1.0000
  H   H148      1.0  0.28801  0.34557  0.75746  1.0000
  H   H149      1.0  0.24705  0.35379  0.76943  1.0000
  H   H150      1.0  0.25836  0.30705  0.76311  1.0000
  H   H151      1.0  0.26679  0.39260  0.73639  1.0000
  H   H152      1.0  0.22500  0.40058  0.74796  1.0000
  H   H153      1.0  0.22244  0.38741  0.72618  1.0000
  H   H154      1.0  0.19402  0.30344  0.75197  1.0000
  H   H155      1.0  0.18611  0.35081  0.75789  1.0000
  H   H156      1.0  0.17817  0.33797  0.73655  1.0000
  H   H157      1.0  0.30757  0.34431  0.73048  1.0000
  H   H158      1.0  0.33482  0.30491  0.70880  1.0000
  H   H159      1.0  0.46913  0.07580  0.67255  1.0000
  H   H160      1.0  0.20238  0.28514  0.72434  1.0000
  Fe  Fe24      1.0  0.37049  0.17892  0.66560  1.0000
  S   S48       1.0  0.40208  0.12447  0.66624  1.0000
  Fe  Fe25      1.0  0.48049  0.31005  0.89820  1.0000
  H   H161      1.0  0.45576  0.19385  0.71274  1.0000
  N   N9        1.0  0.38077  0.24297  0.81880  1.0000
  C   C135      1.0  0.38430  0.24716  0.80023  1.0000
  C   C136      1.0  0.39584  0.20557  0.82366  1.0000
  C   C137      1.0  0.34065  0.24306  0.82338  1.0000
  C   C138      1.0  0.40016  0.27450  0.82698  1.0000
  C   C139      1.0  0.43107  0.26931  0.83800  1.0000
  C   C140      1.0  0.38876  0.31202  0.82368  1.0000
  C   C141      1.0  0.48638  0.30529  0.99447  1.0000
  H   H162      1.0  0.47230  0.29520  0.85377  1.0000
  H   H163      1.0  0.23880  0.47107  0.85050  1.0000
  H   H164      1.0  0.37025  0.27289  0.79535  1.0000
  H   H165      1.0  0.41405  0.24862  0.79630  1.0000
  H   H166      1.0  0.37095  0.22341  0.79356  1.0000
  H   H167      1.0  0.42562  0.20277  0.81992  1.0000
  H   H168      1.0  0.38037  0.18258  0.81738  1.0000
  H   H169      1.0  0.39327  0.20029  0.83750  1.0000
  H   H170      1.0  0.33685  0.23920  0.83719  1.0000
  H   H171      1.0  0.32638  0.26947  0.81957  1.0000
  H   H172      1.0  0.32506  0.22021  0.81706  1.0000
  H   H173      1.0  0.44128  0.24200  0.84173  1.0000
  H   H174      1.0  0.36512  0.31818  0.81567  1.0000
  H   H175      1.0  0.45588  0.48406  0.96559  1.0000
  S   S49       1.0  0.31596  0.14864  0.66948  1.0000
  H   H176      1.0  0.47239  0.41259  0.94578  1.0000
  C   C142      1.0  0.48356  0.47747  0.96005  1.0000
  C   C143      1.0  0.19267  0.48456  0.79225  1.0000
  C   C144      1.0  0.04543  0.27009  0.82080  1.0000
  H   H177      1.0  0.25698  0.41756  0.86764  1.0000
  H   H178      1.0  0.45154  0.35970  0.84730  1.0000
  H   H179      1.0  0.00503  0.39924  0.80577  1.0000
  C   C145      1.0  0.00599  0.32430  0.82605  1.0000
  H   H180      1.0  0.35896  0.44533  0.87690  1.0000
  C   C146      1.0  0.24716  0.26950  0.70872  1.0000
  C   C147      1.0  0.44949  0.29986  0.84500  1.0000
  H   H181      1.0  0.03367  0.49937  0.84851  1.0000
  S   S50       1.0  0.47621  0.35320  0.91849  1.0000
  C   C148      1.0  0.30967  0.45283  0.84891  1.0000
  H   H182      1.0  0.23116  0.24741  0.70287  1.0000
  C   C149      1.0  0.43771  0.33627  0.84142  1.0000
  C   C150      1.0  0.03857  0.34542  0.82881  1.0000
  H   H183      1.0  0.28998  0.43710  0.84075  1.0000
  N   N10       1.0  0.29088  0.46714  0.86418  1.0000
  C   C151      1.0  0.31742  0.48973  0.87410  1.0000
  H   H184      1.0  0.46925  0.02505  0.70376  1.0000
  C   C152      1.0  0.37766  0.49486  0.88869  1.0000
  H   H185      1.0  0.26443  0.44421  0.88645  1.0000
  C   C153      1.0  0.27770  0.43480  0.87456  1.0000
  H   H186      1.0  0.33227  0.43268  0.85194  1.0000
  H   H187      1.0  0.30072  0.41532  0.87805  1.0000
  C   C154      1.0  0.00967  0.28659  0.82180  1.0000
  H   H188      1.0  0.32203  0.47621  0.84132  1.0000
  N   N11       1.0  0.46901  0.01591  0.67700  1.0000
  H   H189      1.0  0.46706  0.38990  0.99044  1.0000
  H   H190      1.0  0.39747  0.37063  0.82848  1.0000
  H   H191      1.0  0.35916  0.01203  0.69266  1.0000
  H   H192      1.0  0.24040  0.49807  0.86922  1.0000
  C   C155      1.0  0.35176  0.47398  0.87961  1.0000
  H   H193      1.0  0.28640  0.48346  0.81633  1.0000
  H   H194      1.0  0.48457  0.38281  0.96299  1.0000
  C   C156      1.0  0.02622  0.47484  0.80263  1.0000
  C   C157      1.0  0.49543  0.15158  0.70576  1.0000
  H   H195      1.0  0.48425  0.30052  0.96726  1.0000
  S   S51       1.0  0.48561  0.44708  0.89398  1.0000
  H   H196      1.0  0.40396  0.48223  0.89250  1.0000
  C   C158      1.0  0.44101  0.01046  0.66350  1.0000
  H   H197      1.0  0.42170  0.03483  0.66232  1.0000
  Fe  Fe26      1.0  0.44060  0.70792  0.10891  1.0000
  S   S52       1.0  0.39025  0.74484  0.11425  1.0000
  N   N12       1.0  0.24691  0.68580  0.32776  1.0000
  S   S53       1.0  0.43911  0.66661  0.08769  1.0000
  Fe  Fe27      1.0  0.21315  0.66574  0.21141  1.0000
  S   S54       1.0  0.18979  0.72173  0.20404  1.0000
  S   S55       1.0  0.25128  0.65730  0.23387  1.0000
  Fe  Fe28      1.0  0.18488  0.63061  0.17905  1.0000
  S   S56       1.0  0.15977  0.68440  0.16947  1.0000
  S   S57       1.0  0.18152  0.58219  0.16143  1.0000
  Fe  Fe29      1.0  0.21389  0.70956  0.17841  1.0000
  S   S58       1.0  0.24898  0.75162  0.16347  1.0000
  Fe  Fe30      1.0  0.13829  0.68976  0.19600  1.0000
  S   S59       1.0  0.07982  0.70458  0.20557  1.0000
  S   S60       1.0  0.23976  0.65543  0.18625  1.0000
  S   S61       1.0  0.16077  0.63406  0.20508  1.0000
  H   H198      1.0  0.31140  0.92995  0.31084  1.0000
  S   S62       1.0  0.35873  0.82960  0.30086  1.0000
  H   H199      1.0  0.39066  0.78497  0.26721  1.0000
  S   S63       1.0  0.35263  0.74124  0.31494  1.0000
  Fe  Fe31      1.0  0.39696  0.78478  0.31077  1.0000
  S   S64       1.0  0.45159  0.77126  0.29857  1.0000
  Fe  Fe32      1.0  0.31372  0.78784  0.30747  1.0000
  S   S65       1.0  0.26272  0.77939  0.29106  1.0000
  H   H200      1.0  0.32439  0.80412  0.26695  1.0000
  C   C159      1.0  0.25512  0.69269  0.24908  1.0000
  C   C160      1.0  0.28662  0.69360  0.25955  1.0000
  C   C161      1.0  0.28989  0.72070  0.27215  1.0000
  C   C162      1.0  0.26121  0.74659  0.27461  1.0000
  C   C163      1.0  0.22992  0.74591  0.26401  1.0000
  C   C164      1.0  0.22699  0.71928  0.25120  1.0000
  H   H201      1.0  0.30861  0.67326  0.25791  1.0000
  H   H202      1.0  0.31446  0.72133  0.28002  1.0000
  H   H203      1.0  0.20763  0.76587  0.26581  1.0000
  H   H204      1.0  0.20244  0.71865  0.24330  1.0000
  C   C165      1.0  0.35261  0.74394  0.12895  1.0000
  C   C166      1.0  0.32701  0.77341  0.12781  1.0000
  C   C167      1.0  0.29615  0.77498  0.13861  1.0000
  C   C168      1.0  0.28968  0.74689  0.15075  1.0000
  C   C169      1.0  0.31540  0.71720  0.15222  1.0000
  C   C170      1.0  0.34681  0.71566  0.14128  1.0000
  H   H205      1.0  0.33111  0.79546  0.11845  1.0000
  H   H206      1.0  0.27689  0.79820  0.13738  1.0000
  H   H207      1.0  0.31144  0.69581  0.16186  1.0000
  H   H208      1.0  0.36647  0.69280  0.14236  1.0000
  C   C171      1.0  0.03519  0.69581  0.19659  1.0000
  C   C172      1.0  0.03030  0.69102  0.17927  1.0000
  H   H209      1.0  0.43912  0.84608  0.31047  1.0000
  H   H210      1.0  0.05439  0.69063  0.17105  1.0000
  H   H211      1.0  0.28866  0.99274  0.30145  1.0000
  H   H212      1.0  0.03191  0.80721  0.23609  1.0000
  C   C173      1.0  0.34935  0.61942  0.10414  1.0000
  H   H213      1.0  0.06126  0.79112  0.20896  1.0000
  H   H214      1.0  0.41902  0.75816  0.24172  1.0000
  H   H215      1.0  0.28632  0.79644  0.24221  1.0000
  C   C174      1.0  0.19357  0.53982  0.17136  1.0000
  N   N13       1.0  0.45240  0.57512  0.03672  1.0000
  C   C175      1.0  0.09017  0.53852  0.20325  1.0000
  H   H216      1.0  0.32819  0.81987  0.19958  1.0000
  H   H217      1.0  0.26489  0.66059  0.14810  1.0000
  H   H218      1.0  0.37681  0.61179  0.09962  1.0000
  H   H219      1.0  0.20947  0.56471  0.19485  1.0000
  N   N14       1.0  0.24132  0.64950  0.12385  1.0000
  C   C176      1.0  0.21135  0.62554  0.11688  1.0000
  C   C177      1.0  0.24282  0.64327  0.14231  1.0000
  C   C178      1.0  0.23045  0.68918  0.12066  1.0000
  C   C179      1.0  0.27795  0.63960  0.11655  1.0000
  C   C180      1.0  0.30310  0.66692  0.10989  1.0000
  C   C181      1.0  0.33820  0.65677  0.10381  1.0000
  H   H220      1.0  0.10594  0.53976  0.16112  1.0000
  H   H221      1.0  0.21388  0.59571  0.12097  1.0000
  H   H222      1.0  0.18326  0.63424  0.12139  1.0000
  H   H223      1.0  0.21129  0.62684  0.10285  1.0000
  H   H224      1.0  0.24853  0.61352  0.14578  1.0000
  H   H225      1.0  0.22980  0.69604  0.10693  1.0000
  H   H226      1.0  0.20235  0.69553  0.12590  1.0000
  H   H227      1.0  0.24969  0.70901  0.12694  1.0000
  H   H228      1.0  0.29684  0.69653  0.10954  1.0000
  H   H229      1.0  0.35711  0.67826  0.09906  1.0000
  H   H230      1.0  0.38228  0.75043  0.21603  1.0000
  H   H231      1.0  0.45333  0.71647  0.04076  1.0000
  C   C182      1.0  0.18999  0.50646  0.16252  1.0000
  H   H232      1.0  0.02226  0.77869  0.18411  1.0000
  C   C183      1.0  0.46845  0.84279  0.30776  1.0000
  C   C184      1.0  0.48182  0.80931  0.30115  1.0000
  H   H233      1.0  0.28195  0.56537  0.16819  1.0000
  C   C185      1.0  0.48067  0.70246  0.99979  1.0000
  H   H234      1.0  0.17990  0.50707  0.14967  1.0000
  H   H235      1.0  0.20307  0.66132  0.31277  1.0000
  H   H236      1.0  0.46340  0.63080  0.04522  1.0000
  H   H237      1.0  0.45673  0.59702  0.06182  1.0000
  C   C186      1.0  0.29038  0.60181  0.11685  1.0000
  C   C187      1.0  0.41127  0.58000  0.03723  1.0000
  H   H238      1.0  0.43213  0.72704  0.01121  1.0000
  H   H239      1.0  0.40316  0.60980  0.03497  1.0000
  H   H240      1.0  0.44733  0.52891  0.05463  1.0000
  C   C188      1.0  0.32541  0.59196  0.11055  1.0000
  C   C189      1.0  0.21583  0.50463  0.19573  1.0000
  C   C190      1.0  0.45863  0.71348  0.01357  1.0000
  C   C191      1.0  0.33347  0.56764  0.15424  1.0000
  H   H241      1.0  0.39721  0.56219  0.02776  1.0000
  C   C192      1.0  0.47059  0.70751  0.03039  1.0000
  H   H242      1.0  0.33443  0.56298  0.11090  1.0000
  H   H243      1.0  0.39956  0.57217  0.04983  1.0000
  C   C193      1.0  0.08931  0.49976  0.20620  1.0000
  H   H244      1.0  0.20830  0.71077  0.31004  1.0000
  S   S66       1.0  0.46352  0.66753  0.12796  1.0000
  H   H245      1.0  0.33731  0.59750  0.15590  1.0000
  H   H246      1.0  0.27343  0.57965  0.12228  1.0000
  H   H247      1.0  0.21599  0.65072  0.14839  1.0000
  C   C194      1.0  0.20654  0.53897  0.18797  1.0000
  N   N15       1.0  0.30864  0.76801  0.21061  1.0000
  C   C195      1.0  0.30802  0.72781  0.20618  1.0000
  C   C196      1.0  0.26932  0.78058  0.21209  1.0000
  C   C197      1.0  0.32590  0.78965  0.19649  1.0000
  C   C198      1.0  0.33059  0.77306  0.22624  1.0000
  C   C199      1.0  0.31521  0.78829  0.24118  1.0000
  C   C200      1.0  0.36873  0.76244  0.22684  1.0000
  C   C201      1.0  0.33689  0.79280  0.25566  1.0000
  C   C202      1.0  0.39004  0.76676  0.24145  1.0000
  C   C203      1.0  0.37415  0.78191  0.25584  1.0000
  H   H248      1.0  0.33612  0.71682  0.20315  1.0000
  H   H249      1.0  0.29675  0.71040  0.21679  1.0000
  H   H250      1.0  0.29027  0.72274  0.19493  1.0000
  H   H251      1.0  0.26752  0.81088  0.21505  1.0000
  H   H252      1.0  0.25405  0.76408  0.22196  1.0000
  H   H253      1.0  0.25373  0.77685  0.20007  1.0000
  H   H254      1.0  0.35425  0.77943  0.19332  1.0000
  H   H255      1.0  0.30920  0.78754  0.18468  1.0000
  C   C204      1.0  0.03116  0.79328  0.20991  1.0000
  S   S67       1.0  0.44578  0.56898  0.11036  1.0000
  C   C205      1.0  0.44826  0.59975  0.00644  1.0000
  H   H256      1.0  0.44192  0.96644  0.29133  1.0000
  C   C206      1.0  0.09612  0.55280  0.18703  1.0000
  H   H257      1.0  0.45005  0.51555  0.03284  1.0000
  C   C207      1.0  0.30231  0.54958  0.16106  1.0000
  C   C208      1.0  0.27550  0.67908  0.31462  1.0000
  C   C209      1.0  0.20978  0.68742  0.31958  1.0000
  H   H258      1.0  0.27807  0.70344  0.30578  1.0000
  C   C210      1.0  0.30987  0.99067  0.31111  1.0000
  C   C211      1.0  0.00337  0.69665  0.20702  1.0000
  C   C212      1.0  0.47187  0.53863  0.09792  1.0000
  H   H259      1.0  0.41969  0.60860  0.00780  1.0000
  H   H260      1.0  0.38852  0.99566  0.29803  1.0000
  Fe  Fe33      1.0  0.46618  0.62806  0.10649  1.0000
  C   C213      1.0  0.32276  0.95498  0.31638  1.0000
  C   C214      1.0  0.10066  0.52841  0.17367  1.0000
  C   C215      1.0  0.46044  0.53594  0.04222  1.0000
  Fe  Fe34      1.0  0.35473  0.84764  0.32783  1.0000
  H   H261      1.0  0.09776  0.58284  0.18481  1.0000
  C   C216      1.0  0.35510  0.50866  0.14320  1.0000
  C   C217      1.0  0.01451  0.80197  0.22521  1.0000
  H   H262      1.0  0.38426  0.56126  0.14011  1.0000
  C   C218      1.0  0.46884  0.58290  0.01987  1.0000
  C   C219      1.0  0.46881  0.60116  0.04901  1.0000
  C   C220      1.0  0.35988  0.54719  0.14537  1.0000
  H   H263      1.0  0.26889  0.65463  0.30668  1.0000
  H   H264      1.0  0.23833  0.61049  0.32239  1.0000
  C   C221      1.0  0.46436  0.98664  0.29073  1.0000
  H   H265      1.0  0.22604  0.50404  0.20856  1.0000
  H   H266      1.0  0.08686  0.55769  0.21361  1.0000
  H   H267      1.0  0.30335  0.67417  0.32040  1.0000
  H   H268      1.0  0.48270  0.89750  0.31679  1.0000
  H   H269      1.0  0.00679  0.70058  0.22042  1.0000
  C   C222      1.0  0.00908  0.78630  0.19589  1.0000
  H   H270      1.0  0.39377  0.99612  0.27530  1.0000
  H   H271      1.0  0.25370  0.74581  0.32503  1.0000
  C   C223      1.0  0.46849  0.49980  0.10007  1.0000
  H   H272      1.0  0.49065  0.53057  0.04403  1.0000
  C   C224      1.0  0.29737  0.51103  0.15903  1.0000
  C   C225      1.0  0.49315  0.87205  0.31126  1.0000
  H   H273      1.0  0.25851  0.68853  0.36301  1.0000
  H   H274      1.0  0.26166  0.50545  0.51317  1.0000
  S   S68       1.0  0.35327  0.71125  0.63779  1.0000
  H   H275      1.0  0.42673  0.57779  0.61734  1.0000
  S   S69       1.0  0.33695  0.53806  0.61878  1.0000
  C   C226      1.0  0.48177  0.67244  0.62252  1.0000
  S   S70       1.0  0.39622  0.80471  0.33733  1.0000
  H   H276      1.0  0.46846  0.65322  0.61398  1.0000
  S   S71       1.0  0.34386  0.72792  0.36502  1.0000
  S   S72       1.0  0.38492  0.50570  0.41845  1.0000
  S   S73       1.0  0.34678  0.54930  0.37332  1.0000
  H   H277      1.0  0.37415  0.67042  0.60820  1.0000
  C   C227      1.0  0.34686  0.67829  0.36718  1.0000
  C   C228      1.0  0.35111  0.65516  0.35326  1.0000
  C   C229      1.0  0.35127  0.61585  0.35545  1.0000
  C   C230      1.0  0.34775  0.59910  0.37157  1.0000
  C   C231      1.0  0.34465  0.62225  0.38557  1.0000
  C   C232      1.0  0.34409  0.66160  0.38335  1.0000
  H   H278      1.0  0.35381  0.66751  0.34079  1.0000
  H   H279      1.0  0.35378  0.59824  0.34454  1.0000
  H   H280      1.0  0.34180  0.60987  0.39804  1.0000
  H   H281      1.0  0.34080  0.67924  0.39422  1.0000
  H   H282      1.0  0.24983  0.51728  0.57756  1.0000
  H   H283      1.0  0.26231  0.60116  0.55170  1.0000
  H   H284      1.0  0.29629  0.64329  0.56564  1.0000
  H   H285      1.0  0.26177  0.63616  0.38263  1.0000
  Fe  Fe35      1.0  0.34864  0.76434  0.34101  1.0000
  H   H286      1.0  0.32293  0.58340  0.56349  1.0000
  H   H287      1.0  0.43060  0.69991  0.62898  1.0000
  C   C233      1.0  0.44590  0.72825  0.35760  1.0000
  C   C234      1.0  0.28951  0.67575  0.58765  1.0000
  C   C235      1.0  0.43571  0.58524  0.38677  1.0000
  C   C236      1.0  0.25245  0.59428  0.36400  1.0000
  C   C237      1.0  0.46662  0.58822  0.41340  1.0000
  C   C238      1.0  0.49601  0.52416  0.63381  1.0000
  C   C239      1.0  0.43483  0.60326  0.64962  1.0000
  C   C240      1.0  0.25602  0.63098  0.36945  1.0000
  H   H288      1.0  0.43655  0.57662  0.37334  1.0000
  H   H289      1.0  0.48784  0.53326  0.38012  1.0000
  C   C241      1.0  0.35059  0.66263  0.63303  1.0000
  C   C242      1.0  0.33523  0.63635  0.64434  1.0000
  C   C243      1.0  0.33117  0.59857  0.63965  1.0000
  C   C244      1.0  0.34292  0.58628  0.62372  1.0000
  C   C245      1.0  0.35885  0.61242  0.61249  1.0000
  C   C246      1.0  0.36255  0.65033  0.61712  1.0000
  C   C247      1.0  0.24780  0.65494  0.34047  1.0000
  H   H290      1.0  0.31876  0.57871  0.64846  1.0000
  H   H291      1.0  0.36784  0.60363  0.60016  1.0000
  H   H292      1.0  0.22330  0.54994  0.58951  1.0000
  H   H293      1.0  0.25561  0.57110  0.37290  1.0000
  N   N16       1.0  0.47230  0.58027  0.39525  1.0000
  H   H294      1.0  0.42021  0.72357  0.35073  1.0000
  S   S74       1.0  0.30649  0.80896  0.33397  1.0000
  H   H295      1.0  0.48260  0.71547  0.39662  1.0000
  C   C248      1.0  0.47740  0.72381  0.64201  1.0000
  C   C249      1.0  0.45282  0.56117  0.61770  1.0000
  S   S75       1.0  0.36677  0.90759  0.33647  1.0000
  H   H296      1.0  0.26307  0.50818  0.48216  1.0000
  C   C250      1.0  0.43118  0.52270  0.64099  1.0000
  H   H297      1.0  0.26854  0.53408  0.59682  1.0000
  H   H298      1.0  0.22012  0.59144  0.56326  1.0000
  C   C251      1.0  0.24857  0.58079  0.56043  1.0000
  H   H299      1.0  0.44855  0.53749  0.60893  1.0000
  H   H300      1.0  0.47567  0.57909  0.61248  1.0000
  N   N17       1.0  0.46186  0.54752  0.63495  1.0000
  C   C252      1.0  0.46589  0.57994  0.64626  1.0000
  H   H301      1.0  0.25167  0.58668  0.61033  1.0000
  H   H302      1.0  0.47125  0.62827  0.36657  1.0000
  C   C253      1.0  0.47583  0.74647  0.34969  1.0000
  H   H303      1.0  0.40345  0.53648  0.64029  1.0000
  C   C254      1.0  0.48094  0.72390  0.38345  1.0000
  C   C255      1.0  0.26443  0.64419  0.61225  1.0000
  H   H304      1.0  0.23320  0.73101  0.34448  1.0000
  Fe  Fe36      1.0  0.34942  0.50604  0.39506  1.0000
  C   C256      1.0  0.46050  0.69883  0.63096  1.0000
  H   H305      1.0  0.48083  0.52786  0.44915  1.0000
  H   H306      1.0  0.32565  0.55799  0.58313  1.0000
  H   H307      1.0  0.24556  0.55449  0.55313  1.0000
  H   H308      1.0  0.46154  0.50594  0.57356  1.0000
  H   H309      1.0  0.32564  0.64528  0.65657  1.0000
  H   H310      1.0  0.28188  0.70184  0.61170  1.0000
  H   H311      1.0  0.18739  0.69196  0.32905  1.0000
  H   H312      1.0  0.30116  0.70079  0.58178  1.0000
  H   H313      1.0  0.41365  0.56753  0.39279  1.0000
  H   H314      1.0  0.49451  0.79390  0.65600  1.0000
  C   C257      1.0  0.26142  0.61091  0.60327  1.0000
  H   H315      1.0  0.32701  0.96673  0.64505  1.0000
  H   H316      1.0  0.25710  0.64462  0.62552  1.0000
  C   C258      1.0  0.27843  0.67650  0.60447  1.0000
  C   C259      1.0  0.28653  0.64267  0.57853  1.0000
  H   H317      1.0  0.40816  0.59819  0.64385  1.0000
  C   C260      1.0  0.48648  0.50296  0.58101  1.0000
  H   H318      1.0  0.42584  0.61474  0.38737  1.0000
  C   C261      1.0  0.44830  0.71723  0.37447  1.0000
  H   H319      1.0  0.30815  0.53573  0.56454  1.0000
  C   C262      1.0  0.25398  0.66100  0.35793  1.0000
  H   H320      1.0  0.44358  0.57106  0.41896  1.0000
  N   N18       1.0  0.27013  0.57434  0.57618  1.0000
  C   C263      1.0  0.25208  0.54270  0.58549  1.0000
  H   H321      1.0  0.45979  0.61827  0.41528  1.0000
  C   C264      1.0  0.30835  0.56244  0.57163  1.0000
  C   C265      1.0  0.27215  0.60922  0.58602  1.0000
  H   H322      1.0  0.38439  0.98257  0.34612  1.0000
  H   H323      1.0  0.47184  0.75571  0.33674  1.0000
  C   C266      1.0  0.36394  0.98476  0.33616  1.0000
  C   C267      1.0  0.24323  0.61722  0.33543  1.0000
  C   C268      1.0  0.24585  0.58741  0.34704  1.0000
  H   H324      1.0  0.46168  0.52103  0.39875  1.0000
  H   H325      1.0  0.28255  0.72440  0.34082  1.0000
  H   H326      1.0  0.45907  0.74337  0.64809  1.0000
  H   H327      1.0  0.24342  0.55876  0.34286  1.0000
  C   C269      1.0  0.48331  0.54051  0.39356  1.0000
  H   H328      1.0  0.43573  0.51349  0.65429  1.0000
  H   H329      1.0  0.42447  0.70412  0.38061  1.0000
  H   H330      1.0  0.49151  0.58153  0.42118  1.0000
  C   C270      1.0  0.25443  0.72325  0.33492  1.0000
  H   H331      1.0  0.45725  0.98721  0.34116  1.0000
  C   C271      1.0  0.49436  0.50986  0.44017  1.0000
  C   C272      1.0  0.43751  0.63367  0.66043  1.0000
  C   C273      1.0  0.33636  0.96263  0.65792  1.0000
  H   H332      1.0  0.33729  0.90202  0.65630  1.0000
  C   C274      1.0  0.34979  0.95177  0.32902  1.0000
  H   H333      1.0  0.49188  0.49989  0.62533  1.0000
  Fe  Fe37      1.0  0.21659  0.68829  0.81150  1.0000
  S   S76       1.0  0.17914  0.70346  0.83324  1.0000
  S   S77       1.0  0.24747  0.73083  0.79480  1.0000
  Fe  Fe38      1.0  0.21910  0.60621  0.82297  1.0000
  S   S78       1.0  0.18162  0.61485  0.84526  1.0000
  S   S79       1.0  0.25574  0.55585  0.81956  1.0000
  Fe  Fe39      1.0  0.14669  0.65058  0.82735  1.0000
  S   S80       1.0  0.08331  0.64543  0.82144  1.0000
  Fe  Fe40      1.0  0.21688  0.66641  0.84934  1.0000
  S   S81       1.0  0.24366  0.68309  0.87444  1.0000
  S   S82       1.0  0.18298  0.63778  0.80456  1.0000
  S   S83       1.0  0.25553  0.65552  0.82805  1.0000
  Fe  Fe41      1.0  0.40185  0.74139  0.69452  1.0000
  S   S84       1.0  0.45684  0.71961  0.70375  1.0000
  Fe  Fe42      1.0  0.31803  0.74226  0.69953  1.0000
  S   S85       1.0  0.30914  0.77628  0.67560  1.0000
  S   S86       1.0  0.26812  0.72246  0.71510  1.0000
  Fe  Fe43      1.0  0.35773  0.81151  0.68430  1.0000
  H   H334      1.0  0.02649  0.73701  0.78489  1.0000
  S   S87       1.0  0.35684  0.70117  0.68733  1.0000
  S   S88       1.0  0.36391  0.77895  0.70884  1.0000
  Fe  Fe44      1.0  0.45395  0.66074  0.91879  1.0000
  S   S89       1.0  0.41178  0.64746  0.89771  1.0000
  H   H335      1.0  0.42300  0.98561  0.66592  1.0000
  H   H336      1.0  0.20388  0.83106  0.69575  1.0000
  H   H337      1.0  0.39000  0.54813  0.89984  1.0000
  C   C275      1.0  0.24182  0.88318  0.71265  1.0000
  H   H338      1.0  0.02167  0.73736  0.83878  1.0000
  H   H339      1.0  0.48185  0.56663  0.92246  1.0000
  H   H340      1.0  0.38025  0.65226  0.78043  1.0000
  C   C276      1.0  0.48787  0.75624  0.70807  1.0000
  H   H341      1.0  0.44678  0.79999  0.70551  1.0000
  S   S90       1.0  0.36267  0.87452  0.68972  1.0000
  H   H342      1.0  0.49177  0.85131  0.71067  1.0000
  H   H343      1.0  0.36991  0.94745  0.70382  1.0000
  C   C277      1.0  0.21922  0.90547  0.72330  1.0000
  Fe  Fe45      1.0  0.35184  0.73724  0.66409  1.0000
  H   H344      1.0  0.19209  0.83148  0.72686  1.0000
  C   C278      1.0  0.25990  0.94120  0.69759  1.0000
  H   H345      1.0  0.18844  0.54236  0.79984  1.0000
  C   C279      1.0  0.03751  0.64856  0.83053  1.0000
  C   C280      1.0  0.03148  0.65571  0.84762  1.0000
  C   C281      1.0  0.34261  0.99410  0.66803  1.0000
  H   H346      1.0  0.05513  0.65910  0.85591  1.0000
  C   C282      1.0  0.47579  0.79351  0.70779  1.0000
  C   C283      1.0  0.29032  0.67245  0.88088  1.0000
  C   C284      1.0  0.30407  0.68706  0.89606  1.0000
  C   C285      1.0  0.34107  0.68003  0.90143  1.0000
  C   C286      1.0  0.36487  0.65804  0.89170  1.0000
  C   C287      1.0  0.35108  0.64349  0.87652  1.0000
  C   C288      1.0  0.31419  0.65062  0.87113  1.0000
  H   H347      1.0  0.28595  0.70390  0.90378  1.0000
  H   H348      1.0  0.35105  0.69137  0.91315  1.0000
  H   H349      1.0  0.36907  0.62635  0.86888  1.0000
  H   H350      1.0  0.30427  0.63908  0.85944  1.0000
  C   C289      1.0  0.25413  0.72630  0.77276  1.0000
  C   C290      1.0  0.22946  0.70576  0.76288  1.0000
  C   C291      1.0  0.23446  0.70451  0.74527  1.0000
  C   C292      1.0  0.26452  0.72312  0.73741  1.0000
  C   C293      1.0  0.28985  0.74273  0.74736  1.0000
  C   C294      1.0  0.28439  0.74465  0.76493  1.0000
  H   H351      1.0  0.20591  0.69170  0.76873  1.0000
  H   H352      1.0  0.21468  0.68931  0.73768  1.0000
  H   H353      1.0  0.31343  0.75675  0.74155  1.0000
  H   H354      1.0  0.30374  0.76046  0.77248  1.0000
  N   N19       1.0  0.29706  0.77300  0.84732  1.0000
  C   C295      1.0  0.26020  0.75859  0.84200  1.0000
  C   C296      1.0  0.29607  0.77702  0.86593  1.0000
  C   C297      1.0  0.30260  0.81089  0.83975  1.0000
  C   C298      1.0  0.32678  0.74756  0.84141  1.0000
  C   C299      1.0  0.33108  0.74066  0.82394  1.0000
  C   C300      1.0  0.35222  0.72925  0.85255  1.0000
  C   C301      1.0  0.35922  0.71727  0.81797  1.0000
  C   C302      1.0  0.38033  0.70597  0.84645  1.0000
  C   C303      1.0  0.38386  0.70000  0.82921  1.0000
  H   H355      1.0  0.25648  0.72903  0.84627  1.0000
  H   H356      1.0  0.23673  0.77496  0.84735  1.0000
  H   H357      1.0  0.25655  0.75929  0.82810  1.0000
  H   H358      1.0  0.29055  0.74964  0.87238  1.0000
  H   H359      1.0  0.27332  0.79604  0.87001  1.0000
  H   H360      1.0  0.32263  0.78869  0.87083  1.0000
  H   H361      1.0  0.30009  0.81091  0.82577  1.0000
  H   H362      1.0  0.28142  0.83111  0.84435  1.0000
  H   H363      1.0  0.33072  0.82204  0.84287  1.0000
  H   H364      1.0  0.31252  0.75325  0.81473  1.0000
  H   H365      1.0  0.35081  0.73191  0.86609  1.0000
  H   H366      1.0  0.36185  0.71269  0.80455  1.0000
  H   H367      1.0  0.39930  0.69219  0.85524  1.0000
  C   C304      1.0  0.31017  0.52740  0.87873  1.0000
  C   C305      1.0  0.00410  0.50561  0.84880  1.0000
  C   C306      1.0  0.36070  0.95152  0.69093  1.0000
  H   H368      1.0  0.27588  0.95514  0.68769  1.0000
  H   H369      1.0  0.05796  0.73153  0.81253  1.0000
  C   C307      1.0  0.22233  0.82601  0.72878  1.0000
  H   H370      1.0  0.23464  0.79232  0.70024  1.0000
  H   H371      1.0  0.45937  0.52016  0.90209  1.0000
  H   H372      1.0  0.31879  0.65944  0.72456  1.0000
  H   H373      1.0  0.01238  0.56503  0.85118  1.0000
  C   C308      1.0  0.23765  0.96223  0.70825  1.0000
  H   H374      1.0  0.44966  0.94235  0.68336  1.0000
  H   H375      1.0  0.28013  0.88739  0.69123  1.0000
  S   S91       1.0  0.45739  0.63396  0.94479  1.0000
  N   N20       1.0  0.24509  0.84198  0.71473  1.0000
  N   N21       1.0  0.31192  0.61262  0.77988  1.0000
  C   C309      1.0  0.30611  0.57335  0.77459  1.0000
  C   C310      1.0  0.33302  0.61147  0.79600  1.0000
  C   C311      1.0  0.27508  0.62951  0.78341  1.0000
  C   C312      1.0  0.33087  0.63429  0.76625  1.0000
  C   C313      1.0  0.31451  0.63738  0.74999  1.0000
  C   C314      1.0  0.36568  0.65273  0.76854  1.0000
  C   C315      1.0  0.33205  0.65716  0.73683  1.0000
  C   C316      1.0  0.38286  0.67263  0.75529  1.0000
  C   C317      1.0  0.36612  0.67480  0.73947  1.0000
  H   H376      1.0  0.33298  0.56004  0.77104  1.0000
  H   H377      1.0  0.29330  0.55590  0.78488  1.0000
  H   H378      1.0  0.28691  0.57134  0.76367  1.0000
  H   H379      1.0  0.31804  0.59488  0.80593  1.0000
  H   H380      1.0  0.33660  0.64000  0.80123  1.0000
  H   H381      1.0  0.36075  0.59804  0.79446  1.0000
  H   H382      1.0  0.25647  0.63004  0.77224  1.0000
  H   H383      1.0  0.25990  0.61363  0.79348  1.0000
  H   H384      1.0  0.27822  0.65882  0.78770  1.0000
  H   H385      1.0  0.28777  0.62483  0.74732  1.0000
  C   C318      1.0  0.01040  0.73999  0.79637  1.0000
  C   C319      1.0  0.23309  0.82348  0.69902  1.0000
  H   H386      1.0  0.47319  0.66562  0.67652  1.0000
  H   H387      1.0  0.37951  0.69036  0.72925  1.0000
  H   H388      1.0  0.25091  0.83135  0.68805  1.0000
  C   C320      1.0  0.33605  0.54783  0.88806  1.0000
  C   C321      1.0  0.46459  0.60666  0.99069  1.0000
  H   H389      1.0  0.20291  0.89358  0.73350  1.0000
  H   H390      1.0  0.03959  0.56670  0.81204  1.0000
  C   C322      1.0  0.26205  0.90231  0.69972  1.0000
  H   H391      1.0  0.01013  0.63869  0.80683  1.0000
  S   S92       1.0  0.47580  0.71637  0.92774  1.0000
  H   H392      1.0  0.22548  0.79494  0.72983  1.0000
  H   H393      1.0  0.32991  0.57641  0.89156  1.0000
  C   C323      1.0  0.35458  0.92004  0.68082  1.0000
  H   H394      1.0  0.40573  0.68190  0.82462  1.0000
  S   S93       1.0  0.46483  0.71245  0.97879  1.0000
  C   C324      1.0  0.02826  0.73718  0.81191  1.0000
  H   H395      1.0  0.28787  0.80140  0.72039  1.0000
  H   H396      1.0  0.29531  0.84675  0.72939  1.0000
  C   C325      1.0  0.04478  0.50793  0.80681  1.0000
  C   C326      1.0  0.23855  0.51635  0.80932  1.0000
  H   H397      1.0  0.07480  0.50787  0.80852  1.0000
  H   H398      1.0  0.28482  0.54189  0.87528  1.0000
  H   H399      1.0  0.40938  0.68654  0.75723  1.0000
  H   H400      1.0  0.49014  0.88769  0.68481  1.0000
  H   H401      1.0  0.23110  0.83726  0.74117  1.0000
  H   H402      1.0  0.30310  0.83945  0.70741  1.0000
  C   C327      1.0  0.28449  0.83203  0.71814  1.0000
  H   H403      1.0  0.26554  0.51320  0.85048  1.0000
  C   C328      1.0  0.00602  0.64411  0.82008  1.0000
  H   H404      1.0  0.43198  0.99545  0.69674  1.0000
  C   C329      1.0  0.35461  0.98825  0.68464  1.0000
  S   S94       1.0  0.39958  0.77573  0.67074  1.0000
  C   C330      1.0  0.00773  0.74044  0.82671  1.0000
  C   C331      1.0  0.02499  0.54114  0.80877  1.0000
  C   C332      1.0  0.36986  0.53180  0.89286  1.0000
  C   C333      1.0  0.47131  0.64204  0.66810  1.0000
  C   C334      1.0  0.20489  0.51699  0.80045  1.0000
  Fe  Fe46      1.0  0.48320  0.68801  0.95347  1.0000
  H   H405      1.0  0.48911  0.75932  0.67276  1.0000
  C   C335      1.0  0.21732  0.94442  0.72105  1.0000
  H   H406      1.0  0.20010  0.96102  0.72933  1.0000
  C   C336      1.0  0.48450  0.51469  0.90923  1.0000
  C   C337      1.0  0.34220  0.92583  0.66426  1.0000
  H   H407      1.0  0.44858  0.62045  0.98082  1.0000
  C   C338      1.0  0.49407  0.98298  0.67800  1.0000
  C   C339      1.0  0.47923  0.94667  0.68136  1.0000
  H   H408      1.0  0.23632  0.99244  0.70661  1.0000
  H   H409      1.0  0.41326  0.65104  0.66276  1.0000
  Fe  Fe47      1.0  0.71131  0.26104  0.31226  1.0000
  H   H410      1.0  0.72176  0.15360  0.31023  1.0000
  S   S95       1.0  0.76084  0.27315  0.29503  1.0000
  S   S96       1.0  0.53967  0.37286  0.09786  1.0000
  H   H411      1.0  0.72758  0.20163  0.25788  1.0000
  S   S97       1.0  0.54546  0.46160  0.06739  1.0000
  C   C340      1.0  0.63708  0.17884  0.26338  1.0000
  H   H412      1.0  0.65397  0.34405  0.27804  1.0000
  S   S98       1.0  0.66235  0.22619  0.30450  1.0000
  Fe  Fe48      1.0  0.78684  0.33209  0.19672  1.0000
  S   S99       1.0  0.82087  0.29457  0.18006  1.0000
  S   S100      1.0  0.74469  0.31337  0.21678  1.0000
  Fe  Fe49      1.0  0.80501  0.40106  0.17465  1.0000
  S   S101      1.0  0.84063  0.36867  0.15689  1.0000
  S   S102      1.0  0.79072  0.46005  0.16671  1.0000
  Fe  Fe50      1.0  0.79382  0.32624  0.15825  1.0000
  S   S103      1.0  0.77024  0.30420  0.13348  1.0000
  Fe  Fe51      1.0  0.86453  0.34093  0.18021  1.0000
  S   S104      1.0  0.92621  0.33576  0.18850  1.0000
  S   S105      1.0  0.75772  0.36038  0.17485  1.0000
  S   S106      1.0  0.83103  0.37682  0.19806  1.0000
  S   S107      1.0  0.56344  0.35946  0.05827  1.0000
  C   C341      1.0  0.63999  0.15299  0.27665  1.0000
  H   H413      1.0  0.96109  0.46180  0.20743  1.0000
  Fe  Fe52      1.0  0.56745  0.32785  0.08302  1.0000
  S   S108      1.0  0.62366  0.29899  0.08725  1.0000
  C   C342      1.0  0.67490  0.14400  0.28341  1.0000
  H   H414      1.0  0.55608  0.34692  0.01628  1.0000
  H   H415      1.0  0.87515  0.44393  0.17109  1.0000
  C   C343      1.0  0.54030  0.33672  0.00570  1.0000
  C   C344      1.0  0.80961  0.48830  0.19767  1.0000
  H   H416      1.0  0.71875  0.49259  0.10962  1.0000
  Fe  Fe53      1.0  0.53144  0.40157  0.07283  1.0000
  H   H417      1.0  0.56522  0.29379  0.03827  1.0000
  H   H418      1.0  0.71288  0.37165  0.28808  1.0000
  H   H419      1.0  0.70853  0.37216  0.10358  1.0000
  H   H420      1.0  0.82143  0.46116  0.20064  1.0000
  C   C345      1.0  0.97213  0.33458  0.17949  1.0000
  H   H421      1.0  0.67628  0.38298  0.22800  1.0000
  C   C346      1.0  0.70547  0.46768  0.10496  1.0000
  H   H422      1.0  0.95559  0.34362  0.15370  1.0000
  H   H423      1.0  0.76134  0.47861  0.23148  1.0000
  C   C347      1.0  0.72705  0.30282  0.12222  1.0000
  C   C348      1.0  0.72825  0.28852  0.10591  1.0000
  C   C349      1.0  0.69632  0.28773  0.09574  1.0000
  C   C350      1.0  0.66221  0.30172  0.10144  1.0000
  C   C351      1.0  0.66039  0.31612  0.11786  1.0000
  C   C352      1.0  0.69269  0.31626  0.12832  1.0000
  H   H424      1.0  0.75427  0.27779  0.10104  1.0000
  H   H425      1.0  0.69825  0.27621  0.08324  1.0000
  H   H426      1.0  0.63411  0.32645  0.12258  1.0000
  H   H427      1.0  0.69098  0.32669  0.14102  1.0000
  C   C353      1.0  0.54163  0.25460  0.30625  1.0000
  C   C354      1.0  0.55408  0.22335  0.29743  1.0000
  H   H428      1.0  0.58294  0.22147  0.29362  1.0000
  H   H429      1.0  0.67554  0.12463  0.29402  1.0000
  H   H430      1.0  0.73069  0.09591  0.29393  1.0000
  C   C355      1.0  0.75620  0.28369  0.27323  1.0000
  C   C356      1.0  0.72174  0.28165  0.26512  1.0000
  C   C357      1.0  0.71904  0.29002  0.24776  1.0000
  C   C358      1.0  0.75060  0.30086  0.23834  1.0000
  C   C359      1.0  0.78522  0.30237  0.24640  1.0000
  C   C360      1.0  0.78796  0.29377  0.26377  1.0000
  H   H431      1.0  0.69711  0.27378  0.27222  1.0000
  H   H432      1.0  0.69219  0.28864  0.24161  1.0000
  H   H433      1.0  0.80983  0.31018  0.23927  1.0000
  H   H434      1.0  0.81482  0.29507  0.26992  1.0000
  C   C361      1.0  0.70812  0.16082  0.27708  1.0000
  H   H435      1.0  0.77888  0.10345  0.29027  1.0000
  H   H436      1.0  0.61503  0.14046  0.28201  1.0000
  C   C362      1.0  0.74471  0.16584  0.30249  1.0000
  H   H437      1.0  0.60993  0.18621  0.25833  1.0000
  C   C363      1.0  0.70415  0.18695  0.26345  1.0000
  C   C364      1.0  0.75065  0.11086  0.28544  1.0000
  H   H438      1.0  0.80701  0.39443  0.11570  1.0000
  H   H439      1.0  0.77544  0.20075  0.27632  1.0000
  H   H440      1.0  0.58153  0.19235  0.03799  1.0000
  H   H441      1.0  0.75106  0.43644  0.20851  1.0000
  C   C365      1.0  0.77677  0.16952  0.27603  1.0000
  H   H442      1.0  0.76959  0.40145  0.14214  1.0000
  H   H443      1.0  0.74125  0.19679  0.30261  1.0000
  Fe  Fe54      1.0  0.62872  0.26802  0.31862  1.0000
  C   C366      1.0  0.65320  0.44229  0.08946  1.0000
  H   H444      1.0  0.53829  0.17147  0.28582  1.0000
  C   C367      1.0  0.52879  0.19510  0.29302  1.0000
  S   S109      1.0  0.67670  0.30620  0.32413  1.0000
  H   H445      1.0  0.57129  0.10075  0.31668  1.0000
  C   C368      1.0  0.52608  0.03450  0.29003  1.0000
  N   N22       1.0  0.75478  0.42443  0.11784  1.0000
  C   C369      1.0  0.77985  0.39791  0.10905  1.0000
  C   C370      1.0  0.77663  0.45902  0.12100  1.0000
  C   C371      1.0  0.74448  0.40780  0.13441  1.0000
  C   C372      1.0  0.72037  0.43122  0.10791  1.0000
  H   H446      1.0  0.76139  0.47858  0.12935  1.0000
  C   C373      1.0  0.69960  0.40070  0.10152  1.0000
  H   H447      1.0  0.57632  0.26781  0.05726  1.0000
  C   C374      1.0  0.63724  0.26903  0.03997  1.0000
  H   H448      1.0  0.63064  0.19502  0.03377  1.0000
  H   H449      1.0  0.56485  0.14958  0.31747  1.0000
  H   H450      1.0  0.55009  0.05294  0.28979  1.0000
  H   H451      1.0  0.64089  0.26788  0.05394  1.0000
  C   C375      1.0  0.58013  0.47399  0.11570  1.0000
  C   C376      1.0  0.66180  0.36329  0.25241  1.0000
  H   H452      1.0  0.80308  0.45267  0.12786  1.0000
  H   H453      1.0  0.72652  0.42697  0.14177  1.0000
  H   H454      1.0  0.72931  0.38097  0.13310  1.0000
  H   H455      1.0  0.73032  0.39161  0.21211  1.0000
  C   C377      1.0  0.57114  0.26533  0.04347  1.0000
  C   C378      1.0  0.67248  0.47293  0.09578  1.0000
  H   H456      1.0  0.54503  0.24885  0.04220  1.0000
  C   C379      1.0  0.50413  0.25717  0.31087  1.0000
  H   H457      1.0  0.92054  0.41865  0.19168  1.0000
  N   N23       1.0  0.74361  0.42111  0.23485  1.0000
  C   C380      1.0  0.78212  0.40601  0.23546  1.0000
  C   C381      1.0  0.73146  0.42072  0.21694  1.0000
  C   C382      1.0  0.74439  0.46071  0.24021  1.0000
  C   C383      1.0  0.71900  0.39919  0.24638  1.0000
  C   C384      1.0  0.52285  0.46955  0.01135  1.0000
  H   H458      1.0  0.54342  0.22043  0.01722  1.0000
  H   H459      1.0  0.76829  0.36902  0.10861  1.0000
  N   N24       1.0  0.60328  0.24849  0.03462  1.0000
  H   H460      1.0  0.52845  0.12076  0.30884  1.0000
  H   H461      1.0  0.80113  0.42173  0.22679  1.0000
  H   H462      1.0  0.79485  0.40740  0.24817  1.0000
  H   H463      1.0  0.78255  0.37612  0.23170  1.0000
  C   C385      1.0  0.66756  0.02078  0.32656  1.0000
  H   H464      1.0  0.75322  0.40706  0.26883  1.0000
  H   H465      1.0  0.66299  0.25681  0.03451  1.0000
  C   C386      1.0  0.56427  0.23355  0.00924  1.0000
  C   C387      1.0  0.67165  0.35975  0.26934  1.0000
  H   H466      1.0  0.75660  0.46377  0.25299  1.0000
  C   C388      1.0  0.62219  0.26719  0.00460  1.0000
  C   C389      1.0  0.72801  0.39519  0.26376  1.0000
  C   C390      1.0  0.66662  0.40622  0.09244  1.0000
  C   C391      1.0  0.97882  0.33934  0.16219  1.0000
  H   H467      1.0  0.74778  0.09890  0.27263  1.0000
  H   H468      1.0  0.62759  0.44644  0.08238  1.0000
  N   N25       1.0  0.74456  0.15203  0.28498  1.0000
  C   C392      1.0  0.66909  0.19565  0.25676  1.0000
  H   H469      1.0  0.61257  0.20694  0.05421  1.0000
  S   S110      1.0  0.51370  0.29641  0.07849  1.0000
  H   H470      1.0  0.77822  0.16064  0.26266  1.0000
  C   C393      1.0  0.94167  0.47308  0.19822  1.0000
  S   S111      1.0  0.57249  0.29054  0.31176  1.0000
  H   H471      1.0  0.66677  0.21604  0.24651  1.0000
  H   H472      1.0  0.77132  0.15925  0.30910  1.0000
  H   H473      1.0  0.50889  0.44102  0.03467  1.0000
  H   H474      1.0  0.63640  0.35022  0.24800  1.0000
  H   H475      1.0  0.63553  0.29931  0.03641  1.0000
  H   H476      1.0  0.80378  0.16186  0.28206  1.0000
  H   H477      1.0  0.62220  0.06005  0.32486  1.0000
  C   C394      1.0  0.70482  0.37543  0.27498  1.0000
  H   H478      1.0  0.64749  0.28074  0.00860  1.0000
  C   C395      1.0  0.68511  0.38243  0.24101  1.0000
  C   C396      1.0  0.60717  0.20896  0.04038  1.0000
  H   H479      1.0  0.65134  0.38225  0.08773  1.0000
  H   H480      1.0  0.78561  0.40750  0.09589  1.0000
  H   H481      1.0  0.70365  0.43397  0.21522  1.0000
  C   C397      1.0  0.59685  0.24988  0.01616  1.0000
  C   C398      1.0  0.91878  0.44870  0.18941  1.0000
  Fe  Fe55      1.0  0.50804  0.33190  0.05467  1.0000
  H   H482      1.0  0.71576  0.47271  0.24052  1.0000
  H   H483      1.0  0.60956  0.42488  0.12431  1.0000
  H   H484      1.0  0.56743  0.45984  0.10513  1.0000
  C   C399      1.0  0.54981  0.12237  0.31897  1.0000
  C   C400      1.0  0.50649  0.31799  0.00852  1.0000
  C   C401      1.0  0.79303  0.49492  0.18195  1.0000
  C   C402      1.0  0.62055  0.47246  0.13994  1.0000
  C   C403      1.0  0.60389  0.45427  0.12648  1.0000
  C   C404      1.0  0.89334  0.46296  0.17773  1.0000
  H   H485      1.0  0.78415  0.47374  0.10900  1.0000
  C   C405      1.0  0.51656  0.49072  0.07900  1.0000
  H   H486      1.0  0.63927  0.45700  0.14822  1.0000
  H   H487      1.0  0.80588  0.45538  0.32634  1.0000
  H   H488      1.0  0.53935  0.49079  0.01750  1.0000
  C   C406      1.0  0.50575  0.44154  0.02106  1.0000
  C   C407      1.0  0.65178  0.05698  0.32676  1.0000
  C   C408      1.0  0.56203  0.11862  0.34881  1.0000
  S   S112      1.0  0.70335  0.45246  0.62955  1.0000
  H   H489      1.0  0.67283  0.43780  0.56469  1.0000
  H   H490      1.0  0.69002  0.33254  0.56965  1.0000
  H   H491      1.0  0.72654  0.28060  0.61562  1.0000
  H   H492      1.0  0.51074  0.39018  0.38193  1.0000
  S   S113      1.0  0.65812  0.28067  0.64353  1.0000
  S   S114      1.0  0.63159  0.23635  0.34305  1.0000
  Fe  Fe56      1.0  0.68191  0.27228  0.34804  1.0000
  S   S115      1.0  0.68460  0.29905  0.37412  1.0000
  H   H493      1.0  0.78510  0.00703  0.41649  1.0000
  H   H494      1.0  0.56767  0.37602  0.39224  1.0000
  H   H495      1.0  0.57948  0.30919  0.63898  1.0000
  H   H496      1.0  0.72176  0.44508  0.59427  1.0000
  S   S116      1.0  0.68838  0.47270  0.39413  1.0000
  C   C409      1.0  0.51190  0.31554  0.35526  1.0000
  H   H497      1.0  0.56322  0.36163  0.62025  1.0000
  C   C410      1.0  0.52842  0.04833  0.33347  1.0000
  C   C411      1.0  0.75532  0.49601  0.35734  1.0000
  N   N26       1.0  0.71705  0.40342  0.57503  1.0000
  H   H498      1.0  0.75275  0.39542  0.60672  1.0000
  C   C412      1.0  0.73454  0.39665  0.55840  1.0000
  C   C413      1.0  0.55277  0.23383  0.64679  1.0000
  C   C414      1.0  0.57803  0.30928  0.37910  1.0000
  C   C415      1.0  0.71228  0.08428  0.33167  1.0000
  C   C416      1.0  0.52740  0.34320  0.36588  1.0000
  C   C417      1.0  0.68534  0.34751  0.37943  1.0000
  C   C418      1.0  0.68069  0.35772  0.39639  1.0000
  C   C419      1.0  0.68066  0.39576  0.40115  1.0000
  C   C420      1.0  0.68582  0.42418  0.38899  1.0000
  C   C421      1.0  0.69023  0.41394  0.37201  1.0000
  C   C422      1.0  0.68984  0.37598  0.36724  1.0000
  H   H499      1.0  0.67725  0.33603  0.40596  1.0000
  H   H500      1.0  0.67744  0.40301  0.41426  1.0000
  H   H501      1.0  0.69404  0.43553  0.36245  1.0000
  H   H502      1.0  0.69350  0.36874  0.35416  1.0000
  H   H503      1.0  0.52925  0.29463  0.34943  1.0000
  C   C423      1.0  0.53125  0.46350  0.59561  1.0000
  H   H504      1.0  0.76455  0.38939  0.55986  1.0000
  C   C424      1.0  0.58945  0.34445  0.35338  1.0000
  N   N27       1.0  0.56795  0.34365  0.36941  1.0000
  C   C425      1.0  0.58002  0.37647  0.37935  1.0000
  C   C426      1.0  0.68771  0.40569  0.63391  1.0000
  C   C427      1.0  0.70404  0.38549  0.64739  1.0000
  C   C428      1.0  0.69445  0.34772  0.65082  1.0000
  C   C429      1.0  0.66873  0.32929  0.64061  1.0000
  C   C430      1.0  0.65200  0.34959  0.62723  1.0000
  C   C431      1.0  0.66105  0.38764  0.62402  1.0000
  C   C432      1.0  0.67693  0.41175  0.57241  1.0000
  C   C433      1.0  0.50202  0.36879  0.37329  1.0000
  H   H505      1.0  0.63240  0.33562  0.61912  1.0000
  H   H506      1.0  0.64801  0.40272  0.61370  1.0000
  N   N28       1.0  0.53261  0.26218  0.65677  1.0000
  C   C434      1.0  0.55025  0.31570  0.63729  1.0000
  C   C435      1.0  0.70720  0.30332  0.59188  1.0000
  C   C436      1.0  0.52218  0.29425  0.64564  1.0000
  H   H507      1.0  0.52503  0.17884  0.33619  1.0000
  H   H508      1.0  0.58254  0.09569  0.34695  1.0000
  C   C437      1.0  0.70589  0.01598  0.32891  1.0000
  H   H509      1.0  0.57333  0.28347  0.37173  1.0000
  C   C438      1.0  0.74031  0.37032  0.60177  1.0000
  H   H510      1.0  0.58583  0.31857  0.34597  1.0000
  H   H511      1.0  0.57839  0.14522  0.34838  1.0000
  S   S117      1.0  0.72041  0.22883  0.33676  1.0000
  H   H512      1.0  0.76513  0.43389  0.58384  1.0000
  H   H513      1.0  0.54196  0.44653  0.40720  1.0000
  C   C439      1.0  0.50411  0.35527  0.62365  1.0000
  C   C440      1.0  0.72110  0.36979  0.58609  1.0000
  H   H514      1.0  0.61076  0.37692  0.38121  1.0000
  H   H515      1.0  0.73111  0.46228  0.57343  1.0000
  C   C441      1.0  0.79189  0.47713  0.33331  1.0000
  H   H516      1.0  0.58098  0.36853  0.34517  1.0000
  H   H517      1.0  0.55022  0.11515  0.36172  1.0000
  S   S118      1.0  0.65151  0.13374  0.32972  1.0000
  H   H518      1.0  0.56141  0.30678  0.39093  1.0000
  H   H519      1.0  0.55726  0.04713  0.32964  1.0000
  H   H520      1.0  0.60804  0.30922  0.38270  1.0000
  C   C442      1.0  0.54125  0.34574  0.62649  1.0000
  C   C443      1.0  0.70500  0.33513  0.58138  1.0000
  H   H521      1.0  0.62000  0.34658  0.35566  1.0000
  C   C444      1.0  0.74266  0.33822  0.61207  1.0000
  C   C445      1.0  0.76307  0.02907  0.39321  1.0000
  H   H522      1.0  0.66209  0.38916  0.56570  1.0000
  C   C446      1.0  0.67386  0.08901  0.32934  1.0000
  C   C447      1.0  0.52886  0.46374  0.41661  1.0000
  H   H523      1.0  0.57260  0.40334  0.37288  1.0000
  H   H524      1.0  0.67898  0.47784  0.51521  1.0000
  H   H525      1.0  0.73276  0.42199  0.54998  1.0000
  C   C448      1.0  0.72585  0.30493  0.60723  1.0000
  H   H526      1.0  0.77440  0.05690  0.39501  1.0000
  H   H527      1.0  0.72082  0.37351  0.55157  1.0000
  H   H528      1.0  0.75637  0.33955  0.62423  1.0000
  H   H529      1.0  0.72471  0.39902  0.65513  1.0000
  C   C449      1.0  0.73460  0.43751  0.58201  1.0000
  H   H530      1.0  0.57995  0.24456  0.64189  1.0000
  H   H531      1.0  0.54017  0.43605  0.59997  1.0000
  H   H532      1.0  0.69389  0.27738  0.58828  1.0000
  H   H533      1.0  0.66252  0.41576  0.58468  1.0000
  H   H534      1.0  0.75781  0.04463  0.33334  1.0000
  H   H535      1.0  0.57805  0.49678  0.42091  1.0000
  H   H536      1.0  0.55941  0.20836  0.65451  1.0000
  N   N29       1.0  0.53225  0.11858  0.33587  1.0000
  H   H537      1.0  0.74128  0.48752  0.36883  1.0000
  H   H538      1.0  0.57719  0.49222  0.60709  1.0000
  C   C450      1.0  0.77327  0.46810  0.34824  1.0000
  H   H539      1.0  0.53589  0.22490  0.63580  1.0000
  C   C451      1.0  0.72814  0.04800  0.33142  1.0000
  C   C452      1.0  0.74257  0.02141  0.37878  1.0000
  H   H540      1.0  0.77267  0.43929  0.35288  1.0000
  H   H541      1.0  0.72972  0.10838  0.33397  1.0000
  H   H542      1.0  0.73803  0.04325  0.36932  1.0000
  C   C453      1.0  0.51102  0.08297  0.33722  1.0000
  S   S119      1.0  0.64657  0.49847  0.58954  1.0000
  C   C454      1.0  0.50887  0.15245  0.33831  1.0000
  H   H543      1.0  0.49755  0.15378  0.35136  1.0000
  C   C455      1.0  0.50906  0.01434  0.33471  1.0000
  C   C456      1.0  0.55237  0.49519  0.59948  1.0000
  Fe  Fe57      1.0  0.66907  0.19600  0.32949  1.0000
  H   H544      1.0  0.56597  0.49198  0.49242  1.0000
  C   C457      1.0  0.49802  0.46747  0.58659  1.0000
  H   H545      1.0  0.49715  0.37833  0.61511  1.0000
  C   C458      1.0  0.54918  0.49230  0.42429  1.0000
  C   C459      1.0  0.76905  0.00091  0.40528  1.0000
  H   H546      1.0  0.70776  0.33257  0.66109  1.0000
  H   H547      1.0  0.50355  0.05106  0.66092  1.0000
  N   N30       1.0  0.49793  0.44111  0.96668  1.0000
  Fe  Fe58      1.0  0.56327  0.32869  0.89035  1.0000
  H   H548      1.0  0.98502  0.26982  0.81975  1.0000
  S   S120      1.0  0.60624  0.31676  0.86959  1.0000
  H   H549      1.0  0.92126  0.46087  0.84729  1.0000
  C   C460      1.0  0.53407  0.32892  0.97508  1.0000
  N   N31       1.0  0.96626  0.43988  0.79558  1.0000
  S   S121      1.0  0.56440  0.37365  0.90980  1.0000
  Fe  Fe59      1.0  0.81781  0.33780  0.83419  1.0000
  S   S122      1.0  0.79575  0.34355  0.80782  1.0000
  S   S123      1.0  0.78198  0.33914  0.85819  1.0000
  Fe  Fe60      1.0  0.90122  0.33221  0.82157  1.0000
  S   S124      1.0  0.88320  0.33514  0.79440  1.0000
  S   S125      1.0  0.96172  0.34638  0.82871  1.0000
  Fe  Fe61      1.0  0.84520  0.38090  0.80283  1.0000
  S   S126      1.0  0.84964  0.43616  0.78895  1.0000
  Fe  Fe62      1.0  0.83573  0.29703  0.80192  1.0000
  S   S127      1.0  0.81089  0.24690  0.78858  1.0000
  S   S128      1.0  0.86395  0.37955  0.82964  1.0000
  S   S129      1.0  0.85670  0.28979  0.82872  1.0000
  Fe  Fe63      1.0  0.63614  0.22426  0.70024  1.0000
  S   S130      1.0  0.58408  0.24114  0.71381  1.0000
  Fe  Fe64      1.0  0.71993  0.22615  0.69818  1.0000
  H   H550      1.0  0.50904  0.05868  0.68337  1.0000
  S   S131      1.0  0.77173  0.25084  0.71027  1.0000
  Fe  Fe65      1.0  0.67715  0.16160  0.68214  1.0000
  H   H551      1.0  0.63398  0.28233  0.97864  1.0000
  S   S132      1.0  0.67592  0.26914  0.69214  1.0000
  S   S133      1.0  0.67976  0.18310  0.70877  1.0000
  C   C461      1.0  0.80029  0.24817  0.76679  1.0000
  C   C462      1.0  0.81757  0.27374  0.75576  1.0000
  C   C463      1.0  0.80930  0.27336  0.73842  1.0000
  C   C464      1.0  0.78285  0.24824  0.73200  1.0000
  C   C465      1.0  0.76537  0.22278  0.74304  1.0000
  C   C466      1.0  0.77439  0.22250  0.76034  1.0000
  H   H552      1.0  0.83793  0.29326  0.76053  1.0000
  H   H553      1.0  0.82328  0.29283  0.72993  1.0000
  H   H554      1.0  0.74520  0.20310  0.73823  1.0000
  H   H555      1.0  0.76116  0.20238  0.76876  1.0000
  C   C467      1.0  0.55755  0.27521  0.67040  1.0000
  C   C468      1.0  0.71060  0.04948  0.69205  1.0000
  H   H556      1.0  0.72443  0.07356  0.69731  1.0000
  H   H557      1.0  0.57666  0.25386  0.96754  1.0000
  C   C469      1.0  0.82630  0.47103  0.80001  1.0000
  C   C470      1.0  0.80032  0.46099  0.81240  1.0000
  H   H558      1.0  0.55161  0.44863  0.91467  1.0000
  H   H559      1.0  0.79448  0.43177  0.81513  1.0000
  H   H560      1.0  0.64019  0.02662  0.66563  1.0000
  C   C471      1.0  0.56024  0.17120  0.70530  1.0000
  C   C472      1.0  0.98691  0.47419  0.80020  1.0000
  H   H561      1.0  0.98760  0.44798  0.84679  1.0000
  C   C473      1.0  0.65454  0.32723  0.86662  1.0000
  C   C474      1.0  0.67857  0.33463  0.88006  1.0000
  C   C475      1.0  0.71730  0.33873  0.87720  1.0000
  C   C476      1.0  0.73251  0.33627  0.86086  1.0000
  C   C477      1.0  0.70823  0.33038  0.84735  1.0000
  C   C478      1.0  0.66970  0.32530  0.85027  1.0000
  H   H562      1.0  0.66750  0.33600  0.89272  1.0000
  H   H563      1.0  0.73566  0.34348  0.88776  1.0000
  H   H564      1.0  0.71902  0.32938  0.83465  1.0000
  H   H565      1.0  0.65145  0.31962  0.83978  1.0000
  H   H566      1.0  0.73392  0.29161  0.75139  1.0000
  C   C479      1.0  0.54987  0.20689  0.71057  1.0000
  C   C480      1.0  0.68060  0.05486  0.68101  1.0000
  C   C481      1.0  0.55402  0.34192  0.98912  1.0000
  Fe  Fe66      1.0  0.50776  0.38966  0.90015  1.0000
  S   S134      1.0  0.66334  0.10037  0.67525  1.0000
  C   C482      1.0  0.93985  0.48463  0.84804  1.0000
  H   H567      1.0  0.75339  0.43885  0.78241  1.0000
  N   N32       1.0  0.70475  0.33608  0.73816  1.0000
  C   C483      1.0  0.70589  0.29844  0.74634  1.0000
  H   H568      1.0  0.92506  0.46823  0.78003  1.0000
  Fe  Fe67      1.0  0.67345  0.24390  0.66661  1.0000
  C   C484      1.0  0.71724  0.36453  0.75032  1.0000
  C   C485      1.0  0.75412  0.36341  0.75682  1.0000
  C   C486      1.0  0.69375  0.39372  0.75613  1.0000
  C   C487      1.0  0.76685  0.39003  0.76816  1.0000
  C   C488      1.0  0.70678  0.42013  0.76759  1.0000
  C   C489      1.0  0.74327  0.41834  0.77356  1.0000
  H   H569      1.0  0.68617  0.29643  0.75715  1.0000
  H   H570      1.0  0.95155  0.42595  0.82120  1.0000
  Fe  Fe68      1.0  0.53284  0.33345  0.92706  1.0000
  H   H571      1.0  0.54135  0.11589  0.69911  1.0000
  S   S135      1.0  0.50846  0.34813  0.87949  1.0000
  H   H572      1.0  0.76059  0.48089  0.83049  1.0000
  S   S136      1.0  0.53533  0.28667  0.90799  1.0000
  C   C490      1.0  0.61577  0.02498  0.71853  1.0000
  C   C491      1.0  0.66621  0.34202  0.73181  1.0000
  H   H573      1.0  0.77350  0.34180  0.75320  1.0000
  H   H574      1.0  0.66523  0.39676  0.75203  1.0000
  H   H575      1.0  0.79522  0.38863  0.77283  1.0000
  H   H576      1.0  0.68852  0.44217  0.77193  1.0000
  H   H577      1.0  0.58052  0.35581  0.98717  1.0000
  H   H578      1.0  0.74656  0.00928  0.70460  1.0000
  H   H579      1.0  0.57483  0.49547  0.93476  1.0000
  H   H580      1.0  0.55473  0.45954  0.96232  1.0000
  H   H581      1.0  0.53170  0.22321  0.98695  1.0000
  C   C492      1.0  0.86139  0.49886  0.84815  1.0000
  C   C493      1.0  0.53614  0.43519  0.96009  1.0000
  C   C494      1.0  0.72312  0.01287  0.69615  1.0000
  S   S137      1.0  0.63067  0.20095  0.67447  1.0000
  C   C495      1.0  0.50355  0.48090  0.90735  1.0000
  H   H582      1.0  0.58474  0.28592  0.66555  1.0000
  C   C496      1.0  0.51211  0.21523  0.71302  1.0000
  H   H583      1.0  0.50402  0.24286  0.71705  1.0000
  C   C497      1.0  0.57067  0.00242  0.73908  1.0000
  C   C498      1.0  0.59885  0.06024  0.71852  1.0000
  H   H584      1.0  0.86511  0.47765  0.85846  1.0000
  C   C499      1.0  0.66322  0.02293  0.67428  1.0000
  C   C500      1.0  0.55390  0.03782  0.73895  1.0000
  S   S138      1.0  0.55401  0.33481  0.95453  1.0000
  H   H585      1.0  0.92261  0.40481  0.80573  1.0000
  H   H586      1.0  0.72092  0.31629  0.71359  1.0000
  H   H587      1.0  0.93160  0.42038  0.77528  1.0000
  C   C501      1.0  0.56812  0.06670  0.72880  1.0000
  H   H588      1.0  0.65615  0.48141  0.85716  1.0000
  C   C502      1.0  0.72998  0.33648  0.72330  1.0000
  H   H589      1.0  0.68565  0.24980  0.88964  1.0000
  H   H590      1.0  0.73131  0.36477  0.71724  1.0000
  H   H591      1.0  0.69875  0.27589  0.73731  1.0000
  H   H592      1.0  0.63939  0.02140  0.71024  1.0000
  C   C503      1.0  0.94672  0.44607  0.77930  1.0000
  C   C504      1.0  0.93815  0.43085  0.80873  1.0000
  C   C505      1.0  0.53627  0.47415  0.91643  1.0000
  H   H593      1.0  0.86567  0.48522  0.83577  1.0000
  H   H594      1.0  0.75888  0.32800  0.72654  1.0000
  H   H595      1.0  0.58934  0.16454  0.70341  1.0000
  H   H596      1.0  0.65803  0.32006  0.72267  1.0000
  H   H597      1.0  0.62781  0.23631  0.87414  1.0000
  H   H598      1.0  0.54428  0.29782  0.67779  1.0000
  H   H599      1.0  0.53622  0.43018  0.94627  1.0000
  H   H600      1.0  0.64533  0.34024  0.74219  1.0000
  H   H601      1.0  0.54931  0.41019  0.96616  1.0000
  S   S139      1.0  0.72025  0.20272  0.67176  1.0000
  C   C506      1.0  0.49989  0.31090  0.97786  1.0000
  C   C507      1.0  0.53307  0.14358  0.70296  1.0000
  H   H602      1.0  0.66346  0.36951  0.72510  1.0000
  C   C508      1.0  0.50017  0.24319  0.66493  1.0000
  N   N33       1.0  0.76076  0.22296  0.84272  1.0000
  C   C509      1.0  0.76277  0.25150  0.82899  1.0000
  C   C510      1.0  0.79367  0.22837  0.85379  1.0000
  C   C511      1.0  0.76411  0.18527  0.83521  1.0000
  C   C512      1.0  0.72467  0.22639  0.85164  1.0000
  C   C513      1.0  0.72192  0.23745  0.86875  1.0000
  C   C514      1.0  0.69070  0.21942  0.84306  1.0000
  C   C515      1.0  0.68732  0.24020  0.87677  1.0000
  C   C516      1.0  0.65626  0.22256  0.85118  1.0000
  C   C517      1.0  0.65461  0.23269  0.86803  1.0000
  H   H603      1.0  0.76179  0.28025  0.83410  1.0000
  H   H604      1.0  0.78912  0.24913  0.82177  1.0000
  H   H605      1.0  0.73981  0.24892  0.81970  1.0000
  H   H606      1.0  0.79368  0.20805  0.86457  1.0000
  H   H607      1.0  0.79474  0.25740  0.85877  1.0000
  H   H608      1.0  0.82034  0.22446  0.84683  1.0000
  H   H609      1.0  0.76053  0.16280  0.84497  1.0000
  H   H610      1.0  0.74329  0.18061  0.82510  1.0000
  H   H611      1.0  0.79181  0.18135  0.82907  1.0000
  H   H612      1.0  0.74592  0.24524  0.87610  1.0000
  H   H613      1.0  0.69047  0.21230  0.82988  1.0000
  H   H614      1.0  0.52972  0.04304  0.74679  1.0000
  H   H615      1.0  0.63058  0.21812  0.84430  1.0000
  C   C518      1.0  0.58267  0.25194  0.98094  1.0000
  H   H616      1.0  0.91674  0.45304  0.81004  1.0000
  H   H617      1.0  0.56457  0.25206  0.67939  1.0000
  H   H618      1.0  0.55522  0.09416  0.72893  1.0000
  C   C519      1.0  0.97807  0.47675  0.84773  1.0000
  C   C520      1.0  0.49926  0.44139  0.98534  1.0000
  H   H619      1.0  0.54736  0.01192  0.67308  1.0000
  H   H620      1.0  0.60982  0.08268  0.71049  1.0000
  H   H621      1.0  0.50906  0.21952  0.67337  1.0000
  C   C521      1.0  0.78111  0.48882  0.82106  1.0000
  H   H622      1.0  0.96664  0.45421  0.76911  1.0000
  H   H623      1.0  0.97386  0.38084  0.79070  1.0000
  C   C522      1.0  0.99039  0.40634  0.79378  1.0000
  H   H624      1.0  0.53419  0.49137  0.98672  1.0000
  C   C523      1.0  0.55735  0.23474  0.99190  1.0000
  C   C524      1.0  0.61497  0.26812  0.98726  1.0000
  C   C525      1.0  0.51971  0.46960  0.99376  1.0000
  C   C526      1.0  0.59597  0.59383  0.12099  1.0000
  S   S140      1.0  0.66818  0.89792  0.30135  1.0000
  H   H625      1.0  0.91086  0.73991  0.22581  1.0000
  C   C527      1.0  0.90091  0.58738  0.19566  1.0000
  Fe  Fe69      1.0  0.68901  0.83953  0.30747  1.0000
  S   S141      1.0  0.70717  0.79126  0.29091  1.0000
  C   C528      1.0  0.52292  0.58166  0.00080  1.0000
  H   H626      1.0  0.53020  0.77983  0.29227  1.0000
  C   C529      1.0  0.78070  0.55922  0.18967  1.0000
  Fe  Fe70      1.0  0.80352  0.64536  0.20536  1.0000
  S   S142      1.0  0.81900  0.64583  0.17801  1.0000
  S   S143      1.0  0.80300  0.58998  0.21934  1.0000
  Fe  Fe71      1.0  0.79986  0.72963  0.20679  1.0000
  S   S144      1.0  0.81592  0.73579  0.17940  1.0000
  S   S145      1.0  0.79127  0.78473  0.22022  1.0000
  Fe  Fe72      1.0  0.77436  0.68964  0.17507  1.0000
  S   S146      1.0  0.73755  0.69233  0.15155  1.0000
  Fe  Fe73      1.0  0.85900  0.69142  0.18495  1.0000
  S   S147      1.0  0.91731  0.68934  0.17329  1.0000
  S   S148      1.0  0.75587  0.68592  0.20214  1.0000
  S   S149      1.0  0.84598  0.68862  0.21256  1.0000
  C   C530      1.0  0.93946  0.51180  0.19525  1.0000
  S   S150      1.0  0.52463  0.64398  0.09938  1.0000
  H   H627      1.0  0.87301  0.57720  0.19987  1.0000
  H   H628      1.0  0.90684  0.85448  0.20956  1.0000
  Fe  Fe74      1.0  0.52060  0.68691  0.11953  1.0000
  S   S151      1.0  0.56046  0.69003  0.14211  1.0000
  H   H629      1.0  0.86020  0.78488  0.20116  1.0000
  H   H630      1.0  0.58525  0.61516  0.15310  1.0000
  H   H631      1.0  0.76558  0.53553  0.16588  1.0000
  C   C531      1.0  0.96227  0.69040  0.18280  1.0000
  C   C532      1.0  0.96715  0.69357  0.20021  1.0000
  H   H632      1.0  0.99069  0.68602  0.15894  1.0000
  H   H633      1.0  0.94308  0.69455  0.20838  1.0000
  C   C533      1.0  0.68828  0.68981  0.14921  1.0000
  C   C534      1.0  0.67284  0.69277  0.13293  1.0000
  C   C535      1.0  0.63388  0.69226  0.13044  1.0000
  C   C536      1.0  0.60984  0.68906  0.14428  1.0000
  C   C537      1.0  0.62528  0.68555  0.16055  1.0000
  C   C538      1.0  0.66424  0.68576  0.16302  1.0000
  H   H634      1.0  0.69117  0.69596  0.12215  1.0000
  H   H635      1.0  0.62252  0.69517  0.11786  1.0000
  H   H636      1.0  0.60693  0.68325  0.17136  1.0000
  H   H637      1.0  0.67562  0.68329  0.17560  1.0000
  C   C539      1.0  0.54467  0.83471  0.30124  1.0000
  C   C540      1.0  0.89092  0.78458  0.19921  1.0000
  H   H638      1.0  0.57407  0.83160  0.29861  1.0000
  C   C541      1.0  0.72996  0.79079  0.27108  1.0000
  C   C542      1.0  0.73609  0.75605  0.26344  1.0000
  C   C543      1.0  0.75461  0.75387  0.24784  1.0000
  C   C544      1.0  0.76736  0.78649  0.23973  1.0000
  C   C545      1.0  0.76102  0.82132  0.24726  1.0000
  C   C546      1.0  0.74234  0.82351  0.26287  1.0000
  H   H639      1.0  0.72663  0.73062  0.26971  1.0000
  H   H640      1.0  0.75934  0.72688  0.24221  1.0000
  H   H641      1.0  0.77078  0.84673  0.24107  1.0000
  H   H642      1.0  0.73782  0.85038  0.26864  1.0000
  H   H643      1.0  0.58469  0.58593  0.10848  1.0000
  C   C547      1.0  0.79779  0.55297  0.20527  1.0000
  H   H644      1.0  0.76872  0.58627  0.18664  1.0000
  H   H645      1.0  0.53103  0.60652  0.13802  1.0000
  C   C548      1.0  0.91423  0.52727  0.18323  1.0000
  H   H646      1.0  0.62518  0.58625  0.15127  1.0000
  C   C549      1.0  0.51984  0.80556  0.29755  1.0000
  S   S152      1.0  0.56204  0.90339  0.31416  1.0000
  H   H647      1.0  0.62696  0.52264  0.15345  1.0000
  C   C550      1.0  0.81203  0.51739  0.20934  1.0000
  C   C551      1.0  0.53123  0.99592  0.29159  1.0000
  C   C552      1.0  0.99407  0.68857  0.17243  1.0000
  H   H648      1.0  0.53973  0.54104  0.06791  1.0000
  C   C553      1.0  0.58820  0.53104  0.13227  1.0000
  H   H649      1.0  0.50473  0.94213  0.29318  1.0000
  H   H650      1.0  0.89659  0.80443  0.18854  1.0000
  H   H651      1.0  0.66160  0.50092  0.09358  1.0000
  N   N34       1.0  0.57948  0.57110  0.13492  1.0000
  C   C554      1.0  0.50700  0.57503  0.01669  1.0000
  C   C555      1.0  0.51975  0.52945  0.07681  1.0000
  H   H652      1.0  0.89845  0.75573  0.19525  1.0000
  C   C556      1.0  0.97021  0.78707  0.19717  1.0000
  C   C557      1.0  0.51503  0.68529  0.00313  1.0000
  H   H653      1.0  0.92052  0.58272  0.20631  1.0000
  H   H654      1.0  0.94999  0.61274  0.17175  1.0000
  H   H655      1.0  0.95757  0.52962  0.20248  1.0000
  C   C558      1.0  0.52719  0.67973  0.01995  1.0000
  H   H656      1.0  0.97106  0.57976  0.18569  1.0000
  N   N35       1.0  0.91296  0.56832  0.18010  1.0000
  H   H657      1.0  0.80705  0.52105  0.31577  1.0000
  H   H658      1.0  0.57409  0.76933  0.32735  1.0000
  H   H659      1.0  0.85749  0.57222  0.16968  1.0000
  H   H660      1.0  0.55395  0.66673  0.02231  1.0000
  H   H661      1.0  0.58363  0.56901  0.16205  1.0000
  H   H662      1.0  0.96169  0.56700  0.16426  1.0000
  N   N36       1.0  0.68785  0.78537  0.19263  1.0000
  C   C559      1.0  0.69230  0.82252  0.20050  1.0000
  C   C560      1.0  0.68600  0.75628  0.20621  1.0000
  C   C561      1.0  0.72195  0.77814  0.18255  1.0000
  C   C562      1.0  0.65317  0.78479  0.18251  1.0000
  C   C563      1.0  0.61798  0.78939  0.19044  1.0000
  C   C564      1.0  0.65302  0.77957  0.16476  1.0000
  C   C565      1.0  0.58474  0.78765  0.18126  1.0000
  C   C566      1.0  0.61962  0.77831  0.15571  1.0000
  C   C567      1.0  0.58558  0.78182  0.16395  1.0000
  H   H663      1.0  0.66933  0.82878  0.20944  1.0000
  H   H664      1.0  0.71867  0.82412  0.20792  1.0000
  H   H665      1.0  0.69295  0.84534  0.19077  1.0000
  H   H666      1.0  0.66377  0.76183  0.21559  1.0000
  H   H667      1.0  0.71245  0.75480  0.21355  1.0000
  H   H668      1.0  0.68070  0.72810  0.20088  1.0000
  H   H669      1.0  0.72624  0.79990  0.17253  1.0000
  H   H670      1.0  0.74746  0.77848  0.19049  1.0000
  H   H671      1.0  0.72086  0.75012  0.17658  1.0000
  H   H672      1.0  0.61588  0.79396  0.20384  1.0000
  H   H673      1.0  0.67818  0.77533  0.15754  1.0000
  H   H674      1.0  0.55814  0.79044  0.18761  1.0000
  H   H675      1.0  0.62005  0.77323  0.14226  1.0000
  H   H676      1.0  0.55982  0.77949  0.15689  1.0000
  H   H677      1.0  0.62680  0.59050  0.12051  1.0000
  C   C568      1.0  0.97566  0.80319  0.22662  1.0000
  N   N37       1.0  0.91118  0.79531  0.21471  1.0000
  C   C569      1.0  0.89842  0.83331  0.21931  1.0000
  H   H678      1.0  0.86744  0.83447  0.22061  1.0000
  H   H679      1.0  0.82569  0.51264  0.22134  1.0000
  C   C570      1.0  0.95225  0.79519  0.21270  1.0000
  H   H680      1.0  0.52540  0.57177  0.12259  1.0000
  H   H681      1.0  0.96409  0.80997  0.23877  1.0000
  H   H682      1.0  0.89888  0.61831  0.19368  1.0000
  S   S153      1.0  0.52251  0.68349  0.05471  1.0000
  H   H683      1.0  0.89436  0.56634  0.15427  1.0000
  H   H684      1.0  0.55435  0.52591  0.10956  1.0000
  C   C571      1.0  0.95054  0.58237  0.17527  1.0000
  C   C572      1.0  0.53133  0.86781  0.30825  1.0000
  H   H685      1.0  0.91046  0.77676  0.24091  1.0000
  H   H686      1.0  0.95504  0.78002  0.18590  1.0000
  H   H687      1.0  0.88736  0.61049  0.16403  1.0000
  C   C573      1.0  0.53846  0.57702  0.13501  1.0000
  H   H688      1.0  0.91007  0.84239  0.23156  1.0000
  C   C574      1.0  0.88686  0.57959  0.16641  1.0000
  H   H689      1.0  0.59010  0.62425  0.12252  1.0000
  H   H690      1.0  0.52450  0.55834  0.14445  1.0000
  C   C575      1.0  0.77858  0.53035  0.17799  1.0000
  Fe  Fe75      1.0  0.62031  0.88249  0.31832  1.0000
  H   H691      1.0  0.86993  0.51049  0.16568  1.0000
  C   C576      1.0  0.90006  0.76848  0.22833  1.0000
  C   C577      1.0  0.50047  0.97213  0.29192  1.0000
  H   H692      1.0  0.86915  0.76642  0.22958  1.0000
  C   C578      1.0  0.59415  0.58568  0.15106  1.0000
  H   H693      1.0  0.52505  0.56444  0.02656  1.0000
  S   S154      1.0  0.63799  0.82295  0.32257  1.0000
  H   H694      1.0  0.49903  0.58298  0.08400  1.0000
  H   H695      1.0  0.52732  0.75484  0.32470  1.0000
  Fe  Fe76      1.0  0.69588  0.91506  0.32554  1.0000
  C   C579      1.0  0.61304  0.51031  0.14284  1.0000
  C   C580      1.0  0.57258  0.51182  0.11843  1.0000
  H   H696      1.0  0.55906  0.98419  0.29266  1.0000
  H   H697      1.0  0.55211  0.57555  0.99862  1.0000
  H   H698      1.0  0.65003  0.99655  0.32458  1.0000
  C   C581      1.0  0.50523  0.69094  0.03373  1.0000
  S   S155      1.0  0.49749  0.73083  0.10146  1.0000
  H   H699      1.0  0.49958  0.59806  0.05009  1.0000
  Fe  Fe77      1.0  0.49735  0.68575  0.08150  1.0000
  C   C582      1.0  0.49707  0.55327  0.08610  1.0000
  C   C583      1.0  0.89081  0.50160  0.17468  1.0000
  C   C584      1.0  0.79249  0.51413  0.32740  1.0000
  S   S156      1.0  0.55414  0.55604  0.44270  1.0000
  Fe  Fe78      1.0  0.61274  0.55568  0.43334  1.0000
  C   C585      1.0  0.55054  0.75497  0.33396  1.0000
  Fe  Fe79      1.0  0.62646  0.55402  0.59869  1.0000
  S   S157      1.0  0.66487  0.58794  0.58221  1.0000
  H   H700      1.0  0.54752  0.78899  0.63599  1.0000
  H   H701      1.0  0.58359  0.66678  0.36990  1.0000
  Fe  Fe80      1.0  0.70286  0.58416  0.60480  1.0000
  S   S158      1.0  0.73502  0.63429  0.61484  1.0000
  Fe  Fe81      1.0  0.68841  0.53234  0.57443  1.0000
  S   S159      1.0  0.66258  0.55343  0.62165  1.0000
  S   S160      1.0  0.64739  0.60576  0.43906  1.0000
  Fe  Fe82      1.0  0.66987  0.60076  0.41269  1.0000
  S   S161      1.0  0.67639  0.64048  0.38966  1.0000
  Fe  Fe83      1.0  0.66919  0.84336  0.34500  1.0000
  S   S162      1.0  0.66555  0.81586  0.37132  1.0000
  S   S163      1.0  0.64681  0.90209  0.34207  1.0000
  S   S164      1.0  0.56619  0.57029  0.59936  1.0000
  H   H702      1.0  0.71243  0.98109  0.36490  1.0000
  H   H703      1.0  0.71408  0.86249  0.39613  1.0000
  C   C586      1.0  0.67173  0.68935  0.38498  1.0000
  C   C587      1.0  0.67567  0.70178  0.36812  1.0000
  C   C588      1.0  0.67352  0.74022  0.36371  1.0000
  C   C589      1.0  0.66750  0.76688  0.37615  1.0000
  C   C590      1.0  0.66282  0.75443  0.39297  1.0000
  C   C591      1.0  0.66485  0.71593  0.39738  1.0000
  H   H704      1.0  0.68089  0.68160  0.35838  1.0000
  H   H705      1.0  0.67717  0.74923  0.35072  1.0000
  H   H706      1.0  0.65803  0.77471  0.40272  1.0000
  H   H707      1.0  0.66176  0.70692  0.41040  1.0000
  H   H708      1.0  0.51865  0.54066  0.49477  1.0000
  H   H709      1.0  0.68893  0.52678  0.36777  1.0000
  H   H710      1.0  0.56723  0.69426  0.63718  1.0000
  H   H711      1.0  0.58310  0.51423  0.47360  1.0000
  C   C592      1.0  0.57493  0.77649  0.36016  1.0000
  C   C593      1.0  0.51655  0.72316  0.64486  1.0000
  C   C594      1.0  0.56309  0.52451  0.54109  1.0000
  N   N38       1.0  0.73570  0.56283  0.36160  1.0000
  H   H712      1.0  0.73368  0.74985  0.64817  1.0000
  C   C595      1.0  0.71741  0.72637  0.64384  1.0000
  H   H713      1.0  0.73739  0.58564  0.38665  1.0000
  C   C596      1.0  0.67527  0.66632  0.63157  1.0000
  C   C597      1.0  0.71320  0.66845  0.62762  1.0000
  C   C598      1.0  0.73423  0.69850  0.63392  1.0000
  H   H714      1.0  0.59947  0.60723  0.49101  1.0000
  C   C599      1.0  0.53795  0.60531  0.39584  1.0000
  H   H715      1.0  0.65875  0.64339  0.62686  1.0000
  H   H716      1.0  0.78044  0.56544  0.37965  1.0000
  C   C600      1.0  0.60341  0.57841  0.48619  1.0000
  H   H717      1.0  0.53523  0.56619  0.47693  1.0000
  H   H718      1.0  0.78338  0.61518  0.64381  1.0000
  C   C601      1.0  0.67659  0.92119  0.38419  1.0000
  S   S165      1.0  0.72134  0.85758  0.33037  1.0000
  H   H719      1.0  0.59790  0.79083  0.35312  1.0000
  C   C602      1.0  0.73265  0.90374  0.36938  1.0000
  N   N39       1.0  0.57826  0.55102  0.49482  1.0000
  C   C603      1.0  0.70753  0.55633  0.49361  1.0000
  Fe  Fe84      1.0  0.67499  0.51375  0.41543  1.0000
  N   N40       1.0  0.54047  0.77397  0.34985  1.0000
  S   S166      1.0  0.65520  0.76061  0.65828  1.0000
  H   H720      1.0  0.51985  0.54034  0.62836  1.0000
  C   C604      1.0  0.72646  0.89046  0.39891  1.0000
  C   C605      1.0  0.61497  0.56735  0.53942  1.0000
  H   H721      1.0  0.66753  0.93961  0.37354  1.0000
  C   C606      1.0  0.55945  0.52619  0.52352  1.0000
  C   C607      1.0  0.51127  0.74181  0.37562  1.0000
  H   H722      1.0  0.72378  0.92070  0.35823  1.0000
  N   N41       1.0  0.53566  0.74968  0.65618  1.0000
  C   C608      1.0  0.56098  0.64970  0.37490  1.0000
  C   C609      1.0  0.74959  0.56242  0.37923  1.0000
  H   H723      1.0  0.52202  0.66617  0.35560  1.0000
  H   H724      1.0  0.50397  0.81322  0.33704  1.0000
  S   S167      1.0  0.73024  0.53089  0.59583  1.0000
  C   C610      1.0  0.50023  0.58974  0.65400  1.0000
  H   H725      1.0  0.53678  0.65056  0.61832  1.0000
  C   C611      1.0  0.71642  0.57831  0.50764  1.0000
  H   H726      1.0  0.59373  0.62811  0.39549  1.0000
  H   H727      1.0  0.59836  0.57980  0.47234  1.0000
  H   H728      1.0  0.52566  0.57433  0.65191  1.0000
  H   H729      1.0  0.53554  0.74634  0.38337  1.0000
  H   H730      1.0  0.59366  0.54370  0.56263  1.0000
  C   C612      1.0  0.65846  0.69431  0.64130  1.0000
  H   H731      1.0  0.76357  0.70050  0.63088  1.0000
  H   H732      1.0  0.72611  0.62253  0.36272  1.0000
  C   C613      1.0  0.50216  0.60460  0.38818  1.0000
  H   H733      1.0  0.71482  0.89886  0.41129  1.0000
  C   C614      1.0  0.53145  0.51615  0.43559  1.0000
  H   H734      1.0  0.53200  0.58894  0.49691  1.0000
  H   H735      1.0  0.75705  0.88599  0.40014  1.0000
  Fe  Fe85      1.0  0.68894  0.56173  0.44731  1.0000
  C   C615      1.0  0.52016  0.67099  0.62501  1.0000
  H   H736      1.0  0.57061  0.79325  0.37170  1.0000
  S   S168      1.0  0.72694  0.97067  0.32909  1.0000
  H   H737      1.0  0.71898  0.58165  0.53490  1.0000
  C   C616      1.0  0.50958  0.75367  0.35842  1.0000
  H   H738      1.0  0.72763  0.60618  0.50561  1.0000
  C   C617      1.0  0.69519  0.55446  0.36180  1.0000
  C   C618      1.0  0.52824  0.81271  0.34573  1.0000
  H   H739      1.0  0.58564  0.74828  0.36387  1.0000
  C   C619      1.0  0.56210  0.77316  0.64622  1.0000
  H   H740      1.0  0.63717  0.58251  0.54560  1.0000
  S   S169      1.0  0.71521  0.56082  0.42118  1.0000
  H   H741      1.0  0.76038  0.94443  0.41280  1.0000
  C   C620      1.0  0.59073  0.54517  0.54902  1.0000
  S   S170      1.0  0.63075  0.55386  0.40647  1.0000
  C   C621      1.0  0.76459  0.61431  0.65455  1.0000
  C   C622      1.0  0.74060  0.60156  0.35477  1.0000
  H   H742      1.0  0.63321  0.57051  0.48765  1.0000
  C   C623      1.0  0.53938  0.56215  0.49075  1.0000
  C   C624      1.0  0.71146  0.56448  0.52432  1.0000
  H   H743      1.0  0.74208  0.53620  0.38622  1.0000
  S   S171      1.0  0.71597  0.57471  0.47282  1.0000
  C   C625      1.0  0.53736  0.69603  0.63594  1.0000
  C   C626      1.0  0.61152  0.56937  0.52186  1.0000
  C   C627      1.0  0.67921  0.72465  0.64738  1.0000
  C   C628      1.0  0.54054  0.53071  0.59407  1.0000
  H   H744      1.0  0.66441  0.93268  0.39593  1.0000
  C   C629      1.0  0.58325  0.54911  0.51336  1.0000
  S   S172      1.0  0.69466  0.50758  0.54791  1.0000
  H   H745      1.0  0.55075  0.82940  0.33946  1.0000
  H   H746      1.0  0.63180  0.58654  0.51526  1.0000
  H   H747      1.0  0.58436  0.75626  0.64022  1.0000
  H   H748      1.0  0.72849  0.60484  0.34193  1.0000
  H   H749      1.0  0.62913  0.69247  0.64404  1.0000
  H   H750      1.0  0.72290  0.87460  0.36714  1.0000
  C   C630      1.0  0.56668  0.62783  0.38935  1.0000
  H   H751      1.0  0.77052  0.60983  0.35448  1.0000
  H   H752      1.0  0.49889  0.56207  0.58038  1.0000
  H   H753      1.0  0.66358  0.89329  0.38206  1.0000
  C   C631      1.0  0.69822  0.52802  0.52722  1.0000
  N   N42       1.0  0.71777  0.91848  0.38541  1.0000
  H   H754      1.0  0.67933  0.57546  0.36915  1.0000
  C   C632      1.0  0.75460  0.96489  0.40298  1.0000
  C   C633      1.0  0.52642  0.64923  0.36689  1.0000
  C   C634      1.0  0.73922  0.58495  0.65618  1.0000
  C   C635      1.0  0.58567  0.51369  0.48762  1.0000
  C   C636      1.0  0.73358  0.95615  0.38837  1.0000
  H   H755      1.0  0.77601  0.57028  0.33108  1.0000
  C   C637      1.0  0.69331  0.52023  0.49652  1.0000
  C   C638      1.0  0.68904  0.50613  0.51318  1.0000
  H   H756      1.0  0.54419  0.58818  0.40687  1.0000
  H   H757      1.0  0.68359  0.55421  0.34881  1.0000
  S   S173      1.0  0.65276  0.51153  0.44224  1.0000
  H   H758      1.0  0.76368  0.90342  0.36937  1.0000
  H   H759      1.0  0.73861  0.56311  0.64683  1.0000
  H   H760      1.0  0.55888  0.72540  0.33644  1.0000
  C   C639      1.0  0.49728  0.62718  0.37339  1.0000
  C   C640      1.0  0.50774  0.53463  0.58476  1.0000
  C   C641      1.0  0.72800  0.98559  0.37637  1.0000
  H   H761      1.0  0.52282  0.98825  0.33154  1.0000
  H   H762      1.0  0.51968  0.82782  0.35727  1.0000
  H   H763      1.0  0.61439  0.50407  0.49077  1.0000
  H   H764      1.0  0.53790  0.50925  0.51796  1.0000
  C   C642      1.0  0.77449  0.54229  0.33640  1.0000
  H   H765      1.0  0.50955  0.53407  0.40041  1.0000
  C   C643      1.0  0.75539  0.53400  0.35175  1.0000
  Fe  Fe86      1.0  0.68647  0.50014  0.61125  1.0000
  H   H766      1.0  0.54456  0.50697  0.54865  1.0000
  H   H767      1.0  0.50428  0.51256  0.64635  1.0000
  H   H768      1.0  0.68680  0.50274  0.48592  1.0000
  H   H769      1.0  0.57690  0.79372  0.65428  1.0000
  C   C644      1.0  0.69179  0.52937  0.85957  1.0000
  H   H770      1.0  0.76258  0.72817  0.69785  1.0000
  S   S174      1.0  0.54249  0.67173  0.94821  1.0000
  H   H771      1.0  0.75752  0.71879  0.67595  1.0000
  Fe  Fe87      1.0  0.53367  0.69444  0.92191  1.0000
  S   S175      1.0  0.57669  0.72654  0.90601  1.0000
  C   C645      1.0  0.67563  0.98630  0.67845  1.0000
  S   S176      1.0  0.64635  0.85765  0.68214  1.0000
  Fe  Fe88      1.0  0.79471  0.70056  0.82403  1.0000
  S   S177      1.0  0.81901  0.71272  0.84969  1.0000
  S   S178      1.0  0.78927  0.75182  0.80667  1.0000
  Fe  Fe89      1.0  0.78776  0.61817  0.83244  1.0000
  S   S179      1.0  0.81287  0.62520  0.85794  1.0000
  S   S180      1.0  0.76443  0.56031  0.82925  1.0000
  Fe  Fe90      1.0  0.77401  0.67435  0.86012  1.0000
  S   S181      1.0  0.74063  0.67311  0.88495  1.0000
  Fe  Fe91      1.0  0.85533  0.66221  0.84498  1.0000
  S   S182      1.0  0.91761  0.65971  0.85256  1.0000
  S   S183      1.0  0.74755  0.66594  0.83488  1.0000
  S   S184      1.0  0.83266  0.65145  0.81908  1.0000
  Fe  Fe92      1.0  0.62927  0.83582  0.70759  1.0000
  C   C646      1.0  0.60667  0.75740  0.95486  1.0000
  Fe  Fe93      1.0  0.70539  0.79962  0.71478  1.0000
  S   S185      1.0  0.72832  0.82027  0.68979  1.0000
  S   S186      1.0  0.73512  0.75386  0.73006  1.0000
  Fe  Fe94      1.0  0.69867  0.87532  0.69541  1.0000
  S   S187      1.0  0.72236  0.93537  0.69559  1.0000
  S   S188      1.0  0.68022  0.85521  0.72126  1.0000
  S   S189      1.0  0.65217  0.77869  0.70345  1.0000
  C   C647      1.0  0.58463  0.81939  0.96160  1.0000
  N   N43       1.0  0.62102  0.95798  0.72868  1.0000
  N   N44       1.0  0.73866  0.67398  0.69245  1.0000
  C   C648      1.0  0.78857  0.52672  0.81772  1.0000
  C   C649      1.0  0.81504  0.53688  0.80551  1.0000
  C   C650      1.0  0.73926  0.64378  0.67987  1.0000
  H   H772      1.0  0.82050  0.56617  0.80278  1.0000
  H   H773      1.0  0.57979  0.77078  0.71616  1.0000
  C   C651      1.0  0.77193  0.75154  0.78572  1.0000
  C   C652      1.0  0.76232  0.78571  0.77777  1.0000
  C   C653      1.0  0.74992  0.78688  0.76090  1.0000
  C   C654      1.0  0.74774  0.75386  0.75170  1.0000
  C   C655      1.0  0.75746  0.71970  0.75964  1.0000
  C   C656      1.0  0.76916  0.71845  0.77661  1.0000
  H   H774      1.0  0.76448  0.81147  0.78470  1.0000
  H   H775      1.0  0.74279  0.81336  0.75492  1.0000
  H   H776      1.0  0.75592  0.69400  0.75265  1.0000
  H   H777      1.0  0.77653  0.69199  0.78254  1.0000
  C   C657      1.0  0.60588  0.93052  0.74122  1.0000
  H   H778      1.0  0.95498  0.74661  0.83811  1.0000
  C   C658      1.0  0.63201  0.56211  0.87763  1.0000
  H   H779      1.0  0.62789  0.95997  0.70167  1.0000
  C   C659      1.0  0.76442  0.70552  0.68837  1.0000
  C   C660      1.0  0.87800  0.54855  0.86673  1.0000
  C   C661      1.0  0.69375  0.68618  0.88966  1.0000
  C   C662      1.0  0.67366  0.71181  0.87970  1.0000
  C   C663      1.0  0.63772  0.72348  0.88473  1.0000
  C   C664      1.0  0.62082  0.70884  0.89946  1.0000
  C   C665      1.0  0.64036  0.68217  0.90909  1.0000
  C   C666      1.0  0.67679  0.67150  0.90439  1.0000
  H   H780      1.0  0.68630  0.72361  0.86841  1.0000
  H   H781      1.0  0.62305  0.74425  0.87720  1.0000
  H   H782      1.0  0.62800  0.67092  0.92055  1.0000
  H   H783      1.0  0.69213  0.65192  0.91228  1.0000
  C   C667      1.0  0.53910  0.81458  0.71317  1.0000
  C   C668      1.0  0.55102  0.77729  0.71355  1.0000
  H   H784      1.0  0.58765  0.61642  0.86575  1.0000
  C   C669      1.0  0.95403  0.55064  0.85076  1.0000
  C   C670      1.0  0.96332  0.65510  0.84353  1.0000
  H   H785      1.0  0.89203  0.58642  0.83818  1.0000
  C   C671      1.0  0.96915  0.74584  0.82610  1.0000
  H   H786      1.0  0.94568  0.64403  0.81819  1.0000
  H   H787      1.0  0.67968  0.66941  0.69834  1.0000
  C   C672      1.0  0.50166  0.59721  0.98779  1.0000
  C   C673      1.0  0.54981  0.76666  0.97223  1.0000
  H   H788      1.0  0.56499  0.76764  0.98444  1.0000
  H   H789      1.0  0.54259  0.57374  0.89290  1.0000
  H   H790      1.0  0.85370  0.51669  0.78686  1.0000
  C   C674      1.0  0.62925  0.52534  0.87105  1.0000
  H   H791      1.0  0.63757  0.60103  0.90622  1.0000
  H   H792      1.0  0.95922  0.74731  0.78324  1.0000
  H   H793      1.0  0.56232  0.79614  0.93173  1.0000
  S   S190      1.0  0.54490  0.56608  0.94472  1.0000
  C   C675      1.0  0.63028  0.76549  0.94088  1.0000
  H   H794      1.0  0.58579  0.95625  0.67425  1.0000
  H   H795      1.0  0.62403  0.78799  0.93206  1.0000
  H   H796      1.0  0.58614  0.93706  0.70899  1.0000
  C   C676      1.0  0.71431  0.58408  0.66965  1.0000
  C   C677      1.0  0.54046  0.91854  0.67971  1.0000
  C   C678      1.0  0.70568  0.98095  0.68949  1.0000
  H   H797      1.0  0.59994  0.83272  0.95087  1.0000
  H   H798      1.0  0.77753  0.64505  0.70865  1.0000
  C   C679      1.0  0.64886  0.70536  0.96215  1.0000
  H   H799      1.0  0.69468  0.56106  0.67085  1.0000
  C   C680      1.0  0.71444  0.61284  0.68143  1.0000
  H   H800      1.0  0.75055  0.68039  0.71892  1.0000
  N   N45       1.0  0.57309  0.78051  0.95789  1.0000
  C   C681      1.0  0.54922  0.78116  0.94261  1.0000
  H   H801      1.0  0.60336  0.81999  0.97279  1.0000
  H   H802      1.0  0.90072  0.78066  0.83294  1.0000
  C   C682      1.0  0.66148  0.96218  0.73215  1.0000
  S   S191      1.0  0.57113  0.85142  0.71552  1.0000
  C   C683      1.0  0.74948  0.65829  0.70917  1.0000
  H   H803      1.0  0.88514  0.54819  0.82402  1.0000
  H   H804      1.0  0.57956  0.71148  0.66398  1.0000
  C   C684      1.0  0.92668  0.52203  0.84952  1.0000
  C   C685      1.0  0.97187  0.74581  0.79558  1.0000
  C   C686      1.0  0.61615  0.94174  0.71178  1.0000
  C   C687      1.0  0.98645  0.54140  0.80662  1.0000
  H   H805      1.0  0.52404  0.78365  0.97385  1.0000
  H   H806      1.0  0.61735  0.63766  0.88102  1.0000
  H   H807      1.0  0.63038  0.91426  0.71077  1.0000
  H   H808      1.0  0.54012  0.73747  0.97023  1.0000
  H   H809      1.0  0.69099  0.70110  0.68125  1.0000
  H   H810      1.0  0.69538  0.69695  0.94542  1.0000
  C   C688      1.0  0.53334  0.98559  0.67558  1.0000
  N   N46       1.0  0.60112  0.58022  0.88686  1.0000
  H   H811      1.0  0.57618  0.92352  0.73861  1.0000
  H   H812      1.0  0.72145  0.58054  0.86411  1.0000
  H   H813      1.0  0.62093  0.90322  0.74077  1.0000
  C   C689      1.0  0.66196  0.74402  0.93765  1.0000
  C   C690      1.0  0.61179  0.58414  0.90479  1.0000
  C   C691      1.0  0.96759  0.50852  0.80239  1.0000
  N   N47       1.0  0.90897  0.75296  0.80923  1.0000
  C   C692      1.0  0.89033  0.75610  0.82588  1.0000
  C   C693      1.0  0.89946  0.78714  0.79923  1.0000
  H   H814      1.0  0.71445  0.51717  0.85246  1.0000
  C   C694      1.0  0.94996  0.74867  0.81043  1.0000
  H   H815      1.0  0.51421  0.60298  0.97557  1.0000
  H   H816      1.0  0.89200  0.57616  0.86830  1.0000
  H   H817      1.0  0.86196  0.72147  0.80011  1.0000
  H   H818      1.0  0.69978  0.71348  0.70274  1.0000
  H   H819      1.0  0.85965  0.75999  0.82452  1.0000
  H   H820      1.0  0.90050  0.69360  0.80764  1.0000
  H   H821      1.0  0.91205  0.81253  0.80488  1.0000
  H   H822      1.0  0.86864  0.79153  0.79862  1.0000
  H   H823      1.0  0.90909  0.78567  0.78595  1.0000
  H   H824      1.0  0.89433  0.73029  0.83377  1.0000
  C   C695      1.0  0.89296  0.71993  0.80075  1.0000
  H   H825      1.0  0.66229  0.96224  0.67295  1.0000
  H   H826      1.0  0.53480  0.71936  0.71154  1.0000
  Fe  Fe95      1.0  0.67362  0.80106  0.67878  1.0000
  C   C696      1.0  0.83372  0.50894  0.79654  1.0000
  H   H827      1.0  0.79403  0.69632  0.68830  1.0000
  C   C697      1.0  0.52542  0.74816  0.71112  1.0000
  H   H828      1.0  0.58950  0.59809  0.91221  1.0000
  C   C698      1.0  0.96928  0.64734  0.82648  1.0000
  H   H829      1.0  0.90278  0.71741  0.78754  1.0000
  C   C699      1.0  0.52971  0.53391  0.93000  1.0000
  H   H830      1.0  0.55621  0.55423  0.87320  1.0000
  C   C700      1.0  0.70062  0.68999  0.69370  1.0000
  H   H831      1.0  0.72943  0.63680  0.71387  1.0000
  H   H832      1.0  0.52901  0.62721  0.67065  1.0000
  Fe  Fe96      1.0  0.51638  0.61986  0.93827  1.0000
  H   H833      1.0  0.65600  0.68172  0.97027  1.0000
  H   H834      1.0  0.94613  0.57961  0.85228  1.0000
  H   H835      1.0  0.69484  0.61072  0.69174  1.0000
  N   N48       1.0  0.88656  0.53161  0.85021  1.0000
  H   H836      1.0  0.93770  0.51010  0.80081  1.0000
  H   H837      1.0  0.83146  0.50725  0.84855  1.0000
  C   C701      1.0  0.87752  0.55916  0.83661  1.0000
  H   H838      1.0  0.52189  0.79499  0.94483  1.0000
  H   H839      1.0  0.67609  0.93468  0.73258  1.0000
  C   C702      1.0  0.67117  0.71394  0.94822  1.0000
  H   H840      1.0  0.84721  0.56580  0.83636  1.0000
  H   H841      1.0  0.56014  0.83754  0.96425  1.0000
  C   C703      1.0  0.59363  0.61802  0.87948  1.0000
  C   C704      1.0  0.61712  0.72674  0.96555  1.0000
  H   H842      1.0  0.53245  0.67667  0.99277  1.0000
  C   C705      1.0  0.76466  0.64347  0.66610  1.0000
  H   H843      1.0  0.54351  0.75226  0.93837  1.0000
  C   C706      1.0  0.55596  0.95368  0.67630  1.0000
  H   H844      1.0  0.78437  0.66578  0.66368  1.0000
  H   H845      1.0  0.84758  0.55369  0.86828  1.0000
  H   H846      1.0  0.61699  0.55627  0.91085  1.0000
  H   H847      1.0  0.99073  0.66457  0.86726  1.0000
  H   H848      1.0  0.60851  0.94091  0.75431  1.0000
  H   H849      1.0  0.67888  0.75004  0.92656  1.0000
  H   H850      1.0  0.56799  0.53115  0.89297  1.0000
  H   H851      1.0  0.53808  0.71000  0.67688  1.0000
  H   H852      1.0  0.56948  0.63185  0.88561  1.0000
  H   H853      1.0  0.60097  0.71830  0.97646  1.0000
  C   C707      1.0  0.69569  0.56506  0.86615  1.0000
  C   C708      1.0  0.56557  0.55881  0.88638  1.0000
  H   H854      1.0  0.55817  0.89393  0.68056  1.0000
  C   C709      1.0  0.66652  0.58110  0.87522  1.0000
  C   C710      1.0  0.54946  0.50072  0.92775  1.0000
  H   H855      1.0  0.67140  0.60862  0.88027  1.0000
  H   H856      1.0  0.60459  0.50823  0.87257  1.0000
  C   C711      1.0  0.55683  0.72870  0.66934  1.0000
  S   S192      1.0  0.51161  0.64099  0.91172  1.0000
  C   C712      1.0  0.50979  0.77529  0.66500  1.0000
  H   H857      1.0  0.57087  0.74799  0.67826  1.0000
  H   H858      1.0  0.66631  0.97626  0.74436  1.0000
  H   H859      1.0  0.67620  0.97872  0.72221  1.0000
  C   C713      1.0  0.65882  0.50941  0.86215  1.0000
  C   C714      1.0  0.50131  0.82259  0.71060  1.0000
  H   H860      1.0  0.50257  0.50130  0.96264  1.0000
  H   H861      1.0  0.88701  0.52988  0.87734  1.0000
  C   C715      1.0  0.99210  0.54251  0.85030  1.0000
  H   H862      1.0  0.97118  0.56727  0.80831  1.0000
  C   C716      1.0  0.50265  0.62031  0.66480  1.0000
  C   C717      1.0  0.60253  0.99506  0.72897  1.0000
  H   H863      1.0  0.52486  0.79396  0.67385  1.0000
  C   C718      1.0  0.99476  0.65884  0.85403  1.0000
  H   H864      1.0  0.55817  0.98133  0.74720  1.0000
  C   C719      1.0  0.50218  0.91506  0.68220  1.0000
  C   C720      1.0  0.49740  0.54109  0.92067  1.0000
