data_image0
_chemical_formula_structural       S2HFeH2CHN2C2HNFeC2H2CFeHFeCHSH2CH3CSH2CH2SH2CHCH2C2H2S2HC3H7CHC2HSHCH2CH2C4FeHSC2H3C2H7CHFeNH3C2FeHC4H2CH2C2HFeHSHC6SH2C2HC4HSHC3SCH2CH2C2H2SNC2HSC2FeHSHCFeHC3HC3SH2C3H4C2S2HC2SHFe2HCHCNH3C2H3C2FeHS2CH2CHC4SH2CFeC2FeHC2H2CHSHCSCSH3SHC2HCH3FeH2CSC3FeCH2FeHCH2C4HCH2C2H2C2H2CH3CH3CSHCSC2HCH2CHCH3CHFeHC3HCHCSH2CHFeHSCH2C4NH2FeH4CH2SCH2C2H2CHC2HCHNSC3HC4H3CFeC2H4NCSH3C2HC2HCH2NSCH3CHSC2HC3HCH3CH2SCH3CHC5HCH2SNHCHCHC4HCH3SH2CFeC2H3C4HSFeCH2CSCHCHCHCHS2HCHC4HC2SCFeH5CSH2SH3SHC3NHFeHCSHC2HCSCH2FeSC7H2FeC2HCNHSHSCHC2HCSCH2CH2CH3C3HFeHCHCSFeH3SCH4SNSC2HCH2SCHCFeH2CHCHNHS2HCH5CSCHCHC7HC2H5CH3C2SCHCSCHFeCHSFeHSH3FeHC2HCH4SC2FeHNH3CH2CSH2CNCHFeC3HSHC2HS2CFeSCHSHCH3CH3FeH2CSCFeCHCH2CH2C3H2CNH3CHSC2HCS2HFeH2CNSH5FeH4SCSHCHSCHSCHC2H4SHS2C4H2CH3CHSC3SHC3HC3H3C4H2CHCH3C2H3C3HNHSH4CH2CH2FeC2HC2FeH4S2CFeHFeHCSHCH4C2H3CHC2HCHCHNCHC3HC2H2C2FeH2S2CHSHCSC3H2CFe2HSCH2C7NCFeH2FeCHCHC2FeH3CNHSHCHCHSCH3CHFeHCH2SHSC2HFeSH2SCHCSH2NH2CHCH2SHS2C2HC2H2C2HC3H2CH4SH5NH2SCSCHC2HC2NCH2S2HC2H2CHCFeC2H2CH2NH2C2FeC2SFeHC3H3C2SCNH3CHCSH5CH3CHC2HC2HCH2C2H4C2HCH2C2H2CSHCHFeH2CHSNCH2NH2CH2CH2CS3CH4CHCHC2Fe2CNHSCHFeHCSH3C4H2CHC2HCFeCH3CH4NC3HSH6CHCH6CH2SHFeCHC3S2HNHSHCHCHCFeHC2H3C2HC2HSCNFeH3C2NCFeHCSC2H2CHSH2C2FeCH2SFeSC3H4C2HCSHCHC2H2CSCH4C2HSCHC2HCH3CHC2NHCH2CHCH2C3SCH4CSC3H3SC2H5C3H3C2HCH2FeSC2HCHCFeSC2HC2HCHC3HFeS2HCHC3H2CHCSH2CHCHC3SHC2NCHSFeCHC2SH3NHSH2CHC2H2SHFeH4C2HNCSH2SC2HC2HSFeCH9C2H5CH3FeSC4H2C2HNSHCH3SC2H4S3CSNSFeSHSCHCH2CHCSHC2HCH2C3H2CH3CH2CHSFeHSHCHCNC2H2C3HCHC2H2SFeH4C2HCFeC3HCHCH2CH3CHC4H2C2NHCH3CFeC2FeHCFeCSHCHSNH2C2HCHSCSH2CH3CFeHC5H2CHCHC2SH2CHCSC2H2FeCFeH4C3HCSH3CHC2SFeCHC2S2H3SHNH2CSHC2SH7C2SH2FeCSHSHCH3CHC3HNCHNCFeHS2H3C2NCNSH3C3H2SC4FeH2Fe2CHCH2CHC2H2C2HC4HSHFeCH2CSFeC2H2CHCHC4H4C2HC3H2C4HCH4CNH4SH3SC2SCHFeH2C4H2CH4CHC3HC2H2CHCHC3HCHSHCH2CSC2NHFeH2CHFeCH2CH3CFeH5SNHCSH3FeHC2S2H3C3SHC2SHCHFeCH2CH4CHSCH2SHCHCSCFeH2CFeCHFeC3H4C2SHC6HCHCNHC2SFeC4HCH2CHSH2SHCHCSCH2CHCFeCSH3SHCH2CH3C3HCH4S2FeCHSHCNFeCH6SC3HCHCH2SHFeHCHFeC3HNH2CHSCHC2H4SC3H5C2H4SHCHC2HFeC2HCH3S2H2CHSC2FeSHCH2CHCHCHC3NCH4FeCH2NH2FeHCHSFeHNFeHC3HCHFeCS2HCSHFeHSCHFeHSHSH2C2H2CSH3NCHFeC2HSH3CH3SC3H2C2H2CHC2HCHCH2CSHCHC2HCHCHC2FeHCSCH2CHCH3CH3SH2FeH2C3HC2HC5H4C2FeHCHCHC3H2CH2CHC2SHCSCHCHCH4SHC2HCSCNHSH3CHC2H2S3H2CH2
_chemical_formula_sum              "S240 H1080 Fe120 C900 N60"
_cell_length_a       40.0423
_cell_length_b       38.0496
_cell_length_c       26.766
_cell_angle_alpha    91.0952
_cell_angle_beta     76.2411
_cell_angle_gamma    125.023

_space_group_name_H-M_alt    "P 1"
_space_group_IT_number       1

loop_
  _space_group_symop_operation_xyz
  'x, y, z'

loop_
  _atom_site_type_symbol
  _atom_site_label
  _atom_site_symmetry_multiplicity
  _atom_site_fract_x
  _atom_site_fract_y
  _atom_site_fract_z
  _atom_site_occupancy
  S   S1        1.0  0.39489  0.49593  0.59792  1.0000
  S   S2        1.0  0.36705  0.55787  0.69832  1.0000
  H   H1        1.0  0.43973  0.25278  0.81467  1.0000
  Fe  Fe1       1.0  0.43400  0.48193  0.62935  1.0000
  H   H2        1.0  0.09282  0.26795  0.78098  1.0000
  H   H3        1.0  0.50501  0.49642  0.72097  1.0000
  C   C1        1.0  0.47084  0.23383  0.67401  1.0000
  H   H4        1.0  0.54947  0.29499  0.60783  1.0000
  N   N1        1.0  0.28805  0.35984  0.71018  1.0000
  N   N2        1.0  0.47704  0.44989  0.79061  1.0000
  C   C2        1.0  0.25415  0.47535  0.61254  1.0000
  C   C3        1.0  0.10319  0.55631  0.68488  1.0000
  H   H5        1.0  0.26343  0.39766  0.72653  1.0000
  N   N3        1.0  0.50627  0.31178  0.63826  1.0000
  Fe  Fe2       1.0  0.20079  0.56392  0.58700  1.0000
  C   C4        1.0  0.21508  0.29017  0.74456  1.0000
  C   C5        1.0  0.08310  0.54871  0.64590  1.0000
  H   H6        1.0  0.15753  0.55180  0.83011  1.0000
  H   H7        1.0  0.52705  0.37742  0.61756  1.0000
  C   C6        1.0  0.51001  0.35172  0.65205  1.0000
  Fe  Fe3       1.0  0.31126  0.12848  0.78268  1.0000
  H   H8        1.0  0.29007  0.60617  0.64485  1.0000
  Fe  Fe4       1.0  0.41401  0.54831  0.64847  1.0000
  C   C7        1.0  0.49426  0.48791  0.81900  1.0000
  H   H9        1.0  0.11710  0.29262  0.61388  1.0000
  S   S3        1.0  0.16368  0.49314  0.61452  1.0000
  H   H10       1.0  0.35472  0.23773  0.60725  1.0000
  H   H11       1.0  0.22549  0.21329  0.67295  1.0000
  C   C8        1.0  0.43448  0.41162  0.81999  1.0000
  H   H12       1.0  0.33836  0.37313  0.74209  1.0000
  H   H13       1.0  0.41987  0.18009  0.79777  1.0000
  H   H14       1.0  0.14197  0.59363  0.78235  1.0000
  C   C9        1.0  0.18974  0.14576  0.77301  1.0000
  S   S4        1.0  0.50690  0.13421  0.72818  1.0000
  H   H15       1.0  0.34886  0.41757  0.67008  1.0000
  H   H16       1.0  0.27915  0.48655  0.63122  1.0000
  C   C10       1.0  0.17260  0.24661  0.68781  1.0000
  H   H17       1.0  0.18577  0.34978  0.64127  1.0000
  H   H18       1.0  0.08643  0.32930  0.76961  1.0000
  S   S5        1.0  0.42036  0.41626  0.64533  1.0000
  H   H19       1.0  0.28749  0.32452  0.77339  1.0000
  H   H20       1.0  0.33038  0.37292  0.63438  1.0000
  C   C11       1.0  0.55181  0.22169  0.69506  1.0000
  H   H21       1.0  0.08317  0.43560  0.58831  1.0000
  C   C12       1.0  0.57214  0.14609  0.80702  1.0000
  H   H22       1.0  0.44843  0.46643  0.74617  1.0000
  H   H23       1.0  0.29589  0.55679  0.69444  1.0000
  C   C13       1.0  0.40992  0.37570  0.79491  1.0000
  C   C14       1.0  0.19682  0.47634  0.59936  1.0000
  H   H24       1.0  0.56609  0.33468  0.65094  1.0000
  H   H25       1.0  0.31608  0.32564  0.71035  1.0000
  S   S6        1.0  0.56318  0.32379  0.76003  1.0000
  S   S7        1.0  0.28216  0.14952  0.66498  1.0000
  H   H26       1.0  0.18541  0.34159  0.70719  1.0000
  C   C15       1.0  0.44849  0.19969  0.71519  1.0000
  C   C16       1.0  0.24841  0.32164  0.70175  1.0000
  C   C17       1.0  0.20413  0.27731  0.64513  1.0000
  H   H27       1.0  0.50861  0.42657  0.81676  1.0000
  H   H28       1.0  0.44176  0.57092  0.80342  1.0000
  H   H29       1.0  0.44179  0.16843  0.70805  1.0000
  H   H30       1.0  0.44882  0.36287  0.60962  1.0000
  H   H31       1.0  0.11604  0.52823  0.73985  1.0000
  H   H32       1.0  0.23746  0.51714  0.64632  1.0000
  H   H33       1.0  0.17388  0.17176  0.62210  1.0000
  C   C18       1.0  0.43640  0.20627  0.76567  1.0000
  H   H34       1.0  0.39846  0.12763  0.64761  1.0000
  C   C19       1.0  0.54996  0.27170  0.75174  1.0000
  C   C20       1.0  0.58141  0.58994  0.65129  1.0000
  H   H35       1.0  0.25612  0.36685  0.78265  1.0000
  S   S8        1.0  0.44799  0.53026  0.68489  1.0000
  H   H36       1.0  0.49737  0.41124  0.75584  1.0000
  C   C21       1.0  0.10277  0.27156  0.65033  1.0000
  H   H37       1.0  0.48064  0.22733  0.63583  1.0000
  H   H38       1.0  0.52874  0.36639  0.68077  1.0000
  C   C22       1.0  0.18277  0.58453  0.81082  1.0000
  H   H39       1.0  0.53969  0.46578  0.75883  1.0000
  H   H40       1.0  0.52518  0.51682  0.79529  1.0000
  C   C23       1.0  0.50697  0.43782  0.77995  1.0000
  C   C24       1.0  0.47558  0.46413  0.74035  1.0000
  C   C25       1.0  0.31987  0.38937  0.66164  1.0000
  C   C26       1.0  0.17637  0.35551  0.68142  1.0000
  Fe  Fe5       1.0  0.28398  0.17810  0.73893  1.0000
  H   H41       1.0  0.47819  0.34482  0.66817  1.0000
  S   S9        1.0  0.34765  0.19521  0.73816  1.0000
  C   C27       1.0  0.17786  0.25318  0.73753  1.0000
  C   C28       1.0  0.22381  0.60346  0.81408  1.0000
  H   H42       1.0  0.19582  0.39122  0.68162  1.0000
  H   H43       1.0  0.45275  0.28674  0.60770  1.0000
  H   H44       1.0  0.49348  0.17020  0.81866  1.0000
  C   C29       1.0  0.56463  0.26384  0.70290  1.0000
  C   C30       1.0  0.23063  0.49260  0.62116  1.0000
  H   H45       1.0  0.13402  0.39073  0.66925  1.0000
  H   H46       1.0  0.47701  0.31224  0.74486  1.0000
  H   H47       1.0  0.08515  0.33880  0.67314  1.0000
  H   H48       1.0  0.21760  0.29383  0.78398  1.0000
  H   H49       1.0  0.14415  0.21762  0.68216  1.0000
  H   H50       1.0  0.15317  0.22948  0.77095  1.0000
  H   H51       1.0  0.12149  0.58854  0.69535  1.0000
  C   C31       1.0  0.10023  0.52251  0.70986  1.0000
  H   H52       1.0  0.20537  0.13842  0.74027  1.0000
  Fe  Fe6       1.0  0.52829  0.12020  0.65013  1.0000
  N   N4        1.0  0.13042  0.33580  0.69921  1.0000
  H   H53       1.0  0.42132  0.37587  0.75398  1.0000
  H   H54       1.0  0.30745  0.41468  0.75205  1.0000
  H   H55       1.0  0.30766  0.40312  0.64141  1.0000
  C   C32       1.0  0.27834  0.38580  0.74431  1.0000
  C   C33       1.0  0.54970  0.32327  0.61982  1.0000
  Fe  Fe7       1.0  0.34359  0.16193  0.66757  1.0000
  H   H56       1.0  0.13434  0.33886  0.77832  1.0000
  C   C34       1.0  0.21116  0.18724  0.78727  1.0000
  C   C35       1.0  0.08979  0.25813  0.74329  1.0000
  C   C36       1.0  0.30826  0.34518  0.73518  1.0000
  C   C37       1.0  0.52448  0.23780  0.79332  1.0000
  H   H57       1.0  0.33057  0.53481  0.81942  1.0000
  H   H58       1.0  0.13291  0.35687  0.62274  1.0000
  C   C38       1.0  0.48133  0.27567  0.68217  1.0000
  H   H59       1.0  0.19970  0.27204  0.60660  1.0000
  H   H60       1.0  0.47215  0.49729  0.82968  1.0000
  C   C39       1.0  0.32430  0.58636  0.67101  1.0000
  C   C40       1.0  0.36405  0.59537  0.66669  1.0000
  H   H61       1.0  0.29986  0.24567  0.63596  1.0000
  Fe  Fe8       1.0  0.50509  0.57848  0.62046  1.0000
  H   H62       1.0  0.56209  0.21549  0.65694  1.0000
  S   S10       1.0  0.39659  0.19202  0.59412  1.0000
  H   H63       1.0  0.51251  0.24312  0.83084  1.0000
  C   C41       1.0  0.41099  0.13044  0.60630  1.0000
  C   C42       1.0  0.20716  0.18572  0.60507  1.0000
  C   C43       1.0  0.23626  0.20938  0.63344  1.0000
  C   C44       1.0  0.12116  0.34666  0.75197  1.0000
  C   C45       1.0  0.27932  0.22807  0.61136  1.0000
  C   C46       1.0  0.10672  0.28845  0.69807  1.0000
  S   S11       1.0  0.26577  0.22358  0.75875  1.0000
  H   H64       1.0  0.26476  0.33677  0.61692  1.0000
  H   H65       1.0  0.47252  0.44190  0.71148  1.0000
  C   C47       1.0  0.46889  0.28133  0.73427  1.0000
  C   C48       1.0  0.52539  0.18768  0.73656  1.0000
  H   H66       1.0  0.13615  0.38200  0.75164  1.0000
  C   C49       1.0  0.44713  0.24713  0.77516  1.0000
  C   C50       1.0  0.12007  0.35615  0.66453  1.0000
  C   C51       1.0  0.24159  0.31434  0.65166  1.0000
  C   C52       1.0  0.51284  0.19609  0.78599  1.0000
  H   H67       1.0  0.31224  0.55875  0.78913  1.0000
  S   S12       1.0  0.47209  0.59958  0.58699  1.0000
  H   H68       1.0  0.08652  0.57540  0.62560  1.0000
  C   C53       1.0  0.31687  0.55352  0.82695  1.0000
  C   C54       1.0  0.19024  0.19685  0.82868  1.0000
  C   C55       1.0  0.48650  0.29843  0.59467  1.0000
  S   S13       1.0  0.38992  0.47770  0.82788  1.0000
  C   C56       1.0  0.17423  0.60788  0.78335  1.0000
  H   H69       1.0  0.35151  0.31222  0.80188  1.0000
  H   H70       1.0  0.39973  0.59636  0.81430  1.0000
  C   C57       1.0  0.36997  0.33896  0.82205  1.0000
  H   H71       1.0  0.56941  0.34943  0.58566  1.0000
  H   H72       1.0  0.43207  0.11425  0.79873  1.0000
  C   C58       1.0  0.34017  0.14820  0.89398  1.0000
  C   C59       1.0  0.15256  0.37956  0.91915  1.0000
  H   H73       1.0  0.10190  0.43094  0.04903  1.0000
  H   H74       1.0  0.50054  0.48166  0.85476  1.0000
  S   S14       1.0  0.27558  0.44239  0.88922  1.0000
  N   N5        1.0  0.22591  0.15014  0.95367  1.0000
  C   C60       1.0  0.08544  0.51642  0.91018  1.0000
  C   C61       1.0  0.13598  0.57143  0.97153  1.0000
  H   H75       1.0  0.40179  0.47502  0.92896  1.0000
  S   S15       1.0  0.51927  0.35838  0.98172  1.0000
  C   C62       1.0  0.50082  0.45313  0.95776  1.0000
  C   C63       1.0  0.11025  0.22566  0.02289  1.0000
  Fe  Fe9       1.0  0.53516  0.39681  0.90657  1.0000
  H   H76       1.0  0.21775  0.20112  0.96578  1.0000
  S   S16       1.0  0.24947  0.28506  0.99435  1.0000
  H   H77       1.0  0.17535  0.15497  0.94808  1.0000
  C   C64       1.0  0.33958  0.61179  0.93928  1.0000
  Fe  Fe10      1.0  0.32483  0.42996  0.88152  1.0000
  H   H78       1.0  0.47541  0.19673  0.03190  1.0000
  C   C65       1.0  0.09816  0.32156  0.88448  1.0000
  C   C66       1.0  0.33835  0.60313  0.99050  1.0000
  C   C67       1.0  0.41709  0.40780  0.87425  1.0000
  H   H79       1.0  0.56155  0.46144  0.02105  1.0000
  C   C68       1.0  0.37705  0.37100  0.90096  1.0000
  C   C69       1.0  0.14017  0.34726  0.88705  1.0000
  C   C70       1.0  0.34281  0.58667  0.90090  1.0000
  S   S17       1.0  0.40776  0.25197  0.99312  1.0000
  H   H80       1.0  0.35492  0.20012  0.84099  1.0000
  H   H81       1.0  0.08769  0.29513  0.86189  1.0000
  C   C71       1.0  0.23323  0.48986  0.01825  1.0000
  C   C72       1.0  0.47087  0.41357  0.99059  1.0000
  C   C73       1.0  0.50034  0.48902  0.96815  1.0000
  H   H82       1.0  0.31871  0.28647  0.00772  1.0000
  H   H83       1.0  0.20685  0.22886  0.84004  1.0000
  H   H84       1.0  0.19820  0.26002  0.92390  1.0000
  H   H85       1.0  0.13293  0.17091  0.89093  1.0000
  C   C74       1.0  0.12273  0.58781  0.93969  1.0000
  C   C75       1.0  0.14856  0.16401  0.85758  1.0000
  S   S18       1.0  0.24071  0.45211  0.03973  1.0000
  S   S19       1.0  0.51963  0.15049  0.04410  1.0000
  H   H86       1.0  0.23385  0.57606  0.05609  1.0000
  C   C76       1.0  0.38021  0.21214  0.95579  1.0000
  C   C77       1.0  0.13547  0.23464  0.97208  1.0000
  S   S20       1.0  0.52315  0.28875  0.91286  1.0000
  H   H87       1.0  0.22720  0.46863  0.94392  1.0000
  Fe  Fe11      1.0  0.25917  0.42265  0.97493  1.0000
  Fe  Fe12      1.0  0.23096  0.37142  0.88608  1.0000
  H   H88       1.0  0.35070  0.53457  0.88944  1.0000
  C   C78       1.0  0.25814  0.16982  0.98328  1.0000
  H   H89       1.0  0.51193  0.26817  0.04142  1.0000
  C   C79       1.0  0.19444  0.25410  0.00534  1.0000
  N   N6        1.0  0.34448  0.59502  0.84619  1.0000
  H   H90       1.0  0.33751  0.56181  0.04518  1.0000
  H   H91       1.0  0.28502  0.53225  0.85522  1.0000
  H   H92       1.0  0.30079  0.32960  0.06012  1.0000
  C   C80       1.0  0.57156  0.15210  0.85864  1.0000
  C   C81       1.0  0.50114  0.27090  0.08132  1.0000
  H   H93       1.0  0.42187  0.38100  0.06278  1.0000
  H   H94       1.0  0.42954  0.53151  0.98528  1.0000
  H   H95       1.0  0.18472  0.39916  0.92176  1.0000
  C   C82       1.0  0.33752  0.28922  0.03410  1.0000
  C   C83       1.0  0.12525  0.52938  0.97155  1.0000
  Fe  Fe13      1.0  0.47487  0.30164  0.94645  1.0000
  H   H96       1.0  0.47085  0.51337  0.01992  1.0000
  S   S21       1.0  0.23839  0.60275  0.95215  1.0000
  S   S22       1.0  0.48875  0.34050  0.87297  1.0000
  C   C84       1.0  0.23315  0.51917  0.05064  1.0000
  H   H97       1.0  0.27656  0.20583  0.97804  1.0000
  H   H98       1.0  0.36402  0.36935  0.94201  1.0000
  C   C85       1.0  0.41588  0.50822  0.91411  1.0000
  H   H99       1.0  0.37040  0.31862  0.01668  1.0000
  C   C86       1.0  0.23163  0.55690  0.97994  1.0000
  C   C87       1.0  0.09998  0.50188  0.94093  1.0000
  C   C88       1.0  0.17782  0.24960  0.96328  1.0000
  C   C89       1.0  0.35689  0.19132  0.87764  1.0000
  S   S23       1.0  0.17777  0.34052  0.84875  1.0000
  H   H100      1.0  0.11986  0.33131  0.04137  1.0000
  H   H101      1.0  0.08461  0.56798  0.88408  1.0000
  C   C90       1.0  0.44729  0.58271  0.92853  1.0000
  Fe  Fe14      1.0  0.56905  0.34987  0.94019  1.0000
  C   C91       1.0  0.35353  0.33671  0.87494  1.0000
  C   C92       1.0  0.12645  0.22874  0.06493  1.0000
  Fe  Fe15      1.0  0.26524  0.34645  0.95677  1.0000
  H   H102      1.0  0.26859  0.15550  0.88309  1.0000
  C   C93       1.0  0.41781  0.51904  0.86349  1.0000
  C   C94       1.0  0.12368  0.38753  0.94677  1.0000
  H   H103      1.0  0.43355  0.43306  0.89688  1.0000
  H   H104      1.0  0.18072  0.15300  0.01270  1.0000
  C   C95       1.0  0.34379  0.54465  0.96828  1.0000
  H   H105      1.0  0.12331  0.23304  0.93946  1.0000
  S   S24       1.0  0.53991  0.45827  0.90519  1.0000
  H   H106      1.0  0.39578  0.29925  0.06864  1.0000
  C   C96       1.0  0.45301  0.59450  0.87627  1.0000
  S   S25       1.0  0.21170  0.35277  0.97187  1.0000
  C   C97       1.0  0.34615  0.55369  0.91673  1.0000
  S   S26       1.0  0.31166  0.41492  0.96774  1.0000
  H   H107      1.0  0.46933  0.38511  0.98151  1.0000
  H   H108      1.0  0.22543  0.52744  0.91022  1.0000
  H   H109      1.0  0.33786  0.26014  0.03296  1.0000
  S   S27       1.0  0.28157  0.36050  0.87058  1.0000
  H   H110      1.0  0.44887  0.21939  0.01808  1.0000
  C   C98       1.0  0.16833  0.24202  0.05609  1.0000
  C   C99       1.0  0.44312  0.44686  0.04726  1.0000
  H   H111      1.0  0.42137  0.16208  0.03134  1.0000
  C   C100      1.0  0.37745  0.22347  0.90829  1.0000
  H   H112      1.0  0.55984  0.33413  0.07263  1.0000
  H   H113      1.0  0.22643  0.15684  0.87343  1.0000
  H   H114      1.0  0.28175  0.16244  0.97002  1.0000
  Fe  Fe16      1.0  0.54082  0.33235  0.84163  1.0000
  H   H115      1.0  0.26976  0.20329  0.89050  1.0000
  H   H116      1.0  0.52311  0.51967  0.94263  1.0000
  C   C101      1.0  0.19858  0.16515  0.97083  1.0000
  S   S28       1.0  0.37054  0.51256  0.07749  1.0000
  C   C102      1.0  0.36136  0.16871  0.97328  1.0000
  C   C103      1.0  0.43138  0.54020  0.94620  1.0000
  C   C104      1.0  0.24864  0.16717  0.89782  1.0000
  Fe  Fe17      1.0  0.57565  0.14785  0.03240  1.0000
  C   C105      1.0  0.34199  0.13700  0.94202  1.0000
  H   H117      1.0  0.36262  0.15947  0.01022  1.0000
  H   H118      1.0  0.24295  0.15813  0.02577  1.0000
  Fe  Fe18      1.0  0.42819  0.58165  0.05316  1.0000
  H   H119      1.0  0.39131  0.25699  0.89509  1.0000
  C   C106      1.0  0.12852  0.12169  0.84540  1.0000
  H   H120      1.0  0.13396  0.41345  0.97020  1.0000
  H   H121      1.0  0.28332  0.41949  0.08058  1.0000
  C   C107      1.0  0.44304  0.41084  0.03601  1.0000
  C   C108      1.0  0.43895  0.56257  0.84333  1.0000
  C   C109      1.0  0.23239  0.55273  0.03145  1.0000
  C   C110      1.0  0.47100  0.48562  0.01242  1.0000
  H   H122      1.0  0.35221  0.36131  0.07078  1.0000
  C   C111      1.0  0.22897  0.49210  0.96828  1.0000
  H   H123      1.0  0.09190  0.46935  0.94067  1.0000
  H   H124      1.0  0.32228  0.30855  0.89574  1.0000
  C   C112      1.0  0.09663  0.55876  0.90923  1.0000
  C   C113      1.0  0.22785  0.52537  0.94926  1.0000
  H   H125      1.0  0.34506  0.51838  0.97973  1.0000
  H   H126      1.0  0.13740  0.51848  0.99469  1.0000
  C   C114      1.0  0.33985  0.56928  0.00511  1.0000
  C   C115      1.0  0.44505  0.19348  0.04263  1.0000
  H   H127      1.0  0.54629  0.51326  0.05345  1.0000
  H   H128      1.0  0.15568  0.59143  0.99584  1.0000
  C   C116      1.0  0.54541  0.45669  0.06176  1.0000
  H   H129      1.0  0.22987  0.58569  0.83728  1.0000
  H   H130      1.0  0.22401  0.34411  0.07692  1.0000
  H   H131      1.0  0.55161  0.12417  0.88900  1.0000
  C   C117      1.0  0.10524  0.32652  0.08281  1.0000
  H   H132      1.0  0.53892  0.39818  0.08107  1.0000
  H   H133      1.0  0.25691  0.24706  0.07727  1.0000
  H   H134      1.0  0.29818  0.60866  0.86475  1.0000
  C   C118      1.0  0.53665  0.48583  0.08006  1.0000
  S   S29       1.0  0.46981  0.57066  0.08227  1.0000
  H   H135      1.0  0.20886  0.17296  0.20345  1.0000
  C   C119      1.0  0.11666  0.48244  0.13037  1.0000
  S   S30       1.0  0.55419  0.11437  0.11330  1.0000
  C   C120      1.0  0.26777  0.37160  0.19938  1.0000
  C   C121      1.0  0.11243  0.52003  0.20296  1.0000
  H   H136      1.0  0.22817  0.33233  0.30271  1.0000
  C   C122      1.0  0.13751  0.33952  0.24064  1.0000
  H   H137      1.0  0.49781  0.50296  0.22897  1.0000
  H   H138      1.0  0.13720  0.48197  0.09630  1.0000
  C   C123      1.0  0.52432  0.60423  0.26072  1.0000
  H   H139      1.0  0.09989  0.19350  0.18923  1.0000
  C   C124      1.0  0.52480  0.20302  0.17436  1.0000
  H   H140      1.0  0.27349  0.22349  0.11370  1.0000
  H   H141      1.0  0.18426  0.42929  0.15303  1.0000
  H   H142      1.0  0.38992  0.21272  0.09423  1.0000
  C   C125      1.0  0.57386  0.58704  0.22379  1.0000
  H   H143      1.0  0.45164  0.36983  0.24488  1.0000
  Fe  Fe19      1.0  0.52953  0.30118  0.33273  1.0000
  H   H144      1.0  0.45973  0.16565  0.11878  1.0000
  C   C126      1.0  0.54277  0.60282  0.16820  1.0000
  C   C127      1.0  0.28517  0.40387  0.15636  1.0000
  C   C128      1.0  0.56307  0.15657  0.24283  1.0000
  H   H145      1.0  0.40532  0.12775  0.11929  1.0000
  C   C129      1.0  0.11825  0.38918  0.23927  1.0000
  H   H146      1.0  0.14964  0.32257  0.21731  1.0000
  C   C130      1.0  0.54417  0.18631  0.31494  1.0000
  S   S31       1.0  0.16987  0.12472  0.12361  1.0000
  H   H147      1.0  0.19505  0.21792  0.26088  1.0000
  H   H148      1.0  0.43642  0.45098  0.20277  1.0000
  C   C131      1.0  0.51110  0.41459  0.14785  1.0000
  H   H149      1.0  0.19933  0.39324  0.15692  1.0000
  Fe  Fe20      1.0  0.27821  0.13027  0.19459  1.0000
  H   H150      1.0  0.55303  0.58792  0.30538  1.0000
  S   S32       1.0  0.13424  0.23815  0.27075  1.0000
  C   C132      1.0  0.23637  0.35170  0.11055  1.0000
  H   H151      1.0  0.57716  0.27060  0.15921  1.0000
  H   H152      1.0  0.29943  0.29282  0.19341  1.0000
  C   C133      1.0  0.11176  0.34486  0.17024  1.0000
  C   C134      1.0  0.21819  0.31940  0.15249  1.0000
  C   C135      1.0  0.27981  0.60318  0.16901  1.0000
  C   C136      1.0  0.18199  0.40545  0.17978  1.0000
  N   N7        1.0  0.13717  0.36954  0.20651  1.0000
  H   H153      1.0  0.48455  0.47209  0.28825  1.0000
  H   H154      1.0  0.54029  0.60737  0.12989  1.0000
  Fe  Fe21      1.0  0.35520  0.53354  0.15304  1.0000
  H   H155      1.0  0.43108  0.30139  0.13120  1.0000
  H   H156      1.0  0.45457  0.39922  0.29781  1.0000
  H   H157      1.0  0.17053  0.54068  0.14608  1.0000
  H   H158      1.0  0.27658  0.35594  0.32049  1.0000
  C   C137      1.0  0.12331  0.18871  0.19291  1.0000
  H   H159      1.0  0.17975  0.53129  0.24698  1.0000
  H   H160      1.0  0.20636  0.48649  0.24477  1.0000
  S   S33       1.0  0.45908  0.11684  0.19540  1.0000
  C   C138      1.0  0.13126  0.16369  0.16029  1.0000
  H   H161      1.0  0.11369  0.14935  0.13194  1.0000
  H   H162      1.0  0.50725  0.50196  0.14377  1.0000
  C   C139      1.0  0.23817  0.58651  0.19749  1.0000
  C   C140      1.0  0.38870  0.18527  0.11073  1.0000
  H   H163      1.0  0.34410  0.40917  0.26276  1.0000
  H   H164      1.0  0.20025  0.42391  0.20774  1.0000
  C   C141      1.0  0.26985  0.39394  0.11253  1.0000
  H   H165      1.0  0.54060  0.34459  0.16395  1.0000
  C   C142      1.0  0.46118  0.23713  0.11512  1.0000
  C   C143      1.0  0.46860  0.18020  0.25319  1.0000
  H   H166      1.0  0.31057  0.43720  0.15656  1.0000
  C   C144      1.0  0.33413  0.14411  0.29277  1.0000
  H   H167      1.0  0.30578  0.33548  0.12461  1.0000
  N   N8        1.0  0.31951  0.29227  0.08801  1.0000
  S   S34       1.0  0.56034  0.30714  0.24937  1.0000
  C   C145      1.0  0.39870  0.59073  0.32172  1.0000
  C   C146      1.0  0.32827  0.29514  0.17842  1.0000
  C   C147      1.0  0.34948  0.29667  0.21399  1.0000
  H   H168      1.0  0.32747  0.59119  0.14680  1.0000
  C   C148      1.0  0.45117  0.24451  0.16704  1.0000
  C   C149      1.0  0.52325  0.11680  0.25999  1.0000
  C   C150      1.0  0.38148  0.29829  0.10864  1.0000
  C   C151      1.0  0.47144  0.40229  0.25656  1.0000
  H   H169      1.0  0.24751  0.40636  0.27691  1.0000
  H   H170      1.0  0.25670  0.25599  0.14229  1.0000
  H   H171      1.0  0.47703  0.22974  0.29930  1.0000
  C   C152      1.0  0.13003  0.35116  0.11571  1.0000
  Fe  Fe22      1.0  0.41124  0.50310  0.11146  1.0000
  C   C153      1.0  0.48617  0.17020  0.20872  1.0000
  C   C154      1.0  0.27490  0.25308  0.10618  1.0000
  H   H172      1.0  0.40153  0.29767  0.22488  1.0000
  H   H173      1.0  0.41886  0.39603  0.20116  1.0000
  H   H174      1.0  0.32298  0.11900  0.26822  1.0000
  H   H175      1.0  0.41803  0.15868  0.17111  1.0000
  N   N9        1.0  0.28473  0.38294  0.24519  1.0000
  C   C155      1.0  0.18484  0.17709  0.20054  1.0000
  S   S35       1.0  0.28743  0.50399  0.19823  1.0000
  H   H176      1.0  0.13790  0.40970  0.26513  1.0000
  H   H177      1.0  0.37352  0.17852  0.15310  1.0000
  H   H178      1.0  0.42193  0.21987  0.19547  1.0000
  C   C156      1.0  0.16171  0.15744  0.16425  1.0000
  C   C157      1.0  0.52110  0.61033  0.21128  1.0000
  H   H179      1.0  0.53750  0.19541  0.13925  1.0000
  C   C158      1.0  0.22692  0.51888  0.22321  1.0000
  C   C159      1.0  0.49099  0.22255  0.26487  1.0000
  H   H180      1.0  0.40738  0.59586  0.27953  1.0000
  C   C160      1.0  0.56933  0.59135  0.17442  1.0000
  H   H181      1.0  0.21862  0.30226  0.22669  1.0000
  H   H182      1.0  0.18119  0.24525  0.08835  1.0000
  N   N10       1.0  0.43158  0.19507  0.09890  1.0000
  S   S36       1.0  0.40950  0.60360  0.12616  1.0000
  C   C161      1.0  0.53258  0.42112  0.09556  1.0000
  H   H183      1.0  0.26499  0.31931  0.27411  1.0000
  H   H184      1.0  0.24865  0.50324  0.30823  1.0000
  H   H185      1.0  0.10529  0.31382  0.26578  1.0000
  C   C162      1.0  0.53083  0.25506  0.23200  1.0000
  H   H186      1.0  0.29078  0.42419  0.30428  1.0000
  S   S37       1.0  0.27503  0.13633  0.11256  1.0000
  C   C163      1.0  0.17744  0.20302  0.23259  1.0000
  C   C164      1.0  0.42847  0.16034  0.12826  1.0000
  H   H187      1.0  0.16348  0.37458  0.09733  1.0000
  C   C165      1.0  0.38631  0.29866  0.19703  1.0000
  C   C166      1.0  0.14628  0.20845  0.22902  1.0000
  C   C167      1.0  0.26872  0.53572  0.19548  1.0000
  H   H188      1.0  0.22634  0.54771  0.32221  1.0000
  C   C168      1.0  0.43468  0.42419  0.22238  1.0000
  H   H189      1.0  0.15798  0.35678  0.26702  1.0000
  H   H190      1.0  0.35183  0.24209  0.30608  1.0000
  H   H191      1.0  0.43789  0.15532  0.27893  1.0000
  C   C169      1.0  0.21185  0.54432  0.22463  1.0000
  H   H192      1.0  0.08620  0.36451  0.26550  1.0000
  H   H193      1.0  0.10680  0.22159  0.10418  1.0000
  S   S38       1.0  0.32178  0.18893  0.22832  1.0000
  C   C170      1.0  0.26243  0.34579  0.28726  1.0000
  H   H194      1.0  0.50181  0.38622  0.17167  1.0000
  H   H195      1.0  0.19116  0.28686  0.15201  1.0000
  H   H196      1.0  0.47162  0.28713  0.22441  1.0000
  C   C171      1.0  0.47930  0.28315  0.18398  1.0000
  H   H197      1.0  0.33437  0.37529  0.21223  1.0000
  C   C172      1.0  0.23392  0.32888  0.19595  1.0000
  C   C173      1.0  0.34331  0.29530  0.12464  1.0000
  C   C174      1.0  0.40254  0.30003  0.14442  1.0000
  C   C175      1.0  0.28090  0.41681  0.26770  1.0000
  C   C176      1.0  0.33590  0.18111  0.28215  1.0000
  H   H198      1.0  0.33655  0.29478  0.25516  1.0000
  C   C177      1.0  0.51827  0.31544  0.15000  1.0000
  H   H199      1.0  0.36657  0.15572  0.09522  1.0000
  H   H200      1.0  0.12799  0.54596  0.22557  1.0000
  S   S39       1.0  0.40871  0.44274  0.10546  1.0000
  N   N11       1.0  0.47724  0.43680  0.22230  1.0000
  H   H201      1.0  0.41960  0.46947  0.31094  1.0000
  C   C178      1.0  0.50175  0.44382  0.16782  1.0000
  H   H202      1.0  0.50256  0.40944  0.25681  1.0000
  C   C179      1.0  0.13636  0.51665  0.15857  1.0000
  H   H203      1.0  0.53303  0.49086  0.23980  1.0000
  C   C180      1.0  0.35089  0.21371  0.31372  1.0000
  C   C181      1.0  0.57339  0.19122  0.27035  1.0000
  C   C182      1.0  0.33008  0.39977  0.22931  1.0000
  C   C183      1.0  0.54709  0.24557  0.18576  1.0000
  H   H204      1.0  0.11539  0.41016  0.21476  1.0000
  C   C184      1.0  0.49903  0.47733  0.24564  1.0000
  H   H205      1.0  0.30107  0.44794  0.24093  1.0000
  H   H206      1.0  0.34952  0.42895  0.19947  1.0000
  H   H207      1.0  0.41359  0.41500  0.26255  1.0000
  S   S40       1.0  0.39209  0.51923  0.18904  1.0000
  H   H208      1.0  0.23595  0.51737  0.08963  1.0000
  H   H209      1.0  0.50703  0.60939  0.29411  1.0000
  C   C185      1.0  0.51471  0.47934  0.13209  1.0000
  Fe  Fe23      1.0  0.44732  0.58754  0.15663  1.0000
  C   C186      1.0  0.55024  0.59202  0.26709  1.0000
  C   C187      1.0  0.29512  0.57784  0.16804  1.0000
  H   H210      1.0  0.12291  0.60628  0.21255  1.0000
  H   H211      1.0  0.38538  0.52746  0.32703  1.0000
  H   H212      1.0  0.09841  0.40240  0.10566  1.0000
  C   C188      1.0  0.50469  0.14659  0.33302  1.0000
  C   C189      1.0  0.31954  0.33122  0.08591  1.0000
  C   C190      1.0  0.52913  0.30937  0.09879  1.0000
  C   C191      1.0  0.34860  0.14050  0.33410  1.0000
  H   H213      1.0  0.11176  0.13047  0.36220  1.0000
  S   S41       1.0  0.22250  0.29586  0.41023  1.0000
  Fe  Fe24      1.0  0.20582  0.34249  0.42926  1.0000
  C   C192      1.0  0.11104  0.36234  0.38855  1.0000
  H   H214      1.0  0.50209  0.50692  0.45461  1.0000
  H   H215      1.0  0.39209  0.46657  0.50158  1.0000
  C   C193      1.0  0.39892  0.46729  0.46011  1.0000
  S   S42       1.0  0.34973  0.38147  0.36117  1.0000
  C   C194      1.0  0.21216  0.42842  0.55714  1.0000
  H   H216      1.0  0.13703  0.22123  0.44814  1.0000
  C   C195      1.0  0.35746  0.27336  0.49024  1.0000
  H   H217      1.0  0.20513  0.40397  0.53215  1.0000
  C   C196      1.0  0.44659  0.37653  0.57663  1.0000
  H   H218      1.0  0.54482  0.46223  0.43442  1.0000
  C   C197      1.0  0.37599  0.54605  0.40295  1.0000
  H   H219      1.0  0.57929  0.57156  0.57497  1.0000
  S   S43       1.0  0.18185  0.32002  0.51526  1.0000
  S   S44       1.0  0.50702  0.24415  0.38843  1.0000
  H   H220      1.0  0.27071  0.48747  0.42762  1.0000
  C   C198      1.0  0.56053  0.49245  0.45221  1.0000
  H   H221      1.0  0.37532  0.21495  0.50471  1.0000
  C   C199      1.0  0.17267  0.49303  0.44598  1.0000
  C   C200      1.0  0.45938  0.36929  0.52622  1.0000
  C   C201      1.0  0.35610  0.53179  0.51383  1.0000
  C   C202      1.0  0.38232  0.42940  0.38579  1.0000
  H   H222      1.0  0.10122  0.59707  0.44887  1.0000
  C   C203      1.0  0.43928  0.50641  0.37317  1.0000
  C   C204      1.0  0.52473  0.51427  0.41609  1.0000
  S   S45       1.0  0.46372  0.27787  0.47433  1.0000
  C   C205      1.0  0.44404  0.13801  0.49928  1.0000
  Fe  Fe25      1.0  0.44535  0.23603  0.41168  1.0000
  H   H223      1.0  0.22845  0.17334  0.39283  1.0000
  H   H224      1.0  0.17395  0.18475  0.38965  1.0000
  H   H225      1.0  0.50984  0.48405  0.39800  1.0000
  H   H226      1.0  0.31074  0.55502  0.37339  1.0000
  H   H227      1.0  0.27329  0.19516  0.49205  1.0000
  C   C206      1.0  0.36625  0.26101  0.57213  1.0000
  S   S46       1.0  0.17698  0.35626  0.37740  1.0000
  H   H228      1.0  0.16182  0.43218  0.55037  1.0000
  H   H229      1.0  0.32902  0.57582  0.55602  1.0000
  S   S47       1.0  0.55905  0.28231  0.49948  1.0000
  H   H230      1.0  0.48364  0.14446  0.36849  1.0000
  H   H231      1.0  0.35548  0.30061  0.50142  1.0000
  H   H232      1.0  0.11274  0.52355  0.42081  1.0000
  S   S48       1.0  0.26823  0.32548  0.50480  1.0000
  H   H233      1.0  0.15451  0.36589  0.48462  1.0000
  C   C207      1.0  0.36474  0.20978  0.35527  1.0000
  C   C208      1.0  0.26396  0.19940  0.53174  1.0000
  C   C209      1.0  0.37445  0.42924  0.43956  1.0000
  N   N12       1.0  0.37077  0.57476  0.48928  1.0000
  H   H234      1.0  0.21344  0.45296  0.35193  1.0000
  Fe  Fe26      1.0  0.48982  0.33322  0.41301  1.0000
  H   H235      1.0  0.11355  0.35814  0.34817  1.0000
  C   C210      1.0  0.37907  0.57905  0.43198  1.0000
  S   S49       1.0  0.55524  0.34907  0.38774  1.0000
  H   H236      1.0  0.17201  0.47587  0.47815  1.0000
  C   C211      1.0  0.24372  0.48610  0.34527  1.0000
  C   C212      1.0  0.36436  0.17358  0.36494  1.0000
  H   H237      1.0  0.34996  0.39960  0.46569  1.0000
  C   C213      1.0  0.42991  0.42083  0.54118  1.0000
  S   S50       1.0  0.26001  0.59454  0.52151  1.0000
  C   C214      1.0  0.44174  0.41283  0.49125  1.0000
  H   H238      1.0  0.57143  0.19017  0.44522  1.0000
  H   H239      1.0  0.30787  0.55742  0.50146  1.0000
  Fe  Fe27      1.0  0.20268  0.27683  0.49654  1.0000
  S   S51       1.0  0.09097  0.56015  0.34872  1.0000
  C   C215      1.0  0.56747  0.14091  0.40220  1.0000
  C   C216      1.0  0.24227  0.48771  0.43521  1.0000
  C   C217      1.0  0.22100  0.18093  0.55423  1.0000
  C   C218      1.0  0.33735  0.58090  0.51280  1.0000
  C   C219      1.0  0.20034  0.14845  0.38181  1.0000
  C   C220      1.0  0.10956  0.18137  0.52260  1.0000
  C   C221      1.0  0.38611  0.55220  0.34858  1.0000
  H   H240      1.0  0.39946  0.27251  0.55380  1.0000
  H   H241      1.0  0.32592  0.17723  0.55113  1.0000
  Fe  Fe28      1.0  0.24880  0.37035  0.51732  1.0000
  C   C222      1.0  0.41449  0.46829  0.35249  1.0000
  C   C223      1.0  0.43169  0.50587  0.42710  1.0000
  H   H242      1.0  0.40747  0.60301  0.54456  1.0000
  C   C224      1.0  0.16985  0.15498  0.37959  1.0000
  N   N13       1.0  0.56679  0.52884  0.42149  1.0000
  H   H243      1.0  0.38067  0.52596  0.50090  1.0000
  S   S52       1.0  0.17405  0.59103  0.55022  1.0000
  H   H244      1.0  0.34913  0.52922  0.55699  1.0000
  S   S53       1.0  0.49379  0.52885  0.56741  1.0000
  C   C225      1.0  0.20218  0.53239  0.35893  1.0000
  H   H245      1.0  0.48703  0.27185  0.57749  1.0000
  C   C226      1.0  0.34203  0.20438  0.51877  1.0000
  C   C227      1.0  0.45703  0.38764  0.48352  1.0000
  H   H246      1.0  0.27017  0.48268  0.33862  1.0000
  C   C228      1.0  0.13415  0.12349  0.36392  1.0000
  S   S54       1.0  0.38494  0.17051  0.41439  1.0000
  C   C229      1.0  0.43250  0.40298  0.58387  1.0000
  H   H247      1.0  0.11534  0.60923  0.50923  1.0000
  H   H248      1.0  0.43959  0.42665  0.45832  1.0000
  C   C230      1.0  0.56950  0.59148  0.46127  1.0000
  H   H249      1.0  0.14940  0.60713  0.45348  1.0000
  H   H250      1.0  0.54039  0.48542  0.49265  1.0000
  C   C231      1.0  0.28231  0.55460  0.37712  1.0000
  H   H251      1.0  0.32801  0.19086  0.48603  1.0000
  H   H252      1.0  0.47190  0.35046  0.52023  1.0000
  H   H253      1.0  0.50381  0.32544  0.56183  1.0000
  C   C232      1.0  0.13365  0.36586  0.46575  1.0000
  C   C233      1.0  0.29439  0.22291  0.55993  1.0000
  C   C234      1.0  0.41401  0.15998  0.57180  1.0000
  H   H254      1.0  0.53982  0.58134  0.45542  1.0000
  Fe  Fe29      1.0  0.52776  0.29072  0.44571  1.0000
  H   H255      1.0  0.41889  0.44102  0.54665  1.0000
  C   C235      1.0  0.10845  0.19437  0.47488  1.0000
  H   H256      1.0  0.19825  0.16346  0.53192  1.0000
  C   C236      1.0  0.18787  0.44457  0.56713  1.0000
  S   S55       1.0  0.15710  0.20931  0.54035  1.0000
  Fe  Fe30      1.0  0.28628  0.34884  0.41980  1.0000
  H   H257      1.0  0.53720  0.11542  0.42840  1.0000
  H   H258      1.0  0.45691  0.14131  0.45796  1.0000
  H   H259      1.0  0.52726  0.53910  0.39086  1.0000
  S   S56       1.0  0.27048  0.39640  0.43332  1.0000
  C   C237      1.0  0.16866  0.53617  0.36687  1.0000
  H   H260      1.0  0.11482  0.48335  0.49034  1.0000
  H   H261      1.0  0.28129  0.57452  0.40767  1.0000
  H   H262      1.0  0.43333  0.18664  0.49168  1.0000
  H   H263      1.0  0.34095  0.25973  0.45947  1.0000
  S   S57       1.0  0.54576  0.15604  0.57235  1.0000
  N   N14       1.0  0.33934  0.24025  0.53603  1.0000
  S   S58       1.0  0.47443  0.38131  0.41978  1.0000
  C   C238      1.0  0.13936  0.49714  0.45363  1.0000
  C   C239      1.0  0.13784  0.36161  0.41307  1.0000
  H   H264      1.0  0.10011  0.37516  0.53435  1.0000
  C   C240      1.0  0.10318  0.37151  0.49372  1.0000
  H   H265      1.0  0.39158  0.28768  0.47173  1.0000
  H   H266      1.0  0.21413  0.45313  0.44513  1.0000
  S   S59       1.0  0.46704  0.29073  0.35259  1.0000
  C   C241      1.0  0.43095  0.16395  0.51844  1.0000
  H   H267      1.0  0.37587  0.23489  0.37974  1.0000
  C   C242      1.0  0.24441  0.44277  0.58102  1.0000
  Fe  Fe31      1.0  0.45573  0.54566  0.53867  1.0000
  H   H268      1.0  0.24210  0.50432  0.46986  1.0000
  H   H269      1.0  0.36724  0.51577  0.42116  1.0000
  C   C243      1.0  0.20562  0.51129  0.39845  1.0000
  H   H270      1.0  0.57911  0.50978  0.34656  1.0000
  C   C244      1.0  0.13774  0.51919  0.41442  1.0000
  H   H271      1.0  0.46393  0.53647  0.34745  1.0000
  N   N15       1.0  0.24267  0.50974  0.38962  1.0000
  H   H272      1.0  0.32654  0.50486  0.50510  1.0000
  S   S60       1.0  0.46242  0.55381  0.45264  1.0000
  S   S61       1.0  0.27025  0.41767  0.57407  1.0000
  H   H273      1.0  0.36775  0.28992  0.58426  1.0000
  C   C245      1.0  0.41021  0.60853  0.50278  1.0000
  H   H274      1.0  0.43787  0.60938  0.47985  1.0000
  H   H275      1.0  0.28796  0.57182  0.33955  1.0000
  H   H276      1.0  0.55228  0.21339  0.33574  1.0000
  H   H277      1.0  0.16769  0.55406  0.33678  1.0000
  H   H278      1.0  0.43160  0.64123  0.63393  1.0000
  C   C246      1.0  0.43999  0.04853  0.83181  1.0000
  S   S62       1.0  0.54214  0.99705  0.61623  1.0000
  C   C247      1.0  0.27338  0.73322  0.69798  1.0000
  H   H279      1.0  0.08652  0.07359  0.70254  1.0000
  C   C248      1.0  0.24967  0.66940  0.75803  1.0000
  H   H280      1.0  0.37178  0.06943  0.73231  1.0000
  C   C249      1.0  0.18084  0.78207  0.60041  1.0000
  C   C250      1.0  0.10366  0.68822  0.79561  1.0000
  C   C251      1.0  0.20785  0.98751  0.69432  1.0000
  C   C252      1.0  0.23294  0.98794  0.72327  1.0000
  C   C253      1.0  0.47540  0.01523  0.79729  1.0000
  C   C254      1.0  0.46720  0.03721  0.83469  1.0000
  C   C255      1.0  0.21161  0.93498  0.64578  1.0000
  H   H281      1.0  0.42311  0.08256  0.61378  1.0000
  C   C256      1.0  0.38586  0.92575  0.59391  1.0000
  C   C257      1.0  0.48824  0.89427  0.72220  1.0000
  H   H282      1.0  0.38831  0.95561  0.60360  1.0000
  H   H283      1.0  0.37916  0.09729  0.80671  1.0000
  H   H284      1.0  0.12542  0.78725  0.71668  1.0000
  H   H285      1.0  0.42358  0.08088  0.71084  1.0000
  H   H286      1.0  0.26849  0.96386  0.73419  1.0000
  C   C258      1.0  0.57794  0.03088  0.69596  1.0000
  H   H287      1.0  0.11961  0.03628  0.70547  1.0000
  H   H288      1.0  0.27624  0.74216  0.79801  1.0000
  H   H289      1.0  0.41263  0.00312  0.72419  1.0000
  C   C259      1.0  0.53056  0.73765  0.73364  1.0000
  C   C260      1.0  0.19599  0.95992  0.65678  1.0000
  S   S63       1.0  0.26366  0.91225  0.65197  1.0000
  C   C261      1.0  0.25683  0.64529  0.78821  1.0000
  H   H290      1.0  0.41081  0.64783  0.82773  1.0000
  C   C262      1.0  0.16689  0.74152  0.62381  1.0000
  S   S64       1.0  0.48438  0.05458  0.62897  1.0000
  C   C263      1.0  0.12909  0.86489  0.77446  1.0000
  H   H291      1.0  0.33630  0.98053  0.79963  1.0000
  Fe  Fe32      1.0  0.54142  0.05420  0.60266  1.0000
  C   C264      1.0  0.44610  0.91091  0.78428  1.0000
  H   H292      1.0  0.29089  0.01490  0.59750  1.0000
  S   S65       1.0  0.52641  0.83562  0.76612  1.0000
  Fe  Fe33      1.0  0.29604  0.88573  0.81563  1.0000
  H   H293      1.0  0.16071  0.87187  0.75561  1.0000
  S   S66       1.0  0.22859  0.61730  0.63509  1.0000
  H   H294      1.0  0.26020  0.71298  0.66772  1.0000
  H   H295      1.0  0.24141  0.00858  0.75305  1.0000
  H   H296      1.0  0.34632  0.74539  0.67347  1.0000
  Fe  Fe34      1.0  0.27536  0.88560  0.71387  1.0000
  H   H297      1.0  0.32810  0.83301  0.60219  1.0000
  C   C265      1.0  0.30196  0.74226  0.77036  1.0000
  C   C266      1.0  0.40073  0.63369  0.63657  1.0000
  H   H298      1.0  0.32798  0.77638  0.75200  1.0000
  C   C267      1.0  0.39829  0.08652  0.81411  1.0000
  H   H299      1.0  0.28804  0.65889  0.79242  1.0000
  H   H300      1.0  0.30793  0.68949  0.66884  1.0000
  H   H301      1.0  0.46297  0.86383  0.65867  1.0000
  H   H302      1.0  0.10526  0.83638  0.75891  1.0000
  S   S67       1.0  0.18505  0.73072  0.79994  1.0000
  C   C268      1.0  0.19109  0.72560  0.60804  1.0000
  C   C269      1.0  0.32100  0.61439  0.64293  1.0000
  Fe  Fe35      1.0  0.55192  0.82688  0.82668  1.0000
  H   H303      1.0  0.51648  0.89522  0.70870  1.0000
  N   N16       1.0  0.28539  0.71364  0.73102  1.0000
  H   H304      1.0  0.41663  0.93138  0.59254  1.0000
  H   H305      1.0  0.48039  0.66090  0.70438  1.0000
  H   H306      1.0  0.32970  0.62644  0.79812  1.0000
  C   C270      1.0  0.56958  0.68035  0.76626  1.0000
  H   H307      1.0  0.51882  0.73071  0.77691  1.0000
  H   H308      1.0  0.13015  0.89303  0.76091  1.0000
  C   C271      1.0  0.42726  0.01350  0.75542  1.0000
  S   S68       1.0  0.23465  0.85620  0.79578  1.0000
  H   H309      1.0  0.54084  0.64768  0.77369  1.0000
  H   H310      1.0  0.20394  0.91493  0.61520  1.0000
  C   C272      1.0  0.50395  0.66414  0.72301  1.0000
  N   N17       1.0  0.38913  0.04772  0.78934  1.0000
  C   C273      1.0  0.45821  0.87687  0.69373  1.0000
  H   H311      1.0  0.31534  0.73208  0.79369  1.0000
  Fe  Fe36      1.0  0.23862  0.80059  0.77935  1.0000
  C   C274      1.0  0.38873  0.61721  0.81358  1.0000
  C   C275      1.0  0.14477  0.72618  0.77918  1.0000
  C   C276      1.0  0.56091  0.72180  0.65519  1.0000
  H   H312      1.0  0.19807  0.66602  0.73681  1.0000
  S   S69       1.0  0.38375  0.85392  0.67683  1.0000
  H   H313      1.0  0.13977  0.93938  0.82189  1.0000
  C   C277      1.0  0.42501  0.10505  0.58718  1.0000
  C   C278      1.0  0.48203  0.91115  0.76757  1.0000
  H   H314      1.0  0.30109  0.76613  0.67763  1.0000
  S   S70       1.0  0.33693  0.91947  0.73436  1.0000
  S   S71       1.0  0.27384  0.82726  0.69606  1.0000
  C   C279      1.0  0.57855  0.01086  0.65170  1.0000
  Fe  Fe37      1.0  0.33215  0.85845  0.72257  1.0000
  S   S72       1.0  0.31250  0.09653  0.71173  1.0000
  C   C280      1.0  0.41620  0.89363  0.75594  1.0000
  H   H315      1.0  0.16201  0.79428  0.61271  1.0000
  S   S73       1.0  0.56511  0.62276  0.64361  1.0000
  H   H316      1.0  0.55319  0.03533  0.71032  1.0000
  C   C281      1.0  0.15281  0.76155  0.74951  1.0000
  H   H317      1.0  0.17659  0.95952  0.63436  1.0000
  H   H318      1.0  0.37600  0.02681  0.71593  1.0000
  H   H319      1.0  0.18465  0.79066  0.73546  1.0000
  C   C282      1.0  0.35750  0.65202  0.61138  1.0000
  H   H320      1.0  0.57300  0.70290  0.63822  1.0000
  H   H321      1.0  0.50518  0.73353  0.71829  1.0000
  H   H322      1.0  0.13343  0.08013  0.79334  1.0000
  Fe  Fe38      1.0  0.55429  0.90253  0.78717  1.0000
  H   H323      1.0  0.14441  0.81938  0.82679  1.0000
  H   H324      1.0  0.38868  0.89382  0.76915  1.0000
  C   C283      1.0  0.39747  0.66215  0.60908  1.0000
  S   S74       1.0  0.17112  0.67299  0.63395  1.0000
  C   C284      1.0  0.24793  0.96236  0.71297  1.0000
  Fe  Fe39      1.0  0.20708  0.64754  0.59247  1.0000
  C   C285      1.0  0.20702  0.64975  0.75725  1.0000
  H   H325      1.0  0.48796  0.65330  0.76540  1.0000
  C   C286      1.0  0.39033  0.05654  0.73474  1.0000
  H   H326      1.0  0.13735  0.72250  0.65400  1.0000
  H   H327      1.0  0.53678  0.71606  0.63586  1.0000
  C   C287      1.0  0.34556  0.01049  0.81706  1.0000
  H   H328      1.0  0.55728  0.77262  0.72299  1.0000
  H   H329      1.0  0.32177  0.01696  0.81671  1.0000
  C   C288      1.0  0.57575  0.71490  0.73577  1.0000
  C   C289      1.0  0.32002  0.71293  0.69669  1.0000
  C   C290      1.0  0.23842  0.93709  0.67295  1.0000
  H   H330      1.0  0.39178  0.62492  0.77208  1.0000
  H   H331      1.0  0.24945  0.73760  0.72142  1.0000
  C   C291      1.0  0.42215  0.87649  0.71081  1.0000
  N   N18       1.0  0.54317  0.70933  0.71249  1.0000
  H   H332      1.0  0.33494  0.70377  0.71846  1.0000
  H   H333      1.0  0.51085  0.64104  0.70714  1.0000
  H   H334      1.0  0.36161  0.90010  0.62732  1.0000
  C   C292      1.0  0.11932  0.75955  0.73843  1.0000
  H   H335      1.0  0.49711  0.00714  0.79889  1.0000
  S   S75       1.0  0.51794  0.93113  0.80492  1.0000
  C   C293      1.0  0.08661  0.02078  0.72680  1.0000
  C   C294      1.0  0.41921  0.03720  0.79181  1.0000
  H   H336      1.0  0.46223  0.98661  0.72831  1.0000
  C   C295      1.0  0.45555  0.00352  0.75762  1.0000
  S   S76       1.0  0.19502  0.02452  0.70108  1.0000
  S   S77       1.0  0.29665  0.82762  0.80536  1.0000
  H   H337      1.0  0.44114  0.92384  0.81927  1.0000
  Fe  Fe40      1.0  0.25106  0.08643  0.71494  1.0000
  H   H338      1.0  0.09723  0.66065  0.81790  1.0000
  H   H339      1.0  0.26862  0.05668  0.59529  1.0000
  C   C296      1.0  0.14886  0.11280  0.80270  1.0000
  N   N19       1.0  0.11869  0.85656  0.83194  1.0000
  S   S78       1.0  0.24779  0.11356  0.78891  1.0000
  H   H340      1.0  0.09165  0.80210  0.59942  1.0000
  H   H341      1.0  0.08961  0.78815  0.83079  1.0000
  H   H342      1.0  0.22935  0.08537  0.58817  1.0000
  H   H343      1.0  0.55280  0.11380  0.79704  1.0000
  H   H344      1.0  0.50208  0.94913  0.01847  1.0000
  Fe  Fe41      1.0  0.52080  0.05261  0.07992  1.0000
  H   H345      1.0  0.32508  0.86964  0.95478  1.0000
  H   H346      1.0  0.53040  0.96270  0.90422  1.0000
  H   H347      1.0  0.13544  0.64372  0.86084  1.0000
  H   H348      1.0  0.42423  0.94347  0.90958  1.0000
  S   S79       1.0  0.57547  0.89195  0.85189  1.0000
  C   C297      1.0  0.11680  0.63782  0.99152  1.0000
  S   S80       1.0  0.45541  0.61925  0.97326  1.0000
  H   H349      1.0  0.47423  0.69374  0.03610  1.0000
  C   C298      1.0  0.57662  0.82265  0.98240  1.0000
  H   H350      1.0  0.41356  0.08687  0.05693  1.0000
  S   S81       1.0  0.44855  0.06726  0.96152  1.0000
  C   C299      1.0  0.20759  0.07753  0.98910  1.0000
  H   H351      1.0  0.23131  0.89988  0.01908  1.0000
  S   S82       1.0  0.38315  0.78860  0.03761  1.0000
  C   C300      1.0  0.47222  0.76792  0.92293  1.0000
  H   H352      1.0  0.11496  0.06888  0.04949  1.0000
  C   C301      1.0  0.56030  0.72203  0.91283  1.0000
  C   C302      1.0  0.39900  0.05758  0.98853  1.0000
  H   H353      1.0  0.34283  0.00299  0.85839  1.0000
  H   H354      1.0  0.33715  0.63778  0.93118  1.0000
  H   H355      1.0  0.30612  0.01454  0.95829  1.0000
  H   H356      1.0  0.45954  0.89166  0.02778  1.0000
  S   S83       1.0  0.30399  0.91078  0.89134  1.0000
  H   H357      1.0  0.42287  0.67727  0.07258  1.0000
  S   S84       1.0  0.27188  0.03809  0.04617  1.0000
  S   S85       1.0  0.50734  0.76231  0.87693  1.0000
  C   C303      1.0  0.15161  0.89514  0.85048  1.0000
  C   C304      1.0  0.33057  0.62285  0.83888  1.0000
  C   C305      1.0  0.43649  0.93680  0.98291  1.0000
  C   C306      1.0  0.22844  0.83640  0.94396  1.0000
  H   H358      1.0  0.49572  0.97265  0.88819  1.0000
  H   H359      1.0  0.21402  0.84624  0.92386  1.0000
  C   C307      1.0  0.29102  0.84973  0.96162  1.0000
  H   H360      1.0  0.10586  0.80728  0.88808  1.0000
  H   H361      1.0  0.28281  0.91990  0.02519  1.0000
  H   H362      1.0  0.47216  0.88187  0.91621  1.0000
  C   C308      1.0  0.38754  0.95335  0.97160  1.0000
  H   H363      1.0  0.46618  0.62764  0.86230  1.0000
  S   S86       1.0  0.31753  0.10770  0.85510  1.0000
  C   C309      1.0  0.18227  0.03218  0.99469  1.0000
  C   C310      1.0  0.45514  0.70614  0.05196  1.0000
  C   C311      1.0  0.21567  0.97081  0.88281  1.0000
  S   S87       1.0  0.18980  0.73215  0.04068  1.0000
  H   H364      1.0  0.24668  0.84822  0.07749  1.0000
  C   C312      1.0  0.56649  0.70715  0.95462  1.0000
  C   C313      1.0  0.19964  0.10210  0.96091  1.0000
  C   C314      1.0  0.46065  0.81013  0.98405  1.0000
  H   H365      1.0  0.36678  0.71977  0.97546  1.0000
  C   C315      1.0  0.21021  0.93159  0.89146  1.0000
  C   C316      1.0  0.11472  0.81634  0.84524  1.0000
  C   C317      1.0  0.08574  0.06783  0.05822  1.0000
  H   H366      1.0  0.42059  0.86114  0.95912  1.0000
  H   H367      1.0  0.19806  0.65984  0.88880  1.0000
  H   H368      1.0  0.19562  0.65988  0.95667  1.0000
  C   C318      1.0  0.14028  0.03310  0.94405  1.0000
  C   C319      1.0  0.35094  0.06566  0.05411  1.0000
  C   C320      1.0  0.48536  0.92056  0.99826  1.0000
  C   C321      1.0  0.18265  0.66391  0.92670  1.0000
  H   H369      1.0  0.26205  0.95110  0.04067  1.0000
  H   H370      1.0  0.12525  0.67128  0.99244  1.0000
  C   C322      1.0  0.14854  0.00999  0.97252  1.0000
  H   H371      1.0  0.50906  0.91428  0.97941  1.0000
  C   C323      1.0  0.39007  0.07140  0.03553  1.0000
  H   H372      1.0  0.52582  0.75747  0.98443  1.0000
  H   H373      1.0  0.43978  0.76558  0.08266  1.0000
  H   H374      1.0  0.18938  0.01433  0.01595  1.0000
  C   C324      1.0  0.36818  0.03622  0.96170  1.0000
  C   C325      1.0  0.48822  0.80462  0.94793  1.0000
  H   H375      1.0  0.53894  0.67880  0.98072  1.0000
  H   H376      1.0  0.09385  0.09876  0.07245  1.0000
  H   H377      1.0  0.12819  0.63207  0.02234  1.0000
  C   C326      1.0  0.12200  0.64608  0.90116  1.0000
  C   C327      1.0  0.57398  0.85529  0.05992  1.0000
  C   C328      1.0  0.42836  0.73671  0.93377  1.0000
  H   H378      1.0  0.23351  0.09242  0.00673  1.0000
  N   N20       1.0  0.13569  0.63298  0.93947  1.0000
  H   H379      1.0  0.15845  0.09480  0.91443  1.0000
  S   S88       1.0  0.54580  0.08601  0.99817  1.0000
  H   H380      1.0  0.39043  0.08036  0.85718  1.0000
  H   H381      1.0  0.51895  0.99691  0.94015  1.0000
  H   H382      1.0  0.19573  0.83216  0.07550  1.0000
  H   H383      1.0  0.48234  0.04612  0.86588  1.0000
  C   C329      1.0  0.18959  0.97281  0.85841  1.0000
  H   H384      1.0  0.44030  0.89509  0.89874  1.0000
  H   H385      1.0  0.19339  0.69831  0.92403  1.0000
  C   C330      1.0  0.40060  0.74306  0.96863  1.0000
  H   H386      1.0  0.55907  0.64408  0.01591  1.0000
  H   H387      1.0  0.24039  0.99987  0.89462  1.0000
  Fe  Fe42      1.0  0.48802  0.08577  0.01653  1.0000
  C   C331      1.0  0.32942  0.03045  0.98002  1.0000
  C   C332      1.0  0.17851  0.89415  0.87600  1.0000
  H   H388      1.0  0.08689  0.62637  0.91004  1.0000
  C   C333      1.0  0.25345  0.91763  0.04347  1.0000
  C   C334      1.0  0.51553  0.77968  0.05919  1.0000
  Fe  Fe43      1.0  0.31568  0.73385  0.04493  1.0000
  H   H389      1.0  0.19441  0.00358  0.85093  1.0000
  H   H390      1.0  0.17598  0.86492  0.88403  1.0000
  H   H391      1.0  0.55566  0.69825  0.06125  1.0000
  H   H392      1.0  0.52874  0.70493  0.90747  1.0000
  S   S89       1.0  0.29318  0.66516  0.06100  1.0000
  S   S90       1.0  0.19756  0.63804  0.07219  1.0000
  C   C335      1.0  0.53800  0.78362  0.00730  1.0000
  Fe  Fe44      1.0  0.22794  0.70895  0.05270  1.0000
  H   H393      1.0  0.52200  0.82841  0.94038  1.0000
  Fe  Fe45      1.0  0.25211  0.65030  0.00853  1.0000
  H   H394      1.0  0.37413  0.02381  0.92677  1.0000
  C   C336      1.0  0.26577  0.80944  0.99380  1.0000
  S   S91       1.0  0.28015  0.72016  0.98546  1.0000
  H   H395      1.0  0.32863  0.10366  0.95479  1.0000
  C   C337      1.0  0.32088  0.04562  0.02581  1.0000
  H   H396      1.0  0.43854  0.93443  0.06417  1.0000
  H   H397      1.0  0.35533  0.96391  0.04002  1.0000
  H   H398      1.0  0.35266  0.65634  0.84689  1.0000
  H   H399      1.0  0.45145  0.71961  0.01887  1.0000
  C   C338      1.0  0.16556  0.07841  0.93794  1.0000
  C   C339      1.0  0.39529  0.94783  0.05707  1.0000
  H   H400      1.0  0.33517  0.62207  0.01941  1.0000
  H   H401      1.0  0.11446  0.01601  0.92602  1.0000
  H   H402      1.0  0.13280  0.68039  0.90137  1.0000
  C   C340      1.0  0.53515  0.81654  0.08497  1.0000
  H   H403      1.0  0.41597  0.70836  0.91428  1.0000
  C   C341      1.0  0.37698  0.95542  0.02449  1.0000
  C   C342      1.0  0.50493  0.96696  0.92155  1.0000
  H   H404      1.0  0.12914  0.97486  0.97684  1.0000
  C   C343      1.0  0.41677  0.94417  0.95098  1.0000
  H   H405      1.0  0.23094  0.93021  0.90989  1.0000
  C   C344      1.0  0.27238  0.86308  0.93640  1.0000
  H   H406      1.0  0.47337  0.83778  0.00456  1.0000
  N   N21       1.0  0.46848  0.92867  0.95962  1.0000
  C   C345      1.0  0.20311  0.79656  0.97686  1.0000
  H   H407      1.0  0.16914  0.77591  0.98238  1.0000
  C   C346      1.0  0.44950  0.89010  0.93242  1.0000
  C   C347      1.0  0.22180  0.78279  0.00126  1.0000
  C   C348      1.0  0.41686  0.77987  0.99373  1.0000
  H   H408      1.0  0.28039  0.79903  0.01269  1.0000
  C   C349      1.0  0.15823  0.93573  0.84212  1.0000
  C   C350      1.0  0.42481  0.93887  0.03687  1.0000
  H   H409      1.0  0.37349  0.95953  0.94613  1.0000
  H   H410      1.0  0.43636  0.06697  0.86079  1.0000
  C   C351      1.0  0.31138  0.92606  0.17978  1.0000
  C   C352      1.0  0.28546  0.64603  0.31013  1.0000
  Fe  Fe46      1.0  0.20578  0.10351  0.14929  1.0000
  H   H411      1.0  0.11609  0.72220  0.25737  1.0000
  H   H412      1.0  0.11532  0.02000  0.28846  1.0000
  S   S92       1.0  0.49109  0.62872  0.20367  1.0000
  S   S93       1.0  0.52629  0.99961  0.09989  1.0000
  C   C353      1.0  0.55222  0.01472  0.14908  1.0000
  H   H413      1.0  0.11935  0.08107  0.25200  1.0000
  S   S94       1.0  0.33981  0.90726  0.30130  1.0000
  H   H414      1.0  0.38748  0.95013  0.09803  1.0000
  C   C354      1.0  0.15648  0.79213  0.24562  1.0000
  S   S95       1.0  0.52463  0.80592  0.22823  1.0000
  C   C355      1.0  0.23462  0.94619  0.30539  1.0000
  C   C356      1.0  0.19592  0.89462  0.12056  1.0000
  C   C357      1.0  0.27863  0.96250  0.13747  1.0000
  H   H415      1.0  0.46650  0.84546  0.33054  1.0000
  H   H416      1.0  0.31551  0.01748  0.17513  1.0000
  C   C358      1.0  0.30665  0.98549  0.16768  1.0000
  Fe  Fe47      1.0  0.56055  0.77899  0.23525  1.0000
  Fe  Fe48      1.0  0.19916  0.03718  0.22143  1.0000
  H   H417      1.0  0.34409  0.98506  0.21303  1.0000
  S   S96       1.0  0.57430  0.80621  0.30861  1.0000
  C   C359      1.0  0.36152  0.68386  0.29093  1.0000
  H   H418      1.0  0.30088  0.63624  0.14961  1.0000
  H   H419      1.0  0.09281  0.10164  0.28941  1.0000
  C   C360      1.0  0.32858  0.76122  0.27376  1.0000
  C   C361      1.0  0.47887  0.87925  0.33096  1.0000
  C   C362      1.0  0.47471  0.89582  0.20106  1.0000
  C   C363      1.0  0.09109  0.07169  0.28437  1.0000
  C   C364      1.0  0.22234  0.82578  0.26902  1.0000
  C   C365      1.0  0.44458  0.89914  0.18903  1.0000
  C   C366      1.0  0.26538  0.92000  0.12836  1.0000
  N   N22       1.0  0.45175  0.06798  0.32769  1.0000
  C   C367      1.0  0.32468  0.66254  0.27444  1.0000
  Fe  Fe49      1.0  0.24047  0.65751  0.12349  1.0000
  H   H420      1.0  0.41115  0.65321  0.32792  1.0000
  H   H421      1.0  0.22614  0.04283  0.31838  1.0000
  Fe  Fe50      1.0  0.25879  0.06905  0.11274  1.0000
  C   C368      1.0  0.11848  0.68197  0.15631  1.0000
  H   H422      1.0  0.51966  0.04068  0.18934  1.0000
  C   C369      1.0  0.21208  0.78487  0.28335  1.0000
  H   H423      1.0  0.28674  0.75734  0.20875  1.0000
  C   C370      1.0  0.26238  0.01892  0.32513  1.0000
  C   C371      1.0  0.39155  0.82004  0.21060  1.0000
  Fe  Fe51      1.0  0.49555  0.11128  0.12228  1.0000
  H   H424      1.0  0.36449  0.76104  0.14535  1.0000
  H   H425      1.0  0.50303  0.71106  0.11098  1.0000
  H   H426      1.0  0.50620  0.92478  0.19847  1.0000
  C   C372      1.0  0.08754  0.01224  0.32053  1.0000
  N   N23       1.0  0.09008  0.05189  0.33250  1.0000
  H   H427      1.0  0.52080  0.81566  0.12488  1.0000
  S   S97       1.0  0.18890  0.03681  0.14315  1.0000
  H   H428      1.0  0.16959  0.87217  0.10324  1.0000
  C   C373      1.0  0.19712  0.97780  0.29996  1.0000
  H   H429      1.0  0.36709  0.73736  0.20013  1.0000
  C   C374      1.0  0.11094  0.61961  0.19274  1.0000
  H   H430      1.0  0.16588  0.71572  0.28991  1.0000
  S   S98       1.0  0.50260  0.71445  0.27754  1.0000
  C   C375      1.0  0.48093  0.71976  0.12770  1.0000
  H   H431      1.0  0.56605  0.07447  0.24880  1.0000
  H   H432      1.0  0.25184  0.85476  0.27217  1.0000
  H   H433      1.0  0.17736  0.91448  0.28066  1.0000
  C   C376      1.0  0.44302  0.03414  0.29349  1.0000
  H   H434      1.0  0.13646  0.71697  0.14717  1.0000
  Fe  Fe52      1.0  0.46737  0.74313  0.27493  1.0000
  H   H435      1.0  0.31671  0.71754  0.19142  1.0000
  C   C377      1.0  0.28322  0.90265  0.14981  1.0000
  H   H436      1.0  0.27524  0.87068  0.14496  1.0000
  H   H437      1.0  0.49456  0.74233  0.15578  1.0000
  S   S99       1.0  0.24680  0.78117  0.30815  1.0000
  H   H438      1.0  0.57209  0.97872  0.31735  1.0000
  S   S100      1.0  0.55790  0.89668  0.31723  1.0000
  C   C378      1.0  0.57070  0.05581  0.22076  1.0000
  C   C379      1.0  0.52256  0.91072  0.32300  1.0000
  H   H439      1.0  0.09129  0.03732  0.14286  1.0000
  Fe  Fe53      1.0  0.53409  0.82873  0.30423  1.0000
  S   S101      1.0  0.26524  0.72742  0.11089  1.0000
  H   H440      1.0  0.41321  0.08111  0.29985  1.0000
  H   H441      1.0  0.23786  0.91992  0.30016  1.0000
  S   S102      1.0  0.21842  0.61780  0.20017  1.0000
  C   C380      1.0  0.19477  0.82940  0.24975  1.0000
  H   H442      1.0  0.44279  0.04406  0.25480  1.0000
  C   C381      1.0  0.31958  0.78770  0.20116  1.0000
  S   S103      1.0  0.26850  0.06605  0.19110  1.0000
  H   H443      1.0  0.20307  0.86118  0.23825  1.0000
  H   H444      1.0  0.20215  0.92692  0.11433  1.0000
  N   N24       1.0  0.23425  0.89568  0.09804  1.0000
  H   H445      1.0  0.11490  0.83498  0.32563  1.0000
  H   H446      1.0  0.32395  0.91191  0.19656  1.0000
  C   C382      1.0  0.17386  0.74742  0.27892  1.0000
  H   H447      1.0  0.41112  0.71746  0.12960  1.0000
  C   C383      1.0  0.13393  0.66441  0.18064  1.0000
  H   H448      1.0  0.33135  0.80004  0.15879  1.0000
  H   H449      1.0  0.32735  0.78472  0.29812  1.0000
  S   S104      1.0  0.15827  0.97745  0.28062  1.0000
  H   H450      1.0  0.18367  0.88343  0.16325  1.0000
  S   S105      1.0  0.12377  0.79812  0.21933  1.0000
  S   S106      1.0  0.20953  0.10086  0.23084  1.0000
  C   C384      1.0  0.54486  0.03716  0.18693  1.0000
  C   C385      1.0  0.20034  0.94303  0.29474  1.0000
  H   H451      1.0  0.45178  0.76735  0.14371  1.0000
  C   C386      1.0  0.22797  0.01553  0.31551  1.0000
  C   C387      1.0  0.32284  0.96725  0.18900  1.0000
  H   H452      1.0  0.32653  0.65943  0.23384  1.0000
  H   H453      1.0  0.09786  0.63196  0.29885  1.0000
  C   C388      1.0  0.34921  0.74770  0.18741  1.0000
  C   C389      1.0  0.44312  0.74795  0.11152  1.0000
  H   H454      1.0  0.25711  0.63039  0.29695  1.0000
  C   C390      1.0  0.40370  0.86196  0.19310  1.0000
  C   C391      1.0  0.46412  0.85530  0.21729  1.0000
  C   C392      1.0  0.42308  0.81795  0.22270  1.0000
  H   H455      1.0  0.38224  0.86710  0.18271  1.0000
  H   H456      1.0  0.29538  0.73144  0.28111  1.0000
  C   C393      1.0  0.14566  0.75106  0.26076  1.0000
  H   H457      1.0  0.20511  0.83156  0.13715  1.0000
  H   H458      1.0  0.34631  0.75155  0.28855  1.0000
  H   H459      1.0  0.34386  0.07643  0.09014  1.0000
  H   H460      1.0  0.45302  0.93089  0.17675  1.0000
  S   S107      1.0  0.41042  0.70815  0.24429  1.0000
  H   H461      1.0  0.41604  0.78745  0.23728  1.0000
  H   H462      1.0  0.31625  0.81105  0.22319  1.0000
  H   H463      1.0  0.16371  0.68562  0.19039  1.0000
  H   H464      1.0  0.26706  0.97816  0.12170  1.0000
  H   H465      1.0  0.48766  0.85318  0.22720  1.0000
  N   N25       1.0  0.34799  0.78010  0.21792  1.0000
  H   H466      1.0  0.45058  0.69003  0.15115  1.0000
  H   H467      1.0  0.46673  0.02673  0.28775  1.0000
  S   S108      1.0  0.46041  0.04678  0.09514  1.0000
  C   C394      1.0  0.53832  0.95424  0.32402  1.0000
  S   S109      1.0  0.31135  0.99199  0.32838  1.0000
  C   C395      1.0  0.22004  0.85004  0.09719  1.0000
  H   H468      1.0  0.51675  0.09175  0.23611  1.0000
  C   C396      1.0  0.49285  0.11050  0.30602  1.0000
  C   C397      1.0  0.26599  0.98459  0.31969  1.0000
  H   H469      1.0  0.41141  0.00298  0.31038  1.0000
  C   C398      1.0  0.56883  0.68335  0.33110  1.0000
  C   C399      1.0  0.51064  0.96634  0.33452  1.0000
  N   N26       1.0  0.47438  0.73899  0.08671  1.0000
  C   C400      1.0  0.11459  0.88819  0.39615  1.0000
  H   H470      1.0  0.29041  0.04973  0.42918  1.0000
  H   H471      1.0  0.33723  0.07008  0.57369  1.0000
  S   S110      1.0  0.23408  0.85498  0.52800  1.0000
  S   S111      1.0  0.24662  0.86638  0.38486  1.0000
  H   H472      1.0  0.54051  0.68246  0.34406  1.0000
  C   C401      1.0  0.10003  0.71903  0.51698  1.0000
  C   C402      1.0  0.15878  0.07792  0.35461  1.0000
  H   H473      1.0  0.15449  0.72287  0.51863  1.0000
  H   H474      1.0  0.38548  0.04093  0.35609  1.0000
  C   C403      1.0  0.57497  0.84889  0.42453  1.0000
  H   H475      1.0  0.14129  0.65194  0.37249  1.0000
  C   C404      1.0  0.51405  0.90019  0.45884  1.0000
  Fe  Fe54      1.0  0.50584  0.09015  0.54989  1.0000
  C   C405      1.0  0.45103  0.89156  0.34050  1.0000
  C   C406      1.0  0.12944  0.83368  0.52115  1.0000
  H   H476      1.0  0.57001  0.09760  0.35098  1.0000
  H   H477      1.0  0.30083  0.97246  0.51047  1.0000
  C   C407      1.0  0.22990  0.75099  0.56993  1.0000
  H   H478      1.0  0.47848  0.04949  0.37288  1.0000
  H   H479      1.0  0.56092  0.91000  0.51777  1.0000
  N   N27       1.0  0.15080  0.66447  0.44925  1.0000
  H   H480      1.0  0.41864  0.64167  0.49478  1.0000
  H   H481      1.0  0.40288  0.98040  0.51598  1.0000
  C   C408      1.0  0.28508  0.05148  0.51224  1.0000
  C   C409      1.0  0.33133  0.90177  0.55081  1.0000
  Fe  Fe55      1.0  0.36384  0.91009  0.36989  1.0000
  C   C410      1.0  0.24345  0.79099  0.54567  1.0000
  C   C411      1.0  0.41617  0.07209  0.33700  1.0000
  S   S112      1.0  0.23370  0.62893  0.40655  1.0000
  Fe  Fe56      1.0  0.51310  0.74399  0.35078  1.0000
  H   H482      1.0  0.42580  0.69127  0.58473  1.0000
  C   C412      1.0  0.12957  0.84320  0.47087  1.0000
  C   C413      1.0  0.12151  0.67700  0.46685  1.0000
  C   C414      1.0  0.54597  0.92720  0.52931  1.0000
  H   H483      1.0  0.56806  0.95684  0.54462  1.0000
  H   H484      1.0  0.08574  0.99486  0.35518  1.0000
  H   H485      1.0  0.37463  0.77433  0.49909  1.0000
  C   C415      1.0  0.27828  0.05785  0.46452  1.0000
  C   C416      1.0  0.57482  0.01003  0.42589  1.0000
  S   S113      1.0  0.55991  0.08478  0.52100  1.0000
  C   C417      1.0  0.40431  0.95288  0.50447  1.0000
  N   N28       1.0  0.09259  0.84065  0.40543  1.0000
  H   H486      1.0  0.51774  0.90532  0.56287  1.0000
  H   H487      1.0  0.27925  0.98401  0.46709  1.0000
  H   H488      1.0  0.42161  0.90517  0.45412  1.0000
  C   C418      1.0  0.25594  0.07512  0.46122  1.0000
  H   H489      1.0  0.48658  0.87069  0.48633  1.0000
  C   C419      1.0  0.09143  0.80898  0.56037  1.0000
  S   S114      1.0  0.33267  0.93876  0.41531  1.0000
  H   H490      1.0  0.34029  0.02512  0.56458  1.0000
  H   H491      1.0  0.51800  0.97789  0.52625  1.0000
  H   H492      1.0  0.22105  0.09842  0.50301  1.0000
  H   H493      1.0  0.39639  0.64493  0.42255  1.0000
  H   H494      1.0  0.11461  0.89880  0.35760  1.0000
  C   C420      1.0  0.12784  0.70722  0.50230  1.0000
  H   H495      1.0  0.50226  0.90602  0.42863  1.0000
  H   H496      1.0  0.43776  0.96468  0.49833  1.0000
  H   H497      1.0  0.47627  0.92093  0.54074  1.0000
  C   C421      1.0  0.54081  0.70690  0.49494  1.0000
  H   H498      1.0  0.41727  0.86733  0.34710  1.0000
  C   C422      1.0  0.57690  0.66275  0.36375  1.0000
  C   C423      1.0  0.39199  0.61787  0.40330  1.0000
  H   H499      1.0  0.31745  0.67241  0.42047  1.0000
  C   C424      1.0  0.53750  0.81715  0.46177  1.0000
  C   C425      1.0  0.57336  0.97538  0.44827  1.0000
  H   H500      1.0  0.42196  0.01989  0.39542  1.0000
  C   C426      1.0  0.31986  0.03622  0.56478  1.0000
  H   H501      1.0  0.10618  0.74274  0.54336  1.0000
  H   H502      1.0  0.54803  0.01160  0.43535  1.0000
  C   C427      1.0  0.28288  0.64969  0.36269  1.0000
  C   C428      1.0  0.40106  0.87689  0.48342  1.0000
  H   H503      1.0  0.25302  0.96850  0.53548  1.0000
  H   H504      1.0  0.48908  0.95001  0.47971  1.0000
  H   H505      1.0  0.10227  0.79369  0.37340  1.0000
  H   H506      1.0  0.57959  0.79949  0.54563  1.0000
  C   C429      1.0  0.23865  0.08538  0.50555  1.0000
  C   C430      1.0  0.50321  0.94730  0.50908  1.0000
  H   H507      1.0  0.50937  0.68496  0.52111  1.0000
  C   C431      1.0  0.37477  0.80241  0.50770  1.0000
  H   H508      1.0  0.32102  0.89082  0.51512  1.0000
  H   H509      1.0  0.34613  0.05292  0.43336  1.0000
  C   C432      1.0  0.35891  0.68708  0.34367  1.0000
  C   C433      1.0  0.40110  0.62322  0.34908  1.0000
  H   H510      1.0  0.20734  0.72417  0.45784  1.0000
  H   H511      1.0  0.27334  0.81008  0.51605  1.0000
  C   C434      1.0  0.37520  0.87594  0.53090  1.0000
  S   S115      1.0  0.45793  0.07651  0.50908  1.0000
  H   H512      1.0  0.57143  0.85989  0.39076  1.0000
  C   C435      1.0  0.09133  0.82814  0.45829  1.0000
  H   H513      1.0  0.16006  0.86317  0.44211  1.0000
  Fe  Fe57      1.0  0.23568  0.62612  0.48848  1.0000
  H   H514      1.0  0.32946  0.92946  0.55920  1.0000
  H   H515      1.0  0.45486  0.07457  0.40687  1.0000
  C   C436      1.0  0.21872  0.80637  0.56048  1.0000
  H   H516      1.0  0.38717  0.70319  0.35672  1.0000
  S   S116      1.0  0.30943  0.84220  0.40848  1.0000
  N   N29       1.0  0.37456  0.91360  0.54437  1.0000
  C   C437      1.0  0.40072  0.84056  0.47229  1.0000
  H   H517      1.0  0.15027  0.84768  0.36342  1.0000
  H   H518      1.0  0.42051  0.84176  0.43590  1.0000
  N   N30       1.0  0.53479  0.93840  0.48593  1.0000
  H   H519      1.0  0.51010  0.77450  0.53383  1.0000
  H   H520      1.0  0.34744  0.61430  0.50147  1.0000
  C   C438      1.0  0.31944  0.66966  0.37973  1.0000
  H   H521      1.0  0.34914  0.11294  0.34099  1.0000
  H   H522      1.0  0.39634  0.94668  0.46681  1.0000
  C   C439      1.0  0.16660  0.67316  0.39163  1.0000
  H   H523      1.0  0.41936  0.09664  0.36234  1.0000
  H   H524      1.0  0.09880  0.89863  0.42621  1.0000
  C   C440      1.0  0.54566  0.72388  0.44571  1.0000
  S   S117      1.0  0.26749  0.68461  0.52763  1.0000
  S   S118      1.0  0.43374  0.95178  0.36266  1.0000
  S   S119      1.0  0.35319  0.68519  0.57283  1.0000
  C   C441      1.0  0.44098  0.10847  0.53352  1.0000
  H   H525      1.0  0.55510  0.64655  0.40207  1.0000
  H   H526      1.0  0.15913  0.84597  0.52992  1.0000
  H   H527      1.0  0.15679  0.04913  0.34513  1.0000
  H   H528      1.0  0.30704  0.87514  0.58350  1.0000
  C   C442      1.0  0.34878  0.80028  0.55424  1.0000
  H   H529      1.0  0.19130  0.66732  0.37703  1.0000
  C   C443      1.0  0.53917  0.79996  0.50578  1.0000
  H   H530      1.0  0.50692  0.80455  0.45559  1.0000
  C   C444      1.0  0.18845  0.68848  0.46991  1.0000
  C   C445      1.0  0.57656  0.71805  0.51018  1.0000
  Fe  Fe58      1.0  0.27631  0.87120  0.44764  1.0000
  Fe  Fe59      1.0  0.30553  0.93200  0.34925  1.0000
  C   C446      1.0  0.12804  0.61745  0.46618  1.0000
  N   N31       1.0  0.30961  0.03392  0.51443  1.0000
  H   H531      1.0  0.14828  0.90661  0.39680  1.0000
  S   S120      1.0  0.47365  0.76839  0.35100  1.0000
  C   C447      1.0  0.11599  0.82875  0.36559  1.0000
  H   H532      1.0  0.53644  0.89280  0.43837  1.0000
  Fe  Fe60      1.0  0.28288  0.84148  0.34313  1.0000
  H   H533      1.0  0.18079  0.70733  0.37703  1.0000
  C   C448      1.0  0.28469  0.98782  0.50636  1.0000
  S   S121      1.0  0.50046  0.70873  0.42695  1.0000
  H   H534      1.0  0.17926  0.68126  0.51306  1.0000
  H   H535      1.0  0.36751  0.09422  0.47374  1.0000
  H   H536      1.0  0.21051  0.67946  0.45494  1.0000
  C   C449      1.0  0.19481  0.11002  0.36941  1.0000
  C   C450      1.0  0.12766  0.08412  0.35037  1.0000
  C   C451      1.0  0.34880  0.83630  0.56566  1.0000
  C   C452      1.0  0.46699  0.93509  0.34334  1.0000
  H   H537      1.0  0.57573  0.64621  0.49455  1.0000
  H   H538      1.0  0.57261  0.70402  0.54767  1.0000
  C   C453      1.0  0.45176  0.05237  0.37794  1.0000
  H   H539      1.0  0.24968  0.74012  0.55902  1.0000
  C   C454      1.0  0.57829  0.81399  0.51233  1.0000
  C   C455      1.0  0.35047  0.05869  0.47287  1.0000
  H   H540      1.0  0.37196  0.04990  0.47695  1.0000
  C   C456      1.0  0.26635  0.06157  0.55694  1.0000
  Fe  Fe61      1.0  0.28668  0.65016  0.56682  1.0000
  C   C457      1.0  0.24354  0.07826  0.55336  1.0000
  H   H541      1.0  0.25218  0.08049  0.42392  1.0000
  H   H542      1.0  0.21900  0.10538  0.37024  1.0000
  H   H543      1.0  0.32858  0.77051  0.58164  1.0000
  C   C458      1.0  0.08526  0.65890  0.44825  1.0000
  H   H544      1.0  0.52328  0.00013  0.33606  1.0000
  H   H545      1.0  0.28669  0.04855  0.33581  1.0000
  H   H546      1.0  0.94185  0.46167  0.64329  1.0000
  H   H547      1.0  0.83424  0.24364  0.82821  1.0000
  N   N32       1.0  0.71818  0.19618  0.67651  1.0000
  C   C459      1.0  0.88792  0.21648  0.73845  1.0000
  C   C460      1.0  0.01420  0.26100  0.58967  1.0000
  C   C461      1.0  0.87729  0.25737  0.60299  1.0000
  H   H548      1.0  0.88086  0.23157  0.60709  1.0000
  S   S122      1.0  0.71924  0.34154  0.65849  1.0000
  H   H549      1.0  0.98556  0.43170  0.61916  1.0000
  H   H550      1.0  0.65082  0.39521  0.77908  1.0000
  H   H551      1.0  0.65802  0.36475  0.73105  1.0000
  H   H552      1.0  0.59510  0.17707  0.72838  1.0000
  H   H553      1.0  0.04440  0.16340  0.69281  1.0000
  H   H554      1.0  0.96151  0.51742  0.69891  1.0000
  C   C462      1.0  0.88677  0.58657  0.75017  1.0000
  H   H555      1.0  0.01224  0.39357  0.72137  1.0000
  C   C463      1.0  0.06779  0.21362  0.74111  1.0000
  H   H556      1.0  0.02137  0.55403  0.79821  1.0000
  H   H557      1.0  0.90746  0.28992  0.66246  1.0000
  H   H558      1.0  0.70423  0.33760  0.81971  1.0000
  H   H559      1.0  0.05412  0.19111  0.77652  1.0000
  H   H560      1.0  0.59856  0.52174  0.58619  1.0000
  H   H561      1.0  0.07463  0.41384  0.65257  1.0000
  C   C464      1.0  0.00755  0.42238  0.60579  1.0000
  H   H562      1.0  0.98777  0.38818  0.59833  1.0000
  H   H563      1.0  0.60527  0.55159  0.74078  1.0000
  S   S123      1.0  0.61780  0.49906  0.67075  1.0000
  H   H564      1.0  0.95160  0.15169  0.73999  1.0000
  Fe  Fe62      1.0  0.77988  0.37069  0.67852  1.0000
  C   C465      1.0  0.70767  0.30433  0.61470  1.0000
  H   H565      1.0  0.78605  0.23242  0.64749  1.0000
  C   C466      1.0  0.98828  0.59218  0.72393  1.0000
  C   C467      1.0  0.68455  0.19746  0.66463  1.0000
  C   C468      1.0  0.07675  0.48090  0.69652  1.0000
  S   S124      1.0  0.58370  0.11670  0.63036  1.0000
  S   S125      1.0  0.95698  0.12258  0.83333  1.0000
  H   H566      1.0  0.03084  0.25616  0.61364  1.0000
  N   N33       1.0  0.68723  0.43139  0.70247  1.0000
  H   H567      1.0  0.91105  0.24945  0.82434  1.0000
  S   S126      1.0  0.84839  0.41698  0.63373  1.0000
  H   H568      1.0  0.89648  0.19334  0.73634  1.0000
  C   C469      1.0  0.68631  0.30423  0.80943  1.0000
  H   H569      1.0  0.97266  0.22329  0.70424  1.0000
  C   C470      1.0  0.05820  0.41353  0.62427  1.0000
  H   H570      1.0  0.97833  0.40811  0.71236  1.0000
  C   C471      1.0  0.59629  0.18186  0.76816  1.0000
  Fe  Fe63      1.0  0.66790  0.51827  0.59647  1.0000
  H   H571      1.0  0.67981  0.12685  0.67986  1.0000
  C   C472      1.0  0.66574  0.27689  0.61284  1.0000
  C   C473      1.0  0.75022  0.49337  0.72844  1.0000
  H   H572      1.0  0.83329  0.48498  0.61069  1.0000
  H   H573      1.0  0.70473  0.56065  0.74277  1.0000
  H   H574      1.0  0.73464  0.15143  0.67420  1.0000
  C   C474      1.0  0.86795  0.32412  0.59256  1.0000
  C   C475      1.0  0.77365  0.53550  0.74055  1.0000
  H   H575      1.0  0.76447  0.47616  0.72457  1.0000
  C   C476      1.0  0.64896  0.41965  0.68745  1.0000
  C   C477      1.0  0.96262  0.49554  0.62583  1.0000
  H   H576      1.0  0.63386  0.38805  0.67227  1.0000
  S   S127      1.0  0.86924  0.42886  0.74789  1.0000
  C   C478      1.0  0.70971  0.47434  0.72037  1.0000
  N   N34       1.0  0.03012  0.42709  0.64496  1.0000
  Fe  Fe64      1.0  0.99287  0.33262  0.81597  1.0000
  H   H577      1.0  0.87254  0.21188  0.70707  1.0000
  H   H578      1.0  0.97563  0.36349  0.68448  1.0000
  H   H579      1.0  0.04008  0.38004  0.61432  1.0000
  C   C479      1.0  0.58485  0.56725  0.61117  1.0000
  C   C480      1.0  0.62025  0.23124  0.83268  1.0000
  N   N35       1.0  0.01088  0.60807  0.66771  1.0000
  C   C481      1.0  0.05966  0.50719  0.63200  1.0000
  Fe  Fe65      1.0  0.85218  0.45821  0.69620  1.0000
  H   H580      1.0  0.69892  0.40114  0.63776  1.0000
  C   C482      1.0  0.74330  0.23170  0.80538  1.0000
  S   S128      1.0  0.72943  0.53262  0.60119  1.0000
  C   C483      1.0  0.99778  0.39686  0.69282  1.0000
  C   C484      1.0  0.97103  0.17310  0.80951  1.0000
  H   H581      1.0  0.70100  0.40324  0.75653  1.0000
  H   H582      1.0  0.65219  0.16925  0.68577  1.0000
  C   C485      1.0  0.60270  0.53315  0.66438  1.0000
  H   H583      1.0  0.80470  0.54961  0.74584  1.0000
  S   S129      1.0  0.90133  0.36096  0.67298  1.0000
  H   H584      1.0  0.83235  0.47802  0.78397  1.0000
  H   H585      1.0  0.68581  0.19603  0.62276  1.0000
  C   C486      1.0  0.96525  0.17872  0.76155  1.0000
  C   C487      1.0  0.67640  0.16524  0.77032  1.0000
  Fe  Fe66      1.0  0.85979  0.38365  0.68906  1.0000
  C   C488      1.0  0.00033  0.57274  0.63564  1.0000
  H   H586      1.0  0.65686  0.44427  0.65629  1.0000
  H   H587      1.0  0.64982  0.13856  0.75859  1.0000
  S   S130      1.0  0.87989  0.11743  0.69250  1.0000
  Fe  Fe67      1.0  0.79937  0.38191  0.78380  1.0000
  S   S131      1.0  0.79090  0.33453  0.72891  1.0000
  C   C489      1.0  0.71487  0.19697  0.73281  1.0000
  C   C490      1.0  0.84710  0.56555  0.59295  1.0000
  C   C491      1.0  0.87031  0.54340  0.74407  1.0000
  H   H588      1.0  0.82185  0.53736  0.62109  1.0000
  H   H589      1.0  0.99014  0.18190  0.60849  1.0000
  H   H590      1.0  0.98608  0.25684  0.61721  1.0000
  H   H591      1.0  0.63486  0.25024  0.74927  1.0000
  C   C492      1.0  0.89241  0.29034  0.63411  1.0000
  C   C493      1.0  0.06237  0.19798  0.69407  1.0000
  H   H592      1.0  0.71809  0.15536  0.61904  1.0000
  C   C494      1.0  0.75764  0.55992  0.74497  1.0000
  S   S132      1.0  0.00529  0.30346  0.74656  1.0000
  H   H593      1.0  0.90816  0.61212  0.71736  1.0000
  C   C495      1.0  0.84297  0.51078  0.78697  1.0000
  H   H594      1.0  0.68756  0.22751  0.67467  1.0000
  C   C496      1.0  0.61931  0.22381  0.78065  1.0000
  C   C497      1.0  0.67129  0.16763  0.82355  1.0000
  H   H595      1.0  0.62408  0.41577  0.72118  1.0000
  H   H596      1.0  0.70466  0.29089  0.81084  1.0000
  C   C498      1.0  0.71250  0.15579  0.66181  1.0000
  S   S133      1.0  0.80552  0.14520  0.66469  1.0000
  C   C499      1.0  0.59938  0.55586  0.70473  1.0000
  H   H597      1.0  0.68660  0.30864  0.76849  1.0000
  H   H598      1.0  0.78013  0.25318  0.72684  1.0000
  H   H599      1.0  0.85008  0.13237  0.79520  1.0000
  H   H600      1.0  0.86402  0.34971  0.58867  1.0000
  C   C500      1.0  0.69298  0.49900  0.72900  1.0000
  C   C501      1.0  0.71594  0.43095  0.65616  1.0000
  H   H601      1.0  0.04531  0.50367  0.60118  1.0000
  S   S134      1.0  0.78282  0.41418  0.73654  1.0000
  C   C502      1.0  0.97748  0.21933  0.74112  1.0000
  H   H602      1.0  0.91841  0.24957  0.72919  1.0000
  C   C503      1.0  0.74894  0.22912  0.75215  1.0000
  C   C504      1.0  0.08060  0.22698  0.64858  1.0000
  H   H603      1.0  0.76586  0.26485  0.65085  1.0000
  C   C505      1.0  0.75956  0.23308  0.64271  1.0000
  H   H604      1.0  0.74176  0.43143  0.66542  1.0000
  H   H605      1.0  0.83752  0.24277  0.75926  1.0000
  H   H606      1.0  0.64196  0.27974  0.63725  1.0000
  C   C506      1.0  0.99428  0.25400  0.76942  1.0000
  H   H607      1.0  0.99793  0.57432  0.74150  1.0000
  C   C507      1.0  0.05544  0.47179  0.65747  1.0000
  C   C508      1.0  0.59585  0.53916  0.61750  1.0000
  N   N36       1.0  0.85959  0.20997  0.79003  1.0000
  H   H608      1.0  0.07300  0.13650  0.59402  1.0000
  C   C509      1.0  0.67378  0.39726  0.74422  1.0000
  H   H609      1.0  0.73055  0.45910  0.62605  1.0000
  H   H610      1.0  0.94350  0.17694  0.60445  1.0000
  C   C510      1.0  0.88664  0.32298  0.62987  1.0000
  H   H611      1.0  0.66184  0.48671  0.72583  1.0000
  C   C511      1.0  0.97423  0.52814  0.65746  1.0000
  H   H612      1.0  0.07561  0.45587  0.71695  1.0000
  H   H613      1.0  0.88379  0.27759  0.78005  1.0000
  C   C512      1.0  0.71722  0.54159  0.73959  1.0000
  C   C513      1.0  0.77910  0.15735  0.80934  1.0000
  C   C514      1.0  0.81961  0.16557  0.80065  1.0000
  S   S135      1.0  0.88363  0.52975  0.68334  1.0000
  C   C515      1.0  0.85316  0.24475  0.78951  1.0000
  H   H614      1.0  0.95332  0.57055  0.73055  1.0000
  H   H615      1.0  0.61769  0.29611  0.79910  1.0000
  H   H616      1.0  0.07794  0.21489  0.61169  1.0000
  H   H617      1.0  0.58551  0.29009  0.67085  1.0000
  C   C516      1.0  0.82054  0.12880  0.80120  1.0000
  S   S136      1.0  0.00665  0.47246  0.81616  1.0000
  C   C517      1.0  0.00058  0.24849  0.81704  1.0000
  C   C518      1.0  0.88162  0.21587  0.83019  1.0000
  C   C519      1.0  0.87608  0.59677  0.79936  1.0000
  H   H618      1.0  0.70191  0.60137  0.82814  1.0000
  H   H619      1.0  0.77501  0.18296  0.81020  1.0000
  H   H620      1.0  0.77660  0.59301  0.75286  1.0000
  S   S137      1.0  0.94666  0.34818  0.81965  1.0000
  C   C520      1.0  0.58889  0.58454  0.69806  1.0000
  C   C521      1.0  0.74235  0.11510  0.81572  1.0000
  H   H621      1.0  0.76931  0.25764  0.81899  1.0000
  H   H622      1.0  0.58571  0.60176  0.72936  1.0000
  H   H623      1.0  0.89174  0.19405  0.82915  1.0000
  H   H624      1.0  0.76081  0.23183  0.60072  1.0000
  H   H625      1.0  0.83361  0.60590  0.63765  1.0000
  C   C522      1.0  0.85388  0.60497  0.60346  1.0000
  C   C523      1.0  0.83028  0.52059  0.83511  1.0000
  C   C524      1.0  0.78847  0.33065  0.88534  1.0000
  H   H626      1.0  0.84084  0.55484  0.07699  1.0000
  H   H627      1.0  0.90031  0.16291  0.90205  1.0000
  H   H628      1.0  0.80164  0.44947  0.01275  1.0000
  C   C525      1.0  0.88508  0.13860  0.93594  1.0000
  C   C526      1.0  0.88095  0.52253  0.97366  1.0000
  H   H629      1.0  0.69982  0.20404  0.88207  1.0000
  C   C527      1.0  0.74257  0.35625  0.04534  1.0000
  H   H630      1.0  0.61638  0.26315  0.92910  1.0000
  H   H631      1.0  0.98567  0.46517  0.92973  1.0000
  Fe  Fe68      1.0  0.99034  0.40904  0.84947  1.0000
  S   S138      1.0  0.64513  0.20155  0.00014  1.0000
  C   C528      1.0  0.76693  0.59786  0.88768  1.0000
  C   C529      1.0  0.76263  0.28941  0.91496  1.0000
  H   H632      1.0  0.80898  0.49502  0.86791  1.0000
  C   C530      1.0  0.06943  0.32991  0.91150  1.0000
  H   H633      1.0  0.91596  0.54222  0.96474  1.0000
  C   C531      1.0  0.00272  0.50577  0.85987  1.0000
  Fe  Fe69      1.0  0.98275  0.12429  0.89976  1.0000
  S   S139      1.0  0.72448  0.52200  0.07108  1.0000
  C   C532      1.0  0.71529  0.45908  0.01307  1.0000
  C   C533      1.0  0.90450  0.44390  0.04801  1.0000
  H   H634      1.0  0.77256  0.36049  0.03773  1.0000
  C   C534      1.0  0.82502  0.29270  0.91418  1.0000
  C   C535      1.0  0.70241  0.14361  0.95882  1.0000
  H   H635      1.0  0.59356  0.19629  0.91229  1.0000
  C   C536      1.0  0.85782  0.41058  0.97568  1.0000
  H   H636      1.0  0.80879  0.47538  0.95211  1.0000
  C   C537      1.0  0.86744  0.38619  0.99924  1.0000
  C   C538      1.0  0.00047  0.56263  0.92687  1.0000
  C   C539      1.0  0.69256  0.42240  0.98938  1.0000
  H   H637      1.0  0.74782  0.47271  0.01180  1.0000
  Fe  Fe70      1.0  0.00591  0.36197  0.91989  1.0000
  S   S140      1.0  0.99921  0.59844  0.96831  1.0000
  S   S141      1.0  0.84800  0.26918  0.93220  1.0000
  H   H638      1.0  0.99435  0.20411  0.87380  1.0000
  C   C540      1.0  0.98922  0.20813  0.83703  1.0000
  H   H639      1.0  0.88461  0.35290  0.87638  1.0000
  C   C541      1.0  0.66297  0.34047  0.06830  1.0000
  C   C542      1.0  0.74259  0.17553  0.04408  1.0000
  C   C543      1.0  0.89526  0.46869  0.02433  1.0000
  H   H640      1.0  0.06253  0.37451  0.06695  1.0000
  H   H641      1.0  0.06586  0.49489  0.88622  1.0000
  C   C544      1.0  0.88663  0.15131  0.98494  1.0000
  H   H642      1.0  0.67477  0.56431  0.96395  1.0000
  C   C545      1.0  0.70223  0.24697  0.05829  1.0000
  S   S142      1.0  0.95940  0.12609  0.98421  1.0000
  H   H643      1.0  0.01593  0.39842  0.05980  1.0000
  H   H644      1.0  0.72854  0.27219  0.92696  1.0000
  C   C546      1.0  0.69601  0.47797  0.03886  1.0000
  H   H645      1.0  0.59890  0.41030  0.01725  1.0000
  C   C547      1.0  0.65392  0.46031  0.04044  1.0000
  H   H646      1.0  0.03711  0.31014  0.90939  1.0000
  C   C548      1.0  0.99244  0.49507  0.91373  1.0000
  C   C549      1.0  0.64745  0.27874  0.89918  1.0000
  C   C550      1.0  0.83238  0.35247  0.86936  1.0000
  S   S143      1.0  0.62108  0.35611  0.96596  1.0000
  H   H647      1.0  0.73735  0.16102  0.94446  1.0000
  C   C551      1.0  0.08233  0.36331  0.94193  1.0000
  C   C552      1.0  0.78097  0.27014  0.92858  1.0000
  N   N37       1.0  0.86307  0.47857  0.95887  1.0000
  C   C553      1.0  0.85065  0.33414  0.88526  1.0000
  H   H648      1.0  0.91582  0.49789  0.89275  1.0000
  S   S144      1.0  0.96198  0.29695  0.89744  1.0000
  Fe  Fe71      1.0  0.91865  0.31681  0.90263  1.0000
  C   C554      1.0  0.03169  0.42438  0.08368  1.0000
  H   H649      1.0  0.87874  0.50639  0.87996  1.0000
  C   C555      1.0  0.72877  0.58173  0.87436  1.0000
  C   C556      1.0  0.81657  0.45573  0.97006  1.0000
  S   S145      1.0  0.58882  0.39311  0.86784  1.0000
  H   H650      1.0  0.70107  0.54096  0.97411  1.0000
  H   H651      1.0  0.76824  0.57899  0.91585  1.0000
  H   H652      1.0  0.69555  0.16822  0.96181  1.0000
  N   N38       1.0  0.68385  0.11578  0.00981  1.0000
  H   H653      1.0  0.05638  0.45497  0.05634  1.0000
  S   S146      1.0  0.83918  0.57614  0.90427  1.0000
  H   H654      1.0  0.72575  0.24798  0.02748  1.0000
  H   H655      1.0  0.76630  0.18144  0.00911  1.0000
  C   C557      1.0  0.65036  0.40438  0.99146  1.0000
  H   H656      1.0  0.64268  0.54668  0.88967  1.0000
  C   C558      1.0  0.01209  0.54503  0.83978  1.0000
  C   C559      1.0  0.66096  0.22703  0.05398  1.0000
  H   H657      1.0  0.86954  0.13046  0.06637  1.0000
  H   H658      1.0  0.92126  0.27447  0.06201  1.0000
  S   S147      1.0  0.04755  0.37638  0.97130  1.0000
  H   H659      1.0  0.65497  0.30671  0.00198  1.0000
  Fe  Fe72      1.0  0.70682  0.56858  0.07980  1.0000
  H   H660      1.0  0.80084  0.42424  0.95480  1.0000
  H   H661      1.0  0.98614  0.51653  0.98841  1.0000
  H   H662      1.0  0.86092  0.20969  0.86998  1.0000
  H   H663      1.0  0.70764  0.40777  0.96992  1.0000
  C   C560      1.0  0.69862  0.14289  0.05103  1.0000
  C   C561      1.0  0.69822  0.50479  0.88866  1.0000
  H   H664      1.0  0.86541  0.45292  0.88611  1.0000
  N   N39       1.0  0.68996  0.53806  0.89850  1.0000
  C   C562      1.0  0.84760  0.56363  0.84169  1.0000
  S   S148      1.0  0.05881  0.21135  0.03383  1.0000
  H   H665      1.0  0.66925  0.47148  0.90546  1.0000
  H   H666      1.0  0.64619  0.50681  0.97469  1.0000
  S   S149      1.0  0.05170  0.16446  0.89760  1.0000
  C   C563      1.0  0.63134  0.42394  0.01594  1.0000
  C   C564      1.0  0.86805  0.12024  0.02842  1.0000
  H   H667      1.0  0.92177  0.45619  0.07704  1.0000
  C   C565      1.0  0.87205  0.45287  0.98667  1.0000
  C   C566      1.0  0.88148  0.48408  0.90201  1.0000
  H   H668      1.0  0.63858  0.47421  0.06128  1.0000
  S   S150      1.0  0.95949  0.37876  0.93314  1.0000
  Fe  Fe73      1.0  0.66961  0.60846  0.03780  1.0000
  C   C567      1.0  0.59558  0.19397  0.87152  1.0000
  H   H669      1.0  0.83892  0.39612  0.94880  1.0000
  H   H670      1.0  0.01771  0.60321  0.85763  1.0000
  H   H671      1.0  0.85628  0.35392  0.99005  1.0000
  H   H672      1.0  0.63342  0.32651  0.85171  1.0000
  H   H673      1.0  0.72579  0.32182  0.98085  1.0000
  H   H674      1.0  0.86757  0.52098  0.01560  1.0000
  H   H675      1.0  0.89825  0.38386  0.05353  1.0000
  H   H676      1.0  0.66733  0.31306  0.90630  1.0000
  H   H677      1.0  0.87351  0.54093  0.95237  1.0000
  C   C568      1.0  0.71610  0.33403  0.01358  1.0000
  C   C569      1.0  0.01022  0.57295  0.87326  1.0000
  H   H678      1.0  0.62495  0.49177  0.89728  1.0000
  H   H679      1.0  0.72269  0.50954  0.90660  1.0000
  H   H680      1.0  0.90226  0.18527  0.98943  1.0000
  H   H681      1.0  0.76123  0.23831  0.95131  1.0000
  H   H682      1.0  0.04097  0.56046  0.07918  1.0000
  C   C570      1.0  0.67751  0.53736  0.95530  1.0000
  H   H683      1.0  0.90670  0.50017  0.03606  1.0000
  H   H684      1.0  0.04315  0.27574  0.07708  1.0000
  H   H685      1.0  0.66316  0.26368  0.90668  1.0000
  Fe  Fe74      1.0  0.02773  0.16140  0.98361  1.0000
  S   S151      1.0  0.76645  0.35538  0.86798  1.0000
  C   C571      1.0  0.89118  0.40304  0.03492  1.0000
  C   C572      1.0  0.99253  0.52411  0.94706  1.0000
  C   C573      1.0  0.65306  0.52518  0.87932  1.0000
  C   C574      1.0  0.67616  0.32549  0.02556  1.0000
  H   H686      1.0  0.63152  0.33238  0.07524  1.0000
  H   H687      1.0  0.62019  0.61127  0.88312  1.0000
  C   C575      1.0  0.07973  0.40530  0.08341  1.0000
  C   C576      1.0  0.61904  0.29364  0.83984  1.0000
  H   H688      1.0  0.70935  0.50533  0.84631  1.0000
  N   N40       1.0  0.64290  0.27602  0.84541  1.0000
  S   S152      1.0  0.63407  0.60290  0.98110  1.0000
  H   H689      1.0  0.68932  0.12440  0.92788  1.0000
  C   C577      1.0  0.75730  0.20105  0.08263  1.0000
  H   H690      1.0  0.98217  0.20696  0.06471  1.0000
  H   H691      1.0  0.79103  0.22606  0.07580  1.0000
  H   H692      1.0  0.64127  0.14350  0.85135  1.0000
  S   S153      1.0  0.03968  0.39646  0.83788  1.0000
  C   C578      1.0  0.72972  0.60993  0.83899  1.0000
  C   C579      1.0  0.70435  0.20141  0.84096  1.0000
  H   H693      1.0  0.01495  0.27557  0.83807  1.0000
  H   H694      1.0  0.85259  0.38461  0.84720  1.0000
  H   H695      1.0  0.58568  0.27214  0.86453  1.0000
  H   H696      1.0  0.65993  0.52520  0.83666  1.0000
  S   S154      1.0  0.82651  0.47789  0.12002  1.0000
  S   S155      1.0  0.72030  0.60887  0.14439  1.0000
  S   S156      1.0  0.90283  0.36947  0.17126  1.0000
  C   C580      1.0  0.85820  0.53153  0.13161  1.0000
  S   S157      1.0  0.75877  0.12045  0.23184  1.0000
  N   N41       1.0  0.78408  0.51568  0.32475  1.0000
  S   S158      1.0  0.69021  0.27435  0.20630  1.0000
  Fe  Fe75      1.0  0.79781  0.39123  0.28498  1.0000
  S   S159      1.0  0.92446  0.17393  0.30574  1.0000
  H   H697      1.0  0.73737  0.42657  0.16162  1.0000
  S   S160      1.0  0.01871  0.16603  0.25022  1.0000
  C   C581      1.0  0.72893  0.19420  0.12975  1.0000
  H   H698      1.0  0.98495  0.53820  0.21852  1.0000
  C   C582      1.0  0.01560  0.37267  0.15248  1.0000
  H   H699      1.0  0.64734  0.40146  0.10944  1.0000
  H   H700      1.0  0.63862  0.15561  0.29091  1.0000
  C   C583      1.0  0.95607  0.18607  0.09875  1.0000
  H   H701      1.0  0.98412  0.52493  0.10240  1.0000
  C   C584      1.0  0.90756  0.58637  0.17547  1.0000
  S   S161      1.0  0.84359  0.18957  0.09434  1.0000
  H   H702      1.0  0.92592  0.59531  0.20318  1.0000
  C   C585      1.0  0.07196  0.45023  0.14621  1.0000
  C   C586      1.0  0.90003  0.27620  0.09386  1.0000
  H   H703      1.0  0.01520  0.52289  0.13827  1.0000
  C   C587      1.0  0.76247  0.51488  0.28634  1.0000
  H   H704      1.0  0.88183  0.32855  0.29458  1.0000
  H   H705      1.0  0.66369  0.15686  0.17498  1.0000
  C   C588      1.0  0.62470  0.16358  0.32507  1.0000
  C   C589      1.0  0.70627  0.58778  0.31581  1.0000
  C   C590      1.0  0.95032  0.14881  0.11909  1.0000
  H   H706      1.0  0.82671  0.49962  0.33215  1.0000
  H   H707      1.0  0.94858  0.53533  0.18783  1.0000
  C   C591      1.0  0.85963  0.56343  0.10421  1.0000
  H   H708      1.0  0.61083  0.34874  0.14851  1.0000
  H   H709      1.0  0.63699  0.31731  0.19172  1.0000
  H   H710      1.0  0.97277  0.57851  0.10379  1.0000
  C   C592      1.0  0.71761  0.49152  0.29802  1.0000
  H   H711      1.0  0.97341  0.14321  0.09960  1.0000
  H   H712      1.0  0.66429  0.47608  0.27192  1.0000
  C   C593      1.0  0.71262  0.26419  0.10385  1.0000
  H   H713      1.0  0.02709  0.36604  0.18251  1.0000
  S   S162      1.0  0.85931  0.43557  0.22352  1.0000
  Fe  Fe76      1.0  0.84818  0.37397  0.19785  1.0000
  H   H714      1.0  0.84078  0.52844  0.27070  1.0000
  S   S163      1.0  0.60956  0.57633  0.23145  1.0000
  H   H715      1.0  0.79984  0.21292  0.17406  1.0000
  C   C594      1.0  0.00354  0.60165  0.11297  1.0000
  H   H716      1.0  0.05000  0.49334  0.25239  1.0000
  C   C595      1.0  0.96427  0.31232  0.28851  1.0000
  N   N42       1.0  0.01429  0.57934  0.14411  1.0000
  C   C596      1.0  0.94171  0.22779  0.29780  1.0000
  C   C597      1.0  0.67051  0.13670  0.09968  1.0000
  H   H717      1.0  0.82075  0.55848  0.22444  1.0000
  H   H718      1.0  0.63200  0.39558  0.17921  1.0000
  C   C598      1.0  0.84446  0.28183  0.17355  1.0000
  C   C599      1.0  0.68142  0.26058  0.14528  1.0000
  C   C600      1.0  0.91333  0.31596  0.11138  1.0000
  H   H719      1.0  0.00715  0.42805  0.10724  1.0000
  C   C601      1.0  0.69847  0.49334  0.26166  1.0000
  H   H720      1.0  0.74037  0.21420  0.15950  1.0000
  C   C602      1.0  0.97139  0.25890  0.32209  1.0000
  C   C603      1.0  0.93605  0.28170  0.26251  1.0000
  H   H721      1.0  0.98797  0.37283  0.17263  1.0000
  H   H722      1.0  0.05148  0.30406  0.23063  1.0000
  S   S164      1.0  0.75883  0.38826  0.23589  1.0000
  Fe  Fe77      1.0  0.81916  0.42761  0.17251  1.0000
  H   H723      1.0  0.00194  0.34415  0.13129  1.0000
  H   H724      1.0  0.82266  0.28407  0.20362  1.0000
  H   H725      1.0  0.67495  0.23035  0.30613  1.0000
  H   H726      1.0  0.75104  0.38753  0.11228  1.0000
  C   C604      1.0  0.63085  0.22576  0.09428  1.0000
  C   C605      1.0  0.88189  0.54287  0.16757  1.0000
  H   H727      1.0  0.83449  0.58432  0.30403  1.0000
  C   C606      1.0  0.04832  0.45629  0.18966  1.0000
  Fe  Fe78      1.0  0.65608  0.59379  0.15402  1.0000
  C   C607      1.0  0.06652  0.61079  0.32552  1.0000
  C   C608      1.0  0.64098  0.24244  0.13964  1.0000
  C   C609      1.0  0.07227  0.59220  0.18078  1.0000
  H   H728      1.0  0.77435  0.19994  0.26455  1.0000
  C   C610      1.0  0.98053  0.55776  0.19410  1.0000
  H   H729      1.0  0.98013  0.58203  0.21768  1.0000
  C   C611      1.0  0.98196  0.30108  0.31845  1.0000
  H   H730      1.0  0.78597  0.55967  0.16137  1.0000
  H   H731      1.0  0.72634  0.44769  0.11343  1.0000
  C   C612      1.0  0.92804  0.19614  0.12135  1.0000
  H   H732      1.0  0.83742  0.25847  0.28723  1.0000
  H   H733      1.0  0.58660  0.58630  0.14095  1.0000
  H   H734      1.0  0.00923  0.26223  0.17188  1.0000
  C   C613      1.0  0.06184  0.29502  0.10294  1.0000
  H   H735      1.0  0.70094  0.43939  0.18138  1.0000
  C   C614      1.0  0.71180  0.42537  0.15063  1.0000
  C   C615      1.0  0.72315  0.51824  0.21285  1.0000
  C   C616      1.0  0.01375  0.54552  0.11482  1.0000
  C   C617      1.0  0.89370  0.16864  0.16398  1.0000
  H   H736      1.0  0.01405  0.43471  0.20231  1.0000
  H   H737      1.0  0.87129  0.17600  0.18053  1.0000
  C   C618      1.0  0.64019  0.38172  0.14550  1.0000
  C   C619      1.0  0.81322  0.50357  0.30254  1.0000
  N   N43       1.0  0.67659  0.38070  0.14626  1.0000
  H   H738      1.0  0.61714  0.24088  0.17047  1.0000
  C   C620      1.0  0.76705  0.54091  0.19983  1.0000
  H   H739      1.0  0.68676  0.29561  0.30958  1.0000
  H   H740      1.0  0.90082  0.21514  0.24987  1.0000
  H   H741      1.0  0.05500  0.55779  0.19264  1.0000
  C   C621      1.0  0.77082  0.21264  0.30033  1.0000
  Fe  Fe79      1.0  0.97252  0.16481  0.31813  1.0000
  C   C622      1.0  0.85929  0.23890  0.11704  1.0000
  C   C623      1.0  0.68568  0.16212  0.13824  1.0000
  Fe  Fe80      1.0  0.75479  0.33030  0.20920  1.0000
  H   H742      1.0  0.65402  0.36130  0.22939  1.0000
  C   C624      1.0  0.69007  0.36527  0.10001  1.0000
  Fe  Fe81      1.0  0.78609  0.12901  0.14582  1.0000
  C   C625      1.0  0.88562  0.31896  0.15102  1.0000
  S   S165      1.0  0.78951  0.32994  0.26349  1.0000
  H   H743      1.0  0.60410  0.22201  0.25742  1.0000
  C   C626      1.0  0.92388  0.23917  0.26840  1.0000
  H   H744      1.0  0.69062  0.55901  0.29756  1.0000
  S   S166      1.0  0.64059  0.54912  0.09433  1.0000
  N   N44       1.0  0.05032  0.41373  0.11693  1.0000
  H   H745      1.0  0.93232  0.22475  0.10507  1.0000
  H   H746      1.0  0.74413  0.27848  0.10764  1.0000
  C   C627      1.0  0.66386  0.35104  0.19296  1.0000
  C   C628      1.0  0.04292  0.28764  0.15619  1.0000
  H   H747      1.0  0.79632  0.47218  0.28718  1.0000
  C   C629      1.0  0.83157  0.24161  0.15714  1.0000
  H   H748      1.0  0.70827  0.51990  0.18488  1.0000
  S   S167      1.0  0.81237  0.36931  0.14207  1.0000
  C   C630      1.0  0.88737  0.13110  0.18436  1.0000
  S   S168      1.0  0.97578  0.36396  0.28397  1.0000
  H   H749      1.0  0.68986  0.34900  0.19557  1.0000
  H   H750      1.0  0.94462  0.34460  0.09293  1.0000
  C   C631      1.0  0.80674  0.24636  0.31370  1.0000
  H   H751      1.0  0.58593  0.16064  0.20779  1.0000
  H   H752      1.0  0.85171  0.34895  0.32233  1.0000
  H   H753      1.0  0.92251  0.29047  0.23913  1.0000
  C   C632      1.0  0.78656  0.53959  0.23603  1.0000
  Fe  Fe82      1.0  0.06352  0.19472  0.30009  1.0000
  H   H754      1.0  0.88028  0.51815  0.18926  1.0000
  C   C633      1.0  0.06744  0.31196  0.18949  1.0000
  C   C634      1.0  0.88540  0.60671  0.11174  1.0000
  C   C635      1.0  0.86926  0.33656  0.33123  1.0000
  C   C636      1.0  0.06848  0.49019  0.21815  1.0000
  C   C637      1.0  0.64516  0.20669  0.33422  1.0000
  H   H755      1.0  0.86666  0.43433  0.33449  1.0000
  H   H756      1.0  0.70271  0.16914  0.32191  1.0000
  C   C638      1.0  0.05590  0.60900  0.15508  1.0000
  H   H757      1.0  0.83406  0.14488  0.32411  1.0000
  C   C639      1.0  0.73041  0.19548  0.33251  1.0000
  H   H758      1.0  0.59954  0.21164  0.09037  1.0000
  C   C640      1.0  0.72982  0.37158  0.08809  1.0000
  C   C641      1.0  0.91562  0.12005  0.16267  1.0000
  S   S169      1.0  0.04258  0.13041  0.33603  1.0000
  H   H759      1.0  0.03274  0.21461  0.48743  1.0000
  H   H760      1.0  0.68189  0.43462  0.45836  1.0000
  C   C642      1.0  0.94961  0.27093  0.49204  1.0000
  H   H761      1.0  0.86436  0.17414  0.40077  1.0000
  C   C643      1.0  0.99559  0.59152  0.36332  1.0000
  S   S170      1.0  0.98749  0.45161  0.35973  1.0000
  C   C644      1.0  0.80321  0.26425  0.36003  1.0000
  C   C645      1.0  0.07223  0.14653  0.55704  1.0000
  H   H762      1.0  0.82995  0.15042  0.46590  1.0000
  H   H763      1.0  0.70218  0.32907  0.35860  1.0000
  Fe  Fe83      1.0  0.81599  0.15404  0.57847  1.0000
  C   C646      1.0  0.88228  0.42920  0.40428  1.0000
  Fe  Fe84      1.0  0.69869  0.53931  0.47760  1.0000
  H   H764      1.0  0.81555  0.32975  0.41853  1.0000
  H   H765      1.0  0.75064  0.26623  0.52495  1.0000
  H   H766      1.0  0.82495  0.56202  0.36825  1.0000
  H   H767      1.0  0.67142  0.25644  0.44593  1.0000
  C   C647      1.0  0.72569  0.21239  0.37807  1.0000
  C   C648      1.0  0.04022  0.23788  0.51595  1.0000
  C   C649      1.0  0.01564  0.54794  0.39154  1.0000
  H   H768      1.0  0.93193  0.55036  0.50238  1.0000
  C   C650      1.0  0.96017  0.20455  0.48488  1.0000
  S   S171      1.0  0.04286  0.38545  0.50272  1.0000
  H   H769      1.0  0.76143  0.16460  0.42333  1.0000
  H   H770      1.0  0.73446  0.45125  0.36632  1.0000
  H   H771      1.0  0.82923  0.51530  0.48122  1.0000
  C   C651      1.0  0.03366  0.12532  0.54418  1.0000
  H   H772      1.0  0.96655  0.48054  0.54783  1.0000
  C   C652      1.0  0.73862  0.30083  0.58292  1.0000
  C   C653      1.0  0.93857  0.20847  0.45388  1.0000
  S   S172      1.0  0.76285  0.55716  0.47516  1.0000
  Fe  Fe85      1.0  0.95790  0.42481  0.44417  1.0000
  C   C654      1.0  0.80397  0.13655  0.35167  1.0000
  H   H773      1.0  0.92613  0.18573  0.42676  1.0000
  C   C655      1.0  0.70088  0.11635  0.47423  1.0000
  C   C656      1.0  0.65427  0.24555  0.57986  1.0000
  S   S173      1.0  0.01958  0.19955  0.36490  1.0000
  S   S174      1.0  0.83405  0.21414  0.53220  1.0000
  H   H774      1.0  0.84842  0.25735  0.41718  1.0000
  H   H775      1.0  0.96862  0.16026  0.55565  1.0000
  H   H776      1.0  0.98323  0.29156  0.54858  1.0000
  S   S175      1.0  0.69750  0.57836  0.54095  1.0000
  H   H777      1.0  0.94504  0.29638  0.49541  1.0000
  N   N45       1.0  0.86516  0.52200  0.53370  1.0000
  H   H778      1.0  0.77113  0.32185  0.58473  1.0000
  H   H779      1.0  0.62192  0.24962  0.47150  1.0000
  C   C657      1.0  0.90338  0.52375  0.53197  1.0000
  S   S176      1.0  0.95665  0.60004  0.36766  1.0000
  H   H780      1.0  0.91052  0.52886  0.57031  1.0000
  C   C658      1.0  0.62861  0.36759  0.47424  1.0000
  C   C659      1.0  0.72712  0.26969  0.54884  1.0000
  S   S177      1.0  0.66208  0.47800  0.53329  1.0000
  H   H781      1.0  0.91651  0.24476  0.43365  1.0000
  H   H782      1.0  0.89902  0.49302  0.52214  1.0000
  H   H783      1.0  0.80431  0.16580  0.34846  1.0000
  H   H784      1.0  0.84967  0.48368  0.47123  1.0000
  H   H785      1.0  0.89779  0.36413  0.34145  1.0000
  H   H786      1.0  0.76544  0.38209  0.47606  1.0000
  H   H787      1.0  0.69047  0.13731  0.47760  1.0000
  C   C660      1.0  0.07750  0.37383  0.46869  1.0000
  C   C661      1.0  0.97732  0.23398  0.52042  1.0000
  S   S178      1.0  0.77872  0.40098  0.36666  1.0000
  H   H788      1.0  0.66982  0.30240  0.44755  1.0000
  H   H789      1.0  0.82734  0.18626  0.42784  1.0000
  Fe  Fe86      1.0  0.59861  0.14785  0.55051  1.0000
  C   C662      1.0  0.66783  0.40320  0.47907  1.0000
  S   S179      1.0  0.01938  0.46498  0.46482  1.0000
  H   H790      1.0  0.86269  0.34171  0.43157  1.0000
  S   S180      1.0  0.73470  0.44386  0.52240  1.0000
  H   H791      1.0  0.64228  0.56954  0.44642  1.0000
  C   C663      1.0  0.05566  0.57425  0.35577  1.0000
  H   H792      1.0  0.89721  0.30872  0.38775  1.0000
  H   H793      1.0  0.73341  0.49449  0.39473  1.0000
  H   H794      1.0  0.83947  0.29281  0.53165  1.0000
  C   C664      1.0  0.81285  0.40728  0.40190  1.0000
  H   H795      1.0  0.01533  0.55763  0.50718  1.0000
  C   C665      1.0  0.74149  0.13168  0.44332  1.0000
  C   C666      1.0  0.90507  0.60294  0.51393  1.0000
  C   C667      1.0  0.79805  0.39510  0.45590  1.0000
  H   H796      1.0  0.96359  0.17835  0.48049  1.0000
  N   N46       1.0  0.64656  0.26375  0.38734  1.0000
  C   C668      1.0  0.83293  0.31570  0.42217  1.0000
  H   H797      1.0  0.91489  0.44377  0.38428  1.0000
  N   N47       1.0  0.00125  0.22992  0.55156  1.0000
  C   C669      1.0  0.66965  0.35725  0.53771  1.0000
  Fe  Fe87      1.0  0.02498  0.41059  0.44702  1.0000
  H   H798      1.0  0.69653  0.47245  0.33548  1.0000
  S   S181      1.0  0.68533  0.53371  0.40053  1.0000
  S   S182      1.0  0.96065  0.36798  0.43401  1.0000
  H   H799      1.0  0.75520  0.25773  0.42781  1.0000
  H   H800      1.0  0.68527  0.35330  0.56261  1.0000
  H   H801      1.0  0.77130  0.48556  0.40147  1.0000
  C   C670      1.0  0.93333  0.24167  0.45747  1.0000
  C   C671      1.0  0.68872  0.29538  0.35029  1.0000
  N   N48       1.0  0.79942  0.12230  0.40563  1.0000
  C   C672      1.0  0.59440  0.53751  0.36852  1.0000
  N   N49       1.0  0.84191  0.29914  0.37389  1.0000
  S   S183      1.0  0.66801  0.19842  0.51198  1.0000
  H   H802      1.0  0.62450  0.54307  0.36961  1.0000
  H   H803      1.0  0.78822  0.57069  0.35385  1.0000
  H   H804      1.0  0.62176  0.22453  0.57924  1.0000
  C   C673      1.0  0.75435  0.48542  0.37377  1.0000
  C   C674      1.0  0.76138  0.24630  0.39191  1.0000
  C   C675      1.0  0.85492  0.42424  0.37609  1.0000
  H   H805      1.0  0.60258  0.56675  0.34529  1.0000
  H   H806      1.0  0.92537  0.60373  0.47845  1.0000
  S   S184      1.0  0.06041  0.43829  0.36256  1.0000
  C   C676      1.0  0.63013  0.32166  0.53347  1.0000
  C   C677      1.0  0.68464  0.24161  0.54800  1.0000
  C   C678      1.0  0.97686  0.50616  0.57192  1.0000
  C   C679      1.0  0.85775  0.25795  0.56642  1.0000
  Fe  Fe88      1.0  0.72622  0.49692  0.53280  1.0000
  H   H807      1.0  0.06085  0.27097  0.49290  1.0000
  H   H808      1.0  0.95381  0.53398  0.42037  1.0000
  Fe  Fe89      1.0  0.99541  0.39845  0.35090  1.0000
  Fe  Fe90      1.0  0.99541  0.13263  0.39715  1.0000
  C   C680      1.0  0.07020  0.17227  0.46127  1.0000
  H   H809      1.0  0.05911  0.23442  0.53725  1.0000
  C   C681      1.0  0.83166  0.15999  0.42579  1.0000
  H   H810      1.0  0.05965  0.36819  0.39764  1.0000
  H   H811      1.0  0.59093  0.49896  0.45447  1.0000
  C   C682      1.0  0.61870  0.27670  0.38300  1.0000
  H   H812      1.0  0.63130  0.30988  0.39309  1.0000
  C   C683      1.0  0.58727  0.56831  0.44673  1.0000
  C   C684      1.0  0.58746  0.18392  0.41156  1.0000
  H   H813      1.0  0.69408  0.19906  0.40292  1.0000
  H   H814      1.0  0.87324  0.26817  0.34834  1.0000
  C   C685      1.0  0.65248  0.26801  0.44034  1.0000
  C   C686      1.0  0.62699  0.58551  0.45609  1.0000
  H   H815      1.0  0.61286  0.37202  0.45012  1.0000
  C   C687      1.0  0.62688  0.21827  0.37768  1.0000
  C   C688      1.0  0.60949  0.32684  0.50186  1.0000
  C   C689      1.0  0.86606  0.28243  0.38208  1.0000
  C   C690      1.0  0.97136  0.26744  0.52307  1.0000
  H   H816      1.0  0.61536  0.29018  0.55513  1.0000
  S   S185      1.0  0.85003  0.12269  0.56251  1.0000
  H   H817      1.0  0.81412  0.28984  0.45651  1.0000
  Fe  Fe91      1.0  0.04923  0.48923  0.37948  1.0000
  C   C691      1.0  0.03269  0.13808  0.49616  1.0000
  H   H818      1.0  0.98519  0.25017  0.34491  1.0000
  H   H819      1.0  0.81357  0.38878  0.52541  1.0000
  C   C692      1.0  0.86746  0.41606  0.45803  1.0000
  S   S186      1.0  0.90070  0.41931  0.49317  1.0000
  Fe  Fe92      1.0  0.75902  0.59117  0.54346  1.0000
  C   C693      1.0  0.68821  0.39830  0.51131  1.0000
  C   C694      1.0  0.82529  0.39907  0.48386  1.0000
  H   H820      1.0  0.61573  0.27683  0.34273  1.0000
  H   H821      1.0  0.00743  0.52078  0.41658  1.0000
  C   C695      1.0  0.85689  0.51523  0.48190  1.0000
  H   H822      1.0  0.06964  0.18253  0.42427  1.0000
  C   C696      1.0  0.98542  0.55600  0.39460  1.0000
  H   H823      1.0  0.88449  0.54029  0.45011  1.0000
  C   C697      1.0  0.87226  0.56327  0.54729  1.0000
  C   C698      1.0  0.70978  0.58480  0.36597  1.0000
  C   C699      1.0  0.08073  0.36830  0.41643  1.0000
  C   C700      1.0  0.82852  0.48336  0.57123  1.0000
  H   H824      1.0  0.03015  0.44206  0.56763  1.0000
  H   H825      1.0  0.79866  0.47974  0.57356  1.0000
  H   H826      1.0  0.03641  0.29519  0.56991  1.0000
  H   H827      1.0  0.58628  0.25465  0.40981  1.0000
  C   C701      1.0  0.00403  0.54957  0.54923  1.0000
  C   C702      1.0  0.85438  0.29211  0.55998  1.0000
  H   H828      1.0  0.82338  0.45281  0.55930  1.0000
  C   C703      1.0  0.80907  0.56014  0.33825  1.0000
  C   C704      1.0  0.58592  0.13080  0.35887  1.0000
  C   C705      1.0  0.01597  0.58247  0.58052  1.0000
  H   H829      1.0  0.00380  0.32484  0.33861  1.0000
  H   H830      1.0  0.71188  0.28857  0.35283  1.0000
  C   C706      1.0  0.97487  0.18551  0.58120  1.0000
  C   C707      1.0  0.74467  0.07995  0.81397  1.0000
  C   C708      1.0  0.77270  0.78546  0.63557  1.0000
  C   C709      1.0  0.60917  0.04469  0.72193  1.0000
  H   H831      1.0  0.98744  0.02379  0.68337  1.0000
  C   C710      1.0  0.81110  0.82669  0.61820  1.0000
  H   H832      1.0  0.78578  0.93929  0.72424  1.0000
  H   H833      1.0  0.06316  0.11073  0.74661  1.0000
  H   H834      1.0  0.07903  0.96415  0.75765  1.0000
  H   H835      1.0  0.59523  0.66048  0.81205  1.0000
  C   C711      1.0  0.64223  0.04058  0.70189  1.0000
  N   N50       1.0  0.00541  0.04631  0.75328  1.0000
  H   H836      1.0  0.62989  0.93043  0.62121  1.0000
  H   H837      1.0  0.74993  0.88359  0.71757  1.0000
  H   H838      1.0  0.62184  0.78398  0.70614  1.0000
  H   H839      1.0  0.03370  0.08303  0.81162  1.0000
  S   S187      1.0  0.75176  0.74488  0.78160  1.0000
  H   H840      1.0  0.80295  0.98605  0.59410  1.0000
  H   H841      1.0  0.03793  0.07561  0.67251  1.0000
  H   H842      1.0  0.78525  0.05920  0.80465  1.0000
  S   S188      1.0  0.61450  0.85015  0.77141  1.0000
  C   C712      1.0  0.64625  0.76264  0.75081  1.0000
  C   C713      1.0  0.61029  0.00463  0.63353  1.0000
  S   S189      1.0  0.60241  0.84218  0.63508  1.0000
  C   C714      1.0  0.90598  0.03128  0.64941  1.0000
  H   H843      1.0  0.96934  0.96340  0.80633  1.0000
  Fe  Fe93      1.0  0.74394  0.08178  0.66694  1.0000
  H   H844      1.0  0.82119  0.85091  0.64419  1.0000
  H   H845      1.0  0.92040  0.02534  0.61380  1.0000
  C   C715      1.0  0.02452  0.02264  0.75403  1.0000
  C   C716      1.0  0.07029  0.68673  0.78564  1.0000
  C   C717      1.0  0.72429  0.85503  0.62628  1.0000
  C   C718      1.0  0.72627  0.67607  0.61772  1.0000
  H   H846      1.0  0.00355  0.66018  0.67589  1.0000
  H   H847      1.0  0.85843  0.99031  0.77781  1.0000
  C   C719      1.0  0.69186  0.70371  0.67167  1.0000
  H   H848      1.0  0.96553  0.61529  0.64920  1.0000
  H   H849      1.0  0.66091  0.67107  0.68218  1.0000
  H   H850      1.0  0.71631  0.04743  0.81652  1.0000
  H   H851      1.0  0.85497  0.05352  0.77642  1.0000
  C   C720      1.0  0.87089  0.01141  0.74173  1.0000
  H   H852      1.0  0.94754  0.04123  0.78567  1.0000
  C   C721      1.0  0.63910  0.72818  0.78065  1.0000
  C   C722      1.0  0.88906  0.00322  0.69582  1.0000
  C   C723      1.0  0.05704  0.63561  0.66263  1.0000
  H   H853      1.0  0.01927  0.65400  0.61040  1.0000
  C   C724      1.0  0.88364  0.07366  0.69380  1.0000
  C   C725      1.0  0.80410  0.66567  0.83093  1.0000
  H   H854      1.0  0.06597  0.66309  0.68526  1.0000
  H   H855      1.0  0.69984  0.84477  0.66212  1.0000
  C   C726      1.0  0.64268  0.02053  0.65782  1.0000
  H   H856      1.0  0.83272  0.69793  0.81491  1.0000
  C   C727      1.0  0.78361  0.08672  0.80712  1.0000
  H   H857      1.0  0.77969  0.97944  0.79643  1.0000
  C   C728      1.0  0.07792  0.72242  0.75792  1.0000
  C   C729      1.0  0.96080  0.02227  0.78606  1.0000
  C   C730      1.0  0.99936  0.63550  0.64982  1.0000
  H   H858      1.0  0.00374  0.92844  0.80773  1.0000
  C   C731      1.0  0.80678  0.97438  0.62874  1.0000
  H   H859      1.0  0.98982  0.07121  0.69775  1.0000
  S   S190      1.0  0.77194  0.04447  0.65742  1.0000
  H   H860      1.0  0.81124  0.99747  0.65716  1.0000
  C   C732      1.0  0.06738  0.04184  0.72551  1.0000
  H   H861      1.0  0.70807  0.70662  0.70169  1.0000
  H   H862      1.0  0.75476  0.77968  0.67545  1.0000
  C   C733      1.0  0.00204  0.98084  0.78337  1.0000
  S   S191      1.0  0.70173  0.96480  0.79639  1.0000
  C   C734      1.0  0.77791  0.91575  0.69591  1.0000
  C   C735      1.0  0.60087  0.68717  0.78835  1.0000
  N   N51       1.0  0.71800  0.70944  0.61856  1.0000
  H   H863      1.0  0.99494  0.61931  0.74651  1.0000
  Fe  Fe94      1.0  0.63593  0.91630  0.79069  1.0000
  H   H864      1.0  0.01539  0.10557  0.77666  1.0000
  H   H865      1.0  0.76723  0.67234  0.79066  1.0000
  C   C736      1.0  0.61515  0.75624  0.72862  1.0000
  H   H866      1.0  0.60841  0.05964  0.75649  1.0000
  Fe  Fe95      1.0  0.83435  0.10860  0.64924  1.0000
  C   C737      1.0  0.75885  0.75312  0.60221  1.0000
  H   H867      1.0  0.89003  0.63028  0.80467  1.0000
  H   H868      1.0  0.83687  0.97727  0.61733  1.0000
  C   C738      1.0  0.75491  0.95385  0.82798  1.0000
  H   H869      1.0  0.74720  0.68222  0.64278  1.0000
  H   H870      1.0  0.61062  0.98862  0.60000  1.0000
  H   H871      1.0  0.07664  0.65004  0.62175  1.0000
  C   C739      1.0  0.06381  0.98008  0.75638  1.0000
  Fe  Fe96      1.0  0.79628  0.80965  0.80504  1.0000
  H   H872      1.0  0.66310  0.73338  0.79829  1.0000
  H   H873      1.0  0.67583  0.79458  0.74553  1.0000
  H   H874      1.0  0.06696  0.61694  0.67779  1.0000
  H   H875      1.0  0.66675  0.66671  0.80417  1.0000
  H   H876      1.0  0.95805  0.01478  0.82742  1.0000
  S   S192      1.0  0.68545  0.06488  0.72826  1.0000
  N   N52       1.0  0.76975  0.92925  0.65140  1.0000
  H   H877      1.0  0.73885  0.95536  0.69729  1.0000
  C   C740      1.0  0.71715  0.82455  0.59229  1.0000
  S   S193      1.0  0.61660  0.93153  0.72757  1.0000
  H   H878      1.0  0.93980  0.99142  0.77164  1.0000
  H   H879      1.0  0.91438  0.08643  0.61172  1.0000
  H   H880      1.0  0.69637  0.64275  0.63157  1.0000
  Fe  Fe97      1.0  0.85416  0.90758  0.76663  1.0000
  H   H881      1.0  0.03834  0.65829  0.80054  1.0000
  C   C741      1.0  0.73242  0.93027  0.67132  1.0000
  C   C742      1.0  0.76204  0.89805  0.61383  1.0000
  S   S194      1.0  0.88979  0.95744  0.69456  1.0000
  S   S195      1.0  0.86685  0.85756  0.77120  1.0000
  H   H882      1.0  0.68746  0.79237  0.60161  1.0000
  H   H883      1.0  0.66772  0.01664  0.64321  1.0000
  H   H884      1.0  0.72363  0.93797  0.63902  1.0000
  C   C743      1.0  0.00543  0.05479  0.69937  1.0000
  C   C744      1.0  0.76711  0.65108  0.81729  1.0000
  C   C745      1.0  0.02160  0.96012  0.78446  1.0000
  S   S196      1.0  0.03461  0.72189  0.75557  1.0000
  H   H885      1.0  0.80518  0.91364  0.68259  1.0000
  C   C746      1.0  0.86878  0.04703  0.74084  1.0000
  C   C747      1.0  0.90251  0.06588  0.64815  1.0000
  S   S197      1.0  0.78350  0.85872  0.79449  1.0000
  H   H886      1.0  0.70403  0.89950  0.69515  1.0000
  C   C748      1.0  0.03055  0.08827  0.77266  1.0000
  H   H887      1.0  0.58762  0.75677  0.64345  1.0000
  Fe  Fe98      1.0  0.59066  0.86352  0.71203  1.0000
  C   C749      1.0  0.65456  0.92853  0.59754  1.0000
  H   H888      1.0  0.68432  0.72774  0.67477  1.0000
  H   H889      1.0  0.71197  0.10946  0.81978  1.0000
  C   C750      1.0  0.64764  0.88832  0.59375  1.0000
  H   H890      1.0  0.66058  0.66925  0.59445  1.0000
  H   H891      1.0  0.76512  0.01476  0.97373  1.0000
  H   H892      1.0  0.83880  0.92886  0.01325  1.0000
  H   H893      1.0  0.62659  0.07014  0.98708  1.0000
  C   C751      1.0  0.91245  0.91605  0.94061  1.0000
  H   H894      1.0  0.67294  0.76922  0.01089  1.0000
  S   S198      1.0  0.92737  0.63891  0.97967  1.0000
  C   C752      1.0  0.07648  0.84759  0.85528  1.0000
  H   H895      1.0  0.58903  0.77098  0.84691  1.0000
  H   H896      1.0  0.06806  0.84240  0.89862  1.0000
  S   S199      1.0  0.95409  0.61813  0.86388  1.0000
  H   H897      1.0  0.62075  0.06354  0.05457  1.0000
  C   C753      1.0  0.78765  0.82568  0.07310  1.0000
  H   H898      1.0  0.79607  0.94182  0.84994  1.0000
  C   C754      1.0  0.86414  0.09471  0.93041  1.0000
  S   S200      1.0  0.94203  0.69673  0.87553  1.0000
  C   C755      1.0  0.63463  0.78137  0.88584  1.0000
  Fe  Fe99      1.0  0.90491  0.62669  0.90815  1.0000
  H   H899      1.0  0.69370  0.91655  0.02511  1.0000
  H   H900      1.0  0.73246  0.10504  0.99831  1.0000
  C   C756      1.0  0.65783  0.73439  0.00672  1.0000
  Fe  Fe100     1.0  0.79089  0.87083  0.87472  1.0000
  C   C757      1.0  0.65224  0.63818  0.88208  1.0000
  H   H901      1.0  0.65430  0.83835  0.05750  1.0000
  Fe  Fe101     1.0  0.86811  0.87092  0.85301  1.0000
  C   C758      1.0  0.74437  0.84907  0.06368  1.0000
  C   C759      1.0  0.94413  0.97515  0.99046  1.0000
  C   C760      1.0  0.73496  0.70763  0.87946  1.0000
  H   H902      1.0  0.78539  0.95114  0.00978  1.0000
  H   H903      1.0  0.60139  0.65201  0.03700  1.0000
  H   H904      1.0  0.82879  0.99236  0.03276  1.0000
  H   H905      1.0  0.66633  0.86271  0.94185  1.0000
  C   C761      1.0  0.69076  0.88812  0.91006  1.0000
  C   C762      1.0  0.76409  0.93259  0.85812  1.0000
  S   S201      1.0  0.90183  0.00396  0.05039  1.0000
  H   H906      1.0  0.60682  0.65909  0.96874  1.0000
  C   C763      1.0  0.75750  0.82232  0.05171  1.0000
  C   C764      1.0  0.84740  0.07628  0.02336  1.0000
  C   C765      1.0  0.63700  0.08849  0.01966  1.0000
  C   C766      1.0  0.90470  0.96756  0.01203  1.0000
  C   C767      1.0  0.92850  0.75351  0.01486  1.0000
  C   C768      1.0  0.84452  0.06212  0.97403  1.0000
  H   H907      1.0  0.66100  0.81057  0.85945  1.0000
  C   C769      1.0  0.03202  0.97977  0.02900  1.0000
  H   H908      1.0  0.62488  0.10872  0.02526  1.0000
  C   C770      1.0  0.92584  0.78210  0.04615  1.0000
  N   N53       1.0  0.61267  0.71168  0.00739  1.0000
  H   H909      1.0  0.07827  0.06830  0.02091  1.0000
  C   C771      1.0  0.59032  0.71683  0.05652  1.0000
  C   C772      1.0  0.64129  0.76635  0.92711  1.0000
  S   S202      1.0  0.74378  0.87310  0.93547  1.0000
  Fe  Fe102     1.0  0.96856  0.70892  0.94393  1.0000
  C   C773      1.0  0.69744  0.08664  0.00614  1.0000
  C   C774      1.0  0.78373  0.00456  0.94861  1.0000
  C   C775      1.0  0.03515  0.92093  0.08466  1.0000
  C   C776      1.0  0.67978  0.90503  0.06642  1.0000
  H   H910      1.0  0.66115  0.71986  0.03922  1.0000
  C   C777      1.0  0.80299  0.98571  0.01636  1.0000
  H   H911      1.0  0.01601  0.93530  0.97270  1.0000
  H   H912      1.0  0.83357  0.05402  0.05869  1.0000
  C   C778      1.0  0.94802  0.94937  0.95489  1.0000
  H   H913      1.0  0.01913  0.88345  0.02187  1.0000
  S   S203      1.0  0.02305  0.70703  0.90273  1.0000
  H   H914      1.0  0.85879  0.02522  0.88963  1.0000
  H   H915      1.0  0.00183  0.02629  0.07035  1.0000
  S   S204      1.0  0.73536  0.62510  0.01844  1.0000
  H   H916      1.0  0.87600  0.01699  0.94151  1.0000
  C   C779      1.0  0.89150  0.71697  0.00638  1.0000
  H   H917      1.0  0.67340  0.78521  0.93026  1.0000
  C   C780      1.0  0.59424  0.75922  0.87870  1.0000
  S   S205      1.0  0.70857  0.98884  0.07791  1.0000
  C   C781      1.0  0.87285  0.90803  0.96283  1.0000
  H   H918      1.0  0.64889  0.89811  0.88533  1.0000
  H   H919      1.0  0.95414  0.80967  0.05388  1.0000
  C   C782      1.0  0.73204  0.90000  0.89931  1.0000
  H   H920      1.0  0.83021  0.97226  0.92496  1.0000
  C   C783      1.0  0.70889  0.67612  0.92379  1.0000
  Fe  Fe103     1.0  0.99316  0.68952  0.83666  1.0000
  C   C784      1.0  0.84748  0.00732  0.92916  1.0000
  S   S206      1.0  0.97814  0.76371  0.98691  1.0000
  H   H921      1.0  0.82380  0.68165  0.02102  1.0000
  H   H922      1.0  0.58855  0.88288  0.08066  1.0000
  H   H923      1.0  0.83258  0.65054  0.87740  1.0000
  S   S207      1.0  0.86009  0.92407  0.84609  1.0000
  H   H924      1.0  0.59227  0.82515  0.94220  1.0000
  C   C785      1.0  0.80398  0.63910  0.86610  1.0000
  H   H925      1.0  0.84516  0.88227  0.95214  1.0000
  H   H926      1.0  0.85950  0.83215  0.06723  1.0000
  C   C786      1.0  0.02378  0.94198  0.00954  1.0000
  H   H927      1.0  0.76130  0.96907  0.94942  1.0000
  H   H928      1.0  0.79569  0.80321  0.06365  1.0000
  H   H929      1.0  0.05071  0.81765  0.84378  1.0000
  C   C787      1.0  0.85210  0.70973  0.02805  1.0000
  C   C788      1.0  0.86903  0.93396  0.99824  1.0000
  C   C789      1.0  0.66743  0.64159  0.92526  1.0000
  H   H930      1.0  0.62436  0.88881  0.98920  1.0000
  C   C790      1.0  0.88650  0.77469  0.06804  1.0000
  H   H931      1.0  0.74480  0.79926  0.02508  1.0000
  H   H932      1.0  0.89316  0.69435  0.98285  1.0000
  H   H933      1.0  0.78001  0.98801  0.04626  1.0000
  H   H934      1.0  0.86334  0.08650  0.89161  1.0000
  S   S208      1.0  0.07955  0.07876  0.88516  1.0000
  S   S209      1.0  0.91808  0.88729  0.89149  1.0000
  Fe  Fe104     1.0  0.98003  0.63585  0.93318  1.0000
  C   C791      1.0  0.02542  0.91266  0.03724  1.0000
  H   H935      1.0  0.97207  0.00228  0.99922  1.0000
  S   S210      1.0  0.79888  0.81890  0.88742  1.0000
  H   H936      1.0  0.72098  0.67869  0.95677  1.0000
  C   C792      1.0  0.84968  0.73905  0.05816  1.0000
  N   N54       1.0  0.82017  0.01568  0.96754  1.0000
  Fe  Fe105     1.0  0.95568  0.06640  0.00030  1.0000
  C   C793      1.0  0.59446  0.85850  0.00853  1.0000
  H   H937      1.0  0.76743  0.73327  0.87785  1.0000
  H   H938      1.0  0.79381  0.02020  0.90806  1.0000
  H   H939      1.0  0.97890  0.95675  0.93628  1.0000
  H   H940      1.0  0.88796  0.88953  0.05418  1.0000
  H   H941      1.0  0.72112  0.84651  0.04689  1.0000
  H   H942      1.0  0.03063  0.00160  0.00573  1.0000
  S   S211      1.0  0.97362  0.06182  0.91635  1.0000
  C   C794      1.0  0.68107  0.90794  0.87823  1.0000
  C   C795      1.0  0.59419  0.66487  0.00726  1.0000
  C   C796      1.0  0.60722  0.72845  0.96277  1.0000
  H   H943      1.0  0.67638  0.73215  0.97004  1.0000
  C   C797      1.0  0.65775  0.86079  0.08477  1.0000
  H   H944      1.0  0.68806  0.06640  0.97463  1.0000
  C   C798      1.0  0.04199  0.98928  0.07726  1.0000
  H   H945      1.0  0.68282  0.06405  0.04318  1.0000
  H   H946      1.0  0.60282  0.75152  0.05810  1.0000
  S   S212      1.0  0.02184  0.10135  0.00598  1.0000
  H   H947      1.0  0.02791  0.61901  0.07489  1.0000
  Fe  Fe106     1.0  0.04028  0.10145  0.92074  1.0000
  H   H948      1.0  0.07490  0.87422  0.84314  1.0000
  C   C799      1.0  0.67849  0.66953  0.83755  1.0000
  H   H949      1.0  0.08156  0.61512  0.00218  1.0000
  Fe  Fe107     1.0  0.74396  0.66408  0.08430  1.0000
  C   C800      1.0  0.71964  0.70479  0.83660  1.0000
  C   C801      1.0  0.71330  0.94091  0.83742  1.0000
  C   C802      1.0  0.75838  0.97523  0.23959  1.0000
  H   H950      1.0  0.07081  0.67100  0.12361  1.0000
  N   N55       1.0  0.83949  0.86083  0.12713  1.0000
  H   H951      1.0  0.68145  0.94206  0.32110  1.0000
  H   H952      1.0  0.06875  0.06643  0.16012  1.0000
  C   C803      1.0  0.68142  0.77682  0.21172  1.0000
  H   H953      1.0  0.90250  0.71505  0.13529  1.0000
  S   S213      1.0  0.60825  0.78989  0.16136  1.0000
  C   C804      1.0  0.59696  0.70512  0.28196  1.0000
  H   H954      1.0  0.87293  0.04339  0.12814  1.0000
  C   C805      1.0  0.87001  0.76285  0.25838  1.0000
  C   C806      1.0  0.63870  0.84552  0.13806  1.0000
  H   H955      1.0  0.88657  0.63136  0.09016  1.0000
  H   H956      1.0  0.92476  0.73351  0.18924  1.0000
  H   H957      1.0  0.63373  0.02233  0.17883  1.0000
  H   H958      1.0  0.79382  0.67863  0.21149  1.0000
  S   S214      1.0  0.68042  0.65203  0.09867  1.0000
  C   C807      1.0  0.94048  0.96070  0.27492  1.0000
  C   C808      1.0  0.72083  0.62765  0.29015  1.0000
  C   C809      1.0  0.81821  0.82231  0.16674  1.0000
  H   H959      1.0  0.89687  0.04647  0.25674  1.0000
  H   H960      1.0  0.89776  0.86593  0.10075  1.0000
  H   H961      1.0  0.85971  0.11043  0.21679  1.0000
  H   H962      1.0  0.93511  0.04418  0.17851  1.0000
  H   H963      1.0  0.71991  0.74131  0.22515  1.0000
  C   C810      1.0  0.64248  0.87469  0.17283  1.0000
  C   C811      1.0  0.73928  0.66468  0.31435  1.0000
  H   H964      1.0  0.87678  0.93025  0.12479  1.0000
  H   H965      1.0  0.84738  0.64450  0.17705  1.0000
  H   H966      1.0  0.94687  0.07331  0.11830  1.0000
  H   H967      1.0  0.03576  0.00925  0.17899  1.0000
  S   S215      1.0  0.81476  0.83075  0.30341  1.0000
  H   H968      1.0  0.94530  0.95806  0.23393  1.0000
  C   C812      1.0  0.66473  0.91882  0.15459  1.0000
  H   H969      1.0  0.01693  0.05835  0.12125  1.0000
  C   C813      1.0  0.77551  0.99715  0.27931  1.0000
  C   C814      1.0  0.64130  0.71405  0.17092  1.0000
  H   H970      1.0  0.87909  0.78286  0.22280  1.0000
  Fe  Fe108     1.0  0.75532  0.05971  0.23467  1.0000
  C   C815      1.0  0.75657  0.93821  0.22883  1.0000
  C   C816      1.0  0.68291  0.93403  0.10137  1.0000
  H   H971      1.0  0.86999  0.07120  0.26156  1.0000
  C   C817      1.0  0.87137  0.78121  0.30430  1.0000
  H   H972      1.0  0.88765  0.90315  0.16557  1.0000
  H   H973      1.0  0.92623  0.10454  0.25137  1.0000
  H   H974      1.0  0.62697  0.67897  0.17076  1.0000
  S   S216      1.0  0.76207  0.87284  0.25007  1.0000
  S   S217      1.0  0.64071  0.08111  0.25243  1.0000
  H   H975      1.0  0.79290  0.82002  0.19827  1.0000
  H   H976      1.0  0.06215  0.04917  0.27127  1.0000
  C   C818      1.0  0.04328  0.95857  0.10467  1.0000
  H   H977      1.0  0.66315  0.73182  0.13173  1.0000
  S   S218      1.0  0.98652  0.04815  0.24537  1.0000
  C   C819      1.0  0.69992  0.72694  0.19776  1.0000
  C   C820      1.0  0.95804  0.00141  0.29118  1.0000
  Fe  Fe109     1.0  0.76196  0.76145  0.33404  1.0000
  S   S219      1.0  0.01753  0.67655  0.22965  1.0000
  H   H978      1.0  0.86801  0.65544  0.23199  1.0000
  C   C821      1.0  0.80721  0.85757  0.10533  1.0000
  H   H979      1.0  0.62803  0.86334  0.21394  1.0000
  H   H980      1.0  0.84046  0.89970  0.18753  1.0000
  C   C822      1.0  0.82654  0.69971  0.18549  1.0000
  H   H981      1.0  0.84059  0.04290  0.18730  1.0000
  C   C823      1.0  0.86203  0.90027  0.15218  1.0000
  H   H982      1.0  0.85967  0.01027  0.18677  1.0000
  C   C824      1.0  0.63371  0.70586  0.26343  1.0000
  H   H983      1.0  0.05062  0.96285  0.14158  1.0000
  C   C825      1.0  0.90020  0.72916  0.17183  1.0000
  C   C826      1.0  0.78973  0.94545  0.29698  1.0000
  C   C827      1.0  0.77148  0.92291  0.25818  1.0000
  N   N56       1.0  0.85724  0.70123  0.20893  1.0000
  C   C828      1.0  0.60912  0.02671  0.18124  1.0000
  H   H984      1.0  0.90928  0.76184  0.15946  1.0000
  H   H985      1.0  0.83348  0.73212  0.17764  1.0000
  H   H986      1.0  0.68874  0.69251  0.19800  1.0000
  H   H987      1.0  0.90164  0.89173  0.29941  1.0000
  Fe  Fe110     1.0  0.76456  0.84161  0.31736  1.0000
  C   C829      1.0  0.90991  0.61835  0.14655  1.0000
  H   H988      1.0  0.70342  0.89601  0.33395  1.0000
  H   H989      1.0  0.97230  0.10206  0.16783  1.0000
  N   N57       1.0  0.90695  0.07890  0.18322  1.0000
  H   H990      1.0  0.63257  0.89203  0.32362  1.0000
  H   H991      1.0  0.66674  0.94075  0.18178  1.0000
  Fe  Fe111     1.0  0.97604  0.73506  0.31504  1.0000
  H   H992      1.0  0.61521  0.71791  0.17661  1.0000
  C   C830      1.0  0.85692  0.71936  0.25840  1.0000
  H   H993      1.0  0.05881  0.98861  0.30759  1.0000
  S   S220      1.0  0.77615  0.04227  0.29400  1.0000
  Fe  Fe112     1.0  0.69540  0.07832  0.21551  1.0000
  H   H994      1.0  0.75073  0.89987  0.10649  1.0000
  N   N58       1.0  0.05030  0.02945  0.09710  1.0000
  Fe  Fe113     1.0  0.99532  0.10191  0.29030  1.0000
  H   H995      1.0  0.70595  0.79718  0.17477  1.0000
  C   C831      1.0  0.86836  0.04219  0.17093  1.0000
  C   C832      1.0  0.89968  0.07511  0.24054  1.0000
  C   C833      1.0  0.79282  0.88417  0.11703  1.0000
  H   H996      1.0  0.83280  0.66156  0.31180  1.0000
  C   C834      1.0  0.08041  0.65491  0.14292  1.0000
  H   H997      1.0  0.80294  0.79162  0.14980  1.0000
  Fe  Fe114     1.0  0.97203  0.69002  0.21862  1.0000
  C   C835      1.0  0.01177  0.02853  0.10626  1.0000
  S   S221      1.0  0.93197  0.66676  0.30098  1.0000
  S   S222      1.0  0.75761  0.71410  0.28099  1.0000
  H   H998      1.0  0.74564  0.98613  0.21776  1.0000
  C   C836      1.0  0.91540  0.92316  0.31194  1.0000
  S   S223      1.0  0.01169  0.75935  0.23113  1.0000
  H   H999      1.0  0.69617  0.78929  0.24412  1.0000
  Fe  Fe115     1.0  0.05460  0.74448  0.24846  1.0000
  H   H1000     1.0  0.65677  0.78274  0.21686  1.0000
  S   S224      1.0  0.72315  0.09152  0.12899  1.0000
  C   C837      1.0  0.84567  0.65652  0.21520  1.0000
  H   H1001     1.0  0.98450  0.00031  0.13556  1.0000
  Fe  Fe116     1.0  0.72232  0.03277  0.13937  1.0000
  H   H1002     1.0  0.81252  0.63315  0.23994  1.0000
  S   S225      1.0  0.94310  0.67316  0.15260  1.0000
  H   H1003     1.0  0.74179  0.92035  0.19940  1.0000
  S   S226      1.0  0.68985  0.01668  0.22513  1.0000
  H   H1004     1.0  0.80132  0.93361  0.31963  1.0000
  H   H1005     1.0  0.80533  0.90899  0.14158  1.0000
  C   C838      1.0  0.94201  0.07470  0.16081  1.0000
  C   C839      1.0  0.60378  0.05179  0.21672  1.0000
  H   H1006     1.0  0.04465  0.64752  0.30570  1.0000
  H   H1007     1.0  0.84085  0.82324  0.18505  1.0000
  C   C840      1.0  0.79170  0.98268  0.30761  1.0000
  S   S227      1.0  0.78752  0.07123  0.15018  1.0000
  H   H1008     1.0  0.88205  0.81463  0.30347  1.0000
  H   H1009     1.0  0.72119  0.74434  0.15814  1.0000
  H   H1010     1.0  0.82616  0.68645  0.14803  1.0000
  N   N59       1.0  0.66373  0.73030  0.21187  1.0000
  C   C841      1.0  0.84411  0.69505  0.30748  1.0000
  H   H1011     1.0  0.71667  0.62957  0.25208  1.0000
  Fe  Fe117     1.0  0.98033  0.65825  0.31368  1.0000
  C   C842      1.0  0.64055  0.68367  0.29728  1.0000
  C   C843      1.0  0.06201  0.03554  0.14690  1.0000
  H   H1012     1.0  0.66744  0.68217  0.28686  1.0000
  S   S228      1.0  0.80087  0.73095  0.08587  1.0000
  H   H1013     1.0  0.99999  0.62535  0.13406  1.0000
  H   H1014     1.0  0.88459  0.79602  0.09362  1.0000
  H   H1015     1.0  0.58954  0.72122  0.25853  1.0000
  C   C844      1.0  0.03641  0.61953  0.32939  1.0000
  H   H1016     1.0  0.03639  0.89795  0.10608  1.0000
  H   H1017     1.0  0.59371  0.70488  0.09131  1.0000
  H   H1018     1.0  0.58866  0.99006  0.11898  1.0000
  S   S229      1.0  0.02159  0.72472  0.33358  1.0000
  C   C845      1.0  0.76150  0.87949  0.09683  1.0000
  C   C846      1.0  0.87242  0.86207  0.08566  1.0000
  C   C847      1.0  0.58324  0.00800  0.14762  1.0000
  H   H1019     1.0  0.63667  0.11225  0.10930  1.0000
  H   H1020     1.0  0.86024  0.77106  0.38706  1.0000
  C   C848      1.0  0.05297  0.80291  0.49925  1.0000
  C   C849      1.0  0.62951  0.64577  0.49108  1.0000
  H   H1021     1.0  0.78598  0.06005  0.39057  1.0000
  H   H1022     1.0  0.67337  0.85469  0.55715  1.0000
  C   C850      1.0  0.68580  0.93211  0.41520  1.0000
  H   H1023     1.0  0.59037  0.76505  0.37386  1.0000
  C   C851      1.0  0.61123  0.04358  0.38900  1.0000
  C   C852      1.0  0.69227  0.70119  0.58216  1.0000
  H   H1024     1.0  0.92182  0.96981  0.42228  1.0000
  C   C853      1.0  0.67882  0.88586  0.56059  1.0000
  H   H1025     1.0  0.03089  0.65741  0.44674  1.0000
  C   C854      1.0  0.05327  0.79350  0.54941  1.0000
  H   H1026     1.0  0.61144  0.06914  0.37139  1.0000
  H   H1027     1.0  0.68443  0.86288  0.39424  1.0000
  C   C855      1.0  0.84511  0.71364  0.35319  1.0000
  S   S230      1.0  0.95938  0.77381  0.36453  1.0000
  H   H1028     1.0  0.83489  0.69452  0.39025  1.0000
  C   C856      1.0  0.05074  0.03785  0.37348  1.0000
  H   H1029     1.0  0.77878  0.74110  0.52434  1.0000
  C   C857      1.0  0.87013  0.73444  0.50130  1.0000
  C   C858      1.0  0.72925  0.62201  0.38984  1.0000
  H   H1030     1.0  0.66632  0.01508  0.51951  1.0000
  C   C859      1.0  0.79263  0.90822  0.56578  1.0000
  H   H1031     1.0  0.90801  0.68180  0.40003  1.0000
  C   C860      1.0  0.06525  0.70130  0.49697  1.0000
  H   H1032     1.0  0.69988  0.99771  0.57688  1.0000
  C   C861      1.0  0.90820  0.92638  0.36510  1.0000
  C   C862      1.0  0.05775  0.67109  0.46280  1.0000
  Fe  Fe118     1.0  0.81339  0.83909  0.38660  1.0000
  H   H1033     1.0  0.61964  0.64753  0.37200  1.0000
  C   C863      1.0  0.80953  0.09025  0.40358  1.0000
  S   S231      1.0  0.77679  0.01215  0.51701  1.0000
  C   C864      1.0  0.61031  0.97638  0.43083  1.0000
  H   H1034     1.0  0.05177  0.82787  0.35662  1.0000
  H   H1035     1.0  0.73632  0.04028  0.46702  1.0000
  C   C865      1.0  0.92738  0.96720  0.38122  1.0000
  H   H1036     1.0  0.63359  0.93070  0.36366  1.0000
  C   C866      1.0  0.78641  0.76430  0.55140  1.0000
  H   H1037     1.0  0.03701  0.61565  0.56132  1.0000
  H   H1038     1.0  0.02236  0.79060  0.49377  1.0000
  H   H1039     1.0  0.03173  0.83057  0.42219  1.0000
  C   C867      1.0  0.74776  0.83566  0.54561  1.0000
  H   H1040     1.0  0.61098  0.95053  0.44499  1.0000
  H   H1041     1.0  0.80512  0.99978  0.33826  1.0000
  H   H1042     1.0  0.07837  0.63559  0.42159  1.0000
  S   S232      1.0  0.87292  0.87961  0.41134  1.0000
  H   H1043     1.0  0.00460  0.09889  0.57121  1.0000
  H   H1044     1.0  0.92026  0.79517  0.45182  1.0000
  Fe  Fe119     1.0  0.78548  0.06071  0.57150  1.0000
  H   H1045     1.0  0.64546  0.67547  0.50753  1.0000
  H   H1046     1.0  0.04993  0.02488  0.41103  1.0000
  C   C868      1.0  0.68718  0.04750  0.49770  1.0000
  C   C869      1.0  0.89724  0.69655  0.42763  1.0000
  C   C870      1.0  0.64797  0.62391  0.47745  1.0000
  H   H1047     1.0  0.81079  0.08149  0.44211  1.0000
  C   C871      1.0  0.67378  0.07434  0.50143  1.0000
  C   C872      1.0  0.85900  0.75666  0.35158  1.0000
  H   H1048     1.0  0.04747  0.06468  0.38098  1.0000
  C   C873      1.0  0.91170  0.64218  0.52502  1.0000
  C   C874      1.0  0.74340  0.66194  0.36428  1.0000
  C   C875      1.0  0.71801  0.92402  0.53397  1.0000
  C   C876      1.0  0.04989  0.81974  0.39750  1.0000
  C   C877      1.0  0.69388  0.96657  0.57188  1.0000
  H   H1049     1.0  0.04428  0.71122  0.50765  1.0000
  H   H1050     1.0  0.64249  0.06271  0.52592  1.0000
  H   H1051     1.0  0.71502  0.95858  0.38585  1.0000
  H   H1052     1.0  0.96594  0.03602  0.35716  1.0000
  C   C878      1.0  0.64659  0.01015  0.39391  1.0000
  C   C879      1.0  0.61721  0.74586  0.47602  1.0000
  Fe  Fe120     1.0  0.71771  0.78470  0.42359  1.0000
  H   H1053     1.0  0.67444  0.01025  0.38071  1.0000
  C   C880      1.0  0.90439  0.76043  0.45735  1.0000
  H   H1054     1.0  0.65322  0.78519  0.40094  1.0000
  C   C881      1.0  0.65042  0.91601  0.34828  1.0000
  H   H1055     1.0  0.84624  0.63575  0.47597  1.0000
  C   C882      1.0  0.58635  0.75235  0.41206  1.0000
  C   C883      1.0  0.82463  0.80558  0.53449  1.0000
  C   C884      1.0  0.72775  0.06250  0.46701  1.0000
  H   H1056     1.0  0.89021  0.67334  0.57725  1.0000
  H   H1057     1.0  0.84503  0.81345  0.49536  1.0000
  C   C885      1.0  0.61539  0.86419  0.43027  1.0000
  H   H1058     1.0  0.68670  0.72655  0.57984  1.0000
  H   H1059     1.0  0.80921  0.88581  0.49600  1.0000
  C   C886      1.0  0.78540  0.87732  0.53244  1.0000
  H   H1060     1.0  0.74283  0.92229  0.51010  1.0000
  C   C887      1.0  0.86213  0.67043  0.47061  1.0000
  C   C888      1.0  0.67473  0.87415  0.36627  1.0000
  S   S233      1.0  0.80536  0.65704  0.56159  1.0000
  H   H1061     1.0  0.03067  0.78381  0.40578  1.0000
  C   C889      1.0  0.62202  0.76326  0.42716  1.0000
  S   S234      1.0  0.76417  0.76831  0.41699  1.0000
  C   C890      1.0  0.61581  0.84523  0.47497  1.0000
  H   H1062     1.0  0.67457  0.06911  0.34331  1.0000
  C   C891      1.0  0.84865  0.68939  0.50744  1.0000
  H   H1063     1.0  0.69712  0.92131  0.44119  1.0000
  C   C892      1.0  0.91777  0.74143  0.42033  1.0000
  H   H1064     1.0  0.93597  0.67180  0.49805  1.0000
  H   H1065     1.0  0.02172  0.01192  0.36269  1.0000
  H   H1066     1.0  0.67867  0.63672  0.48324  1.0000
  H   H1067     1.0  0.82241  0.93989  0.55269  1.0000
  S   S235      1.0  0.76715  0.85620  0.39849  1.0000
  H   H1068     1.0  0.67104  0.94657  0.43882  1.0000
  C   C893      1.0  0.61283  0.66311  0.34687  1.0000
  C   C894      1.0  0.75628  0.10525  0.43880  1.0000
  H   H1069     1.0  0.70764  0.70061  0.54206  1.0000
  C   C895      1.0  0.72592  0.96440  0.54131  1.0000
  S   S236      1.0  0.98434  0.11250  0.48086  1.0000
  C   C896      1.0  0.59016  0.62930  0.48359  1.0000
  N   N60       1.0  0.65563  0.89621  0.39055  1.0000
  H   H1070     1.0  0.85982  0.74914  0.53000  1.0000
  S   S237      1.0  0.66168  0.75769  0.49399  1.0000
  H   H1071     1.0  0.64514  0.85318  0.48038  1.0000
  H   H1072     1.0  0.75792  0.69063  0.38287  1.0000
  H   H1073     1.0  0.65224  0.84538  0.34992  1.0000
  C   C897      1.0  0.95205  0.00469  0.34426  1.0000
  H   H1074     1.0  0.74231  0.81204  0.51934  1.0000
  C   C898      1.0  0.88600  0.64314  0.56957  1.0000
  C   C899      1.0  0.64693  0.04358  0.37295  1.0000
  H   H1075     1.0  0.86639  0.86886  0.55412  1.0000
  H   H1076     1.0  0.84112  0.10309  0.37606  1.0000
  S   S238      1.0  0.71150  0.77161  0.34332  1.0000
  S   S239      1.0  0.94551  0.09814  0.35479  1.0000
  S   S240      1.0  0.75247  0.09309  0.58148  1.0000
  H   H1077     1.0  0.73224  0.61986  0.42854  1.0000
  H   H1078     1.0  0.77739  0.11044  0.33726  1.0000
  C   C900      1.0  0.83681  0.83681  0.56765  1.0000
  H   H1079     1.0  0.02376  0.77469  0.58026  1.0000
  H   H1080     1.0  0.74243  0.67555  0.57800  1.0000
