data_image0
_chemical_formula_structural       CSCH4SCHCSFeHSNH5FeNCSFeC2HSC4H5CHSCH2C3FeH5CHSCHCFeHCH8CS2H2SHC3HSFeCFeHNHC2H2C2H2SC2FeCHC2H2C5H3CHNH4CHCHC3HSHCH2C4HC2HSC3FeH4FeS2HSHCH4NCHSCSCHCSCFe2HCSFeHC2HS3C2HCHC2HCHFeH2CSC2HNFeCHSCHSCHC2H2FeH4C2SH2CH2SHCH3C2HSC4H3CSCHCHCFeHC2HCH3C3FeCSHCHC2H2C3HCH2CH2CHC2HC2H3C2NC2HCHS2CHC2HNC2H4CFeHSNHSHCH2CH3CSNH5C3HFeHSH2CHCHSC3HFeHFeCHCSH3NHC3HCSCHS3H2C2HCH6C3H3NSC2HC2HFe2H3CHC3HFeH2SNCH3C2H2SCH3CHFeHC2H3SH3FeHNC2HCH3S2C4HCHCHCH4SC2SHCH6FeSCHCSCH2CH2CH3CH6C2HC4SHCH3SH3SHCFeCHCFeC2HCNHCHCH4CHCHC2FeSH2CSH2C2HCH3CHSC2HSHC2H2SCH3CHC3HCHC3HCHFeH2CNCHCH2SCH4SHC6HSC2FeH2NCHC3FeHC5H3C2SH2CH3C2HNHCH2NH2C2H3CH2C3H2C2H4CSC2H2C2H2CFeCH2SHCHCSFe2HFeHC2HSH3C2HC2H3CHSCSCS3CH3C2HCH2CH2CH3NCHCSH2NC2H2SH3CNCFe2HC2H2SHCSCSH2CFeC2HSCH2SCH3C2H2CH2CH2C2HSCNC2H4CHC2S2H3C2HCFeSHC3HCH4SH2C2SCHCHCHCH2SNCHCHCHCH2CH2C2H2CFeCFeSFeC2HC2HCSHNC5H2FeCH4FeCSHCHCH2CH2CH3C2NH2CH3CH2CNHCNCH2NCH4SHC2HCH3SH3FeCH3CHCH3CFeSHCH3CHSC3HC2HCH4CH3CNC2HCHCH5C2SCH2SHSC3HCHCHCHC2SH2C3HFe2SC3HC4HC2HCH2CH2C2H7C3SCHCH2CH4C3H3CHFeCHCSC2HCSH2CHCHC4HCFeCFeC2HSFe2H3C3H3SC3H4C2HSHNFeSC2HCSHFeHC2HCFeH4S3HSHSH3CH2C2H2FeCH4CHC2H2C2HSHSCHC2HNH3C2SHCHCHSH3SC2H2CHCFeHC2HCH7C2NCNH2CHCHCHCH6SCFeCHSC5H3SCHCHSH2C2HC2H2CHCHCHC2HCHNCH4FeNHCHCHCSCH5FeC3FeC2HNSHCH3S2H2SHCSC2SCSHC2SC2H2CFeHC6NH2C2FeCH2C2SHC2H3CSHCHC4HFeHFeCH2CSC2HCHCSCH3C2H3C2HSFeCSFeHCHC2SHCHC2FeCHCSCSCH2SCFeC2HCFeHFeC2HCSHC2HCNCSCH2S2C2H3CHC2HCH2SH3SFeHSHC2HCHFe3H2CSHCHS2CHSNHNHFeHCSCSHCH4C2H2CHCHCH3SCH2FeCHC2HCHCS2C2HCH2C2HC2HCH2C2H3CSHCHCFeHCNH4C3H2SH2CH3C4HNCHCH3SCH3CHSC2HCNCHCSC2SCH2C2H3CHCH2CHCSCHC2H2CFeHC2H4CHCH4FeCHCFeHC2SH2C3HCSH2CH2SFeCH3S2FeCHC3HSCH2FeH2NCHFeC2S2CH2SC3H5FeCSC3SHCFeH2CH2SH4CHCSFeCSC2SHCHCH2SH2CH3CHFeH7CS2H2SC2H2CHCH3CH4C4SHCHC3HC2NCH2C2SHCHCHCHCH2C3HFeHCSCH2FeH2CHCHSCH2SC4H5CHCFeC4HCHCHN2CH2CH2CHCSCH2SCH3
_chemical_formula_sum              "C720 S192 H864 Fe96 N48"
_cell_length_a       34.6466
_cell_length_b       33.1227
_cell_length_c       26.9903
_cell_angle_alpha    76.9681
_cell_angle_beta     89.2893
_cell_angle_gamma    122.077

_space_group_name_H-M_alt    "P 1"
_space_group_IT_number       1

loop_
  _space_group_symop_operation_xyz
  'x, y, z'

loop_
  _atom_site_type_symbol
  _atom_site_label
  _atom_site_symmetry_multiplicity
  _atom_site_fract_x
  _atom_site_fract_y
  _atom_site_fract_z
  _atom_site_occupancy
  C   C1        1.0  0.35515  0.15963  0.83587  1.0000
  S   S1        1.0  0.49517  0.11901  0.88436  1.0000
  C   C2        1.0  0.65677  0.50115  0.73223  1.0000
  H   H1        1.0  0.57693  0.39795  0.76151  1.0000
  H   H2        1.0  0.24778  0.39525  0.83626  1.0000
  H   H3        1.0  0.53451  0.26614  0.80261  1.0000
  H   H4        1.0  0.47983  0.13626  0.67958  1.0000
  S   S2        1.0  0.20195  0.09179  0.76073  1.0000
  C   C3        1.0  0.59650  0.51656  0.71411  1.0000
  H   H5        1.0  0.57401  0.03754  0.75942  1.0000
  C   C4        1.0  0.35866  0.08497  0.80826  1.0000
  S   S3        1.0  0.47371  0.45647  0.69907  1.0000
  Fe  Fe1       1.0  0.41080  0.40109  0.75844  1.0000
  H   H6        1.0  0.27963  0.29042  0.81826  1.0000
  S   S4        1.0  0.56725  0.20548  0.70692  1.0000
  N   N1        1.0  0.23239  0.35776  0.67823  1.0000
  H   H7        1.0  0.17435  0.36226  0.69857  1.0000
  H   H8        1.0  0.48812  0.29858  0.80600  1.0000
  H   H9        1.0  0.46096  0.29148  0.90309  1.0000
  H   H10       1.0  0.28401  0.11955  0.82491  1.0000
  H   H11       1.0  0.25761  0.51622  0.74947  1.0000
  Fe  Fe2       1.0  0.18234  0.10702  0.83031  1.0000
  N   N2        1.0  0.57549  0.06181  0.82759  1.0000
  C   C5        1.0  0.55251  0.34864  0.68647  1.0000
  S   S5        1.0  0.44061  0.19910  0.86587  1.0000
  Fe  Fe3       1.0  0.43255  0.04352  0.91957  1.0000
  C   C6        1.0  0.57822  0.36443  0.76702  1.0000
  C   C7        1.0  0.24246  0.35087  0.73157  1.0000
  H   H12       1.0  0.21061  0.40031  0.90417  1.0000
  S   S6        1.0  0.36787  0.42851  0.72361  1.0000
  C   C8        1.0  0.65664  0.51138  0.77970  1.0000
  C   C9        1.0  0.31565  0.12049  0.82383  1.0000
  C   C10       1.0  0.23849  0.37753  0.76360  1.0000
  C   C11       1.0  0.54259  0.28149  0.75991  1.0000
  H   H13       1.0  0.53059  0.08508  0.79787  1.0000
  H   H14       1.0  0.30175  0.24998  0.74912  1.0000
  H   H15       1.0  0.15999  0.30124  0.70005  1.0000
  H   H16       1.0  0.26063  0.29620  0.73238  1.0000
  H   H17       1.0  0.54627  0.41050  0.68854  1.0000
  C   C12       1.0  0.41287  0.32467  0.68747  1.0000
  H   H18       1.0  0.63771  0.04224  0.78670  1.0000
  S   S7        1.0  0.34284  0.48855  0.81373  1.0000
  C   C13       1.0  0.31700  0.08218  0.81187  1.0000
  H   H19       1.0  0.63067  0.13418  0.87442  1.0000
  H   H20       1.0  0.25816  0.13942  0.89851  1.0000
  C   C14       1.0  0.26762  0.31442  0.80310  1.0000
  C   C15       1.0  0.24936  0.37306  0.81338  1.0000
  C   C16       1.0  0.25674  0.31842  0.75321  1.0000
  Fe  Fe4       1.0  0.49159  0.50380  0.75360  1.0000
  H   H21       1.0  0.29601  0.51671  0.86948  1.0000
  H   H22       1.0  0.57384  0.34899  0.80938  1.0000
  H   H23       1.0  0.57405  0.51944  0.68815  1.0000
  H   H24       1.0  0.36682  0.31383  0.90290  1.0000
  H   H25       1.0  0.35338  0.18807  0.84700  1.0000
  C   C17       1.0  0.49673  0.31538  0.76365  1.0000
  H   H26       1.0  0.58693  0.11840  0.76017  1.0000
  S   S8        1.0  0.18962  0.05165  0.88709  1.0000
  C   C18       1.0  0.39568  0.15989  0.83663  1.0000
  H   H27       1.0  0.42921  0.12398  0.82049  1.0000
  C   C19       1.0  0.56778  0.10057  0.80030  1.0000
  Fe  Fe5       1.0  0.20540  0.03376  0.81757  1.0000
  H   H28       1.0  0.41590  0.27091  0.86465  1.0000
  C   C20       1.0  0.17814  0.50041  0.84002  1.0000
  H   H29       1.0  0.61359  0.37719  0.74985  1.0000
  H   H30       1.0  0.20980  0.23171  0.91479  1.0000
  H   H31       1.0  0.57904  0.13037  0.81982  1.0000
  H   H32       1.0  0.33071  0.06880  0.70683  1.0000
  H   H33       1.0  0.49466  0.34846  0.75694  1.0000
  H   H34       1.0  0.51586  0.25151  0.74432  1.0000
  H   H35       1.0  0.44221  0.33157  0.87193  1.0000
  H   H36       1.0  0.22756  0.40268  0.75027  1.0000
  C   C21       1.0  0.62675  0.50385  0.69944  1.0000
  S   S9        1.0  0.18739  0.45842  0.69416  1.0000
  S   S10       1.0  0.38288  0.32030  0.78346  1.0000
  H   H37       1.0  0.46897  0.28828  0.74608  1.0000
  H   H38       1.0  0.42363  0.51298  0.86547  1.0000
  S   S11       1.0  0.26677  0.02986  0.80303  1.0000
  H   H39       1.0  0.57679  0.28812  0.74785  1.0000
  C   C22       1.0  0.18407  0.46947  0.75378  1.0000
  C   C23       1.0  0.43055  0.29296  0.89296  1.0000
  C   C24       1.0  0.26396  0.34169  0.83313  1.0000
  H   H40       1.0  0.44694  0.35196  0.69307  1.0000
  S   S12       1.0  0.43112  0.44597  0.81497  1.0000
  Fe  Fe6       1.0  0.64169  0.23198  0.68886  1.0000
  C   C25       1.0  0.22429  0.50239  0.77023  1.0000
  Fe  Fe7       1.0  0.39362  0.47867  0.77516  1.0000
  H   H41       1.0  0.55895  0.06646  0.90295  1.0000
  N   N3        1.0  0.54268  0.32751  0.74313  1.0000
  H   H42       1.0  0.27285  0.33893  0.87161  1.0000
  C   C26       1.0  0.62530  0.08432  0.83007  1.0000
  C   C27       1.0  0.64874  0.12196  0.85568  1.0000
  H   H43       1.0  0.34124  0.25353  0.89309  1.0000
  H   H44       1.0  0.38055  0.15481  0.70819  1.0000
  C   C28       1.0  0.37518  0.30189  0.72671  1.0000
  C   C29       1.0  0.22125  0.51860  0.81285  1.0000
  H   H45       1.0  0.30270  0.12519  0.71670  1.0000
  H   H46       1.0  0.16678  0.24473  0.84956  1.0000
  S   S13       1.0  0.21314  0.18307  0.84064  1.0000
  C   C30       1.0  0.33096  0.26751  0.71877  1.0000
  C   C31       1.0  0.39777  0.12351  0.82099  1.0000
  Fe  Fe8       1.0  0.45524  0.14604  0.91484  1.0000
  C   C32       1.0  0.23000  0.18324  0.90160  1.0000
  H   H47       1.0  0.36051  0.05646  0.79736  1.0000
  C   C33       1.0  0.54885  0.03905  0.88048  1.0000
  C   C34       1.0  0.40867  0.49389  0.90687  1.0000
  H   H48       1.0  0.37327  0.48628  0.91267  1.0000
  H   H49       1.0  0.40463  0.45732  0.91486  1.0000
  C   C35       1.0  0.18323  0.34120  0.67935  1.0000
  C   C36       1.0  0.55616  0.02269  0.80001  1.0000
  C   C37       1.0  0.30218  0.13056  0.67461  1.0000
  C   C38       1.0  0.65212  0.07066  0.80680  1.0000
  C   C39       1.0  0.32426  0.25725  0.67083  1.0000
  H   H50       1.0  0.26747  0.10012  0.67092  1.0000
  H   H51       1.0  0.31164  0.12816  0.09619  1.0000
  H   H52       1.0  0.50704  0.40534  0.99931  1.0000
  C   C40       1.0  0.24827  0.15545  0.92246  1.0000
  H   H53       1.0  0.26829  0.43215  0.04069  1.0000
  N   N4        1.0  0.65502  0.28112  0.96236  1.0000
  H   H54       1.0  0.52141  0.42763  0.13478  1.0000
  H   H55       1.0  0.52309  0.03588  0.04310  1.0000
  H   H56       1.0  0.35083  0.42374  0.13671  1.0000
  H   H57       1.0  0.48115  0.49470  0.94157  1.0000
  C   C41       1.0  0.39630  0.51583  0.02432  1.0000
  H   H58       1.0  0.59112  0.21668  0.00696  1.0000
  C   C42       1.0  0.38449  0.42457  0.06865  1.0000
  H   H59       1.0  0.47129  0.51702  0.07105  1.0000
  C   C43       1.0  0.17983  0.36473  0.92319  1.0000
  C   C44       1.0  0.23634  0.51436  0.09834  1.0000
  C   C45       1.0  0.16227  0.51634  0.06194  1.0000
  H   H60       1.0  0.31663  0.51906  0.98315  1.0000
  S   S14       1.0  0.58405  0.41763  0.06351  1.0000
  H   H61       1.0  0.35028  0.25298  0.03485  1.0000
  C   C46       1.0  0.18527  0.50172  0.03482  1.0000
  H   H62       1.0  0.64158  0.35741  0.92770  1.0000
  H   H63       1.0  0.26499  0.51461  0.11386  1.0000
  C   C47       1.0  0.44425  0.35562  0.05289  1.0000
  C   C48       1.0  0.54662  0.28848  0.04324  1.0000
  C   C49       1.0  0.59858  0.05568  0.12734  1.0000
  C   C50       1.0  0.60459  0.24502  0.96885  1.0000
  H   H64       1.0  0.38011  0.38929  0.08580  1.0000
  C   C51       1.0  0.37367  0.48938  0.07507  1.0000
  C   C52       1.0  0.38501  0.28567  0.02597  1.0000
  H   H65       1.0  0.60841  0.34033  0.06845  1.0000
  S   S15       1.0  0.23456  0.31608  0.14207  1.0000
  C   C53       1.0  0.24453  0.17247  0.00445  1.0000
  C   C54       1.0  0.55504  0.05372  0.05750  1.0000
  C   C55       1.0  0.22268  0.20899  0.93095  1.0000
  Fe  Fe9       1.0  0.23429  0.30506  0.06301  1.0000
  H   H66       1.0  0.29969  0.16695  0.15502  1.0000
  H   H67       1.0  0.45585  0.37697  0.08079  1.0000
  H   H68       1.0  0.21297  0.41047  0.07456  1.0000
  H   H69       1.0  0.65373  0.28025  0.04270  1.0000
  Fe  Fe10      1.0  0.18306  0.23379  0.16736  1.0000
  S   S16       1.0  0.52988  0.49387  0.02831  1.0000
  S   S17       1.0  0.59879  0.46835  0.94034  1.0000
  H   H70       1.0  0.36113  0.50453  0.09771  1.0000
  S   S18       1.0  0.29330  0.29512  0.06971  1.0000
  H   H71       1.0  0.59503  0.28047  0.15112  1.0000
  C   C56       1.0  0.50683  0.24054  0.05635  1.0000
  H   H72       1.0  0.58523  0.26335  0.96615  1.0000
  H   H73       1.0  0.26692  0.12593  0.99067  1.0000
  H   H74       1.0  0.32780  0.25976  0.95397  1.0000
  H   H75       1.0  0.48250  0.22924  0.02969  1.0000
  N   N5        1.0  0.39577  0.27331  0.93935  1.0000
  C   C57       1.0  0.63545  0.11952  0.04594  1.0000
  H   H76       1.0  0.37825  0.29985  0.09882  1.0000
  S   S19       1.0  0.37763  0.03787  0.09646  1.0000
  C   C58       1.0  0.63771  0.09876  0.09628  1.0000
  S   S20       1.0  0.45643  0.03509  0.99534  1.0000
  C   C59       1.0  0.57787  0.30315  0.07800  1.0000
  H   H77       1.0  0.36861  0.19925  0.93326  1.0000
  C   C60       1.0  0.22872  0.46821  0.97957  1.0000
  S   S21       1.0  0.48265  0.14711  0.98990  1.0000
  C   C61       1.0  0.24873  0.44362  0.06031  1.0000
  Fe  Fe11      1.0  0.60198  0.40672  0.99008  1.0000
  Fe  Fe12      1.0  0.58670  0.48293  0.01405  1.0000
  H   H78       1.0  0.22518  0.22452  0.00400  1.0000
  C   C62       1.0  0.18095  0.33516  0.96849  1.0000
  S   S22       1.0  0.55805  0.32953  0.98284  1.0000
  Fe  Fe13      1.0  0.42075  0.06937  0.01841  1.0000
  H   H79       1.0  0.19232  0.43576  0.99067  1.0000
  C   C63       1.0  0.25439  0.14894  0.97424  1.0000
  C   C64       1.0  0.45830  0.34520  0.96995  1.0000
  H   H80       1.0  0.35059  0.20139  0.99403  1.0000
  S   S23       1.0  0.18054  0.22366  0.08818  1.0000
  S   S24       1.0  0.23348  0.35615  0.99263  1.0000
  S   S25       1.0  0.58866  0.13084  0.96900  1.0000
  C   C65       1.0  0.47301  0.37182  0.00673  1.0000
  C   C66       1.0  0.23054  0.20410  0.98207  1.0000
  H   H81       1.0  0.24578  0.08767  0.16434  1.0000
  C   C67       1.0  0.40723  0.45065  0.01810  1.0000
  H   H82       1.0  0.46750  0.17018  0.11421  1.0000
  C   C68       1.0  0.36789  0.44391  0.09721  1.0000
  C   C69       1.0  0.41344  0.30138  0.97826  1.0000
  H   H83       1.0  0.64578  0.32509  0.00396  1.0000
  C   C70       1.0  0.22286  0.49976  0.05268  1.0000
  H   H84       1.0  0.30203  0.06874  0.09995  1.0000
  Fe  Fe14      1.0  0.28789  0.29739  0.15183  1.0000
  H   H85       1.0  0.17270  0.49172  0.00027  1.0000
  H   H86       1.0  0.48294  0.35972  0.93551  1.0000
  C   C71       1.0  0.38023  0.22086  0.96225  1.0000
  S   S26       1.0  0.61280  0.16560  0.14352  1.0000
  C   C72       1.0  0.49834  0.20725  0.10412  1.0000
  C   C73       1.0  0.40051  0.31231  0.06277  1.0000
  H   H87       1.0  0.24807  0.45608  0.96067  1.0000
  N   N6        1.0  0.24847  0.48496  0.02506  1.0000
  Fe  Fe15      1.0  0.51671  0.11242  0.96215  1.0000
  C   C74       1.0  0.59338  0.09846  0.02744  1.0000
  H   H88       1.0  0.26538  0.45342  0.09432  1.0000
  S   S27       1.0  0.25064  0.16317  0.06966  1.0000
  C   C75       1.0  0.53054  0.22137  0.13791  1.0000
  H   H89       1.0  0.41932  0.43384  0.99773  1.0000
  S   S28       1.0  0.39087  0.07032  0.94564  1.0000
  C   C76       1.0  0.41447  0.49750  0.99451  1.0000
  H   H90       1.0  0.23020  0.49839  0.94952  1.0000
  C   C77       1.0  0.57042  0.26924  0.12472  1.0000
  C   C78       1.0  0.32031  0.10133  0.11588  1.0000
  H   H91       1.0  0.24062  0.03689  0.97918  1.0000
  H   H92       1.0  0.35806  0.11891  0.10455  1.0000
  Fe  Fe16      1.0  0.23944  0.21436  0.10004  1.0000
  H   H93       1.0  0.59619  0.45471  0.15997  1.0000
  H   H94       1.0  0.40887  0.21834  0.97742  1.0000
  H   H95       1.0  0.49727  0.34677  0.15582  1.0000
  H   H96       1.0  0.59553  0.22490  0.93860  1.0000
  C   C79       1.0  0.55768  0.03225  0.10731  1.0000
  C   C80       1.0  0.35617  0.27509  0.92181  1.0000
  S   S29       1.0  0.21910  0.29485  0.41427  1.0000
  H   H97       1.0  0.35337  0.06090  0.18305  1.0000
  H   H98       1.0  0.49996  0.02474  0.29565  1.0000
  C   C81       1.0  0.48304  0.05093  0.20487  1.0000
  H   H99       1.0  0.26967  0.26320  0.35287  1.0000
  H   H100      1.0  0.51860  0.24127  0.25120  1.0000
  S   S30       1.0  0.35171  0.33346  0.18865  1.0000
  H   H101      1.0  0.42035  0.40028  0.23840  1.0000
  C   C82       1.0  0.52116  0.27622  0.24361  1.0000
  H   H102      1.0  0.58862  0.49362  0.19031  1.0000
  H   H103      1.0  0.16504  0.15260  0.27207  1.0000
  H   H104      1.0  0.37895  0.11242  0.23342  1.0000
  C   C83       1.0  0.45378  0.47525  0.42034  1.0000
  C   C84       1.0  0.38462  0.21859  0.22500  1.0000
  H   H105      1.0  0.27410  0.32597  0.24211  1.0000
  S   S31       1.0  0.34141  0.44221  0.34794  1.0000
  C   C85       1.0  0.32205  0.20581  0.33131  1.0000
  C   C86       1.0  0.28576  0.16540  0.31813  1.0000
  C   C87       1.0  0.38740  0.39210  0.25403  1.0000
  C   C88       1.0  0.54489  0.35173  0.26657  1.0000
  H   H106      1.0  0.22708  0.05073  0.36854  1.0000
  H   H107      1.0  0.55380  0.29453  0.30936  1.0000
  H   H108      1.0  0.26969  0.36585  0.30770  1.0000
  C   C89       1.0  0.50667  0.42357  0.17381  1.0000
  S   S32       1.0  0.58786  0.12604  0.26892  1.0000
  C   C90       1.0  0.36938  0.13893  0.22194  1.0000
  H   H109      1.0  0.40375  0.25186  0.23781  1.0000
  C   C91       1.0  0.50561  0.29157  0.20055  1.0000
  H   H110      1.0  0.42088  0.18678  0.26145  1.0000
  C   C92       1.0  0.58267  0.45630  0.19667  1.0000
  Fe  Fe17      1.0  0.61957  0.11363  0.20624  1.0000
  H   H111      1.0  0.48100  0.38981  0.27873  1.0000
  C   C93       1.0  0.34744  0.35995  0.23635  1.0000
  C   C94       1.0  0.16356  0.28037  0.40412  1.0000
  H   H112      1.0  0.41652  0.44217  0.30174  1.0000
  C   C95       1.0  0.22642  0.42115  0.23264  1.0000
  H   H113      1.0  0.34230  0.24046  0.18603  1.0000
  H   H114      1.0  0.56198  0.37442  0.29221  1.0000
  H   H115      1.0  0.29076  0.13769  0.31014  1.0000
  C   C96       1.0  0.20977  0.48943  0.35661  1.0000
  C   C97       1.0  0.24233  0.44102  0.38291  1.0000
  C   C98       1.0  0.51670  0.42190  0.26165  1.0000
  Fe  Fe18      1.0  0.58647  0.18255  0.20639  1.0000
  C   C99       1.0  0.31592  0.24131  0.34231  1.0000
  S   S33       1.0  0.52085  0.17946  0.19682  1.0000
  H   H116      1.0  0.17371  0.14263  0.41120  1.0000
  C   C100      1.0  0.54091  0.30629  0.27645  1.0000
  H   H117      1.0  0.24000  0.40567  0.38510  1.0000
  C   C101      1.0  0.35014  0.21225  0.19554  1.0000
  C   C102      1.0  0.50051  0.51151  0.40161  1.0000
  H   H118      1.0  0.53923  0.42518  0.29144  1.0000
  H   H119      1.0  0.27595  0.47235  0.35931  1.0000
  C   C103      1.0  0.31680  0.04788  0.19475  1.0000
  C   C104      1.0  0.30496  0.35042  0.25588  1.0000
  C   C105      1.0  0.19762  0.43022  0.31052  1.0000
  H   H120      1.0  0.25282  0.42060  0.21136  1.0000
  C   C106      1.0  0.23513  0.19489  0.32859  1.0000
  H   H121      1.0  0.30864  0.03592  0.23747  1.0000
  H   H122      1.0  0.42818  0.02672  0.28977  1.0000
  C   C107      1.0  0.50910  0.33678  0.19046  1.0000
  H   H123      1.0  0.51632  0.45622  0.25405  1.0000
  H   H124      1.0  0.60467  0.45352  0.22517  1.0000
  C   C108      1.0  0.63714  0.05240  0.36506  1.0000
  H   H125      1.0  0.26391  0.43782  0.29419  1.0000
  C   C109      1.0  0.23217  0.43062  0.28088  1.0000
  C   C110      1.0  0.39410  0.18194  0.23833  1.0000
  H   H126      1.0  0.35476  0.20913  0.33367  1.0000
  C   C111      1.0  0.30253  0.37309  0.29295  1.0000
  C   C112      1.0  0.38517  0.41568  0.29005  1.0000
  H   H127      1.0  0.43073  0.46451  0.39236  1.0000
  H   H128      1.0  0.17967  0.49042  0.34437  1.0000
  H   H129      1.0  0.18236  0.40484  0.17462  1.0000
  C   C113      1.0  0.52820  0.36795  0.22386  1.0000
  C   C114      1.0  0.28232  0.03911  0.37754  1.0000
  N   N7        1.0  0.53320  0.41646  0.21394  1.0000
  C   C115      1.0  0.27310  0.23584  0.34148  1.0000
  C   C116      1.0  0.34276  0.40656  0.30930  1.0000
  H   H130      1.0  0.34410  0.27278  0.35264  1.0000
  C   C117      1.0  0.33395  0.13131  0.19166  1.0000
  H   H131      1.0  0.20399  0.24379  0.26511  1.0000
  S   S34       1.0  0.42318  0.08681  0.41979  1.0000
  S   S35       1.0  0.23661  0.21567  0.18260  1.0000
  C   C118      1.0  0.18690  0.41230  0.21193  1.0000
  H   H132      1.0  0.46971  0.39235  0.18263  1.0000
  C   C119      1.0  0.62482  0.06909  0.40158  1.0000
  C   C120      1.0  0.25723  0.06402  0.18577  1.0000
  H   H133      1.0  0.19413  0.20499  0.40620  1.0000
  N   N8        1.0  0.20272  0.44039  0.36161  1.0000
  C   C121      1.0  0.24285  0.15976  0.31665  1.0000
  C   C122      1.0  0.16068  0.40217  0.40000  1.0000
  H   H134      1.0  0.49834  0.07965  0.22622  1.0000
  H   H135      1.0  0.21250  0.26415  0.32247  1.0000
  H   H136      1.0  0.51239  0.05525  0.18146  1.0000
  H   H137      1.0  0.21600  0.12693  0.30738  1.0000
  C   C123      1.0  0.19065  0.23232  0.30679  1.0000
  Fe  Fe19      1.0  0.38703  0.52053  0.29955  1.0000
  H   H138      1.0  0.24032  0.51909  0.32701  1.0000
  S   S36       1.0  0.59735  0.04030  0.19390  1.0000
  N   N9        1.0  0.18878  0.18689  0.33392  1.0000
  H   H139      1.0  0.49129  0.26850  0.17439  1.0000
  S   S37       1.0  0.30789  0.07992  0.41563  1.0000
  H   H140      1.0  0.18619  0.32640  0.32583  1.0000
  C   C124      1.0  0.24161  0.03064  0.36005  1.0000
  H   H141      1.0  0.16136  0.50918  0.22398  1.0000
  H   H142      1.0  0.65287  0.09900  0.41360  1.0000
  C   C125      1.0  0.32544  0.16959  0.17863  1.0000
  H   H143      1.0  0.24716  0.05675  0.22774  1.0000
  H   H144      1.0  0.55580  0.11462  0.39719  1.0000
  H   H145      1.0  0.21523  0.49972  0.39358  1.0000
  C   C126      1.0  0.17212  0.17420  0.38935  1.0000
  S   S38       1.0  0.65704  0.24633  0.21018  1.0000
  N   N10       1.0  0.30764  0.08674  0.17265  1.0000
  H   H146      1.0  0.23649  0.02805  0.17607  1.0000
  H   H147      1.0  0.46303  0.06083  0.17854  1.0000
  H   H148      1.0  0.50708  0.45789  0.17066  1.0000
  H   H149      1.0  0.34353  0.17765  0.44219  1.0000
  H   H150      1.0  0.58204  0.33379  0.57288  1.0000
  C   C127      1.0  0.57515  0.39349  0.57848  1.0000
  C   C128      1.0  0.38282  0.18369  0.55699  1.0000
  C   C129      1.0  0.56723  0.22544  0.55437  1.0000
  H   H151      1.0  0.27163  0.10999  0.49981  1.0000
  Fe  Fe20      1.0  0.18411  0.20317  0.59884  1.0000
  H   H152      1.0  0.30485  0.16616  0.65894  1.0000
  S   S39       1.0  0.51321  0.17276  0.49146  1.0000
  H   H153      1.0  0.60286  0.06768  0.63759  1.0000
  H   H154      1.0  0.25661  0.41722  0.60834  1.0000
  C   C130      1.0  0.30167  0.11868  0.56936  1.0000
  H   H155      1.0  0.29905  0.42564  0.65000  1.0000
  C   C131      1.0  0.43711  0.45392  0.47412  1.0000
  H   H156      1.0  0.34185  0.35826  0.56220  1.0000
  S   S40       1.0  0.17343  0.06342  0.53886  1.0000
  C   C132      1.0  0.46954  0.47336  0.50772  1.0000
  C   C133      1.0  0.40654  0.31238  0.64062  1.0000
  C   C134      1.0  0.37818  0.39036  0.54933  1.0000
  H   H157      1.0  0.21895  0.28905  0.66750  1.0000
  Fe  Fe21      1.0  0.22030  0.24398  0.48454  1.0000
  H   H158      1.0  0.52612  0.03814  0.53518  1.0000
  Fe  Fe22      1.0  0.28071  0.23174  0.56002  1.0000
  C   C135      1.0  0.30253  0.13064  0.51611  1.0000
  H   H159      1.0  0.59214  0.24993  0.51969  1.0000
  C   C136      1.0  0.56534  0.04594  0.64322  1.0000
  S   S41       1.0  0.37854  0.08297  0.53007  1.0000
  H   H160      1.0  0.16710  0.27060  0.54830  1.0000
  H   H161      1.0  0.62704  0.49636  0.66250  1.0000
  H   H162      1.0  0.33493  0.34457  0.48214  1.0000
  N   N11       1.0  0.38765  0.41519  0.49333  1.0000
  H   H163      1.0  0.41484  0.22493  0.47822  1.0000
  C   C137      1.0  0.36072  0.43822  0.48424  1.0000
  C   C138      1.0  0.54799  0.20064  0.64745  1.0000
  C   C139      1.0  0.26179  0.41097  0.64931  1.0000
  H   H164      1.0  0.45877  0.12220  0.59424  1.0000
  C   C140      1.0  0.53586  0.08501  0.43385  1.0000
  S   S42       1.0  0.24678  0.27381  0.55167  1.0000
  C   C141      1.0  0.57897  0.23337  0.60222  1.0000
  H   H165      1.0  0.25392  0.43435  0.66543  1.0000
  S   S43       1.0  0.22043  0.16312  0.61379  1.0000
  S   S44       1.0  0.26003  0.20780  0.48827  1.0000
  S   S45       1.0  0.35455  0.26854  0.57120  1.0000
  H   H166      1.0  0.41314  0.16474  0.65015  1.0000
  H   H167      1.0  0.62469  0.09525  0.49392  1.0000
  C   C142      1.0  0.56274  0.32780  0.65171  1.0000
  C   C143      1.0  0.53513  0.02505  0.50509  1.0000
  H   H168      1.0  0.52616  0.10145  0.45933  1.0000
  C   C144      1.0  0.49211  0.15346  0.59642  1.0000
  H   H169      1.0  0.27780  0.34121  0.64542  1.0000
  H   H170      1.0  0.38400  0.41574  0.57341  1.0000
  H   H171      1.0  0.59070  0.12007  0.50210  1.0000
  H   H172      1.0  0.26930  0.08856  0.59301  1.0000
  H   H173      1.0  0.37008  0.38937  0.42457  1.0000
  H   H174      1.0  0.23266  0.33512  0.60922  1.0000
  C   C145      1.0  0.56483  0.41456  0.61138  1.0000
  C   C146      1.0  0.36213  0.27947  0.63188  1.0000
  C   C147      1.0  0.57787  0.04790  0.42099  1.0000
  H   H175      1.0  0.37110  0.46638  0.50606  1.0000
  H   H176      1.0  0.35892  0.07898  0.64486  1.0000
  H   H177      1.0  0.41510  0.20570  0.56997  1.0000
  N   N12       1.0  0.34016  0.13092  0.64801  1.0000
  S   S46       1.0  0.65786  0.20690  0.62577  1.0000
  C   C148      1.0  0.37096  0.37602  0.46589  1.0000
  C   C149      1.0  0.34180  0.14496  0.59153  1.0000
  H   H178      1.0  0.32300  0.41004  0.49591  1.0000
  C   C150      1.0  0.34313  0.16897  0.48343  1.0000
  C   C151      1.0  0.60278  0.10712  0.47443  1.0000
  H   H179      1.0  0.43589  0.32973  0.61054  1.0000
  Fe  Fe23      1.0  0.35386  0.06176  0.45829  1.0000
  Fe  Fe24      1.0  0.19792  0.14065  0.54159  1.0000
  H   H180      1.0  0.58465  0.41119  0.53737  1.0000
  H   H181      1.0  0.50330  0.05549  0.42465  1.0000
  H   H182      1.0  0.40039  0.37576  0.55873  1.0000
  C   C152      1.0  0.38317  0.19540  0.50378  1.0000
  H   H183      1.0  0.36627  0.45752  0.44290  1.0000
  C   C153      1.0  0.50388  0.16158  0.64457  1.0000
  C   C154      1.0  0.57384  0.35007  0.59856  1.0000
  C   C155      1.0  0.52437  0.18479  0.55145  1.0000
  H   H184      1.0  0.39274  0.36039  0.46880  1.0000
  Fe  Fe25      1.0  0.44668  0.10225  0.49414  1.0000
  H   H185      1.0  0.61281  0.26410  0.60408  1.0000
  H   H186      1.0  0.56648  0.44873  0.59559  1.0000
  S   S47       1.0  0.42671  0.51653  0.58807  1.0000
  N   N13       1.0  0.56352  0.06617  0.45802  1.0000
  C   C156      1.0  0.24102  0.32964  0.64890  1.0000
  H   H187      1.0  0.56292  0.29458  0.66453  1.0000
  H   H188      1.0  0.62466  0.14023  0.44105  1.0000
  H   H189      1.0  0.29791  0.05197  0.65630  1.0000
  C   C157      1.0  0.38345  0.16525  0.66544  1.0000
  C   C158      1.0  0.55346  0.39244  0.66455  1.0000
  H   H190      1.0  0.17436  0.34618  0.63981  1.0000
  H   H191      1.0  0.28983  0.23208  0.66428  1.0000
  S   S48       1.0  0.43317  0.02684  0.52848  1.0000
  C   C159      1.0  0.33156  0.08059  0.66461  1.0000
  H   H192      1.0  0.39186  0.20390  0.65358  1.0000
  H   H193      1.0  0.46004  0.46122  0.54911  1.0000
  H   H194      1.0  0.56059  0.10880  0.63984  1.0000
  C   C160      1.0  0.54171  0.06911  0.64468  1.0000
  H   H195      1.0  0.16407  0.40865  0.43891  1.0000
  Fe  Fe26      1.0  0.43217  0.48773  0.66899  1.0000
  H   H196      1.0  0.47532  0.05924  0.65393  1.0000
  C   C161      1.0  0.49365  0.04117  0.65262  1.0000
  C   C162      1.0  0.51588  0.51009  0.48861  1.0000
  H   H197      1.0  0.24377  0.44553  0.42258  1.0000
  H   H198      1.0  0.50179  0.55045  0.89289  1.0000
  H   H199      1.0  0.64358  0.96776  0.69732  1.0000
  S   S49       1.0  0.58022  0.92249  0.79417  1.0000
  H   H200      1.0  0.44008  0.68799  0.67752  1.0000
  H   H201      1.0  0.64898  0.94317  0.85934  1.0000
  H   H202      1.0  0.19529  0.67352  0.67651  1.0000
  Fe  Fe27      1.0  0.56263  0.87795  0.87698  1.0000
  H   H203      1.0  0.46064  0.84749  0.71953  1.0000
  N   N14       1.0  0.25850  0.91401  0.91267  1.0000
  C   C163      1.0  0.54951  0.72948  0.71622  1.0000
  C   C164      1.0  0.22402  0.60962  0.69511  1.0000
  H   H204      1.0  0.24360  0.92938  0.83524  1.0000
  C   C165      1.0  0.32750  0.87764  0.84460  1.0000
  H   H205      1.0  0.49749  0.75900  0.79684  1.0000
  H   H206      1.0  0.55817  0.64137  0.83075  1.0000
  H   H207      1.0  0.24086  0.59322  0.67992  1.0000
  S   S50       1.0  0.28678  0.64813  0.79985  1.0000
  S   S51       1.0  0.49309  0.80933  0.91235  1.0000
  C   C166      1.0  0.20330  0.75360  0.87557  1.0000
  C   C167      1.0  0.54211  0.68472  0.71180  1.0000
  C   C168      1.0  0.33048  0.54906  0.85444  1.0000
  C   C169      1.0  0.16138  0.91062  0.73842  1.0000
  H   H208      1.0  0.47416  0.89783  0.74614  1.0000
  C   C170      1.0  0.18130  0.88731  0.72330  1.0000
  H   H209      1.0  0.40383  0.88954  0.71139  1.0000
  C   C171      1.0  0.17447  0.76723  0.85236  1.0000
  H   H210      1.0  0.29993  0.89321  0.74012  1.0000
  C   C172      1.0  0.28880  0.82668  0.72527  1.0000
  H   H211      1.0  0.35043  0.55843  0.69739  1.0000
  H   H212      1.0  0.45405  0.66490  0.80117  1.0000
  H   H213      1.0  0.56793  0.71717  0.84149  1.0000
  H   H214      1.0  0.61299  0.62932  0.89338  1.0000
  S   S52       1.0  0.45548  0.54008  0.71845  1.0000
  C   C173      1.0  0.41746  0.94087  0.91720  1.0000
  C   C174      1.0  0.53223  0.78085  0.80776  1.0000
  S   S53       1.0  0.41189  0.98630  0.87706  1.0000
  H   H215      1.0  0.30278  0.92422  0.82080  1.0000
  C   C175      1.0  0.33194  0.84709  0.88549  1.0000
  H   H216      1.0  0.64219  0.64355  0.73112  1.0000
  H   H217      1.0  0.35265  0.83270  0.87908  1.0000
  H   H218      1.0  0.61464  0.79884  0.82568  1.0000
  H   H219      1.0  0.45269  0.93417  0.85645  1.0000
  H   H220      1.0  0.43179  0.58406  0.78703  1.0000
  H   H221      1.0  0.39785  0.84443  0.68073  1.0000
  Fe  Fe28      1.0  0.22924  0.60591  0.86681  1.0000
  S   S54       1.0  0.27566  0.74326  0.70319  1.0000
  C   C176      1.0  0.56124  0.70962  0.80446  1.0000
  H   H222      1.0  0.25217  0.54538  0.82453  1.0000
  C   C177      1.0  0.54544  0.65324  0.75280  1.0000
  S   S55       1.0  0.56020  0.54503  0.77934  1.0000
  C   C178      1.0  0.61427  0.81853  0.78660  1.0000
  H   H223      1.0  0.57903  0.86051  0.72631  1.0000
  H   H224      1.0  0.64260  0.82411  0.76023  1.0000
  C   C179      1.0  0.34295  0.59443  0.86244  1.0000
  H   H225      1.0  0.62333  0.85559  0.78924  1.0000
  H   H226      1.0  0.55362  0.00964  0.90242  1.0000
  C   C180      1.0  0.62723  0.52539  0.79375  1.0000
  H   H227      1.0  0.65243  0.70339  0.70073  1.0000
  H   H228      1.0  0.28062  0.98887  0.91107  1.0000
  H   H229      1.0  0.55908  0.99123  0.81964  1.0000
  C   C181      1.0  0.30270  0.89829  0.85334  1.0000
  H   H230      1.0  0.47087  0.87989  0.91563  1.0000
  H   H231      1.0  0.25104  0.64784  0.69563  1.0000
  H   H232      1.0  0.31495  0.98426  0.86556  1.0000
  H   H233      1.0  0.63718  0.57042  0.90771  1.0000
  H   H234      1.0  0.53707  0.81562  0.81272  1.0000
  H   H235      1.0  0.51133  0.02220  0.87992  1.0000
  C   C182      1.0  0.41962  0.63257  0.81616  1.0000
  C   C183      1.0  0.57038  0.82441  0.72062  1.0000
  H   H236      1.0  0.34139  0.66523  0.69049  1.0000
  C   C184      1.0  0.56002  0.74364  0.76275  1.0000
  C   C185      1.0  0.64807  0.64216  0.87927  1.0000
  C   C186      1.0  0.48042  0.88862  0.71086  1.0000
  C   C187      1.0  0.28829  0.80389  0.68729  1.0000
  S   S56       1.0  0.31943  0.74779  0.83688  1.0000
  H   H237      1.0  0.54711  0.75231  0.68248  1.0000
  C   C188      1.0  0.22600  0.91012  0.87579  1.0000
  H   H238      1.0  0.46491  0.59351  0.88267  1.0000
  H   H239      1.0  0.22630  0.75038  0.85201  1.0000
  H   H240      1.0  0.31565  0.60022  0.71912  1.0000
  S   S57       1.0  0.60114  0.84239  0.90576  1.0000
  H   H241      1.0  0.40754  0.60263  0.70417  1.0000
  H   H242      1.0  0.53624  0.80787  0.70735  1.0000
  H   H243      1.0  0.53434  0.67462  0.67606  1.0000
  S   S58       1.0  0.39971  0.69409  0.84700  1.0000
  H   H244      1.0  0.27994  0.80642  0.76555  1.0000
  C   C189      1.0  0.34895  0.63599  0.70277  1.0000
  Fe  Fe29      1.0  0.27142  0.70695  0.78585  1.0000
  C   C190      1.0  0.44090  0.92282  0.89738  1.0000
  H   H245      1.0  0.59688  0.83301  0.68927  1.0000
  C   C191      1.0  0.28073  0.88800  0.90351  1.0000
  Fe  Fe30      1.0  0.25772  0.69770  0.89964  1.0000
  C   C192      1.0  0.38717  0.63648  0.84256  1.0000
  C   C193      1.0  0.59681  0.52751  0.76126  1.0000
  H   H246      1.0  0.17468  0.77326  0.81124  1.0000
  C   C194      1.0  0.38243  0.59435  0.67679  1.0000
  N   N15       1.0  0.56910  0.79113  0.76884  1.0000
  H   H247      1.0  0.53122  0.75924  0.84627  1.0000
  C   C195      1.0  0.16910  0.63327  0.68367  1.0000
  H   H248      1.0  0.20927  0.58872  0.73636  1.0000
  C   C196      1.0  0.64011  0.95131  0.77989  1.0000
  H   H249      1.0  0.36889  0.64378  0.73526  1.0000
  H   H250      1.0  0.51761  0.90207  0.70472  1.0000
  H   H251      1.0  0.34505  0.88710  0.80633  1.0000
  H   H252      1.0  0.51891  0.00711  0.79825  1.0000
  C   C197      1.0  0.29501  0.96690  0.90517  1.0000
  H   H253      1.0  0.54091  0.61929  0.74862  1.0000
  C   C198      1.0  0.36184  0.54549  0.82590  1.0000
  H   H254      1.0  0.20727  0.92745  0.88343  1.0000
  C   C199      1.0  0.30027  0.87575  0.71094  1.0000
  C   C200      1.0  0.55490  0.66559  0.79908  1.0000
  Fe  Fe31      1.0  0.33123  0.68603  0.85484  1.0000
  S   S59       1.0  0.20890  0.66041  0.84715  1.0000
  H   H255      1.0  0.31790  0.59692  0.88332  1.0000
  H   H256      1.0  0.19994  0.87086  0.87772  1.0000
  C   C201      1.0  0.40691  0.58693  0.80781  1.0000
  S   S60       1.0  0.17405  0.52501  0.88911  1.0000
  H   H257      1.0  0.18576  0.86212  0.75233  1.0000
  H   H258      1.0  0.62798  0.53444  0.82991  1.0000
  C   C202      1.0  0.41581  0.88510  0.67570  1.0000
  C   C203      1.0  0.19504  0.89578  0.67106  1.0000
  H   H259      1.0  0.45729  0.85213  0.13455  1.0000
  C   C204      1.0  0.54457  0.93100  0.08650  1.0000
  H   H260      1.0  0.35194  0.70633  0.99822  1.0000
  H   H261      1.0  0.22451  0.53968  0.15999  1.0000
  H   H262      1.0  0.60521  0.54258  0.08484  1.0000
  C   C205      1.0  0.22964  0.94556  0.07852  1.0000
  H   H263      1.0  0.28359  0.63141  0.06113  1.0000
  S   S61       1.0  0.53769  0.80032  0.01819  1.0000
  C   C206      1.0  0.29999  0.73932  0.07299  1.0000
  C   C207      1.0  0.29679  0.52770  0.00673  1.0000
  H   H264      1.0  0.42006  0.94122  0.09350  1.0000
  S   S62       1.0  0.35271  0.58408  0.13034  1.0000
  H   H265      1.0  0.46701  0.59771  0.94715  1.0000
  C   C208      1.0  0.17684  0.97721  0.02788  1.0000
  C   C209      1.0  0.60033  0.91904  0.12894  1.0000
  H   H266      1.0  0.35504  0.97733  0.02722  1.0000
  H   H267      1.0  0.57155  0.98639  0.01324  1.0000
  S   S63       1.0  0.26253  0.80642  0.13238  1.0000
  C   C210      1.0  0.41017  0.89310  0.00342  1.0000
  H   H268      1.0  0.63996  0.76323  0.95622  1.0000
  H   H269      1.0  0.27888  0.74405  0.04442  1.0000
  H   H270      1.0  0.20536  0.85424  0.97418  1.0000
  C   C211      1.0  0.40159  0.92545  0.97002  1.0000
  H   H271      1.0  0.36085  0.63927  0.02692  1.0000
  C   C212      1.0  0.62448  0.97923  0.04591  1.0000
  C   C213      1.0  0.18143  0.91750  0.09630  1.0000
  C   C214      1.0  0.39510  0.88328  0.16426  1.0000
  H   H272      1.0  0.31555  0.53893  0.03922  1.0000
  C   C215      1.0  0.34255  0.70207  0.10215  1.0000
  H   H273      1.0  0.38277  0.93874  0.98489  1.0000
  C   C216      1.0  0.47402  0.83357  0.15403  1.0000
  C   C217      1.0  0.59980  0.70959  0.05168  1.0000
  C   C218      1.0  0.32361  0.94228  0.15706  1.0000
  H   H274      1.0  0.25306  0.65911  0.03429  1.0000
  C   C219      1.0  0.17579  0.75348  0.95835  1.0000
  H   H275      1.0  0.28680  0.66665  0.16732  1.0000
  Fe  Fe32      1.0  0.53261  0.77678  0.94568  1.0000
  H   H276      1.0  0.29805  0.56051  0.98244  1.0000
  H   H277      1.0  0.57689  0.71697  0.02807  1.0000
  C   C220      1.0  0.41481  0.71445  0.12863  1.0000
  N   N16       1.0  0.31485  0.70699  0.06273  1.0000
  C   C221      1.0  0.50532  0.55413  0.12760  1.0000
  H   H278      1.0  0.37929  0.85370  0.14550  1.0000
  C   C222      1.0  0.31134  0.83674  0.93512  1.0000
  H   H279      1.0  0.43692  0.59031  0.11607  1.0000
  H   H280      1.0  0.40756  0.73419  0.05087  1.0000
  S   S64       1.0  0.51632  0.70189  0.94666  1.0000
  C   C223      1.0  0.16824  0.83596  0.12775  1.0000
  H   H281      1.0  0.17642  0.67883  0.06918  1.0000
  H   H282      1.0  0.39776  0.88123  0.04425  1.0000
  H   H283      1.0  0.31561  0.81364  0.96683  1.0000
  H   H284      1.0  0.39962  0.55079  0.00954  1.0000
  S   S65       1.0  0.57047  0.91011  0.94366  1.0000
  H   H285      1.0  0.20527  0.84916  0.12273  1.0000
  C   C224      1.0  0.29426  0.87057  0.12375  1.0000
  C   C225      1.0  0.23212  0.89462  0.96546  1.0000
  C   C226      1.0  0.38950  0.71835  0.08997  1.0000
  C   C227      1.0  0.58091  0.56912  0.13522  1.0000
  C   C228      1.0  0.34015  0.72894  0.00908  1.0000
  C   C229      1.0  0.48348  0.53039  0.93329  1.0000
  H   H286      1.0  0.17673  0.66625  0.13768  1.0000
  S   S66       1.0  0.45107  0.84155  0.02641  1.0000
  C   C230      1.0  0.17589  0.52938  0.10725  1.0000
  C   C231      1.0  0.47052  0.63571  0.03933  1.0000
  Fe  Fe33      1.0  0.50398  0.83887  0.98158  1.0000
  H   H287      1.0  0.50606  0.55186  0.95889  1.0000
  H   H288      1.0  0.61837  0.74086  0.06913  1.0000
  N   N17       1.0  0.16038  0.87255  0.14051  1.0000
  C   C232      1.0  0.55375  0.90515  0.12925  1.0000
  H   H289      1.0  0.45039  0.72656  0.11831  1.0000
  C   C233      1.0  0.53762  0.52686  0.07336  1.0000
  C   C234      1.0  0.22433  0.00397  0.01161  1.0000
  C   C235      1.0  0.25074  0.98822  0.03699  1.0000
  Fe  Fe34      1.0  0.60388  0.86949  0.97512  1.0000
  H   H290      1.0  0.61100  0.90267  0.16032  1.0000
  C   C236      1.0  0.43706  0.97076  0.15908  1.0000
  C   C237      1.0  0.43611  0.87755  0.98404  1.0000
  C   C238      1.0  0.63489  0.95523  0.08757  1.0000
  C   C239      1.0  0.50203  0.53173  0.08850  1.0000
  C   C240      1.0  0.33961  0.95337  0.06580  1.0000
  H   H291      1.0  0.61478  0.78183  0.14835  1.0000
  H   H292      1.0  0.57693  0.67475  0.08292  1.0000
  H   H293      1.0  0.37056  0.76723  0.00347  1.0000
  C   C241      1.0  0.34470  0.97359  0.10729  1.0000
  C   C242      1.0  0.27346  0.65742  0.06533  1.0000
  S   S67       1.0  0.23280  0.71976  0.95899  1.0000
  H   H294      1.0  0.24958  0.64063  0.10232  1.0000
  H   H295      1.0  0.51055  0.92411  0.08451  1.0000
  C   C243      1.0  0.29849  0.89072  0.16526  1.0000
  H   H296      1.0  0.26934  0.84510  0.98342  1.0000
  H   H297      1.0  0.21414  0.91345  0.97020  1.0000
  H   H298      1.0  0.27858  0.72440  0.11148  1.0000
  C   C244      1.0  0.39143  0.63840  0.03025  1.0000
  C   C245      1.0  0.57945  0.96719  0.04542  1.0000
  H   H299      1.0  0.57969  0.67276  0.97292  1.0000
  N   N18       1.0  0.63215  0.70529  0.01998  1.0000
  H   H300      1.0  0.28778  0.00908  0.02450  1.0000
  C   C246      1.0  0.46793  0.66383  0.99416  1.0000
  H   H301      1.0  0.48184  0.81789  0.12595  1.0000
  H   H302      1.0  0.62471  0.66324  0.96580  1.0000
  N   N19       1.0  0.43773  0.52381  0.94043  1.0000
  H   H303      1.0  0.25509  0.90112  0.99521  1.0000
  H   H304      1.0  0.33039  0.77693  0.07139  1.0000
  C   C247      1.0  0.21321  0.52887  0.12513  1.0000
  C   C248      1.0  0.60365  0.66581  0.99460  1.0000
  H   H305      1.0  0.52735  0.99929  0.13134  1.0000
  H   H306      1.0  0.31128  0.88650  0.04208  1.0000
  H   H307      1.0  0.50086  0.63435  0.04311  1.0000
  C   C249      1.0  0.39531  0.61264  0.07649  1.0000
  H   H308      1.0  0.58260  0.62902  0.02333  1.0000
  H   H309      1.0  0.42649  0.68700  0.95412  1.0000
  C   C250      1.0  0.32252  0.68070  0.15499  1.0000
  C   C251      1.0  0.31442  0.90198  0.07407  1.0000
  C   C252      1.0  0.41801  0.93249  0.13505  1.0000
  H   H310      1.0  0.31822  0.73175  0.98052  1.0000
  H   H311      1.0  0.25128  0.93447  0.09682  1.0000
  C   C253      1.0  0.42834  0.66504  0.98926  1.0000
  C   C254      1.0  0.43449  0.61090  0.08071  1.0000
  H   H312      1.0  0.64285  0.70010  0.12448  1.0000
  H   H313      1.0  0.17627  0.74808  0.99919  1.0000
  H   H314      1.0  0.47729  0.55667  0.13973  1.0000
  H   H315      1.0  0.45330  0.00789  0.13397  1.0000
  C   C255      1.0  0.57751  0.54621  0.09618  1.0000
  S   S68       1.0  0.27440  0.64003  0.92311  1.0000
  C   C256      1.0  0.20231  0.74438  0.92891  1.0000
  C   C257      1.0  0.54430  0.57216  0.15153  1.0000
  H   H316      1.0  0.61128  0.58317  0.15369  1.0000
  H   H317      1.0  0.32045  0.97126  0.93174  1.0000
  C   C258      1.0  0.45100  0.89190  0.93094  1.0000
  C   C259      1.0  0.28532  0.85592  0.94420  1.0000
  H   H318      1.0  0.65141  0.00735  0.01401  1.0000
  H   H319      1.0  0.41279  0.57223  0.92253  1.0000
  C   C260      1.0  0.44570  0.57385  0.92268  1.0000
  Fe  Fe35      1.0  0.25175  0.76346  0.21384  1.0000
  C   C261      1.0  0.39159  0.87216  0.21770  1.0000
  H   H320      1.0  0.59707  0.68097  0.35893  1.0000
  H   H321      1.0  0.32731  0.95770  0.18931  1.0000
  S   S69       1.0  0.22800  0.67612  0.34961  1.0000
  H   H322      1.0  0.33160  0.66018  0.23323  1.0000
  C   C262      1.0  0.54430  0.00805  0.40264  1.0000
  H   H323      1.0  0.20170  0.84180  0.40138  1.0000
  C   C263      1.0  0.50580  0.89300  0.20383  1.0000
  S   S70       1.0  0.35179  0.78449  0.35200  1.0000
  Fe  Fe36      1.0  0.43960  0.63297  0.27724  1.0000
  Fe  Fe37      1.0  0.47819  0.58597  0.22586  1.0000
  H   H324      1.0  0.16568  0.85341  0.22108  1.0000
  Fe  Fe38      1.0  0.39116  0.58211  0.19599  1.0000
  H   H325      1.0  0.33362  0.02095  0.37842  1.0000
  C   C264      1.0  0.61980  0.69893  0.24270  1.0000
  C   C265      1.0  0.43010  0.78360  0.34766  1.0000
  H   H326      1.0  0.26058  0.77553  0.40049  1.0000
  S   S71       1.0  0.40783  0.52469  0.21909  1.0000
  H   H327      1.0  0.24632  0.86055  0.35029  1.0000
  H   H328      1.0  0.41405  0.69176  0.21009  1.0000
  H   H329      1.0  0.60756  0.94427  0.24847  1.0000
  C   C266      1.0  0.36275  0.71426  0.32862  1.0000
  C   C267      1.0  0.38925  0.69596  0.31719  1.0000
  H   H330      1.0  0.61314  0.99989  0.31993  1.0000
  C   C268      1.0  0.63060  0.76728  0.17448  1.0000
  C   C269      1.0  0.45655  0.76554  0.33583  1.0000
  H   H331      1.0  0.53109  0.95941  0.35452  1.0000
  H   H332      1.0  0.39261  0.00201  0.24256  1.0000
  H   H333      1.0  0.44705  0.80216  0.18597  1.0000
  C   C270      1.0  0.55711  0.99078  0.36699  1.0000
  H   H334      1.0  0.53709  0.91998  0.21755  1.0000
  S   S72       1.0  0.36567  0.57454  0.27623  1.0000
  C   C271      1.0  0.41519  0.99740  0.26909  1.0000
  S   S73       1.0  0.47200  0.70424  0.29951  1.0000
  C   C272      1.0  0.58352  0.75461  0.34390  1.0000
  S   S74       1.0  0.45854  0.57796  0.30836  1.0000
  S   S75       1.0  0.54630  0.59667  0.20300  1.0000
  S   S76       1.0  0.29674  0.73537  0.23731  1.0000
  C   C273      1.0  0.38340  0.75862  0.34295  1.0000
  H   H335      1.0  0.29355  0.95843  0.32979  1.0000
  H   H336      1.0  0.30567  0.83849  0.37034  1.0000
  H   H337      1.0  0.56445  0.70052  0.20979  1.0000
  C   C274      1.0  0.41057  0.91008  0.24215  1.0000
  C   C275      1.0  0.21871  0.99484  0.33332  1.0000
  H   H338      1.0  0.49279  0.91438  0.18096  1.0000
  C   C276      1.0  0.43647  0.72238  0.31947  1.0000
  H   H339      1.0  0.28233  0.86686  0.20358  1.0000
  H   H340      1.0  0.17836  0.91490  0.19556  1.0000
  C   C277      1.0  0.34808  0.67702  0.19327  1.0000
  H   H341      1.0  0.50531  0.73152  0.40853  1.0000
  H   H342      1.0  0.21925  0.90004  0.18099  1.0000
  C   C278      1.0  0.23688  0.96798  0.32351  1.0000
  H   H343      1.0  0.55628  0.85713  0.22984  1.0000
  H   H344      1.0  0.56683  0.77513  0.34628  1.0000
  H   H345      1.0  0.62264  0.85934  0.38345  1.0000
  N   N20       1.0  0.45367  0.00022  0.24039  1.0000
  C   C279      1.0  0.52932  0.83608  0.20747  1.0000
  H   H346      1.0  0.49302  0.78593  0.33797  1.0000
  C   C280      1.0  0.52839  0.68139  0.41222  1.0000
  S   S77       1.0  0.46371  0.64425  0.19517  1.0000
  H   H347      1.0  0.62054  0.78327  0.32792  1.0000
  H   H348      1.0  0.56789  0.73327  0.31526  1.0000
  N   N21       1.0  0.51654  0.86748  0.17291  1.0000
  C   C281      1.0  0.18193  0.88585  0.18626  1.0000
  C   C282      1.0  0.27885  0.97818  0.33871  1.0000
  H   H349      1.0  0.18684  0.98793  0.32063  1.0000
  H   H350      1.0  0.47926  0.86634  0.23847  1.0000
  S   S78       1.0  0.55734  0.88505  0.34953  1.0000
  H   H351      1.0  0.20342  0.79669  0.37692  1.0000
  H   H352      1.0  0.49965  0.80528  0.23697  1.0000
  H   H353      1.0  0.37371  0.83394  0.24057  1.0000
  C   C283      1.0  0.22528  0.83212  0.38720  1.0000
  N   N22       1.0  0.57780  0.72121  0.39449  1.0000
  C   C284      1.0  0.60991  0.89995  0.31886  1.0000
  Fe  Fe39      1.0  0.18820  0.70864  0.31688  1.0000
  Fe  Fe40      1.0  0.29054  0.75114  0.31240  1.0000
  H   H354      1.0  0.44630  0.81777  0.35894  1.0000
  C   C285      1.0  0.30145  0.01353  0.36613  1.0000
  C   C286      1.0  0.43446  0.96070  0.21355  1.0000
  H   H355      1.0  0.54118  0.81888  0.18557  1.0000
  H   H356      1.0  0.40583  0.89920  0.28381  1.0000
  S   S79       1.0  0.41393  0.96769  0.40932  1.0000
  H   H357      1.0  0.37336  0.66198  0.30584  1.0000
  C   C287      1.0  0.28242  0.81263  0.40731  1.0000
  S   S80       1.0  0.20664  0.92110  0.29314  1.0000
  C   C288      1.0  0.62620  0.92923  0.26778  1.0000
  S   S81       1.0  0.21921  0.59146  0.26404  1.0000
  H   H358      1.0  0.32638  0.69406  0.32613  1.0000
  H   H359      1.0  0.59710  0.66226  0.26881  1.0000
  C   C289      1.0  0.49516  0.69344  0.41704  1.0000
  Fe  Fe41      1.0  0.23139  0.66246  0.27282  1.0000
  C   C290      1.0  0.60146  0.72060  0.20928  1.0000
  C   C291      1.0  0.63506  0.88200  0.34408  1.0000
  H   H360      1.0  0.30861  0.90643  0.39228  1.0000
  S   S82       1.0  0.18645  0.68892  0.24265  1.0000
  C   C292      1.0  0.48250  0.99363  0.27754  1.0000
  H   H361      1.0  0.42123  0.88951  0.39040  1.0000
  H   H362      1.0  0.46207  0.95983  0.31027  1.0000
  S   S83       1.0  0.25076  0.78550  0.28633  1.0000
  C   C293      1.0  0.60750  0.70237  0.38801  1.0000
  H   H363      1.0  0.64442  0.73304  0.37526  1.0000
  H   H364      1.0  0.50976  0.99160  0.25819  1.0000
  H   H365      1.0  0.39331  0.96132  0.29887  1.0000
  C   C294      1.0  0.39430  0.69441  0.18020  1.0000
  C   C295      1.0  0.60345  0.01325  0.34781  1.0000
  H   H366      1.0  0.51257  0.52682  0.36041  1.0000
  H   H367      1.0  0.29558  0.01421  0.18110  1.0000
  C   C296      1.0  0.15944  0.55440  0.26851  1.0000
  H   H368      1.0  0.50788  0.98975  0.41591  1.0000
  H   H369      1.0  0.41673  0.71478  0.63306  1.0000
  C   C297      1.0  0.63400  0.64407  0.51588  1.0000
  H   H370      1.0  0.19959  0.87008  0.58085  1.0000
  H   H371      1.0  0.57606  0.76793  0.43795  1.0000
  C   C298      1.0  0.16042  0.92081  0.55114  1.0000
  C   C299      1.0  0.18905  0.92814  0.63216  1.0000
  H   H372      1.0  0.26791  0.89595  0.44317  1.0000
  S   S84       1.0  0.49451  0.77972  0.48207  1.0000
  C   C300      1.0  0.16717  0.72443  0.56911  1.0000
  N   N23       1.0  0.20209  0.93723  0.57637  1.0000
  C   C301      1.0  0.22331  0.91074  0.56511  1.0000
  C   C302      1.0  0.43264  0.60705  0.44032  1.0000
  H   H373      1.0  0.60492  0.61743  0.54612  1.0000
  H   H374      1.0  0.39611  0.57874  0.45060  1.0000
  H   H375      1.0  0.39649  0.58834  0.64384  1.0000
  H   H376      1.0  0.26717  0.00496  0.57183  1.0000
  C   C303      1.0  0.22514  0.79397  0.47561  1.0000
  H   H377      1.0  0.30475  0.81006  0.43558  1.0000
  C   C304      1.0  0.31135  0.87940  0.62102  1.0000
  C   C305      1.0  0.46448  0.59373  0.43869  1.0000
  S   S85       1.0  0.63383  0.56518  0.50052  1.0000
  S   S86       1.0  0.40116  0.78610  0.56080  1.0000
  H   H378      1.0  0.34687  0.67925  0.49156  1.0000
  H   H379      1.0  0.27028  0.60071  0.50737  1.0000
  H   H380      1.0  0.18695  0.61949  0.48752  1.0000
  C   C306      1.0  0.38688  0.86083  0.53741  1.0000
  C   C307      1.0  0.65322  0.62777  0.48584  1.0000
  H   H381      1.0  0.30083  0.74040  0.53060  1.0000
  C   C308      1.0  0.16884  0.95146  0.64902  1.0000
  Fe  Fe42      1.0  0.54840  0.79251  0.53322  1.0000
  S   S87       1.0  0.51937  0.89020  0.48128  1.0000
  H   H382      1.0  0.50197  0.99523  0.49723  1.0000
  C   C309      1.0  0.51108  0.59475  0.59347  1.0000
  C   C310      1.0  0.20778  0.63253  0.60910  1.0000
  C   C311      1.0  0.40713  0.84006  0.46519  1.0000
  H   H383      1.0  0.45964  0.86014  0.62280  1.0000
  C   C312      1.0  0.26857  0.70432  0.54132  1.0000
  H   H384      1.0  0.26149  0.70100  0.46307  1.0000
  H   H385      1.0  0.18063  0.01171  0.47156  1.0000
  H   H386      1.0  0.22153  0.01347  0.55481  1.0000
  H   H387      1.0  0.45260  0.55497  0.44863  1.0000
  S   S88       1.0  0.61441  0.96254  0.55881  1.0000
  H   H388      1.0  0.41434  0.81662  0.45024  1.0000
  H   H389      1.0  0.63413  0.96953  0.45180  1.0000
  C   C313      1.0  0.16046  0.71078  0.52328  1.0000
  C   C314      1.0  0.44800  0.65681  0.43042  1.0000
  S   S89       1.0  0.57096  0.74196  0.56869  1.0000
  C   C315      1.0  0.33478  0.65155  0.52851  1.0000
  H   H390      1.0  0.24759  0.99905  0.51080  1.0000
  C   C316      1.0  0.23601  0.99092  0.55257  1.0000
  H   H391      1.0  0.60638  0.67847  0.42498  1.0000
  C   C317      1.0  0.23183  0.80622  0.52340  1.0000
  H   H392      1.0  0.51638  0.91483  0.61174  1.0000
  C   C318      1.0  0.45856  0.61473  0.55496  1.0000
  H   H393      1.0  0.32006  0.89952  0.58082  1.0000
  H   H394      1.0  0.65588  0.68453  0.61785  1.0000
  S   S90       1.0  0.60092  0.86827  0.48309  1.0000
  N   N24       1.0  0.25450  0.82951  0.42608  1.0000
  C   C319      1.0  0.46889  0.57968  0.57605  1.0000
  H   H395      1.0  0.57485  0.65611  0.60469  1.0000
  C   C320      1.0  0.47908  0.90062  0.61935  1.0000
  H   H396      1.0  0.53970  0.52437  0.51524  1.0000
  C   C321      1.0  0.20317  0.77168  0.56930  1.0000
  H   H397      1.0  0.37911  0.85372  0.57846  1.0000
  C   C322      1.0  0.59515  0.75054  0.43242  1.0000
  H   H398      1.0  0.56103  0.97866  0.64818  1.0000
  H   H399      1.0  0.42519  0.60291  0.54350  1.0000
  C   C323      1.0  0.39543  0.83010  0.51828  1.0000
  H   H400      1.0  0.38599  0.92686  0.51883  1.0000
  H   H401      1.0  0.40298  0.89908  0.64290  1.0000
  C   C324      1.0  0.49058  0.66492  0.55081  1.0000
  C   C325      1.0  0.34704  0.62590  0.61656  1.0000
  H   H402      1.0  0.63231  0.78097  0.42057  1.0000
  H   H403      1.0  0.51893  0.56760  0.61062  1.0000
  C   C326      1.0  0.40469  0.91346  0.45076  1.0000
  Fe  Fe43      1.0  0.40354  0.00960  0.45673  1.0000
  C   C327      1.0  0.36231  0.66077  0.56727  1.0000
  Fe  Fe44      1.0  0.57135  0.89521  0.53141  1.0000
  S   S91       1.0  0.33214  0.98296  0.49049  1.0000
  Fe  Fe45      1.0  0.47324  0.81263  0.53144  1.0000
  C   C328      1.0  0.46886  0.98999  0.65931  1.0000
  C   C329      1.0  0.24939  0.68029  0.59330  1.0000
  H   H404      1.0  0.48219  0.69154  0.53472  1.0000
  C   C330      1.0  0.18922  0.74477  0.47724  1.0000
  C   C331      1.0  0.54096  0.99477  0.64967  1.0000
  H   H405      1.0  0.25853  0.84227  0.52651  1.0000
  C   C332      1.0  0.39157  0.90258  0.50369  1.0000
  S   S92       1.0  0.52333  0.82024  0.58573  1.0000
  H   H406      1.0  0.24212  0.53794  0.59206  1.0000
  N   N25       1.0  0.37451  0.63486  0.65914  1.0000
  C   C333      1.0  0.54279  0.64486  0.58999  1.0000
  C   C334      1.0  0.18553  0.61150  0.56923  1.0000
  C   C335      1.0  0.30312  0.58112  0.62399  1.0000
  C   C336      1.0  0.31249  0.90245  0.65890  1.0000
  C   C337      1.0  0.27582  0.57225  0.58504  1.0000
  H   H407      1.0  0.63913  0.70789  0.53127  1.0000
  H   H408      1.0  0.47078  0.91805  0.58448  1.0000
  Fe  Fe46      1.0  0.36283  0.00612  0.55947  1.0000
  C   C338      1.0  0.41143  0.88160  0.43133  1.0000
  H   H409      1.0  0.29756  0.81206  0.60588  1.0000
  H   H410      1.0  0.16815  0.92457  0.50955  1.0000
  H   H411      1.0  0.21013  0.87635  0.66229  1.0000
  H   H412      1.0  0.64885  0.62711  0.65040  1.0000
  Fe  Fe47      1.0  0.54541  0.85817  0.43588  1.0000
  C   C339      1.0  0.42029  0.68255  0.64473  1.0000
  S   S93       1.0  0.32960  0.96470  0.64188  1.0000
  H   H413      1.0  0.39518  0.69582  0.55769  1.0000
  C   C340      1.0  0.65360  0.69500  0.50798  1.0000
  H   H414      1.0  0.44194  0.68411  0.61278  1.0000
  C   C341      1.0  0.29162  0.60745  0.53740  1.0000
  H   H415      1.0  0.59186  0.72680  0.47076  1.0000
  H   H416      1.0  0.31162  0.88233  0.45643  1.0000
  C   C342      1.0  0.53244  0.67999  0.56898  1.0000
  H   H417      1.0  0.20777  0.78199  0.60524  1.0000
  H   H418      1.0  0.23181  0.91760  0.52297  1.0000
  C   C343      1.0  0.29869  0.83000  0.63525  1.0000
  H   H419      1.0  0.25565  0.92259  0.58171  1.0000
  H   H420      1.0  0.26744  0.69996  0.62084  1.0000
  H   H421      1.0  0.42336  0.66735  0.43205  1.0000
  C   C344      1.0  0.20475  0.63614  0.51723  1.0000
  C   C345      1.0  0.24643  0.68220  0.50334  1.0000
  N   N26       1.0  0.18805  0.60772  0.66451  1.0000
  H   H422      1.0  0.18280  0.73217  0.44281  1.0000
  H   H423      1.0  0.16196  0.53380  0.65928  1.0000
  C   C346      1.0  0.28682  0.88068  0.42999  1.0000
  H   H424      1.0  0.55415  0.00804  0.52197  1.0000
  H   H425      1.0  0.53433  0.61716  0.42448  1.0000
  H   H426      1.0  0.16316  0.97657  0.62180  1.0000
  C   C347      1.0  0.49188  0.96508  0.65829  1.0000
  H   H427      1.0  0.28935  0.55267  0.66023  1.0000
  H   H428      1.0  0.43167  0.97097  0.66541  1.0000
  C   C348      1.0  0.51170  0.63014  0.42489  1.0000
  N   N27       1.0  0.46690  0.91081  0.66596  1.0000
  H   H429      1.0  0.56794  0.55635  0.42156  1.0000
  C   C349      1.0  0.53162  0.52845  0.43578  1.0000
  N   N28       1.0  0.90870  0.14316  0.77028  1.0000
  C   C350      1.0  0.69213  0.31223  0.86830  1.0000
  H   H430      1.0  0.00252  0.43351  0.78385  1.0000
  H   H431      1.0  0.96719  0.20810  0.71756  1.0000
  N   N29       1.0  0.09786  0.20348  0.83272  1.0000
  C   C351      1.0  0.91449  0.07938  0.83489  1.0000
  H   H432      1.0  0.12099  0.21386  0.75324  1.0000
  H   H433      1.0  0.11000  0.42149  0.77185  1.0000
  H   H434      1.0  0.02879  0.17815  0.81764  1.0000
  H   H435      1.0  0.94980  0.19909  0.80896  1.0000
  S   S94       1.0  0.10641  0.05405  0.83284  1.0000
  H   H436      1.0  0.07291  0.23611  0.77346  1.0000
  C   C352      1.0  0.90916  0.04346  0.67204  1.0000
  C   C353      1.0  0.14107  0.44907  0.78270  1.0000
  H   H437      1.0  0.04541  0.19524  0.91695  1.0000
  C   C354      1.0  0.93009  0.17972  0.71890  1.0000
  H   H438      1.0  0.78004  0.19265  0.70228  1.0000
  H   H439      1.0  0.98910  0.46195  0.67848  1.0000
  H   H440      1.0  0.96770  0.47872  0.75617  1.0000
  S   S95       1.0  0.79620  0.33913  0.74527  1.0000
  H   H441      1.0  0.95556  0.38388  0.71967  1.0000
  H   H442      1.0  0.87461  0.39279  0.81499  1.0000
  H   H443      1.0  0.77438  0.42332  0.86970  1.0000
  Fe  Fe48      1.0  0.70034  0.19080  0.67743  1.0000
  C   C355      1.0  0.83952  0.47645  0.74552  1.0000
  H   H444      1.0  0.92639  0.16130  0.68798  1.0000
  H   H445      1.0  0.77148  0.51667  0.76900  1.0000
  H   H446      1.0  0.14361  0.18799  0.79790  1.0000
  C   C356      1.0  0.91972  0.35442  0.73066  1.0000
  H   H447      1.0  0.89501  0.40291  0.71823  1.0000
  C   C357      1.0  0.89226  0.38696  0.84716  1.0000
  H   H448      1.0  0.13020  0.26341  0.86833  1.0000
  H   H449      1.0  0.72498  0.05863  0.89138  1.0000
  H   H450      1.0  0.90226  0.49489  0.77552  1.0000
  C   C358      1.0  0.07980  0.16605  0.88352  1.0000
  Fe  Fe49      1.0  0.01339  0.35718  0.69013  1.0000
  S   S96       1.0  0.69293  0.11903  0.68021  1.0000
  H   H451      1.0  0.80221  0.27468  0.91819  1.0000
  C   C359      1.0  0.13813  0.46450  0.82594  1.0000
  H   H452      1.0  0.84513  0.28811  0.86780  1.0000
  H   H453      1.0  0.13872  0.37143  0.86670  1.0000
  H   H454      1.0  0.02602  0.49558  0.83318  1.0000
  C   C360      1.0  0.00840  0.42545  0.82306  1.0000
  H   H455      1.0  0.91339  0.20078  0.70867  1.0000
  S   S97       1.0  0.69612  0.48781  0.71228  1.0000
  C   C361      1.0  0.00259  0.38007  0.84569  1.0000
  C   C362      1.0  0.82685  0.30320  0.88309  1.0000
  C   C363      1.0  0.72172  0.13254  0.83157  1.0000
  H   H456      1.0  0.79092  0.24693  0.77046  1.0000
  C   C364      1.0  0.69618  0.14547  0.85651  1.0000
  C   C365      1.0  0.86135  0.26674  0.76107  1.0000
  H   H457      1.0  0.75855  0.15088  0.83196  1.0000
  C   C366      1.0  0.83340  0.36919  0.91405  1.0000
  H   H458      1.0  0.81113  0.38545  0.84077  1.0000
  H   H459      1.0  0.98645  0.03914  0.83136  1.0000
  H   H460      1.0  0.91277  0.37406  0.83245  1.0000
  H   H461      1.0  0.85395  0.08644  0.74154  1.0000
  C   C367      1.0  0.90782  0.30559  0.74622  1.0000
  H   H462      1.0  0.08409  0.15042  0.79028  1.0000
  H   H463      1.0  0.99219  0.35291  0.82397  1.0000
  H   H464      1.0  0.11468  0.12943  0.87127  1.0000
  C   C368      1.0  0.93008  0.11457  0.78586  1.0000
  N   N30       1.0  0.85957  0.35061  0.89483  1.0000
  C   C369      1.0  0.00370  0.49943  0.67999  1.0000
  C   C370      1.0  0.83902  0.32614  0.74473  1.0000
  H   H465      1.0  0.88608  0.07190  0.86106  1.0000
  C   C371      1.0  0.88549  0.36489  0.73018  1.0000
  H   H466      1.0  0.71326  0.17417  0.87615  1.0000
  C   C372      1.0  0.99168  0.50907  0.72368  1.0000
  H   H467      1.0  0.80623  0.30753  0.85356  1.0000
  H   H468      1.0  0.84104  0.45275  0.72466  1.0000
  H   H469      1.0  0.01385  0.09805  0.74477  1.0000
  H   H470      1.0  0.10482  0.44996  0.84716  1.0000
  H   H471      1.0  0.84192  0.12918  0.75616  1.0000
  C   C373      1.0  0.09098  0.12991  0.89683  1.0000
  C   C374      1.0  0.82688  0.27701  0.75958  1.0000
  S   S98       1.0  0.68051  0.21074  0.74301  1.0000
  C   C375      1.0  0.67143  0.38460  0.84914  1.0000
  H   H472      1.0  0.89682  0.14663  0.84735  1.0000
  H   H473      1.0  0.83924  0.08274  0.80723  1.0000
  S   S99       1.0  0.05954  0.43441  0.69734  1.0000
  H   H474      1.0  0.71901  0.33922  0.78703  1.0000
  S   S100      1.0  0.95152  0.29387  0.74668  1.0000
  C   C376      1.0  0.11196  0.18797  0.79208  1.0000
  C   C377      1.0  0.98640  0.09337  0.77005  1.0000
  C   C378      1.0  0.97090  0.05998  0.81882  1.0000
  H   H475      1.0  0.89535  0.19111  0.79874  1.0000
  C   C379      1.0  0.96660  0.12054  0.75360  1.0000
  H   H476      1.0  0.98024  0.14572  0.71537  1.0000
  C   C380      1.0  0.81150  0.38734  0.88028  1.0000
  H   H477      1.0  0.76594  0.51627  0.86812  1.0000
  C   C381      1.0  0.02179  0.46028  0.85089  1.0000
  H   H478      1.0  0.05699  0.23495  0.83599  1.0000
  C   C382      1.0  0.78581  0.17228  0.68030  1.0000
  C   C383      1.0  0.91307  0.17112  0.80796  1.0000
  S   S101      1.0  0.04792  0.28436  0.89957  1.0000
  H   H479      1.0  0.66282  0.41230  0.84134  1.0000
  H   H480      1.0  0.91667  0.42366  0.85409  1.0000
  C   C384      1.0  0.85896  0.10885  0.76885  1.0000
  C   C385      1.0  0.67046  0.31639  0.91032  1.0000
  C   C386      1.0  0.03101  0.45050  0.90102  1.0000
  H   H481      1.0  0.85185  0.22875  0.77280  1.0000
  Fe  Fe50      1.0  0.74157  0.28773  0.70620  1.0000
  Fe  Fe51      1.0  0.12699  0.03278  0.76948  1.0000
  S   S102      1.0  0.81857  0.12290  0.90420  1.0000
  C   C387      1.0  0.69963  0.09492  0.80722  1.0000
  C   C388      1.0  0.13863  0.25003  0.83817  1.0000
  C   C389      1.0  0.80319  0.48331  0.74371  1.0000
  H   H482      1.0  0.77664  0.46531  0.72091  1.0000
  C   C390      1.0  0.87386  0.50006  0.77428  1.0000
  C   C391      1.0  0.06256  0.21332  0.81426  1.0000
  C   C392      1.0  0.78970  0.40855  0.89667  1.0000
  C   C393      1.0  0.13902  0.34846  0.90207  1.0000
  H   H483      1.0  0.81253  0.51966  0.90023  1.0000
  C   C394      1.0  0.70301  0.34347  0.81859  1.0000
  C   C395      1.0  0.66002  0.35330  0.89887  1.0000
  H   H484      1.0  0.71946  0.08454  0.78810  1.0000
  C   C396      1.0  0.01145  0.36990  0.89577  1.0000
  H   H485      1.0  0.04624  0.06406  0.68291  1.0000
  H   H486      1.0  0.92263  0.02672  0.88898  1.0000
  C   C397      1.0  0.69261  0.37946  0.80905  1.0000
  H   H487      1.0  0.70028  0.40292  0.77032  1.0000
  H   H488      1.0  0.89389  0.06382  0.67747  1.0000
  C   C398      1.0  0.80100  0.51366  0.77074  1.0000
  C   C399      1.0  0.93503  0.05304  0.85118  1.0000
  H   H489      1.0  0.68024  0.51014  0.80495  1.0000
  H   H490      1.0  0.15261  0.28017  0.80167  1.0000
  H   H491      1.0  0.70040  0.28461  0.87253  1.0000
  H   H492      1.0  0.06253  0.21944  0.67593  1.0000
  H   H493      1.0  0.00750  0.33473  0.91114  1.0000
  H   H494      1.0  0.04228  0.47958  0.91985  1.0000
  H   H495      1.0  0.90824  0.33008  0.91571  1.0000
  C   C400      1.0  0.73358  0.03735  0.91959  1.0000
  C   C401      1.0  0.04402  0.09436  0.98096  1.0000
  C   C402      1.0  0.66468  0.30675  0.00362  1.0000
  S   S103      1.0  0.86312  0.11896  0.03302  1.0000
  C   C403      1.0  0.74835  0.10980  0.13949  1.0000
  H   H496      1.0  0.87422  0.45257  0.16951  1.0000
  C   C404      1.0  0.03510  0.13148  0.97046  1.0000
  H   H497      1.0  0.13085  0.33997  0.07841  1.0000
  H   H498      1.0  0.89764  0.10003  0.12210  1.0000
  C   C405      1.0  0.83697  0.25254  0.13051  1.0000
  H   H499      1.0  0.85527  0.25714  0.16308  1.0000
  H   H500      1.0  0.08617  0.47059  0.97814  1.0000
  H   H501      1.0  0.02672  0.44072  0.00779  1.0000
  H   H502      1.0  0.97069  0.34977  0.01622  1.0000
  C   C406      1.0  0.78745  0.41051  0.94754  1.0000
  C   C407      1.0  0.84722  0.23542  0.09263  1.0000
  C   C408      1.0  0.74864  0.06969  0.07489  1.0000
  H   H503      1.0  0.66733  0.22902  0.01121  1.0000
  H   H504      1.0  0.92996  0.16747  0.16182  1.0000
  H   H505      1.0  0.01124  0.34020  0.04915  1.0000
  C   C409      1.0  0.74151  0.10289  0.09029  1.0000
  H   H506      1.0  0.09216  0.38329  0.00662  1.0000
  Fe  Fe52      1.0  0.87801  0.15186  0.94795  1.0000
  C   C410      1.0  0.79714  0.45940  0.13037  1.0000
  H   H507      1.0  0.86557  0.31210  0.96755  1.0000
  C   C411      1.0  0.80560  0.38978  0.98251  1.0000
  S   S104      1.0  0.93082  0.05486  0.06447  1.0000
  C   C412      1.0  0.02701  0.40512  0.92466  1.0000
  C   C413      1.0  0.90836  0.50742  0.98080  1.0000
  H   H508      1.0  0.73076  0.12354  0.06382  1.0000
  C   C414      1.0  0.82795  0.36901  0.96638  1.0000
  S   S105      1.0  0.09310  0.38401  0.12322  1.0000
  H   H509      1.0  0.88878  0.04157  0.97225  1.0000
  H   H510      1.0  0.83422  0.47947  0.11394  1.0000
  C   C415      1.0  0.77778  0.05959  0.93272  1.0000
  H   H511      1.0  0.13331  0.51687  0.04803  1.0000
  C   C416      1.0  0.08706  0.08158  0.10591  1.0000
  H   H512      1.0  0.01451  0.13302  0.99962  1.0000
  C   C417      1.0  0.05503  0.43503  0.00119  1.0000
  C   C418      1.0  0.67775  0.25323  0.97095  1.0000
  C   C419      1.0  0.09553  0.33222  0.14958  1.0000
  C   C420      1.0  0.77245  0.05225  0.15664  1.0000
  H   H513      1.0  0.77737  0.45230  0.09770  1.0000
  C   C421      1.0  0.82328  0.22938  0.05062  1.0000
  Fe  Fe53      1.0  0.90798  0.19657  0.03786  1.0000
  C   C422      1.0  0.00171  0.34825  0.01065  1.0000
  Fe  Fe54      1.0  0.03050  0.37789  0.15724  1.0000
  C   C423      1.0  0.78851  0.03135  0.96947  1.0000
  C   C424      1.0  0.05065  0.03661  0.14034  1.0000
  H   H514      1.0  0.91199  0.37620  0.94339  1.0000
  S   S106      1.0  0.97208  0.19519  0.03528  1.0000
  Fe  Fe55      1.0  0.98032  0.22343  0.94977  1.0000
  Fe  Fe56      1.0  0.66004  0.46869  0.05917  1.0000
  H   H515      1.0  0.14056  0.26688  0.02853  1.0000
  H   H516      1.0  0.13977  0.27096  0.11497  1.0000
  H   H517      1.0  0.12211  0.03682  0.02611  1.0000
  C   C425      1.0  0.93092  0.47296  0.07307  1.0000
  C   C426      1.0  0.80286  0.26327  0.12691  1.0000
  C   C427      1.0  0.11260  0.08137  0.06548  1.0000
  H   H518      1.0  0.02608  0.10191  0.14911  1.0000
  H   H519      1.0  0.76641  0.36641  0.11970  1.0000
  H   H520      1.0  0.06430  0.42593  0.03955  1.0000
  S   S107      1.0  0.73678  0.27185  0.08058  1.0000
  C   C428      1.0  0.88746  0.34199  0.93204  1.0000
  C   C429      1.0  0.78960  0.24107  0.04648  1.0000
  C   C430      1.0  0.77940  0.25804  0.08471  1.0000
  H   H521      1.0  0.77076  0.42715  0.96025  1.0000
  H   H522      1.0  0.82500  0.39896  0.12884  1.0000
  H   H523      1.0  0.77085  0.23605  0.01431  1.0000
  H   H524      1.0  0.71601  0.27872  0.96454  1.0000
  C   C431      1.0  0.09920  0.27391  0.97291  1.0000
  C   C432      1.0  0.91670  0.46983  0.98598  1.0000
  H   H525      1.0  0.93957  0.45974  0.10877  1.0000
  S   S108      1.0  0.67868  0.45364  0.98855  1.0000
  H   H526      1.0  0.79509  0.27619  0.15658  1.0000
  N   N31       1.0  0.04059  0.39504  0.97556  1.0000
  Fe  Fe57      1.0  0.92764  0.11973  0.02291  1.0000
  S   S109      1.0  0.02410  0.44241  0.12743  1.0000
  C   C433      1.0  0.09856  0.30312  0.92696  1.0000
  C   C434      1.0  0.14043  0.28978  0.99339  1.0000
  H   H527      1.0  0.10970  0.42296  0.94181  1.0000
  C   C435      1.0  0.12286  0.28042  0.13939  1.0000
  S   S110      1.0  0.96095  0.32223  0.14323  1.0000
  H   H528      1.0  0.71164  0.37759  0.15416  1.0000
  Fe  Fe58      1.0  0.95291  0.38611  0.11742  1.0000
  H   H529      1.0  0.80303  0.39017  0.02246  1.0000
  C   C436      1.0  0.78907  0.38007  0.14889  1.0000
  C   C437      1.0  0.08001  0.38958  0.96931  1.0000
  H   H530      1.0  0.70208  0.33468  0.00007  1.0000
  C   C438      1.0  0.92386  0.51152  0.06739  1.0000
  Fe  Fe59      1.0  0.67381  0.51707  0.94503  1.0000
  H   H531      1.0  0.07065  0.35757  0.95435  1.0000
  H   H532      1.0  0.06821  0.23884  0.99244  1.0000
  H   H533      1.0  0.89957  0.52066  0.94513  1.0000
  H   H534      1.0  0.84163  0.35420  0.99562  1.0000
  S   S111      1.0  0.94006  0.14781  0.93698  1.0000
  S   S112      1.0  0.91914  0.23030  0.95302  1.0000
  S   S113      1.0  0.88927  0.22083  0.10002  1.0000
  H   H535      1.0  0.09666  0.11745  0.10949  1.0000
  S   S114      1.0  0.93169  0.40098  0.04086  1.0000
  H   H536      1.0  0.66553  0.15371  0.02293  1.0000
  S   S115      1.0  0.68758  0.46441  0.13325  1.0000
  H   H537      1.0  0.79260  0.48537  0.14583  1.0000
  H   H538      1.0  0.14045  0.11612  0.03987  1.0000
  H   H539      1.0  0.99129  0.31540  0.99659  1.0000
  C   C439      1.0  0.11770  0.31959  0.11862  1.0000
  H   H540      1.0  0.83049  0.21538  0.02165  1.0000
  H   H541      1.0  0.91492  0.45455  0.95405  1.0000
  C   C440      1.0  0.92643  0.45150  0.03269  1.0000
  C   C441      1.0  0.76374  0.04412  0.10819  1.0000
  H   H542      1.0  0.02948  0.06652  0.01787  1.0000
  H   H543      1.0  0.82287  0.04771  0.97880  1.0000
  Fe  Fe60      1.0  0.68353  0.22408  0.15196  1.0000
  C   C442      1.0  0.10250  0.03673  0.05779  1.0000
  H   H544      1.0  0.74155  0.13534  0.14990  1.0000
  H   H545      1.0  0.66879  0.11823  0.11244  1.0000
  H   H546      1.0  0.08066  0.06594  0.95305  1.0000
  H   H547      1.0  0.74344  0.06457  0.03666  1.0000
  C   C443      1.0  0.07245  0.09393  0.94441  1.0000
  H   H548      1.0  0.66765  0.22760  0.94625  1.0000
  C   C444      1.0  0.89904  0.09243  0.16282  1.0000
  C   C445      1.0  0.05273  0.16687  0.92262  1.0000
  H   H549      1.0  0.97391  0.24044  0.25325  1.0000
  H   H550      1.0  0.75142  0.40389  0.27334  1.0000
  C   C446      1.0  0.80801  0.42525  0.21401  1.0000
  C   C447      1.0  0.81707  0.25710  0.26832  1.0000
  H   H551      1.0  0.78808  0.26149  0.41044  1.0000
  S   S116      1.0  0.80142  0.08085  0.40554  1.0000
  H   H552      1.0  0.82312  0.07731  0.23783  1.0000
  S   S117      1.0  0.68856  0.19483  0.34207  1.0000
  C   C448      1.0  0.90354  0.07226  0.26768  1.0000
  H   H553      1.0  0.93647  0.29759  0.37511  1.0000
  C   C449      1.0  0.76391  0.08449  0.17437  1.0000
  C   C450      1.0  0.85624  0.44595  0.20626  1.0000
  H   H554      1.0  0.99418  0.05426  0.36583  1.0000
  N   N32       1.0  0.76911  0.09077  0.22706  1.0000
  H   H555      1.0  0.75950  0.26435  0.25574  1.0000
  H   H556      1.0  0.01186  0.08206  0.21790  1.0000
  H   H557      1.0  0.10901  0.31009  0.31274  1.0000
  C   C451      1.0  0.08441  0.26663  0.22249  1.0000
  C   C452      1.0  0.15325  0.41347  0.23906  1.0000
  S   S118      1.0  0.92048  0.37538  0.19579  1.0000
  H   H558      1.0  0.00521  0.16661  0.26335  1.0000
  C   C453      1.0  0.07826  0.30537  0.20147  1.0000
  H   H559      1.0  0.71976  0.50502  0.21852  1.0000
  C   C454      1.0  0.78768  0.41888  0.26367  1.0000
  H   H560      1.0  0.02775  0.40479  0.32887  1.0000
  S   S119      1.0  0.69198  0.17090  0.21059  1.0000
  H   H561      1.0  0.79822  0.42785  0.34013  1.0000
  H   H562      1.0  0.90450  0.06230  0.30848  1.0000
  H   H563      1.0  0.06609  0.05201  0.41719  1.0000
  S   S120      1.0  0.02144  0.25070  0.37984  1.0000
  C   C455      1.0  0.13992  0.51767  0.24272  1.0000
  C   C456      1.0  0.97968  0.43297  0.38814  1.0000
  H   H564      1.0  0.13170  0.42380  0.30643  1.0000
  H   H565      1.0  0.73858  0.15498  0.39294  1.0000
  C   C457      1.0  0.80554  0.19621  0.34605  1.0000
  H   H566      1.0  0.13624  0.16494  0.39661  1.0000
  C   C458      1.0  0.03358  0.08470  0.18492  1.0000
  Fe  Fe61      1.0  0.93437  0.31580  0.22243  1.0000
  H   H567      1.0  0.72219  0.41150  0.20014  1.0000
  C   C459      1.0  0.09306  0.49388  0.23867  1.0000
  C   C460      1.0  0.86152  0.45278  0.29361  1.0000
  H   H568      1.0  0.06177  0.31555  0.22588  1.0000
  C   C461      1.0  0.97879  0.16244  0.29165  1.0000
  H   H569      1.0  0.02384  0.34680  0.35031  1.0000
  H   H570      1.0  0.81833  0.17702  0.37099  1.0000
  H   H571      1.0  0.05927  0.39699  0.37790  1.0000
  H   H572      1.0  0.15590  0.22664  0.31030  1.0000
  H   H573      1.0  0.06993  0.11046  0.18950  1.0000
  H   H574      1.0  0.76566  0.02364  0.26395  1.0000
  H   H575      1.0  0.12294  0.40743  0.22231  1.0000
  C   C462      1.0  0.07567  0.26075  0.38878  1.0000
  C   C463      1.0  0.15725  0.30197  0.35666  1.0000
  N   N33       1.0  0.02394  0.03531  0.18468  1.0000
  C   C464      1.0  0.96597  0.02627  0.39650  1.0000
  N   N34       1.0  0.98660  0.35909  0.40320  1.0000
  H   H576      1.0  0.12934  0.40108  0.39000  1.0000
  H   H577      1.0  0.70701  0.09060  0.23716  1.0000
  C   C465      1.0  0.15401  0.14608  0.31342  1.0000
  H   H578      1.0  0.71688  0.35236  0.21798  1.0000
  C   C466      1.0  0.78864  0.06444  0.25744  1.0000
  H   H579      1.0  0.72617  0.07534  0.29569  1.0000
  C   C467      1.0  0.11346  0.29251  0.34915  1.0000
  H   H580      1.0  0.88231  0.46449  0.32344  1.0000
  C   C468      1.0  0.99243  0.40210  0.41838  1.0000
  H   H581      1.0  0.67321  0.06994  0.35076  1.0000
  H   H582      1.0  0.87601  0.15223  0.28865  1.0000
  H   H583      1.0  0.96686  0.12839  0.32323  1.0000
  H   H584      1.0  0.83813  0.28424  0.23279  1.0000
  H   H585      1.0  0.88808  0.11399  0.33411  1.0000
  H   H586      1.0  0.07880  0.46755  0.21617  1.0000
  S   S121      1.0  0.11783  0.20826  0.21722  1.0000
  C   C469      1.0  0.81426  0.43246  0.30274  1.0000
  Fe  Fe62      1.0  0.99255  0.42552  0.20806  1.0000
  C   C470      1.0  0.74441  0.20944  0.32665  1.0000
  H   H587      1.0  0.69903  0.03129  0.25874  1.0000
  S   S122      1.0  0.88931  0.24625  0.28548  1.0000
  C   C471      1.0  0.10673  0.25411  0.19136  1.0000
  C   C472      1.0  0.91797  0.13101  0.18635  1.0000
  C   C473      1.0  0.73089  0.38736  0.18684  1.0000
  C   C474      1.0  0.06562  0.50619  0.26147  1.0000
  C   C475      1.0  0.98895  0.47623  0.39926  1.0000
  H   H588      1.0  0.93177  0.21442  0.21323  1.0000
  H   H589      1.0  0.07349  0.24772  0.26311  1.0000
  H   H590      1.0  0.91948  0.47618  0.23841  1.0000
  S   S123      1.0  0.00508  0.36564  0.23900  1.0000
  C   C476      1.0  0.72333  0.07123  0.25590  1.0000
  H   H591      1.0  0.99633  0.19365  0.30952  1.0000
  C   C477      1.0  0.79987  0.14399  0.22477  1.0000
  H   H592      1.0  0.07316  0.03827  0.23417  1.0000
  S   S124      1.0  0.00878  0.48116  0.25094  1.0000
  H   H593      1.0  0.12005  0.14230  0.31633  1.0000
  H   H594      1.0  0.94423  0.35441  0.34313  1.0000
  C   C478      1.0  0.88228  0.04413  0.19126  1.0000
  C   C479      1.0  0.92092  0.12195  0.23976  1.0000
  H   H595      1.0  0.78604  0.03296  0.17941  1.0000
  C   C480      1.0  0.77235  0.24543  0.28110  1.0000
  C   C481      1.0  0.02609  0.37762  0.36320  1.0000
  H   H596      1.0  0.96381  0.42516  0.35445  1.0000
  H   H597      1.0  0.98730  0.22243  0.20104  1.0000
  C   C482      1.0  0.83382  0.23280  0.30099  1.0000
  H   H598      1.0  0.14706  0.10959  0.33516  1.0000
  C   C483      1.0  0.88245  0.45942  0.24553  1.0000
  H   H599      1.0  0.78174  0.34688  0.17942  1.0000
  C   C484      1.0  0.88450  0.03419  0.24364  1.0000
  H   H600      1.0  0.97985  0.49968  0.37453  1.0000
  C   C485      1.0  0.94316  0.33270  0.38173  1.0000
  C   C486      1.0  0.95923  0.21172  0.23172  1.0000
  H   H601      1.0  0.91826  0.17887  0.32892  1.0000
  C   C487      1.0  0.90431  0.15106  0.30628  1.0000
  H   H602      1.0  0.79290  0.07066  0.29648  1.0000
  N   N35       1.0  0.94059  0.16142  0.26644  1.0000
  C   C488      1.0  0.76070  0.18421  0.35874  1.0000
  H   H603      1.0  0.83374  0.16124  0.20026  1.0000
  H   H604      1.0  0.91292  0.32321  0.40818  1.0000
  H   H605      1.0  0.78474  0.16560  0.20921  1.0000
  H   H606      1.0  0.80669  0.14958  0.26365  1.0000
  Fe  Fe63      1.0  0.66009  0.18814  0.26855  1.0000
  N   N36       1.0  0.78144  0.41298  0.17106  1.0000
  H   H607      1.0  0.15355  0.36457  0.40429  1.0000
  C   C489      1.0  0.15843  0.42241  0.28752  1.0000
  H   H608      1.0  0.84618  0.49712  0.41968  1.0000
  C   C490      1.0  0.74837  0.13137  0.66869  1.0000
  H   H609      1.0  0.77243  0.16632  0.47206  1.0000
  C   C491      1.0  0.87794  0.36932  0.48028  1.0000
  S   S125      1.0  0.07255  0.35111  0.66989  1.0000
  C   C492      1.0  0.12562  0.24835  0.44331  1.0000
  H   H610      1.0  0.98922  0.07041  0.45046  1.0000
  H   H611      1.0  0.05044  0.12096  0.65609  1.0000
  H   H612      1.0  0.13002  0.23268  0.48035  1.0000
  H   H613      1.0  0.74096  0.22898  0.54786  1.0000
  H   H614      1.0  0.93402  0.44623  0.59857  1.0000
  Fe  Fe64      1.0  0.06832  0.38014  0.58830  1.0000
  C   C493      1.0  0.91565  0.46469  0.59524  1.0000
  C   C494      1.0  0.70575  0.03604  0.52750  1.0000
  C   C495      1.0  0.81888  0.46988  0.45151  1.0000
  Fe  Fe65      1.0  0.89937  0.15582  0.53923  1.0000
  C   C496      1.0  0.74768  0.39954  0.53314  1.0000
  C   C497      1.0  0.80099  0.12037  0.62246  1.0000
  H   H615      1.0  0.85009  0.39773  0.63112  1.0000
  N   N37       1.0  0.02229  0.06928  0.61030  1.0000
  S   S126      1.0  0.92155  0.11099  0.42907  1.0000
  H   H616      1.0  0.97346  0.10841  0.63344  1.0000
  C   C498      1.0  0.01589  0.41798  0.45989  1.0000
  H   H617      1.0  0.88638  0.40574  0.45927  1.0000
  H   H618      1.0  0.75154  0.46112  0.55127  1.0000
  H   H619      1.0  0.10574  0.07830  0.49076  1.0000
  S   S127      1.0  0.15652  0.17446  0.53133  1.0000
  S   S128      1.0  0.89453  0.18865  0.60104  1.0000
  H   H620      1.0  0.06284  0.12342  0.53766  1.0000
  H   H621      1.0  0.84702  0.24052  0.55956  1.0000
  S   S129      1.0  0.00590  0.38131  0.60814  1.0000
  H   H622      1.0  0.05320  0.21452  0.46672  1.0000
  C   C499      1.0  0.90296  0.36488  0.51877  1.0000
  S   S130      1.0  0.96440  0.15849  0.52361  1.0000
  C   C500      1.0  0.08181  0.23834  0.43566  1.0000
  C   C501      1.0  0.76524  0.44975  0.52533  1.0000
  S   S131      1.0  0.76437  0.26622  0.64439  1.0000
  C   C502      1.0  0.95440  0.06849  0.64647  1.0000
  S   S132      1.0  0.11789  0.45960  0.58611  1.0000
  H   H623      1.0  0.97818  0.28844  0.43575  1.0000
  C   C503      1.0  0.06727  0.27309  0.60925  1.0000
  C   C504      1.0  0.93926  0.51570  0.57208  1.0000
  S   S133      1.0  0.85295  0.07755  0.53556  1.0000
  C   C505      1.0  0.76614  0.38429  0.50100  1.0000
  C   C506      1.0  0.84497  0.46111  0.60926  1.0000
  H   H624      1.0  0.02837  0.39795  0.48396  1.0000
  H   H625      1.0  0.80648  0.10051  0.59965  1.0000
  C   C507      1.0  0.74764  0.06185  0.49374  1.0000
  Fe  Fe66      1.0  0.85916  0.11071  0.45140  1.0000
  H   H626      1.0  0.06957  0.05803  0.57206  1.0000
  C   C508      1.0  0.89174  0.31817  0.54646  1.0000
  C   C509      1.0  0.80174  0.20017  0.48001  1.0000
  C   C510      1.0  0.13967  0.27139  0.56593  1.0000
  C   C511      1.0  0.03366  0.03675  0.59292  1.0000
  C   C512      1.0  0.82801  0.27869  0.49828  1.0000
  C   C513      1.0  0.74874  0.05296  0.44562  1.0000
  N   N38       1.0  0.78749  0.23280  0.49090  1.0000
  H   H627      1.0  0.14566  0.32611  0.50008  1.0000
  H   H628      1.0  0.82232  0.33307  0.44061  1.0000
  C   C514      1.0  0.83090  0.18798  0.66192  1.0000
  C   C515      1.0  0.97435  0.04228  0.63737  1.0000
  Fe  Fe67      1.0  0.91786  0.08238  0.51336  1.0000
  C   C516      1.0  0.09067  0.04267  0.42955  1.0000
  H   H629      1.0  0.03484  0.14176  0.57360  1.0000
  H   H630      1.0  0.93082  0.39767  0.52744  1.0000
  C   C517      1.0  0.09171  0.30460  0.56026  1.0000
  C   C518      1.0  0.08057  0.24253  0.63754  1.0000
  S   S134      1.0  0.70101  0.31087  0.65771  1.0000
  H   H631      1.0  0.95927  0.30987  0.48037  1.0000
  C   C519      1.0  0.02482  0.46127  0.47084  1.0000
  C   C520      1.0  0.84111  0.32700  0.46981  1.0000
  H   H632      1.0  0.72677  0.07213  0.63378  1.0000
  H   H633      1.0  0.81543  0.40757  0.43439  1.0000
  H   H634      1.0  0.91089  0.31439  0.57671  1.0000
  C   C521      1.0  0.98566  0.32192  0.44692  1.0000
  S   S135      1.0  0.08156  0.34984  0.52862  1.0000
  H   H635      1.0  0.72202  0.17069  0.53528  1.0000
  C   C522      1.0  0.01140  0.49033  0.44058  1.0000
  H   H636      1.0  0.82940  0.21987  0.44581  1.0000
  C   C523      1.0  0.85496  0.27580  0.53635  1.0000
  C   C524      1.0  0.86841  0.51227  0.58685  1.0000
  C   C525      1.0  0.12713  0.30267  0.53820  1.0000
  C   C526      1.0  0.11283  0.05724  0.47140  1.0000
  H   H637      1.0  0.71902  0.37260  0.56327  1.0000
  Fe  Fe68      1.0  0.96267  0.18692  0.44046  1.0000
  H   H638      1.0  0.03812  0.27240  0.62531  1.0000
  Fe  Fe69      1.0  0.05600  0.45850  0.61394  1.0000
  C   C527      1.0  0.86855  0.43742  0.61376  1.0000
  H   H639      1.0  0.04289  0.47282  0.50255  1.0000
  H   H640      1.0  0.01968  0.33571  0.45981  1.0000
  C   C528      1.0  0.05380  0.09209  0.64621  1.0000
  S   S136      1.0  0.90013  0.18877  0.45672  1.0000
  C   C529      1.0  0.76428  0.24196  0.44791  1.0000
  C   C530      1.0  0.83847  0.16297  0.63152  1.0000
  H   H641      1.0  0.73400  0.20688  0.44339  1.0000
  C   C531      1.0  0.80143  0.41937  0.45967  1.0000
  H   H642      1.0  0.70510  0.04159  0.56527  1.0000
  C   C532      1.0  0.11736  0.24226  0.61607  1.0000
  S   S137      1.0  0.13642  0.20686  0.65231  1.0000
  C   C533      1.0  0.80056  0.48488  0.48447  1.0000
  H   H643      1.0  0.81463  0.18660  0.51298  1.0000
  H   H644      1.0  0.80804  0.43944  0.62249  1.0000
  H   H645      1.0  0.00263  0.09489  0.54077  1.0000
  C   C534      1.0  0.96328  0.03523  0.44436  1.0000
  C   C535      1.0  0.75292  0.20590  0.53862  1.0000
  H   H646      1.0  0.77909  0.08810  0.50528  1.0000
  H   H647      1.0  0.09055  0.10964  0.62989  1.0000
  H   H648      1.0  0.76702  0.19594  0.57255  1.0000
  C   C536      1.0  0.03088  0.10898  0.56396  1.0000
  C   C537      1.0  0.75592  0.10424  0.64169  1.0000
  H   H649      1.0  0.75029  0.26402  0.45470  1.0000
  S   S138      1.0  0.74585  0.32158  0.51349  1.0000
  Fe  Fe70      1.0  0.71983  0.28407  0.59794  1.0000
  C   C538      1.0  0.14520  0.04591  0.48677  1.0000
  S   S139      1.0  0.70018  0.50133  0.56046  1.0000
  Fe  Fe71      1.0  0.11826  0.43026  0.66899  1.0000
  H   H650      1.0  0.85975  0.22108  0.66898  1.0000
  C   C539      1.0  0.72474  0.66421  0.69302  1.0000
  H   H651      1.0  0.72807  0.96262  0.84347  1.0000
  C   C540      1.0  0.04035  0.59703  0.68230  1.0000
  C   C541      1.0  0.72493  0.70804  0.83526  1.0000
  S   S140      1.0  0.99821  0.56919  0.78223  1.0000
  H   H652      1.0  0.88194  0.92550  0.69833  1.0000
  C   C542      1.0  0.00445  0.96909  0.76568  1.0000
  H   H653      1.0  0.82176  0.63194  0.81151  1.0000
  C   C543      1.0  0.91187  0.77178  0.86056  1.0000
  C   C544      1.0  0.81779  0.60229  0.79485  1.0000
  Fe  Fe72      1.0  0.79282  0.87297  0.91010  1.0000
  C   C545      1.0  0.70990  0.96399  0.81142  1.0000
  H   H654      1.0  0.87900  0.63684  0.85375  1.0000
  C   C546      1.0  0.01082  0.55789  0.72547  1.0000
  S   S141      1.0  0.78367  0.80933  0.88450  1.0000
  C   C547      1.0  0.67999  0.69225  0.85474  1.0000
  S   S142      1.0  0.13155  0.97317  0.82175  1.0000
  C   C548      1.0  0.02037  0.79298  0.91329  1.0000
  H   H655      1.0  0.92398  0.80500  0.82982  1.0000
  H   H656      1.0  0.13967  0.96085  0.71302  1.0000
  S   S143      1.0  0.87666  0.84686  0.77722  1.0000
  C   C549      1.0  0.80144  0.54203  0.87515  1.0000
  Fe  Fe73      1.0  0.07608  0.74805  0.79618  1.0000
  C   C550      1.0  0.90211  0.72534  0.70388  1.0000
  C   C551      1.0  0.87837  0.74901  0.69477  1.0000
  H   H657      1.0  0.69920  0.62340  0.70724  1.0000
  C   C552      1.0  0.87241  0.53108  0.80084  1.0000
  Fe  Fe74      1.0  0.72747  0.80909  0.84540  1.0000
  H   H658      1.0  0.90031  0.54821  0.82221  1.0000
  Fe  Fe75      1.0  0.07503  0.74563  0.68451  1.0000
  C   C553      1.0  0.03025  0.96445  0.72957  1.0000
  C   C554      1.0  0.83634  0.53984  0.79880  1.0000
  H   H659      1.0  0.03771  0.88153  0.87574  1.0000
  C   C555      1.0  0.88321  0.99204  0.69038  1.0000
  S   S144      1.0  0.10976  0.79042  0.85377  1.0000
  H   H660      1.0  0.84203  0.74196  0.84718  1.0000
  C   C556      1.0  0.87961  0.60847  0.83874  1.0000
  C   C557      1.0  0.70670  0.62422  0.86805  1.0000
  H   H661      1.0  0.04967  0.83900  0.81507  1.0000
  C   C558      1.0  0.73109  0.97693  0.76115  1.0000
  N   N39       1.0  0.99301  0.80431  0.87757  1.0000
  C   C559      1.0  0.15032  0.55466  0.67486  1.0000
  S   S145      1.0  0.93020  0.72874  0.75762  1.0000
  C   C560      1.0  0.86468  0.73530  0.86990  1.0000
  H   H662      1.0  0.93660  0.93722  0.80750  1.0000
  H   H663      1.0  0.94611  0.85481  0.71106  1.0000
  S   S146      1.0  0.00194  0.68046  0.69979  1.0000
  S   S147      1.0  0.08813  0.01129  0.70511  1.0000
  C   C561      1.0  0.66176  0.60857  0.88715  1.0000
  C   C562      1.0  0.01176  0.81103  0.82464  1.0000
  H   H664      1.0  0.98596  0.86675  0.85100  1.0000
  H   H665      1.0  0.90639  0.62897  0.80367  1.0000
  H   H666      1.0  0.05752  0.82365  0.90465  1.0000
  C   C563      1.0  0.95693  0.93306  0.78086  1.0000
  H   H667      1.0  0.02904  0.91964  0.68270  1.0000
  C   C564      1.0  0.70810  0.98082  0.71979  1.0000
  C   C565      1.0  0.73788  0.67382  0.84081  1.0000
  H   H668      1.0  0.83747  0.62062  0.75505  1.0000
  C   C566      1.0  0.76715  0.77229  0.68321  1.0000
  H   H669      1.0  0.74210  0.67587  0.72619  1.0000
  H   H670      1.0  0.92060  0.68013  0.67761  1.0000
  S   S148      1.0  0.00354  0.68163  0.82053  1.0000
  H   H671      1.0  0.82469  0.84213  0.68924  1.0000
  H   H672      1.0  0.76377  0.75504  0.72348  1.0000
  H   H673      1.0  0.01985  0.75986  0.90963  1.0000
  S   S149      1.0  0.77442  0.86107  0.77179  1.0000
  Fe  Fe76      1.0  0.98842  0.71816  0.75023  1.0000
  H   H674      1.0  0.68661  0.69675  0.74710  1.0000
  S   S150      1.0  0.66392  0.73503  0.84993  1.0000
  H   H675      1.0  0.84831  0.97251  0.70998  1.0000
  C   C567      1.0  0.90218  0.96543  0.68362  1.0000
  C   C568      1.0  0.66492  0.95247  0.82051  1.0000
  H   H676      1.0  0.02073  0.00121  0.78044  1.0000
  C   C569      1.0  0.96218  0.88665  0.72640  1.0000
  H   H677      1.0  0.00553  0.77555  0.82026  1.0000
  Fe  Fe77      1.0  0.11549  0.99807  0.88510  1.0000
  Fe  Fe78      1.0  0.02326  0.64936  0.76813  1.0000
  Fe  Fe79      1.0  0.78451  0.92165  0.80515  1.0000
  H   H678      1.0  0.79897  0.56544  0.89727  1.0000
  H   H679      1.0  0.87776  0.76942  0.72064  1.0000
  C   C570      1.0  0.93585  0.89201  0.76083  1.0000
  S   S151      1.0  0.05982  0.78630  0.72857  1.0000
  H   H680      1.0  0.77224  0.68588  0.82482  1.0000
  C   C571      1.0  0.00908  0.92317  0.71031  1.0000
  H   H681      1.0  0.05524  0.63493  0.68320  1.0000
  S   S152      1.0  0.09764  0.71258  0.75007  1.0000
  S   S153      1.0  0.84593  0.92992  0.84094  1.0000
  C   C572      1.0  0.94312  0.76489  0.88869  1.0000
  H   H682      1.0  0.78039  0.57971  0.79244  1.0000
  S   S154      1.0  0.78441  0.98386  0.75030  1.0000
  N   N40       1.0  0.83409  0.57277  0.82629  1.0000
  H   H683      1.0  0.72525  0.99265  0.68075  1.0000
  N   N41       1.0  0.70249  0.69093  0.67220  1.0000
  H   H684      1.0  0.99537  0.82321  0.79486  1.0000
  Fe  Fe80      1.0  0.83144  0.86511  0.81296  1.0000
  H   H685      1.0  0.89106  0.59019  0.86922  1.0000
  C   C573      1.0  0.14605  0.77367  0.88229  1.0000
  S   S155      1.0  0.73221  0.86867  0.87634  1.0000
  C   C574      1.0  0.00035  0.85200  0.88107  1.0000
  S   S156      1.0  0.72447  0.58249  0.87989  1.0000
  H   H686      1.0  0.74957  0.74650  0.81519  1.0000
  C   C575      1.0  0.66964  0.68353  0.71448  1.0000
  H   H687      1.0  0.15064  0.90356  0.77899  1.0000
  H   H688      1.0  0.13801  0.53621  0.71696  1.0000
  H   H689      1.0  0.68221  0.83528  0.67286  1.0000
  H   H690      1.0  0.81045  0.66205  0.91397  1.0000
  C   C576      1.0  0.15520  0.94267  0.70134  1.0000
  C   C577      1.0  0.66217  0.96723  0.72914  1.0000
  H   H691      1.0  0.93266  0.95190  0.89553  1.0000
  H   H692      1.0  0.15624  0.61780  0.72592  1.0000
  C   C578      1.0  0.84708  0.69051  0.90732  1.0000
  H   H693      1.0  0.74040  0.91166  0.68668  1.0000
  C   C579      1.0  0.90267  0.69881  0.67049  1.0000
  H   H694      1.0  0.98460  0.84824  0.91933  1.0000
  C   C580      1.0  0.69180  0.68355  0.02621  1.0000
  H   H695      1.0  0.94562  0.70839  0.94692  1.0000
  H   H696      1.0  0.11850  0.91561  0.07995  1.0000
  H   H697      1.0  0.82441  0.78606  0.97212  1.0000
  S   S157      1.0  0.66745  0.89774  0.01237  1.0000
  C   C581      1.0  0.84393  0.78540  0.06648  1.0000
  H   H698      1.0  0.15571  0.82798  0.09125  1.0000
  H   H699      1.0  0.86351  0.64665  0.96351  1.0000
  Fe  Fe81      1.0  0.00292  0.70476  0.09672  1.0000
  C   C582      1.0  0.03353  0.86283  0.02618  1.0000
  H   H700      1.0  0.68410  0.75115  0.95209  1.0000
  C   C583      1.0  0.85025  0.96313  0.98018  1.0000
  C   C584      1.0  0.83737  0.91665  0.01139  1.0000
  H   H701      1.0  0.00960  0.79280  0.08080  1.0000
  C   C585      1.0  0.89547  0.00209  0.04318  1.0000
  H   H702      1.0  0.77025  0.01906  0.09573  1.0000
  C   C586      1.0  0.05323  0.64026  0.99431  1.0000
  S   S158      1.0  0.79963  0.86240  0.99372  1.0000
  S   S159      1.0  0.06343  0.95081  0.95652  1.0000
  C   C587      1.0  0.96091  0.93633  0.01500  1.0000
  C   C588      1.0  0.08536  0.62794  0.07283  1.0000
  H   H703      1.0  0.81953  0.79712  0.05736  1.0000
  C   C589      1.0  0.07082  0.81806  0.02922  1.0000
  H   H704      1.0  0.08554  0.69135  0.12388  1.0000
  H   H705      1.0  0.12788  0.92544  0.93279  1.0000
  C   C590      1.0  0.72953  0.52444  0.13558  1.0000
  C   C591      1.0  0.90596  0.88133  0.95047  1.0000
  H   H706      1.0  0.88510  0.86262  0.92376  1.0000
  C   C592      1.0  0.78882  0.61001  0.09216  1.0000
  C   C593      1.0  0.15547  0.93465  0.06966  1.0000
  H   H707      1.0  0.80926  0.63874  0.05695  1.0000
  C   C594      1.0  0.87921  0.00583  0.99621  1.0000
  H   H708      1.0  0.15017  0.80022  0.15855  1.0000
  H   H709      1.0  0.87227  0.78485  0.94644  1.0000
  C   C595      1.0  0.10992  0.84802  0.15540  1.0000
  C   C596      1.0  0.10205  0.89652  0.96497  1.0000
  H   H710      1.0  0.77888  0.90925  0.12103  1.0000
  H   H711      1.0  0.12646  0.77445  0.95795  1.0000
  H   H712      1.0  0.96431  0.01409  0.14697  1.0000
  C   C597      1.0  0.11857  0.69354  0.11890  1.0000
  S   S160      1.0  0.66123  0.53557  0.01584  1.0000
  H   H713      1.0  0.00689  0.86625  0.04190  1.0000
  C   C598      1.0  0.03744  0.59245  0.99194  1.0000
  H   H714      1.0  0.15262  0.61665  0.10777  1.0000
  C   C599      1.0  0.84961  0.77563  0.98220  1.0000
  Fe  Fe82      1.0  0.90355  0.66871  0.13353  1.0000
  H   H715      1.0  0.08767  0.69510  0.03361  1.0000
  C   C600      1.0  0.06983  0.57983  0.06841  1.0000
  N   N42       1.0  0.11048  0.64555  0.11531  1.0000
  H   H716      1.0  0.09082  0.83496  0.12381  1.0000
  H   H717      1.0  0.73524  0.87339  0.05450  1.0000
  H   H718      1.0  0.74106  0.66252  0.03542  1.0000
  H   H719      1.0  0.82321  0.74454  0.08333  1.0000
  C   C601      1.0  0.15607  0.65206  0.10724  1.0000
  C   C602      1.0  0.75436  0.56232  0.09000  1.0000
  C   C603      1.0  0.79776  0.61996  0.13989  1.0000
  H   H720      1.0  0.98229  0.95777  0.03989  1.0000
  H   H721      1.0  0.13130  0.85242  0.97259  1.0000
  S   S161      1.0  0.98706  0.62769  0.11531  1.0000
  H   H722      1.0  0.71585  0.91418  0.11372  1.0000
  H   H723      1.0  0.89557  0.95238  0.11017  1.0000
  C   C604      1.0  0.90739  0.78244  0.03395  1.0000
  H   H724      1.0  0.69311  0.68425  0.98593  1.0000
  H   H725      1.0  0.93543  0.86759  0.07080  1.0000
  H   H726      1.0  0.14139  0.72439  0.08432  1.0000
  C   C605      1.0  0.87691  0.68198  0.93513  1.0000
  C   C606      1.0  0.71027  0.95958  0.98097  1.0000
  C   C607      1.0  0.69107  0.87504  0.13643  1.0000
  C   C608      1.0  0.96043  0.96050  0.96582  1.0000
  H   H727      1.0  0.68397  0.78375  0.99664  1.0000
  N   N43       1.0  0.87698  0.80073  0.02005  1.0000
  C   C609      1.0  0.72083  0.67146  0.10563  1.0000
  H   H728      1.0  0.84443  0.87718  0.08216  1.0000
  C   C610      1.0  0.03516  0.82140  0.04817  1.0000
  H   H729      1.0  0.86139  0.80172  0.09746  1.0000
  H   H730      1.0  0.01582  0.95622  0.15730  1.0000
  H   H731      1.0  0.93585  0.79760  0.00181  1.0000
  S   S162      1.0  0.89861  0.57268  0.01631  1.0000
  C   C611      1.0  0.10435  0.85562  0.98780  1.0000
  H   H732      1.0  0.00782  0.78694  0.95406  1.0000
  H   H733      1.0  0.76333  0.96005  0.02235  1.0000
  H   H734      1.0  0.67753  0.82079  0.07097  1.0000
  C   C612      1.0  0.85391  0.91298  0.05813  1.0000
  H   H735      1.0  0.92308  0.79252  0.06846  1.0000
  S   S163      1.0  0.88130  0.58945  0.15456  1.0000
  C   C613      1.0  0.93318  0.93307  0.93362  1.0000
  C   C614      1.0  0.66228  0.69376  0.05001  1.0000
  H   H736      1.0  0.01844  0.57867  0.96157  1.0000
  C   C615      1.0  0.91150  0.52785  0.02174  1.0000
  N   N44       1.0  0.70957  0.84359  0.13597  1.0000
  C   C616      1.0  0.88310  0.95561  0.07388  1.0000
  H   H737      1.0  0.03323  0.52503  0.02691  1.0000
  C   C617      1.0  0.75471  0.98149  0.99392  1.0000
  S   S164      1.0  0.94223  0.68765  0.05656  1.0000
  C   C618      1.0  0.93390  0.88462  0.03228  1.0000
  C   C619      1.0  0.69996  0.98758  0.94358  1.0000
  S   S165      1.0  0.84474  0.67739  0.14259  1.0000
  C   C620      1.0  0.06668  0.90009  0.98437  1.0000
  H   H738      1.0  0.93314  0.78208  0.15860  1.0000
  H   H739      1.0  0.05958  0.95722  0.08521  1.0000
  C   C621      1.0  0.08412  0.60867  0.16567  1.0000
  C   C622      1.0  0.66127  0.75290  0.97964  1.0000
  H   H740      1.0  0.74262  0.66224  0.12717  1.0000
  H   H741      1.0  0.74820  0.55445  0.05310  1.0000
  H   H742      1.0  0.82915  0.73457  0.99783  1.0000
  C   C623      1.0  0.72002  0.67182  0.05396  1.0000
  H   H743      1.0  0.88814  0.74135  0.04352  1.0000
  C   C624      1.0  0.04587  0.56234  0.02880  1.0000
  H   H744      1.0  0.83705  0.96606  0.94431  1.0000
  H   H745      1.0  0.04695  0.66382  0.96531  1.0000
  C   C625      1.0  0.90535  0.85547  0.00065  1.0000
  H   H746      1.0  0.98113  0.00054  0.95273  1.0000
  C   C626      1.0  0.06723  0.99204  0.09094  1.0000
  S   S166      1.0  0.07386  0.76733  0.05791  1.0000
  C   C627      1.0  0.07690  0.65795  0.03398  1.0000
  H   H747      1.0  0.72470  0.81311  0.08196  1.0000
  C   C628      1.0  0.66421  0.69338  0.10276  1.0000
  C   C629      1.0  0.04192  0.99186  0.13188  1.0000
  H   H748      1.0  0.07590  0.55526  0.09568  1.0000
  H   H749      1.0  0.67000  0.96464  0.08759  1.0000
  C   C630      1.0  0.69339  0.68272  0.12977  1.0000
  Fe  Fe83      1.0  0.92373  0.60975  0.07942  1.0000
  H   H750      1.0  0.15739  0.53967  0.12862  1.0000
  C   C631      1.0  0.71174  0.83724  0.08372  1.0000
  C   C632      1.0  0.14781  0.76844  0.93499  1.0000
  H   H751      1.0  0.10177  0.87331  0.16662  1.0000
  H   H752      1.0  0.13595  0.70476  0.15228  1.0000
  H   H753      1.0  0.66591  0.97128  0.93353  1.0000
  H   H754      1.0  0.08209  0.57353  0.16973  1.0000
  C   C633      1.0  0.75753  0.87089  0.14711  1.0000
  H   H755      1.0  0.77596  0.85279  0.14136  1.0000
  C   C634      1.0  0.92432  0.71825  0.92563  1.0000
  H   H756      1.0  0.92699  0.52785  0.09876  1.0000
  H   H757      1.0  0.65918  0.86272  0.11901  1.0000
  H   H758      1.0  0.15622  0.98917  0.00766  1.0000
  H   H759      1.0  0.69404  0.68216  0.17009  1.0000
  Fe  Fe84      1.0  0.94652  0.61598  0.18842  1.0000
  C   C635      1.0  0.73869  0.53435  0.18326  1.0000
  H   H760      1.0  0.78012  0.58963  0.22231  1.0000
  C   C636      1.0  0.69185  0.92146  0.26651  1.0000
  Fe  Fe85      1.0  0.04751  0.87586  0.25444  1.0000
  H   H761      1.0  0.73974  0.73925  0.40915  1.0000
  C   C637      1.0  0.66693  0.93972  0.24155  1.0000
  C   C638      1.0  0.87639  0.61301  0.35017  1.0000
  S   S167      1.0  0.01493  0.86055  0.18397  1.0000
  H   H762      1.0  0.14143  0.98593  0.39842  1.0000
  H   H763      1.0  0.68181  0.70644  0.26659  1.0000
  C   C639      1.0  0.77257  0.58224  0.18541  1.0000
  C   C640      1.0  0.69674  0.77033  0.20667  1.0000
  C   C641      1.0  0.84752  0.72843  0.41204  1.0000
  H   H764      1.0  0.83842  0.58950  0.36360  1.0000
  C   C642      1.0  0.99563  0.61091  0.29455  1.0000
  S   S168      1.0  0.80385  0.77556  0.24369  1.0000
  H   H765      1.0  0.10000  0.62224  0.19888  1.0000
  H   H766      1.0  0.88322  0.64143  0.24999  1.0000
  C   C643      1.0  0.13249  0.00469  0.41930  1.0000
  H   H767      1.0  0.81322  0.73913  0.34952  1.0000
  H   H768      1.0  0.70821  0.01372  0.39281  1.0000
  S   S169      1.0  0.73353  0.81552  0.31278  1.0000
  Fe  Fe86      1.0  0.76333  0.83277  0.38410  1.0000
  C   C644      1.0  0.10057  0.01635  0.40346  1.0000
  H   H769      1.0  0.01757  0.01546  0.26771  1.0000
  H   H770      1.0  0.03332  0.61467  0.41041  1.0000
  H   H771      1.0  0.06342  0.55051  0.30750  1.0000
  S   S170      1.0  0.00916  0.86924  0.32641  1.0000
  S   S171      1.0  0.83582  0.90361  0.24791  1.0000
  Fe  Fe87      1.0  0.03803  0.82701  0.36716  1.0000
  C   C645      1.0  0.03721  0.64879  0.26234  1.0000
  H   H772      1.0  0.75786  0.87407  0.18720  1.0000
  C   C646      1.0  0.87258  0.66002  0.27123  1.0000
  C   C647      1.0  0.89621  0.84010  0.24300  1.0000
  C   C648      1.0  0.95648  0.83837  0.19876  1.0000
  H   H773      1.0  0.10965  0.70303  0.25890  1.0000
  S   S172      1.0  0.07463  0.00040  0.34960  1.0000
  C   C649      1.0  0.94221  0.69486  0.30811  1.0000
  H   H774      1.0  0.09507  0.81460  0.18892  1.0000
  H   H775      1.0  0.95558  0.67892  0.28610  1.0000
  Fe  Fe88      1.0  0.85843  0.91393  0.32373  1.0000
  H   H776      1.0  0.96866  0.88993  0.24234  1.0000
  H   H777      1.0  0.89349  0.61269  0.38459  1.0000
  N   N45       1.0  0.89111  0.66380  0.32051  1.0000
  C   C650      1.0  0.07609  0.66133  0.33721  1.0000
  H   H778      1.0  0.02544  0.97681  0.23820  1.0000
  Fe  Fe89      1.0  0.13336  0.90038  0.30295  1.0000
  C   C651      1.0  0.86264  0.80026  0.22615  1.0000
  C   C652      1.0  0.08459  0.54090  0.28985  1.0000
  S   S173      1.0  0.74260  0.93503  0.23275  1.0000
  S   S174      1.0  0.93069  0.97304  0.32648  1.0000
  C   C653      1.0  0.97364  0.00261  0.18447  1.0000
  H   H779      1.0  0.96158  0.96302  0.19185  1.0000
  H   H780      1.0  0.14622  0.59222  0.31497  1.0000
  S   S175      1.0  0.79800  0.91465  0.35263  1.0000
  C   C654      1.0  0.87527  0.68552  0.35148  1.0000
  C   C655      1.0  0.93091  0.98201  0.38768  1.0000
  C   C656      1.0  0.88752  0.68864  0.40110  1.0000
  H   H781      1.0  0.95464  0.73314  0.28476  1.0000
  H   H782      1.0  0.95275  0.00371  0.21521  1.0000
  H   H783      1.0  0.83419  0.63772  0.27789  1.0000
  H   H784      1.0  0.03824  0.65849  0.22111  1.0000
  H   H785      1.0  0.84990  0.74850  0.18341  1.0000
  Fe  Fe90      1.0  0.77265  0.89752  0.27992  1.0000
  C   C657      1.0  0.03548  0.01559  0.23307  1.0000
  S   S176      1.0  0.12588  0.69164  0.36511  1.0000
  C   C658      1.0  0.99422  0.59878  0.34796  1.0000
  C   C659      1.0  0.07760  0.67369  0.28368  1.0000
  C   C660      1.0  0.83444  0.72549  0.36374  1.0000
  S   S177      1.0  0.07242  0.82900  0.29513  1.0000
  H   H786      1.0  0.73319  0.78701  0.20708  1.0000
  C   C661      1.0  0.84826  0.70478  0.33354  1.0000
  Fe  Fe91      1.0  0.79921  0.82284  0.28742  1.0000
  H   H787      1.0  0.88500  0.59423  0.32686  1.0000
  H   H788      1.0  0.87175  0.99689  0.26600  1.0000
  C   C662      1.0  0.92299  0.79889  0.18140  1.0000
  H   H789      1.0  0.69543  0.87877  0.33746  1.0000
  H   H790      1.0  0.96206  0.56973  0.37290  1.0000
  S   S178      1.0  0.11155  0.94771  0.25578  1.0000
  H   H791      1.0  0.83716  0.70426  0.29636  1.0000
  H   H792      1.0  0.88633  0.85595  0.26725  1.0000
  H   H793      1.0  0.86775  0.01452  0.17252  1.0000
  H   H794      1.0  0.95879  0.69826  0.34331  1.0000
  C   C663      1.0  0.94303  0.85910  0.22930  1.0000
  H   H795      1.0  0.88517  0.69714  0.24476  1.0000
  C   C664      1.0  0.13155  0.56486  0.29356  1.0000
  S   S179      1.0  0.82624  0.83330  0.36170  1.0000
  Fe  Fe92      1.0  0.07518  0.93767  0.33127  1.0000
  C   C665      1.0  0.03430  0.62424  0.36921  1.0000
  S   S180      1.0  0.10081  0.89454  0.37869  1.0000
  C   C666      1.0  0.87608  0.77968  0.19556  1.0000
  C   C667      1.0  0.66734  0.72364  0.24125  1.0000
  S   S181      1.0  0.94488  0.57820  0.26919  1.0000
  H   H796      1.0  0.78899  0.97508  0.40882  1.0000
  C   C668      1.0  0.67609  0.89273  0.31788  1.0000
  H   H797      1.0  0.67929  0.96242  0.20202  1.0000
  C   C669      1.0  0.67919  0.79418  0.17301  1.0000
  H   H798      1.0  0.90798  0.67482  0.41735  1.0000
  H   H799      1.0  0.68299  0.87505  0.17637  1.0000
  S   S182      1.0  0.96636  0.69456  0.17194  1.0000
  H   H800      1.0  0.04801  0.59914  0.17125  1.0000
  H   H801      1.0  0.95394  0.90513  0.42002  1.0000
  C   C670      1.0  0.03425  0.53828  0.63764  1.0000
  H   H802      1.0  0.88377  0.71171  0.46853  1.0000
  H   H803      1.0  0.84230  0.00182  0.47131  1.0000
  H   H804      1.0  0.99664  0.80384  0.64391  1.0000
  C   C671      1.0  0.74154  0.91976  0.55671  1.0000
  H   H805      1.0  0.11941  0.54984  0.65833  1.0000
  Fe  Fe93      1.0  0.69323  0.56561  0.53167  1.0000
  H   H806      1.0  0.78155  0.91317  0.64428  1.0000
  H   H807      1.0  0.72665  0.75254  0.57014  1.0000
  H   H808      1.0  0.93719  0.65889  0.53334  1.0000
  H   H809      1.0  0.83707  0.88529  0.59709  1.0000
  H   H810      1.0  0.07501  0.61733  0.60527  1.0000
  H   H811      1.0  0.03286  0.00912  0.62572  1.0000
  H   H812      1.0  0.14533  0.94287  0.55291  1.0000
  C   C672      1.0  0.00526  0.83614  0.61315  1.0000
  S   S183      1.0  0.76553  0.61729  0.49001  1.0000
  S   S184      1.0  0.82123  0.54737  0.47447  1.0000
  H   H813      1.0  0.03576  0.95351  0.50720  1.0000
  H   H814      1.0  0.81462  0.96875  0.56302  1.0000
  S   S185      1.0  0.71623  0.79281  0.45983  1.0000
  C   C673      1.0  0.91209  0.85669  0.51947  1.0000
  C   C674      1.0  0.05428  0.92401  0.57339  1.0000
  H   H815      1.0  0.00450  0.66310  0.54802  1.0000
  H   H816      1.0  0.92066  0.58464  0.47025  1.0000
  C   C675      1.0  0.78153  0.82052  0.57911  1.0000
  H   H817      1.0  0.87937  0.67503  0.60254  1.0000
  C   C676      1.0  0.91637  0.61810  0.55091  1.0000
  H   H818      1.0  0.78704  0.83907  0.53851  1.0000
  H   H819      1.0  0.69732  0.67066  0.60085  1.0000
  H   H820      1.0  0.92461  0.78834  0.50401  1.0000
  C   C677      1.0  0.97681  0.83157  0.57567  1.0000
  H   H821      1.0  0.97228  0.64425  0.46595  1.0000
  H   H822      1.0  0.95939  0.96679  0.65380  1.0000
  H   H823      1.0  0.70658  0.64969  0.42451  1.0000
  H   H824      1.0  0.98034  0.61279  0.60599  1.0000
  C   C678      1.0  0.85564  0.71967  0.61901  1.0000
  C   C679      1.0  0.97613  0.91142  0.45068  1.0000
  C   C680      1.0  0.66579  0.99459  0.46401  1.0000
  C   C681      1.0  0.66508  0.00115  0.51335  1.0000
  S   S186      1.0  0.71068  0.59174  0.60232  1.0000
  H   H825      1.0  0.08924  0.79081  0.42922  1.0000
  C   C682      1.0  0.87407  0.71006  0.43065  1.0000
  H   H826      1.0  0.97421  0.58983  0.47802  1.0000
  C   C683      1.0  0.15474  0.01938  0.46084  1.0000
  C   C684      1.0  0.98645  0.62213  0.56313  1.0000
  C   C685      1.0  0.69126  0.66220  0.44730  1.0000
  H   H827      1.0  0.92727  0.82241  0.44193  1.0000
  C   C686      1.0  0.78936  0.95467  0.53793  1.0000
  C   C687      1.0  0.87881  0.69536  0.62843  1.0000
  N   N46       1.0  0.72147  0.90343  0.61172  1.0000
  C   C688      1.0  0.73827  0.74447  0.65090  1.0000
  H   H828      1.0  0.13259  0.67384  0.52315  1.0000
  H   H829      1.0  0.89433  0.82252  0.55216  1.0000
  C   C689      1.0  0.05167  0.58713  0.63821  1.0000
  C   C690      1.0  0.80950  0.84652  0.61192  1.0000
  S   S187      1.0  0.91822  0.01341  0.53969  1.0000
  H   H830      1.0  0.77593  0.96561  0.63499  1.0000
  C   C691      1.0  0.71024  0.71295  0.43882  1.0000
  H   H831      1.0  0.88531  0.60420  0.53174  1.0000
  C   C692      1.0  0.92619  0.99934  0.48351  1.0000
  H   H832      1.0  0.91786  0.88766  0.53481  1.0000
  C   C693      1.0  0.75650  0.92434  0.64564  1.0000
  H   H833      1.0  0.83870  0.76636  0.64395  1.0000
  C   C694      1.0  0.03759  0.76148  0.57074  1.0000
  H   H834      1.0  0.01924  0.52434  0.44861  1.0000
  H   H835      1.0  0.70752  0.96052  0.60102  1.0000
  C   C695      1.0  0.80601  0.97389  0.48506  1.0000
  C   C696      1.0  0.07483  0.78270  0.46870  1.0000
  C   C697      1.0  0.10235  0.78797  0.50739  1.0000
  H   H836      1.0  0.08382  0.96013  0.57339  1.0000
  Fe  Fe94      1.0  0.72255  0.53090  0.62908  1.0000
  H   H837      1.0  0.90575  0.61116  0.59263  1.0000
  C   C698      1.0  0.04436  0.88214  0.61151  1.0000
  S   S188      1.0  0.11776  0.78219  0.60660  1.0000
  C   C699      1.0  0.74642  0.77030  0.59805  1.0000
  H   H838      1.0  0.01027  0.92177  0.43257  1.0000
  H   H839      1.0  0.71781  0.83504  0.62429  1.0000
  Fe  Fe95      1.0  0.77502  0.55567  0.52436  1.0000
  H   H840      1.0  0.97446  0.74421  0.54171  1.0000
  H   H841      1.0  0.75128  0.67078  0.66289  1.0000
  C   C700      1.0  0.67502  0.66746  0.63353  1.0000
  H   H842      1.0  0.66504  0.82978  0.61139  1.0000
  C   C701      1.0  0.02612  0.91972  0.53552  1.0000
  H   H843      1.0  0.02351  0.75482  0.60971  1.0000
  S   S189      1.0  0.79773  0.57995  0.59563  1.0000
  C   C702      1.0  0.94646  0.82489  0.47510  1.0000
  H   H844      1.0  0.06629  0.88548  0.64072  1.0000
  H   H845      1.0  0.97535  0.53470  0.55677  1.0000
  S   S190      1.0  0.82713  0.71721  0.56575  1.0000
  C   C703      1.0  0.98689  0.87295  0.53490  1.0000
  C   C704      1.0  0.00991  0.75571  0.53220  1.0000
  C   C705      1.0  0.89255  0.95410  0.47546  1.0000
  C   C706      1.0  0.85604  0.74707  0.65169  1.0000
  H   H846      1.0  0.86343  0.92677  0.50527  1.0000
  H   H847      1.0  0.98003  0.94380  0.46134  1.0000
  H   H848      1.0  0.14394  0.69892  0.60453  1.0000
  H   H849      1.0  0.13317  0.88119  0.56987  1.0000
  H   H850      1.0  0.88759  0.85122  0.49141  1.0000
  C   C707      1.0  0.02851  0.76602  0.48128  1.0000
  H   H851      1.0  0.70646  0.90924  0.43914  1.0000
  C   C708      1.0  0.69545  0.84859  0.63086  1.0000
  Fe  Fe96      1.0  0.78369  0.63840  0.56313  1.0000
  C   C709      1.0  0.68941  0.91960  0.61694  1.0000
  C   C710      1.0  0.69191  0.72939  0.46971  1.0000
  C   C711      1.0  0.71246  0.90262  0.51962  1.0000
  C   C712      1.0  0.70762  0.02029  0.43022  1.0000
  H   H852      1.0  0.94666  0.79528  0.57905  1.0000
  C   C713      1.0  0.72953  0.92191  0.46687  1.0000
  H   H853      1.0  0.83621  0.74394  0.43561  1.0000
  C   C714      1.0  0.08356  0.77687  0.55845  1.0000
  H   H854      1.0  0.01170  0.61373  0.55155  1.0000
  N   N47       1.0  0.95618  0.86694  0.49553  1.0000
  N   N48       1.0  0.94238  0.59542  0.54299  1.0000
  C   C715      1.0  0.95295  0.60401  0.48682  1.0000
  H   H855      1.0  0.97911  0.82887  0.46160  1.0000
  H   H856      1.0  0.13797  0.80008  0.49784  1.0000
  C   C716      1.0  0.77606  0.95838  0.44966  1.0000
  H   H857      1.0  0.67606  0.87495  0.53115  1.0000
  H   H858      1.0  0.67481  0.91021  0.65784  1.0000
  C   C717      1.0  0.89456  0.94569  0.42732  1.0000
  H   H859      1.0  0.86745  0.91140  0.42066  1.0000
  C   C718      1.0  0.91665  0.54139  0.56821  1.0000
  S   S191      1.0  0.05248  0.52569  0.58530  1.0000
  C   C719      1.0  0.94712  0.98991  0.65781  1.0000
  H   H860      1.0  0.15300  0.57621  0.57713  1.0000
  H   H861      1.0  0.13986  0.62972  0.66421  1.0000
  S   S192      1.0  0.99430  0.75965  0.43311  1.0000
  C   C720      1.0  0.80225  0.82240  0.66387  1.0000
  H   H862      1.0  0.84771  0.52786  0.58346  1.0000
  H   H863      1.0  0.00965  0.01716  0.56714  1.0000
  H   H864      1.0  0.65991  0.90274  0.59572  1.0000
