data_image0
_chemical_formula_structural       H2FeHSH2CHCSC3SC6H5SH4FeCFeHCSC2HCH2CHCSCH2CH4C2H3CN2H2C3HCHSH3CS2CH2C2HCHSC6H3SC2HC2NSH2C2FeHC3H2FeC3HFeSHCH3NH9CHCFeC3H3CH2FeS2FeHSH2FeSC2HFeS2FeS2FeSFeS3CH3CH2C6H4CH2C6H6CH3SHCHC4HC2NC9H14NHCH3SHC2SHCHCHCSHC2HC2H2C2HCSH2C2H4C3HC2HC3HCNCH2NH2FeHCHCHFeHCHSH2C2HC5H4CHCFeS2FeS2FeSFeS3NHSHFeSHCHFeS2CH2SH2FeC6H4CHCH2C6H4C2HCH3CH5CHCH2CHCH2SC4SHC2HNHC3H2NH4NC9H11NHC2H4C2FeHCH2CH3CH3SCH4C3SH5CHSFeSCSC2SHCSFe2SHSFeS2FeS2FeSFeS3CHFeHS2C2HC7H4C6H4CHCFeCHC6H6CHCH4C2H2CHC3H2C2HCNC2H8C6H6C4FeSCHCHCH5C2HCNS2C3HCSHC4SH2CH3CHC2H2CH2C2HCHC2HSH5NCFeH6CFeNCH2CHCSH6CNH2CFeCFeHC2H3FeS3H2SHSHCH3S2H2S2H2C2FeS2FeS2FeSFeS3CHC2H2CH2CH2C6HCH4CNFeCH4C6H5C2H2C7H5CHFeSCHCH4CHC2H4C2HNH2C6FeHCH2CH2CSC2HCH3C2HCHC2H3CHNCHFeC2HFeHC2HC2H2CHCH2CSC3SHCNH2CFeC2H2SH3NCH2SHNC2HSHCHFeHCH5CSH4C2FeHC2H4CSHFeS3FeSCSCHSH2FeSCFeS2FeS2FeSFeS5C6H4CH2NH2C6H4C6H4C2H4CHFeHSCSC3HNC5H10SC2H5C2S2H3C2HCFeNC9H13NCHCHCH3CNCHC2HCHCH2SCH2CHCH3CNH2C4H2FeHNC3HC2H8CH3CHC2H2C2FeCH8CHCH5C2HNFeH2C2H4C6H2C2H2SH3C4HC2H5C2HC3H3SHC2FeHS4CFeS2H2SFeS2FeS2FeSFeS3FeSHFeHSH4SHC7H3C6H5CSH2C2H2C6H4C8H4CH5C2H9CHC3H2C2HC2HCH2C2H3C2FeC2H3C3H3CHNCHNHC2H2CHC2HSHN2C9H14SHCHSH4C2FeCFeHCHSHC2H2C3NHC6NCFeC2H2SCHSHC2HC2H2CHCNC2H2CHCSHCFeHCFeS2FeS2FeSFeS3H3CH2FeS3FeSC2FeSFeHSHSC2H2C6H4CH2C2HC6H4C6H4C2H3FeCH3C3HNH2SC2NCH2SHSHCHCH3CH2SHCH4CSHFeNH2C2H2CHC2HC2H3NCHC2HCH3C2NC7H12CNC5NH3CSCHC2H12CH2CFeH3C5HSC6FeCHCHSHC2H2CHC2H3SH4SCNH5CHCHCH2C4H3CHC2HCH2CFeS2FeS2FeSFeS3CHNSCS2HFeS2FeSHS2FeSCHC7H5CSC3HC9H4CFeH3C6H4C2HSHCH2CHNHCH2CHNH3CH2CH2SCH3CH3C3H3C3H4C2H2C2SHCH4C3H3CH3CHNC9H7CH2C2HCNCH6CHC2HNCH2CHC2HCHFeS2CH2C3HCH2C2HSHC4HCHCH2FeH3CH5CH3CHCHFeS2CHCNC2HC3FeHCH5CH4NHCH3FeS2FeS2FeHFeS3C3H2CHC2SHS2CSFeS2HCH6CH3CHC7H5CSH4CSH2C6H4C8H2C2FeHCH2SH2CH2CSCHNSH3CHCNC9H12SCH2NH5C2H5C2SFeSC2H4FeC4HFeH2CHCH5FeHC2H2C6SC2SHCSHCSCSHFeSFeS2FeS2FeSFeCS2CSCH2C2HC2H2FeHC2H7CH3C5H3CSHCH3C6H4C3HC8H3CFeH5CHC2SHCH6C3HCHCSHNH3CHSH5SFeCH2CHC4H2CH2C2HNH2CHFeCH2C3H2C3FeH2CH3CHFeS2FeS2FeHFeS4FeS2FeSHC6H4C6H5SCH4C4H2CHSNC3H2CH6FeHC2NC2HSHC3HCHSC3SHCFeCHCFeHC2HC3H2NH8CHSHNH7CH6SHCHCH2C2HCHC3H2C2H4C2HC2H4C5HC3HC2FeS2HCSFeS2FeS2FeSFeS3FeS2H2C6H5CH3C3H8C7H4NHC4H4C2H2C3HNC9H14CH2FeHCHC8HSCNC8HCH4CH3NCSHCHCHCH2FeHCHSH6FeHSH2SCHC2H2CHC2HCFeHSC2S2HCH2CFeSHC6H8SNCSH2C2H3CH4C2H2FeHNCH3CSHSFeCH2SC3SH2SHSH2C2H4C6FeH5CH2CFeNHCHNC2H2C
_chemical_formula_sum              "H1296 Fe144 S288 C1080 N72"
_cell_length_a       76.7409
_cell_length_b       76.432
_cell_length_c       39.3625
_cell_angle_alpha    91.4941
_cell_angle_beta     91.4988
_cell_angle_gamma    117.258

_space_group_name_H-M_alt    "P 1"
_space_group_IT_number       1

loop_
  _space_group_symop_operation_xyz
  'x, y, z'

loop_
  _atom_site_type_symbol
  _atom_site_label
  _atom_site_symmetry_multiplicity
  _atom_site_fract_x
  _atom_site_fract_y
  _atom_site_fract_z
  _atom_site_occupancy
  H   H1        1.0  0.05651  0.49236  0.38629  1.0000
  H   H2        1.0  0.05488  0.40545  0.17285  1.0000
  Fe  Fe1       1.0  0.01405  0.42780  0.35468  1.0000
  H   H3        1.0  0.23097  0.48511  0.26889  1.0000
  S   S1        1.0  0.04676  0.43964  0.34478  1.0000
  H   H4        1.0  0.01790  0.41170  0.29549  1.0000
  H   H5        1.0  0.03657  0.46966  0.32047  1.0000
  C   C1        1.0  0.03307  0.39568  0.21107  1.0000
  H   H6        1.0  0.07750  0.41716  0.27591  1.0000
  C   C2        1.0  0.05226  0.40423  0.19983  1.0000
  S   S2        1.0  0.14544  0.47859  0.16145  1.0000
  C   C3        1.0  0.24383  0.48344  0.27896  1.0000
  C   C4        1.0  0.03525  0.48304  0.32848  1.0000
  C   C5        1.0  0.08344  0.50340  0.29882  1.0000
  S   S3        1.0  0.00670  0.43719  0.40475  1.0000
  C   C6        1.0  0.06078  0.44878  0.30811  1.0000
  C   C7        1.0  0.08111  0.45497  0.31055  1.0000
  C   C8        1.0  0.09270  0.46133  0.28181  1.0000
  C   C9        1.0  0.08398  0.46126  0.25011  1.0000
  C   C10       1.0  0.06374  0.45555  0.24788  1.0000
  C   C11       1.0  0.05225  0.44966  0.27677  1.0000
  H   H7        1.0  0.08791  0.45448  0.33470  1.0000
  H   H8        1.0  0.10823  0.46563  0.28391  1.0000
  H   H9        1.0  0.05688  0.45558  0.22352  1.0000
  H   H10       1.0  0.03681  0.44556  0.27457  1.0000
  H   H11       1.0  0.24054  0.43889  0.07033  1.0000
  S   S4        1.0  0.15675  0.49731  0.24025  1.0000
  H   H12       1.0  0.24239  0.48772  0.09392  1.0000
  H   H13       1.0  0.08305  0.41909  0.21435  1.0000
  H   H14       1.0  0.12984  0.45869  0.02799  1.0000
  H   H15       1.0  0.13735  0.47937  0.08146  1.0000
  Fe  Fe2       1.0  0.13011  0.48565  0.20416  1.0000
  C   C12       1.0  0.14171  0.48625  0.05736  1.0000
  Fe  Fe3       1.0  0.17279  0.49257  0.19612  1.0000
  H   H16       1.0  0.22601  0.46209  0.08232  1.0000
  C   C13       1.0  0.06820  0.41181  0.22315  1.0000
  S   S5        1.0  0.19359  0.47859  0.19800  1.0000
  C   C14       1.0  0.04596  0.40245  0.26941  1.0000
  C   C15       1.0  0.06504  0.41072  0.25785  1.0000
  H   H17       1.0  0.04443  0.40314  0.29658  1.0000
  C   C16       1.0  0.23012  0.48085  0.19004  1.0000
  H   H18       1.0  0.23837  0.46815  0.28770  1.0000
  H   H19       1.0  0.23921  0.46895  0.12250  1.0000
  C   C17       1.0  0.24037  0.47236  0.09506  1.0000
  H   H20       1.0  0.22217  0.46510  0.18481  1.0000
  C   C18       1.0  0.02934  0.39460  0.24638  1.0000
  S   S6        1.0  0.09730  0.46684  0.21225  1.0000
  C   C19       1.0  0.21957  0.49149  0.19650  1.0000
  H   H21       1.0  0.06670  0.48215  0.35648  1.0000
  H   H22       1.0  0.23478  0.48042  0.34381  1.0000
  C   C20       1.0  0.06501  0.49558  0.36274  1.0000
  H   H23       1.0  0.02654  0.47955  0.35181  1.0000
  H   H24       1.0  0.02636  0.48544  0.30827  1.0000
  H   H25       1.0  0.01544  0.37992  0.30964  1.0000
  H   H26       1.0  0.02145  0.39045  0.19161  1.0000
  C   C21       1.0  0.13740  0.47458  0.02707  1.0000
  C   C22       1.0  0.24656  0.48060  0.02460  1.0000
  H   H27       1.0  0.23509  0.48276  0.03629  1.0000
  H   H28       1.0  0.00955  0.41528  0.25442  1.0000
  H   H29       1.0  0.09029  0.49929  0.31925  1.0000
  C   C23       1.0  0.00724  0.40417  0.27381  1.0000
  N   N1        1.0  0.00933  0.38724  0.25924  1.0000
  N   N2        1.0  0.05486  0.50022  0.33436  1.0000
  H   H30       1.0  0.00904  0.36073  0.27713  1.0000
  H   H31       1.0  0.22837  0.49774  0.32493  1.0000
  C   C24       1.0  0.00608  0.37297  0.28627  1.0000
  C   C25       1.0  0.25083  0.49032  0.19113  1.0000
  C   C26       1.0  0.24109  0.49558  0.33418  1.0000
  H   H32       1.0  0.25177  0.44628  0.11258  1.0000
  C   C27       1.0  0.03142  0.43475  0.83605  1.0000
  H   H33       1.0  0.24046  0.49039  0.81863  1.0000
  S   S7        1.0  0.03841  0.41074  0.75053  1.0000
  H   H34       1.0  0.10359  0.47514  0.93632  1.0000
  H   H35       1.0  0.11593  0.47701  0.72998  1.0000
  H   H36       1.0  0.06097  0.41646  0.86675  1.0000
  C   C28       1.0  0.09040  0.47154  0.91937  1.0000
  S   S8        1.0  0.11295  0.48922  0.80614  1.0000
  S   S9        1.0  0.14890  0.47213  0.86096  1.0000
  C   C29       1.0  0.05579  0.42380  0.66842  1.0000
  H   H37       1.0  0.07515  0.42236  0.91955  1.0000
  H   H38       1.0  0.04573  0.45150  0.75930  1.0000
  C   C30       1.0  0.09874  0.45150  0.88212  1.0000
  C   C31       1.0  0.07987  0.43747  0.62571  1.0000
  H   H39       1.0  0.07923  0.47263  0.93552  1.0000
  C   C32       1.0  0.24289  0.49707  0.84402  1.0000
  H   H40       1.0  0.09451  0.43700  0.86898  1.0000
  S   S10       1.0  0.00348  0.43360  0.60634  1.0000
  C   C33       1.0  0.05901  0.43242  0.76690  1.0000
  C   C34       1.0  0.07593  0.43150  0.77929  1.0000
  C   C35       1.0  0.09246  0.44863  0.79229  1.0000
  C   C36       1.0  0.09214  0.46682  0.79305  1.0000
  C   C37       1.0  0.07513  0.46759  0.78105  1.0000
  C   C38       1.0  0.05871  0.45056  0.76803  1.0000
  H   H41       1.0  0.07630  0.41752  0.77859  1.0000
  H   H42       1.0  0.10556  0.44784  0.80097  1.0000
  H   H43       1.0  0.07461  0.48146  0.78156  1.0000
  S   S11       1.0  0.20517  0.49243  0.83599  1.0000
  C   C39       1.0  0.05720  0.45930  0.87309  1.0000
  C   C40       1.0  0.05547  0.42708  0.86368  1.0000
  H   H44       1.0  0.06591  0.43612  0.94447  1.0000
  C   C41       1.0  0.06511  0.44610  0.88006  1.0000
  C   C42       1.0  0.03886  0.42154  0.84214  1.0000
  N   N3        1.0  0.08283  0.45165  0.90248  1.0000
  S   S12       1.0  0.01869  0.44158  0.70135  1.0000
  H   H45       1.0  0.09684  0.44791  0.69301  1.0000
  H   H46       1.0  0.03207  0.40714  0.82905  1.0000
  C   C43       1.0  0.09975  0.49227  0.71441  1.0000
  C   C44       1.0  0.10423  0.47656  0.71327  1.0000
  Fe  Fe4       1.0  0.15020  0.48658  0.91221  1.0000
  H   H47       1.0  0.01884  0.43053  0.81862  1.0000
  C   C45       1.0  0.24911  0.48457  0.99002  1.0000
  C   C46       1.0  0.07321  0.47503  0.67241  1.0000
  C   C47       1.0  0.09321  0.45998  0.69195  1.0000
  H   H48       1.0  0.07174  0.42502  0.60684  1.0000
  H   H49       1.0  0.09142  0.44177  0.94796  1.0000
  Fe  Fe5       1.0  0.01251  0.41371  0.72698  1.0000
  C   C48       1.0  0.04058  0.45358  0.85141  1.0000
  C   C49       1.0  0.00329  0.47972  0.68805  1.0000
  C   C50       1.0  0.14286  0.48342  0.99570  1.0000
  H   H50       1.0  0.10298  0.46266  0.86230  1.0000
  Fe  Fe6       1.0  0.17989  0.49648  0.85737  1.0000
  S   S13       1.0  0.13708  0.46873  0.95787  1.0000
  H   H51       1.0  0.04561  0.42613  0.68532  1.0000
  C   C51       1.0  0.07855  0.43732  0.92971  1.0000
  H   H52       1.0  0.06371  0.47421  0.88364  1.0000
  H   H53       1.0  0.08993  0.43345  0.64055  1.0000
  H   H54       1.0  0.08903  0.45075  0.61135  1.0000
  N   N4        1.0  0.06633  0.44116  0.64760  1.0000
  H   H55       1.0  0.06126  0.47534  0.65777  1.0000
  H   H56       1.0  0.09513  0.48326  0.90044  1.0000
  H   H57       1.0  0.04335  0.42955  0.60774  1.0000
  H   H58       1.0  0.04021  0.44462  0.63940  1.0000
  H   H59       1.0  0.06584  0.42075  0.68532  1.0000
  H   H60       1.0  0.11210  0.45494  0.89832  1.0000
  H   H61       1.0  0.03492  0.46392  0.84595  1.0000
  H   H62       1.0  0.05845  0.45568  0.60805  1.0000
  H   H63       1.0  0.00822  0.44784  0.53925  1.0000
  C   C52       1.0  0.05156  0.44294  0.62473  1.0000
  H   H64       1.0  0.04688  0.41015  0.65247  1.0000
  C   C53       1.0  0.07755  0.45881  0.67037  1.0000
  Fe  Fe7       1.0  0.13896  0.49363  0.84119  1.0000
  C   C54       1.0  0.08421  0.49146  0.69420  1.0000
  C   C55       1.0  0.00884  0.49366  0.66299  1.0000
  C   C56       1.0  0.22775  0.49959  0.85921  1.0000
  H   H65       1.0  0.01235  0.49012  0.63812  1.0000
  H   H66       1.0  0.23985  0.48956  0.97637  1.0000
  H   H67       1.0  0.24600  0.45579  0.89539  1.0000
  C   C57       1.0  0.15266  0.50396  0.99468  1.0000
  H   H68       1.0  0.08052  0.50356  0.69571  1.0000
  H   H69       1.0  0.14345  0.58274  0.21697  1.0000
  Fe  Fe8       1.0  0.03216  0.60243  0.29310  1.0000
  S   S14       1.0  0.05289  0.62672  0.26030  1.0000
  S   S15       1.0  0.04154  0.58489  0.32684  1.0000
  Fe  Fe9       1.0  0.02060  0.58676  0.36451  1.0000
  H   H70       1.0  0.20449  0.72536  0.06065  1.0000
  S   S16       1.0  0.03366  0.59329  0.41919  1.0000
  H   H71       1.0  0.18042  0.56267  0.10425  1.0000
  H   H72       1.0  0.22211  0.52018  0.20872  1.0000
  Fe  Fe10      1.0  0.16455  0.52654  0.21716  1.0000
  S   S17       1.0  0.17551  0.55609  0.24481  1.0000
  C   C58       1.0  0.14211  0.55581  0.02634  1.0000
  C   C59       1.0  0.21682  0.58259  0.13094  1.0000
  H   H73       1.0  0.22547  0.57497  0.21405  1.0000
  Fe  Fe11      1.0  0.17434  0.68181  0.13506  1.0000
  S   S18       1.0  0.20082  0.67676  0.13615  1.0000
  S   S19       1.0  0.16732  0.69287  0.08631  1.0000
  Fe  Fe12      1.0  0.16429  0.66860  0.20767  1.0000
  S   S20       1.0  0.19053  0.66288  0.21368  1.0000
  S   S21       1.0  0.14526  0.65948  0.25391  1.0000
  Fe  Fe13      1.0  0.20738  0.69159  0.18810  1.0000
  S   S22       1.0  0.23987  0.71147  0.20026  1.0000
  Fe  Fe14      1.0  0.18169  0.64886  0.16140  1.0000
  S   S23       1.0  0.17896  0.61971  0.14187  1.0000
  S   S24       1.0  0.18192  0.69861  0.18591  1.0000
  S   S25       1.0  0.15450  0.65269  0.15659  1.0000
  C   C60       1.0  0.00304  0.58914  0.46047  1.0000
  H   H74       1.0  0.16328  0.61258  0.03222  1.0000
  H   H75       1.0  0.04433  0.51487  0.36993  1.0000
  H   H76       1.0  0.18869  0.65081  0.02228  1.0000
  C   C61       1.0  0.15686  0.51560  0.02485  1.0000
  H   H77       1.0  0.22976  0.60892  0.22164  1.0000
  H   H78       1.0  0.22594  0.74127  0.20152  1.0000
  C   C62       1.0  0.17655  0.57406  0.21675  1.0000
  C   C63       1.0  0.18290  0.59361  0.22853  1.0000
  C   C64       1.0  0.18350  0.60787  0.20598  1.0000
  C   C65       1.0  0.17768  0.60251  0.17169  1.0000
  C   C66       1.0  0.17102  0.58296  0.16025  1.0000
  C   C67       1.0  0.17071  0.56885  0.18250  1.0000
  H   H79       1.0  0.18749  0.59775  0.25500  1.0000
  H   H80       1.0  0.18879  0.62299  0.21500  1.0000
  H   H81       1.0  0.16612  0.57872  0.13403  1.0000
  H   H82       1.0  0.16608  0.55396  0.17296  1.0000
  C   C68       1.0  0.06080  0.57534  0.23811  1.0000
  H   H83       1.0  0.13244  0.61307  0.25344  1.0000
  H   H84       1.0  0.09513  0.55999  0.25117  1.0000
  C   C69       1.0  0.07825  0.63387  0.25692  1.0000
  C   C70       1.0  0.08867  0.62860  0.28072  1.0000
  C   C71       1.0  0.10916  0.63617  0.27896  1.0000
  C   C72       1.0  0.11930  0.64852  0.25280  1.0000
  C   C73       1.0  0.10873  0.65291  0.22793  1.0000
  C   C74       1.0  0.08833  0.64584  0.23030  1.0000
  H   H85       1.0  0.08110  0.61920  0.30104  1.0000
  H   H86       1.0  0.11724  0.63276  0.29837  1.0000
  H   H87       1.0  0.11637  0.66249  0.20778  1.0000
  H   H88       1.0  0.08037  0.64994  0.21170  1.0000
  H   H89       1.0  0.17957  0.66269  0.07430  1.0000
  H   H90       1.0  0.11143  0.57631  0.16270  1.0000
  C   C75       1.0  0.12826  0.57820  0.22495  1.0000
  H   H91       1.0  0.13022  0.62286  0.21371  1.0000
  H   H92       1.0  0.24058  0.58676  0.08021  1.0000
  H   H93       1.0  0.07975  0.50805  0.36922  1.0000
  S   S26       1.0  0.00729  0.57593  0.26681  1.0000
  H   H94       1.0  0.14301  0.55776  0.08098  1.0000
  C   C76       1.0  0.22668  0.60183  0.19645  1.0000
  H   H95       1.0  0.23669  0.72178  0.12647  1.0000
  C   C77       1.0  0.24168  0.74858  0.19922  1.0000
  C   C78       1.0  0.17841  0.66854  0.05020  1.0000
  C   C79       1.0  0.17191  0.68287  0.04864  1.0000
  C   C80       1.0  0.16983  0.68979  0.01683  1.0000
  H   H96       1.0  0.21010  0.73091  0.13544  1.0000
  C   C81       1.0  0.05228  0.51752  0.34580  1.0000
  C   C82       1.0  0.07107  0.59150  0.21845  1.0000
  N   N5        1.0  0.07480  0.65243  0.37711  1.0000
  C   C83       1.0  0.07826  0.64919  0.41323  1.0000
  C   C84       1.0  0.06259  0.66291  0.37678  1.0000
  C   C85       1.0  0.06348  0.63284  0.35977  1.0000
  C   C86       1.0  0.09303  0.66362  0.35881  1.0000
  C   C87       1.0  0.09202  0.66903  0.32484  1.0000
  C   C88       1.0  0.11201  0.66855  0.37313  1.0000
  C   C89       1.0  0.10892  0.67881  0.30645  1.0000
  C   C90       1.0  0.12881  0.67815  0.35430  1.0000
  C   C91       1.0  0.12725  0.68319  0.32101  1.0000
  H   H97       1.0  0.08683  0.66339  0.42791  1.0000
  H   H98       1.0  0.06418  0.64095  0.42622  1.0000
  H   H99       1.0  0.08597  0.63994  0.41539  1.0000
  H   H100      1.0  0.07108  0.67828  0.38740  1.0000
  H   H101      1.0  0.04930  0.65533  0.39199  1.0000
  H   H102      1.0  0.05698  0.66355  0.35075  1.0000
  H   H103      1.0  0.07215  0.62449  0.35926  1.0000
  H   H104      1.0  0.04974  0.62382  0.37290  1.0000
  H   H105      1.0  0.05914  0.63387  0.33302  1.0000
  H   H106      1.0  0.07810  0.66506  0.31162  1.0000
  H   H107      1.0  0.11428  0.66487  0.39858  1.0000
  H   H108      1.0  0.10772  0.68227  0.28020  1.0000
  H   H109      1.0  0.14313  0.68141  0.36528  1.0000
  H   H110      1.0  0.14022  0.69004  0.30609  1.0000
  N   N6        1.0  0.12046  0.59141  0.21183  1.0000
  H   H111      1.0  0.22211  0.57698  0.04613  1.0000
  C   C92       1.0  0.12154  0.59111  0.17423  1.0000
  H   H112      1.0  0.22518  0.74824  0.02592  1.0000
  H   H113      1.0  0.20973  0.70991  0.08731  1.0000
  H   H114      1.0  0.14931  0.61619  0.22048  1.0000
  S   S27       1.0  0.01280  0.60626  0.33185  1.0000
  H   H115      1.0  0.22328  0.55249  0.10225  1.0000
  C   C93       1.0  0.13362  0.61166  0.22546  1.0000
  C   C94       1.0  0.10003  0.58568  0.22127  1.0000
  S   S28       1.0  0.01616  0.53157  0.28355  1.0000
  H   H116      1.0  0.22644  0.59918  0.06883  1.0000
  C   C95       1.0  0.22439  0.61156  0.16860  1.0000
  H   H117      1.0  0.09182  0.51384  0.21553  1.0000
  C   C96       1.0  0.09043  0.59675  0.21034  1.0000
  H   H118      1.0  0.11772  0.60205  0.16249  1.0000
  C   C97       1.0  0.00481  0.51311  0.31228  1.0000
  S   S29       1.0  0.15606  0.52203  0.09310  1.0000
  H   H119      1.0  0.09791  0.60976  0.19578  1.0000
  C   C98       1.0  0.22427  0.58271  0.19209  1.0000
  C   C99       1.0  0.15339  0.58629  0.05941  1.0000
  H   H120      1.0  0.06408  0.60029  0.21007  1.0000
  C   C100      1.0  0.21961  0.57321  0.15983  1.0000
  C   C101      1.0  0.06732  0.51306  0.24226  1.0000
  H   H121      1.0  0.04806  0.59587  0.48805  1.0000
  H   H122      1.0  0.06164  0.55175  0.26504  1.0000
  C   C102      1.0  0.08910  0.56920  0.24132  1.0000
  C   C103      1.0  0.15131  0.50679  0.05621  1.0000
  H   H123      1.0  0.21789  0.55840  0.15846  1.0000
  C   C104      1.0  0.19165  0.57113  0.08577  1.0000
  S   S30       1.0  0.18247  0.52268  0.17649  1.0000
  H   H124      1.0  0.19767  0.54262  0.11207  1.0000
  H   H125      1.0  0.12900  0.57857  0.25326  1.0000
  C   C105      1.0  0.25069  0.52121  0.20524  1.0000
  C   C106      1.0  0.24075  0.75901  0.07567  1.0000
  H   H126      1.0  0.18631  0.56320  0.06055  1.0000
  H   H127      1.0  0.22487  0.72016  0.05220  1.0000
  H   H128      1.0  0.11941  0.56275  0.21498  1.0000
  H   H129      1.0  0.06670  0.53085  0.35002  1.0000
  C   C107      1.0  0.21942  0.60211  0.13635  1.0000
  C   C108      1.0  0.03315  0.59373  0.48911  1.0000
  C   C109      1.0  0.02227  0.59177  0.45862  1.0000
  H   H130      1.0  0.13666  0.59492  0.16628  1.0000
  C   C110      1.0  0.06978  0.56423  0.24955  1.0000
  C   C111      1.0  0.15718  0.59672  0.02954  1.0000
  H   H131      1.0  0.04354  0.52120  0.32705  1.0000
  C   C112      1.0  0.21797  0.74411  0.12003  1.0000
  C   C113      1.0  0.22566  0.58444  0.07191  1.0000
  C   C114      1.0  0.09285  0.50709  0.26791  1.0000
  H   H132      1.0  0.21701  0.61005  0.11596  1.0000
  C   C115      1.0  0.14585  0.56586  0.05781  1.0000
  N   N7        1.0  0.21097  0.57272  0.09665  1.0000
  C   C116      1.0  0.24426  0.73551  0.11215  1.0000
  H   H133      1.0  0.15638  0.59415  0.08395  1.0000
  H   H134      1.0  0.20667  0.74745  0.10766  1.0000
  N   N8        1.0  0.23010  0.74079  0.09445  1.0000
  H   H135      1.0  0.01255  0.53333  0.35580  1.0000
  H   H136      1.0  0.04587  0.57150  0.24473  1.0000
  Fe  Fe15      1.0  0.01535  0.55885  0.30371  1.0000
  H   H137      1.0  0.22563  0.62622  0.17227  1.0000
  C   C117      1.0  0.20916  0.55249  0.09510  1.0000
  H   H138      1.0  0.20446  0.54535  0.06915  1.0000
  C   C118      1.0  0.23659  0.76036  0.04066  1.0000
  H   H139      1.0  0.22692  0.75665  0.13813  1.0000
  Fe  Fe16      1.0  0.15430  0.50931  0.14495  1.0000
  H   H140      1.0  0.16444  0.53146  0.02381  1.0000
  C   C119      1.0  0.21683  0.72343  0.07241  1.0000
  H   H141      1.0  0.19187  0.58571  0.08391  1.0000
  S   S31       1.0  0.13704  0.51535  0.18447  1.0000
  H   H142      1.0  0.13633  0.53990  0.02534  1.0000
  H   H143      1.0  0.16468  0.70079  0.01540  1.0000
  C   C120      1.0  0.05783  0.50953  0.27307  1.0000
  C   C121      1.0  0.25181  0.76919  0.19660  1.0000
  H   H144      1.0  0.24374  0.77767  0.19686  1.0000
  C   C122      1.0  0.00508  0.51808  0.34678  1.0000
  C   C123      1.0  0.23000  0.51181  0.20358  1.0000
  C   C124      1.0  0.25199  0.73751  0.19906  1.0000
  C   C125      1.0  0.18329  0.66159  0.02050  1.0000
  C   C126      1.0  0.08473  0.51170  0.23964  1.0000
  H   H145      1.0  0.06094  0.51653  0.22015  1.0000
  H   H146      1.0  0.04420  0.51051  0.27365  1.0000
  H   H147      1.0  0.24853  0.52065  0.28568  1.0000
  H   H148      1.0  0.10622  0.50566  0.26547  1.0000
  C   C127      1.0  0.24706  0.77781  0.02372  1.0000
  H   H149      1.0  0.24840  0.50645  0.35580  1.0000
  C   C128      1.0  0.06552  0.50444  0.30231  1.0000
  Fe  Fe17      1.0  0.19084  0.68987  0.83883  1.0000
  S   S32       1.0  0.16751  0.68208  0.87749  1.0000
  S   S33       1.0  0.20642  0.72248  0.82776  1.0000
  Fe  Fe18      1.0  0.18248  0.64702  0.82850  1.0000
  S   S34       1.0  0.15903  0.63637  0.86647  1.0000
  S   S35       1.0  0.18729  0.62342  0.80134  1.0000
  Fe  Fe19      1.0  0.14885  0.65633  0.84140  1.0000
  S   S36       1.0  0.11610  0.64584  0.83167  1.0000
  Fe  Fe20      1.0  0.17980  0.66287  0.89845  1.0000
  S   S37       1.0  0.18787  0.65921  0.95253  1.0000
  S   S38       1.0  0.17116  0.66552  0.80124  1.0000
  S   S39       1.0  0.20428  0.67214  0.86215  1.0000
  N   N9        1.0  0.24161  0.72341  0.93817  1.0000
  H   H150      1.0  0.01891  0.54955  0.52772  1.0000
  S   S40       1.0  0.16985  0.51674  0.83243  1.0000
  H   H151      1.0  0.07697  0.66763  0.70768  1.0000
  Fe  Fe21      1.0  0.16988  0.52784  0.88573  1.0000
  S   S41       1.0  0.18329  0.55967  0.90440  1.0000
  H   H152      1.0  0.15694  0.51090  0.97063  1.0000
  C   C129      1.0  0.22085  0.55193  0.86333  1.0000
  H   H153      1.0  0.11838  0.54965  0.77591  1.0000
  Fe  Fe22      1.0  0.03706  0.59934  0.67439  1.0000
  S   S42       1.0  0.06918  0.62096  0.68779  1.0000
  S   S43       1.0  0.03274  0.58283  0.62402  1.0000
  C   C130      1.0  0.14792  0.61113  0.96544  1.0000
  H   H154      1.0  0.03358  0.59470  0.54420  1.0000
  H   H155      1.0  0.00807  0.55846  0.55932  1.0000
  S   S44       1.0  0.02011  0.57203  0.70281  1.0000
  H   H156      1.0  0.08008  0.66531  0.76975  1.0000
  H   H157      1.0  0.18733  0.60206  0.96656  1.0000
  Fe  Fe23      1.0  0.00535  0.58584  0.61566  1.0000
  C   C131      1.0  0.18661  0.60567  0.82948  1.0000
  C   C132      1.0  0.19372  0.61120  0.86314  1.0000
  C   C133      1.0  0.19328  0.59700  0.88544  1.0000
  C   C134      1.0  0.18492  0.57711  0.87473  1.0000
  C   C135      1.0  0.17779  0.57152  0.84107  1.0000
  C   C136      1.0  0.17894  0.58586  0.81830  1.0000
  H   H158      1.0  0.19990  0.62650  0.87177  1.0000
  H   H159      1.0  0.19940  0.60145  0.91106  1.0000
  H   H160      1.0  0.17123  0.55620  0.83260  1.0000
  H   H161      1.0  0.17342  0.58156  0.79226  1.0000
  C   C137      1.0  0.18114  0.66838  0.98872  1.0000
  H   H162      1.0  0.13182  0.60233  0.96796  1.0000
  C   C138      1.0  0.17429  0.68245  0.98682  1.0000
  H   H163      1.0  0.10615  0.68828  0.67568  1.0000
  H   H164      1.0  0.17254  0.68775  0.96240  1.0000
  C   C139      1.0  0.10329  0.63756  0.79156  1.0000
  C   C140      1.0  0.11314  0.64078  0.76115  1.0000
  C   C141      1.0  0.10245  0.63557  0.72968  1.0000
  C   C142      1.0  0.08181  0.62664  0.72821  1.0000
  C   C143      1.0  0.07194  0.62289  0.75863  1.0000
  C   C144      1.0  0.08265  0.62845  0.79010  1.0000
  H   H165      1.0  0.12899  0.64780  0.76185  1.0000
  H   H166      1.0  0.11023  0.63864  0.70629  1.0000
  H   H167      1.0  0.05608  0.61620  0.75792  1.0000
  H   H168      1.0  0.07488  0.62598  0.81347  1.0000
  C   C145      1.0  0.23231  0.73647  0.82628  1.0000
  C   C146      1.0  0.14587  0.56607  0.99625  1.0000
  H   H169      1.0  0.11160  0.68184  0.79995  1.0000
  C   C147      1.0  0.23526  0.71221  0.96963  1.0000
  H   H170      1.0  0.15490  0.59499  0.91079  1.0000
  H   H171      1.0  0.24031  0.59017  0.84717  1.0000
  H   H172      1.0  0.23807  0.71153  0.82098  1.0000
  C   C148      1.0  0.15335  0.58692  0.99696  1.0000
  H   H173      1.0  0.23164  0.76434  0.83104  1.0000
  H   H174      1.0  0.09252  0.51612  0.78540  1.0000
  H   H175      1.0  0.22687  0.72980  0.89613  1.0000
  H   H176      1.0  0.04650  0.54635  0.69561  1.0000
  H   H177      1.0  0.21957  0.50999  0.90435  1.0000
  C   C149      1.0  0.15155  0.58592  0.93376  1.0000
  H   H178      1.0  0.05813  0.50596  0.76535  1.0000
  C   C150      1.0  0.23292  0.57888  0.82614  1.0000
  H   H179      1.0  0.21762  0.57688  0.82288  1.0000
  H   H180      1.0  0.11086  0.57319  0.74725  1.0000
  C   C151      1.0  0.17931  0.61103  0.96512  1.0000
  H   H181      1.0  0.21866  0.73225  0.93727  1.0000
  C   C152      1.0  0.09889  0.55864  0.74986  1.0000
  H   H182      1.0  0.22920  0.71928  0.98761  1.0000
  H   H183      1.0  0.20570  0.54984  0.85822  1.0000
  S   S45       1.0  0.01665  0.52906  0.63801  1.0000
  C   C153      1.0  0.24089  0.75717  0.82863  1.0000
  C   C154      1.0  0.10344  0.54523  0.76661  1.0000
  C   C155      1.0  0.08884  0.52630  0.77202  1.0000
  C   C156      1.0  0.00506  0.51652  0.70212  1.0000
  S   S46       1.0  0.01080  0.60476  0.66411  1.0000
  H   H184      1.0  0.13548  0.57599  0.93251  1.0000
  C   C157      1.0  0.22413  0.54588  0.80448  1.0000
  C   C158      1.0  0.06956  0.52065  0.76074  1.0000
  H   H185      1.0  0.07220  0.58081  0.76842  1.0000
  N   N10       1.0  0.23329  0.56013  0.83379  1.0000
  H   H186      1.0  0.15035  0.61925  0.94146  1.0000
  C   C159      1.0  0.23109  0.50821  0.89206  1.0000
  C   C160      1.0  0.09129  0.58538  0.71017  1.0000
  C   C161      1.0  0.06482  0.53395  0.74404  1.0000
  H   H187      1.0  0.04953  0.52902  0.73679  1.0000
  H   H188      1.0  0.24376  0.77860  0.99699  1.0000
  N   N11       1.0  0.07403  0.56737  0.72077  1.0000
  H   H189      1.0  0.21943  0.53718  0.86929  1.0000
  H   H190      1.0  0.18345  0.61945  0.94144  1.0000
  H   H191      1.0  0.20843  0.54222  0.79994  1.0000
  H   H192      1.0  0.15359  0.62279  0.98613  1.0000
  N   N12       1.0  0.14837  0.70568  0.77226  1.0000
  C   C162      1.0  0.16186  0.69977  0.75459  1.0000
  C   C163      1.0  0.15619  0.72732  0.77087  1.0000
  C   C164      1.0  0.14865  0.70093  0.80856  1.0000
  C   C165      1.0  0.12855  0.69571  0.75531  1.0000
  C   C166      1.0  0.12608  0.69733  0.71983  1.0000
  C   C167      1.0  0.11131  0.68420  0.77303  1.0000
  C   C168      1.0  0.10766  0.68736  0.70295  1.0000
  C   C169      1.0  0.09294  0.67452  0.75594  1.0000
  C   C170      1.0  0.09115  0.67585  0.72094  1.0000
  H   H193      1.0  0.16507  0.70551  0.72866  1.0000
  H   H194      1.0  0.17639  0.70548  0.76855  1.0000
  H   H195      1.0  0.15548  0.68344  0.75205  1.0000
  H   H196      1.0  0.15768  0.73226  0.74432  1.0000
  H   H197      1.0  0.17105  0.73527  0.78377  1.0000
  H   H198      1.0  0.14636  0.73234  0.78360  1.0000
  H   H199      1.0  0.14301  0.68480  0.81133  1.0000
  H   H200      1.0  0.16378  0.70825  0.82042  1.0000
  H   H201      1.0  0.13976  0.70598  0.82407  1.0000
  H   H202      1.0  0.13842  0.70609  0.70477  1.0000
  H   H203      1.0  0.10080  0.58163  0.69381  1.0000
  N   N13       1.0  0.15784  0.59838  0.96575  1.0000
  H   H204      1.0  0.01542  0.54022  0.56966  1.0000
  C   C171      1.0  0.06316  0.57356  0.74477  1.0000
  C   C172      1.0  0.07941  0.55330  0.73759  1.0000
  H   H205      1.0  0.08681  0.59494  0.69518  1.0000
  H   H206      1.0  0.05899  0.58433  0.73327  1.0000
  H   H207      1.0  0.05836  0.56881  0.67516  1.0000
  H   H208      1.0  0.21168  0.70828  0.91767  1.0000
  C   C173      1.0  0.00579  0.59061  0.52293  1.0000
  C   C174      1.0  0.02497  0.59307  0.52105  1.0000
  Fe  Fe24      1.0  0.01382  0.55615  0.65199  1.0000
  H   H209      1.0  0.06801  0.55139  0.67232  1.0000
  C   C175      1.0  0.06126  0.55803  0.68975  1.0000
  H   H210      1.0  0.04935  0.56091  0.75233  1.0000
  H   H211      1.0  0.10020  0.59487  0.73242  1.0000
  C   C176      1.0  0.24446  0.72742  0.82312  1.0000
  H   H212      1.0  0.22656  0.56197  0.88637  1.0000
  H   H213      1.0  0.14288  0.55732  0.97282  1.0000
  H   H214      1.0  0.24751  0.71063  0.98254  1.0000
  C   C177      1.0  0.24874  0.71257  0.91525  1.0000
  H   H215      1.0  0.15944  0.57688  0.93095  1.0000
  H   H216      1.0  0.18493  0.62220  0.98658  1.0000
  H   H217      1.0  0.22337  0.69694  0.96399  1.0000
  S   S47       1.0  0.18170  0.50904  0.91012  1.0000
  C   C178      1.0  0.24953  0.51486  0.90899  1.0000
  H   H218      1.0  0.24028  0.58517  0.80230  1.0000
  H   H219      1.0  0.23777  0.69680  0.91122  1.0000
  H   H220      1.0  0.23150  0.55154  0.78038  1.0000
  H   H221      1.0  0.22470  0.53179  0.80900  1.0000
  C   C179      1.0  0.00964  0.51201  0.66994  1.0000
  C   C180      1.0  0.22400  0.72347  0.92169  1.0000
  C   C181      1.0  0.00868  0.54506  0.54903  1.0000
  S   S48       1.0  0.13849  0.50655  0.89293  1.0000
  H   H222      1.0  0.25208  0.52195  0.93406  1.0000
  H   H223      1.0  0.00537  0.53057  0.70749  1.0000
  H   H224      1.0  0.10807  0.50482  0.73174  1.0000
  H   H225      1.0  0.25180  0.71879  0.88959  1.0000
  H   H226      1.0  0.25132  0.55284  0.89153  1.0000
  C   C182      1.0  0.37797  0.36741  0.21848  1.0000
  H   H227      1.0  0.48705  0.17806  0.28430  1.0000
  S   S49       1.0  0.30415  0.47983  0.20991  1.0000
  Fe  Fe25      1.0  0.48961  0.35351  0.22334  1.0000
  S   S50       1.0  0.48281  0.37533  0.25472  1.0000
  C   C183      1.0  0.47005  0.48621  0.35258  1.0000
  S   S51       1.0  0.30239  0.45524  0.12117  1.0000
  C   C184      1.0  0.30555  0.49059  0.33654  1.0000
  C   C185      1.0  0.44353  0.14667  0.01860  1.0000
  S   S52       1.0  0.47763  0.32088  0.20837  1.0000
  H   H228      1.0  0.47643  0.11741  0.08078  1.0000
  C   C186      1.0  0.48106  0.49130  0.38337  1.0000
  S   S53       1.0  0.47588  0.16563  0.20885  1.0000
  Fe  Fe26      1.0  0.48532  0.16808  0.15492  1.0000
  Fe  Fe27      1.0  0.31723  0.48082  0.15890  1.0000
  S   S54       1.0  0.46183  0.16439  0.11575  1.0000
  H   H229      1.0  0.28813  0.48257  0.09048  1.0000
  S   S55       1.0  0.49197  0.36196  0.16873  1.0000
  Fe  Fe28      1.0  0.40724  0.42479  0.43961  1.0000
  S   S56       1.0  0.39343  0.40534  0.39217  1.0000
  S   S57       1.0  0.39413  0.42617  0.49045  1.0000
  Fe  Fe29      1.0  0.44385  0.45035  0.40429  1.0000
  S   S58       1.0  0.43389  0.43355  0.35399  1.0000
  S   S59       1.0  0.47224  0.47695  0.41877  1.0000
  Fe  Fe30      1.0  0.40490  0.43328  0.36326  1.0000
  S   S60       1.0  0.38858  0.43527  0.31514  1.0000
  Fe  Fe31      1.0  0.42316  0.40672  0.38484  1.0000
  S   S61       1.0  0.42532  0.37918  0.36643  1.0000
  S   S62       1.0  0.41610  0.45256  0.41094  1.0000
  S   S63       1.0  0.43574  0.42363  0.43485  1.0000
  C   C187      1.0  0.49147  0.24813  0.03852  1.0000
  H   H230      1.0  0.47216  0.19248  0.01783  1.0000
  Fe  Fe32      1.0  0.42855  0.02765  0.34468  1.0000
  H   H231      1.0  0.46103  0.22705  0.20516  1.0000
  S   S64       1.0  0.42637  0.05527  0.32926  1.0000
  S   S65       1.0  0.49539  0.21643  0.24836  1.0000
  C   C188      1.0  0.49217  0.23574  0.06330  1.0000
  C   C189      1.0  0.32365  0.47762  0.02933  1.0000
  H   H232      1.0  0.44057  0.49613  0.49664  1.0000
  C   C190      1.0  0.49419  0.34335  0.07171  1.0000
  C   C191      1.0  0.47324  0.10554  0.26995  1.0000
  C   C192      1.0  0.47702  0.09053  0.28280  1.0000
  C   C193      1.0  0.46259  0.07472  0.29982  1.0000
  C   C194      1.0  0.44423  0.07384  0.30476  1.0000
  C   C195      1.0  0.44034  0.08874  0.29160  1.0000
  C   C196      1.0  0.45470  0.10444  0.27410  1.0000
  H   H233      1.0  0.25872  0.48185  0.18699  1.0000
  H   H234      1.0  0.46583  0.06342  0.30975  1.0000
  H   H235      1.0  0.42621  0.08823  0.29530  1.0000
  H   H236      1.0  0.45152  0.11581  0.26443  1.0000
  C   C197      1.0  0.46647  0.37571  0.28571  1.0000
  C   C198      1.0  0.45284  0.35871  0.30067  1.0000
  C   C199      1.0  0.44052  0.36005  0.32558  1.0000
  C   C200      1.0  0.44163  0.37835  0.33577  1.0000
  C   C201      1.0  0.45517  0.39532  0.32061  1.0000
  C   C202      1.0  0.46749  0.39399  0.29579  1.0000
  H   H237      1.0  0.45190  0.34456  0.29329  1.0000
  H   H238      1.0  0.43011  0.34681  0.33712  1.0000
  H   H239      1.0  0.45623  0.40950  0.32811  1.0000
  H   H240      1.0  0.47788  0.40724  0.28433  1.0000
  C   C203      1.0  0.30880  0.45791  0.07822  1.0000
  H   H241      1.0  0.41897  0.39818  0.30628  1.0000
  C   C204      1.0  0.47936  0.14406  0.34402  1.0000
  Fe  Fe33      1.0  0.33562  0.49403  0.23051  1.0000
  C   C205      1.0  0.25869  0.47422  0.04300  1.0000
  H   H242      1.0  0.29182  0.42677  0.06702  1.0000
  C   C206      1.0  0.35877  0.47428  0.29049  1.0000
  C   C207      1.0  0.36795  0.47604  0.32272  1.0000
  C   C208      1.0  0.37726  0.46435  0.33071  1.0000
  C   C209      1.0  0.37741  0.45068  0.30652  1.0000
  C   C210      1.0  0.36835  0.44905  0.27420  1.0000
  C   C211      1.0  0.35905  0.46073  0.26621  1.0000
  H   H243      1.0  0.36776  0.48641  0.34176  1.0000
  H   H244      1.0  0.38410  0.46574  0.35569  1.0000
  H   H245      1.0  0.36835  0.43852  0.25530  1.0000
  H   H246      1.0  0.35195  0.45909  0.24139  1.0000
  H   H247      1.0  0.46316  0.46263  0.48917  1.0000
  H   H248      1.0  0.35738  0.40521  0.21512  1.0000
  C   C212      1.0  0.47509  0.21223  0.15746  1.0000
  H   H249      1.0  0.45544  0.47412  0.35097  1.0000
  C   C213      1.0  0.44942  0.11887  0.36821  1.0000
  H   H250      1.0  0.27842  0.49982  0.09475  1.0000
  H   H251      1.0  0.39944  0.49126  0.24875  1.0000
  H   H252      1.0  0.27439  0.48196  0.12648  1.0000
  H   H253      1.0  0.41293  0.01112  0.48316  1.0000
  C   C214      1.0  0.44431  0.15059  0.05361  1.0000
  C   C215      1.0  0.46226  0.15906  0.07209  1.0000
  H   H254      1.0  0.44859  0.19938  0.10541  1.0000
  H   H255      1.0  0.43084  0.14681  0.06652  1.0000
  C   C216      1.0  0.38086  0.37995  0.24771  1.0000
  H   H256      1.0  0.40403  0.36231  0.30328  1.0000
  C   C217      1.0  0.47890  0.16046  0.01947  1.0000
  C   C218      1.0  0.45989  0.13744  0.35474  1.0000
  C   C219      1.0  0.44145  0.48219  0.49149  1.0000
  H   H257      1.0  0.47782  0.15178  0.27888  1.0000
  H   H258      1.0  0.49127  0.09120  0.27976  1.0000
  C   C220      1.0  0.47966  0.16405  0.05507  1.0000
  C   C221      1.0  0.49560  0.00829  0.32466  1.0000
  H   H259      1.0  0.44439  0.20166  0.19779  1.0000
  C   C222      1.0  0.48024  0.11734  0.02689  1.0000
  N   N14       1.0  0.39173  0.37947  0.27904  1.0000
  C   C223      1.0  0.37985  0.37751  0.30926  1.0000
  C   C224      1.0  0.39686  0.36292  0.27871  1.0000
  H   H260      1.0  0.36513  0.36451  0.30603  1.0000
  H   H261      1.0  0.38713  0.37571  0.33289  1.0000
  H   H262      1.0  0.37770  0.39074  0.31457  1.0000
  H   H263      1.0  0.40756  0.36449  0.25898  1.0000
  H   H264      1.0  0.38358  0.34844  0.27481  1.0000
  H   H265      1.0  0.40751  0.41119  0.28627  1.0000
  H   H266      1.0  0.38353  0.35674  0.21750  1.0000
  H   H267      1.0  0.48334  0.10228  0.36254  1.0000
  C   C225      1.0  0.48000  0.25318  0.15548  1.0000
  C   C226      1.0  0.46917  0.31631  0.03758  1.0000
  C   C227      1.0  0.49224  0.25095  0.25188  1.0000
  C   C228      1.0  0.47736  0.27462  0.11385  1.0000
  C   C229      1.0  0.44991  0.21636  0.18642  1.0000
  C   C230      1.0  0.47667  0.32577  0.06958  1.0000
  H   H268      1.0  0.36565  0.35867  0.16727  1.0000
  H   H269      1.0  0.46509  0.10675  0.02089  1.0000
  H   H270      1.0  0.43874  0.44733  0.50223  1.0000
  H   H271      1.0  0.45541  0.26063  0.07381  1.0000
  H   H272      1.0  0.32670  0.48945  0.08105  1.0000
  H   H273      1.0  0.45560  0.30272  0.03577  1.0000
  C   C231      1.0  0.49784  0.27089  0.24550  1.0000
  C   C232      1.0  0.47928  0.16382  0.29710  1.0000
  C   C233      1.0  0.27520  0.48426  0.09860  1.0000
  C   C234      1.0  0.45613  0.23939  0.10836  1.0000
  Fe  Fe34      1.0  0.48304  0.33053  0.15420  1.0000
  S   S66       1.0  0.46418  0.31558  0.10677  1.0000
  C   C235      1.0  0.32043  0.47630  0.06460  1.0000
  H   H274      1.0  0.48210  0.21255  0.13303  1.0000
  C   C236      1.0  0.47806  0.49675  0.32358  1.0000
  H   H275      1.0  0.49165  0.02878  0.35812  1.0000
  C   C237      1.0  0.36025  0.38191  0.18807  1.0000
  H   H276      1.0  0.44960  0.09169  0.38063  1.0000
  H   H277      1.0  0.31467  0.49854  0.28580  1.0000
  H   H278      1.0  0.46423  0.16175  0.30147  1.0000
  H   H279      1.0  0.28308  0.46738  0.03680  1.0000
  H   H280      1.0  0.48702  0.25203  0.17877  1.0000
  C   C238      1.0  0.48617  0.27203  0.14330  1.0000
  C   C239      1.0  0.44309  0.20020  0.13102  1.0000
  H   H281      1.0  0.37530  0.40404  0.26619  1.0000
  C   C240      1.0  0.36307  0.39458  0.21607  1.0000
  N   N15       1.0  0.45824  0.21657  0.15277  1.0000
  S   S67       1.0  0.34734  0.48947  0.28181  1.0000
  S   S68       1.0  0.34805  0.49220  0.18037  1.0000
  C   C241      1.0  0.27480  0.49013  0.35091  1.0000
  C   C242      1.0  0.46237  0.25837  0.09644  1.0000
  C   C243      1.0  0.49077  0.17930  0.35290  1.0000
  H   H282      1.0  0.28624  0.50285  0.26874  1.0000
  C   C244      1.0  0.30079  0.44099  0.05672  1.0000
  S   S69       1.0  0.40805  0.00569  0.38123  1.0000
  H   H283      1.0  0.35234  0.38265  0.16537  1.0000
  C   C245      1.0  0.45801  0.10640  0.37148  1.0000
  C   C246      1.0  0.46483  0.23624  0.13846  1.0000
  C   C247      1.0  0.36774  0.36841  0.18923  1.0000
  C   C248      1.0  0.37328  0.39371  0.24537  1.0000
  S   S70       1.0  0.45580  0.02948  0.37090  1.0000
  H   H284      1.0  0.29290  0.48313  0.38532  1.0000
  H   H285      1.0  0.42933  0.20161  0.12818  1.0000
  C   C249      1.0  0.41022  0.39812  0.28324  1.0000
  H   H286      1.0  0.41956  0.40038  0.26099  1.0000
  H   H287      1.0  0.44441  0.22750  0.09372  1.0000
  H   H288      1.0  0.43896  0.18558  0.14207  1.0000
  C   C250      1.0  0.48764  0.13088  0.34754  1.0000
  H   H289      1.0  0.48973  0.27804  0.25596  1.0000
  C   C251      1.0  0.29124  0.48757  0.35999  1.0000
  C   C252      1.0  0.28716  0.49874  0.29455  1.0000
  H   H290      1.0  0.47966  0.24287  0.26696  1.0000
  H   H291      1.0  0.50195  0.13411  0.33867  1.0000
  C   C253      1.0  0.27330  0.47207  0.02457  1.0000
  H   H292      1.0  0.48660  0.22274  0.17574  1.0000
  H   H293      1.0  0.48439  0.00739  0.45892  1.0000
  C   C254      1.0  0.48503  0.21570  0.05544  1.0000
  C   C255      1.0  0.27227  0.49582  0.31771  1.0000
  H   H294      1.0  0.47602  0.17788  0.35791  1.0000
  C   C256      1.0  0.39662  0.50101  0.23136  1.0000
  H   H295      1.0  0.47048  0.19739  0.16780  1.0000
  C   C257      1.0  0.48663  0.12338  0.06057  1.0000
  C   C258      1.0  0.50121  0.02256  0.35120  1.0000
  H   H296      1.0  0.43760  0.22022  0.18442  1.0000
  S   S71       1.0  0.49275  0.12587  0.25130  1.0000
  H   H297      1.0  0.48199  0.28933  0.10480  1.0000
  H   H298      1.0  0.49791  0.17904  0.37775  1.0000
  H   H299      1.0  0.44906  0.48327  0.46741  1.0000
  H   H300      1.0  0.50002  0.35092  0.09611  1.0000
  H   H301      1.0  0.43436  0.11383  0.37524  1.0000
  N   N16       1.0  0.48989  0.16357  0.32893  1.0000
  C   C259      1.0  0.30428  0.44226  0.02196  1.0000
  Fe  Fe35      1.0  0.49539  0.15148  0.21913  1.0000
  H   H302      1.0  0.38045  0.49569  0.23038  1.0000
  H   H303      1.0  0.45240  0.14636  0.35195  1.0000
  H   H304      1.0  0.31823  0.48848  0.34341  1.0000
  H   H305      1.0  0.49359  0.17090  0.06919  1.0000
  H   H306      1.0  0.33247  0.49176  0.01871  1.0000
  H   H307      1.0  0.26641  0.44759  0.07788  1.0000
  C   C260      1.0  0.47707  0.11242  0.36128  1.0000
  Fe  Fe36      1.0  0.43533  0.00607  0.40479  1.0000
  N   N17       1.0  0.25686  0.47027  0.07976  1.0000
  C   C261      1.0  0.45318  0.45977  0.51068  1.0000
  H   H308      1.0  0.49923  0.19421  0.34261  1.0000
  H   H309      1.0  0.46978  0.49237  0.29954  1.0000
  C   C262      1.0  0.30352  0.49623  0.30397  1.0000
  H   H310      1.0  0.25307  0.48473  0.25705  1.0000
  C   C263      1.0  0.47723  0.20802  0.02282  1.0000
  S   S72       1.0  0.50229  0.15116  0.16390  1.0000
  H   H311      1.0  0.47874  0.00536  0.41447  1.0000
  H   H312      1.0  0.40082  0.49857  0.20546  1.0000
  H   H313      1.0  0.49765  0.28476  0.15718  1.0000
  H   H314      1.0  0.42619  0.47030  0.48598  1.0000
  H   H315      1.0  0.49713  0.26376  0.04472  1.0000
  H   H316      1.0  0.26429  0.48747  0.37028  1.0000
  C   C264      1.0  0.41969  0.00786  0.50489  1.0000
  N   N18       1.0  0.25490  0.49822  0.30671  1.0000
  H   H317      1.0  0.48575  0.20599  0.07444  1.0000
  H   H318      1.0  0.49839  0.24177  0.08853  1.0000
  C   C265      1.0  0.50291  0.24151  0.23922  1.0000
  Fe  Fe37      1.0  0.50261  0.19495  0.21778  1.0000
  C   C266      1.0  0.25370  0.44990  0.08525  1.0000
  Fe  Fe38      1.0  0.45085  0.00458  0.33404  1.0000
  H   H319      1.0  0.41784  0.49552  0.77409  1.0000
  C   C267      1.0  0.45409  0.36204  0.73271  1.0000
  C   C268      1.0  0.43955  0.37751  0.91598  1.0000
  H   H320      1.0  0.31241  0.45315  0.82029  1.0000
  H   H321      1.0  0.50194  0.11088  0.84613  1.0000
  H   H322      1.0  0.48166  0.23830  0.93415  1.0000
  Fe  Fe39      1.0  0.43144  0.02240  0.73114  1.0000
  S   S73       1.0  0.42627  0.04271  0.76825  1.0000
  S   S74       1.0  0.44806  0.03259  0.68367  1.0000
  S   S75       1.0  0.30960  0.48589  0.88883  1.0000
  H   H323      1.0  0.39736  0.03312  0.62433  1.0000
  H   H324      1.0  0.48098  0.00858  0.64282  1.0000
  S   S76       1.0  0.34443  0.49389  0.81023  1.0000
  H   H325      1.0  0.29905  0.40306  0.84779  1.0000
  S   S77       1.0  0.47005  0.31619  0.90388  1.0000
  H   H326      1.0  0.27560  0.40218  0.83797  1.0000
  C   C269      1.0  0.27577  0.47614  0.99012  1.0000
  H   H327      1.0  0.28379  0.40312  0.88143  1.0000
  H   H328      1.0  0.43882  0.35192  0.72714  1.0000
  H   H329      1.0  0.48338  0.47343  0.63595  1.0000
  S   S78       1.0  0.44628  0.34073  0.84572  1.0000
  S   S79       1.0  0.31868  0.46083  0.96377  1.0000
  H   H330      1.0  0.48181  0.07716  0.84039  1.0000
  H   H331      1.0  0.39231  0.03732  0.71582  1.0000
  S   S80       1.0  0.48058  0.16794  0.87208  1.0000
  S   S81       1.0  0.48917  0.13205  0.80087  1.0000
  H   H332      1.0  0.47355  0.31689  0.98343  1.0000
  H   H333      1.0  0.46641  0.23186  0.84418  1.0000
  C   C270      1.0  0.47275  0.49648  0.70145  1.0000
  C   C271      1.0  0.49114  0.22810  0.86283  1.0000
  Fe  Fe40      1.0  0.41448  0.42351  0.68943  1.0000
  S   S82       1.0  0.40383  0.44593  0.70196  1.0000
  S   S83       1.0  0.41630  0.40888  0.63917  1.0000
  Fe  Fe41      1.0  0.43428  0.42784  0.76087  1.0000
  S   S84       1.0  0.42579  0.45092  0.77867  1.0000
  S   S85       1.0  0.45709  0.42237  0.79037  1.0000
  Fe  Fe42      1.0  0.39649  0.43172  0.75273  1.0000
  S   S86       1.0  0.37087  0.42730  0.78505  1.0000
  Fe  Fe43      1.0  0.43357  0.46339  0.72743  1.0000
  S   S87       1.0  0.45269  0.49571  0.72260  1.0000
  S   S88       1.0  0.40434  0.40738  0.73824  1.0000
  S   S89       1.0  0.44480  0.44228  0.71172  1.0000
  C   C272      1.0  0.41073  0.41462  0.59812  1.0000
  H   H334      1.0  0.37307  0.04036  0.64893  1.0000
  C   C273      1.0  0.39886  0.42389  0.59343  1.0000
  C   C274      1.0  0.46266  0.40787  0.68511  1.0000
  H   H335      1.0  0.39313  0.42809  0.61527  1.0000
  H   H336      1.0  0.43826  0.48657  0.56111  1.0000
  C   C275      1.0  0.48098  0.37855  0.97281  1.0000
  H   H337      1.0  0.49236  0.36328  0.78024  1.0000
  H   H338      1.0  0.43767  0.39499  0.73539  1.0000
  C   C276      1.0  0.47312  0.40260  0.92677  1.0000
  H   H339      1.0  0.49636  0.43055  0.77391  1.0000
  H   H340      1.0  0.42688  0.40170  0.57266  1.0000
  C   C277      1.0  0.44942  0.36345  0.83033  1.0000
  C   C278      1.0  0.46771  0.38012  0.83243  1.0000
  C   C279      1.0  0.46979  0.39800  0.81994  1.0000
  C   C280      1.0  0.45364  0.39940  0.80518  1.0000
  C   C281      1.0  0.43527  0.38276  0.80326  1.0000
  C   C282      1.0  0.43319  0.36484  0.81581  1.0000
  H   H341      1.0  0.28728  0.47465  0.97680  1.0000
  C   C283      1.0  0.48326  0.39310  0.72757  1.0000
  H   H342      1.0  0.42264  0.38373  0.79252  1.0000
  H   H343      1.0  0.41896  0.35201  0.81433  1.0000
  H   H344      1.0  0.41154  0.05871  0.61702  1.0000
  H   H345      1.0  0.42569  0.09990  0.75852  1.0000
  C   C284      1.0  0.48079  0.23898  0.85692  1.0000
  N   N19       1.0  0.45119  0.47757  0.52058  1.0000
  Fe  Fe44      1.0  0.32858  0.48865  0.93507  1.0000
  C   C285      1.0  0.41277  0.00796  0.53778  1.0000
  H   H346      1.0  0.44028  0.07921  0.64697  1.0000
  H   H347      1.0  0.40141  0.06907  0.73094  1.0000
  H   H348      1.0  0.46062  0.21881  0.91345  1.0000
  H   H349      1.0  0.48307  0.19292  0.96152  1.0000
  C   C286      1.0  0.35354  0.47661  0.80426  1.0000
  C   C287      1.0  0.35748  0.47236  0.77128  1.0000
  C   C288      1.0  0.36375  0.45792  0.76537  1.0000
  C   C289      1.0  0.36569  0.44730  0.79236  1.0000
  C   C290      1.0  0.36202  0.45175  0.82543  1.0000
  C   C291      1.0  0.35634  0.46662  0.83146  1.0000
  H   H350      1.0  0.35535  0.48001  0.75008  1.0000
  H   H351      1.0  0.36633  0.45445  0.73975  1.0000
  H   H352      1.0  0.36355  0.44362  0.84642  1.0000
  H   H353      1.0  0.35372  0.47004  0.85702  1.0000
  H   H354      1.0  0.48778  0.40830  0.93797  1.0000
  C   C292      1.0  0.45737  0.35169  0.93758  1.0000
  C   C293      1.0  0.43372  0.38545  0.71183  1.0000
  H   H355      1.0  0.48251  0.36829  0.99083  1.0000
  H   H356      1.0  0.49229  0.38139  0.95360  1.0000
  C   C294      1.0  0.40079  0.42142  0.53151  1.0000
  C   C295      1.0  0.44472  0.06704  0.77861  1.0000
  C   C296      1.0  0.44265  0.07745  0.80691  1.0000
  C   C297      1.0  0.45655  0.09714  0.81488  1.0000
  C   C298      1.0  0.47245  0.10672  0.79417  1.0000
  C   C299      1.0  0.47474  0.09620  0.76629  1.0000
  C   C300      1.0  0.46104  0.07641  0.75866  1.0000
  H   H357      1.0  0.43008  0.07032  0.82251  1.0000
  H   H358      1.0  0.45456  0.10510  0.83634  1.0000
  H   H359      1.0  0.48689  0.10353  0.74996  1.0000
  H   H360      1.0  0.46281  0.06862  0.73676  1.0000
  H   H361      1.0  0.44137  0.46505  0.56979  1.0000
  C   C301      1.0  0.46972  0.48392  0.67294  1.0000
  H   H362      1.0  0.45496  0.47437  0.66308  1.0000
  Fe  Fe45      1.0  0.47267  0.33654  0.86177  1.0000
  S   S90       1.0  0.45824  0.14681  0.95696  1.0000
  C   C302      1.0  0.30572  0.43683  0.82185  1.0000
  H   H363      1.0  0.44867  0.37854  0.99867  1.0000
  C   C303      1.0  0.39370  0.42700  0.56030  1.0000
  H   H364      1.0  0.46794  0.04833  0.80133  1.0000
  H   H365      1.0  0.48396  0.41085  0.82222  1.0000
  H   H366      1.0  0.46760  0.41833  0.70773  1.0000
  H   H367      1.0  0.47767  0.19900  0.92045  1.0000
  C   C304      1.0  0.41307  0.41259  0.53622  1.0000
  H   H368      1.0  0.47351  0.48207  0.57935  1.0000
  C   C305      1.0  0.28871  0.40877  0.85582  1.0000
  C   C306      1.0  0.42836  0.09541  0.73362  1.0000
  H   H369      1.0  0.48484  0.21276  0.85437  1.0000
  H   H370      1.0  0.28215  0.42838  0.91888  1.0000
  H   H371      1.0  0.32698  0.43487  0.87244  1.0000
  H   H372      1.0  0.29804  0.42899  0.00572  1.0000
  C   C307      1.0  0.49159  0.07167  0.83105  1.0000
  C   C308      1.0  0.26346  0.44158  0.91025  1.0000
  H   H373      1.0  0.45910  0.45461  0.53213  1.0000
  N   N20       1.0  0.29805  0.43057  0.85612  1.0000
  H   H374      1.0  0.31148  0.43249  0.90640  1.0000
  H   H375      1.0  0.31738  0.43256  0.81555  1.0000
  C   C309      1.0  0.47635  0.22015  0.99687  1.0000
  C   C310      1.0  0.28353  0.43728  0.86624  1.0000
  C   C311      1.0  0.27682  0.43497  0.89994  1.0000
  C   C312      1.0  0.46460  0.35581  0.75459  1.0000
  C   C313      1.0  0.45800  0.38351  0.93331  1.0000
  C   C314      1.0  0.48379  0.24057  0.00568  1.0000
  Fe  Fe46      1.0  0.48624  0.30468  0.87049  1.0000
  H   H376      1.0  0.49537  0.45811  0.74412  1.0000
  C   C315      1.0  0.44544  0.37426  0.66405  1.0000
  H   H377      1.0  0.42367  0.37021  0.71872  1.0000
  H   H378      1.0  0.49139  0.40767  0.71819  1.0000
  C   C316      1.0  0.48575  0.48342  0.65754  1.0000
  H   H379      1.0  0.27939  0.44820  0.81701  1.0000
  H   H380      1.0  0.42757  0.36297  0.91871  1.0000
  C   C317      1.0  0.38457  0.05393  0.66236  1.0000
  S   S91       1.0  0.49452  0.13577  0.90082  1.0000
  C   C318      1.0  0.49547  0.01002  0.64815  1.0000
  C   C319      1.0  0.43635  0.38993  0.89403  1.0000
  H   H381      1.0  0.45344  0.41225  0.66850  1.0000
  C   C320      1.0  0.41799  0.07105  0.68564  1.0000
  H   H382      1.0  0.42167  0.49180  0.81839  1.0000
  H   H383      1.0  0.25625  0.45937  0.83606  1.0000
  H   H384      1.0  0.48405  0.25109  0.98762  1.0000
  C   C321      1.0  0.48235  0.20491  0.94708  1.0000
  C   C322      1.0  0.45137  0.40863  0.88855  1.0000
  H   H385      1.0  0.42228  0.04526  0.63928  1.0000
  C   C323      1.0  0.44982  0.10086  0.68713  1.0000
  H   H386      1.0  0.44190  0.34300  0.92793  1.0000
  C   C324      1.0  0.43615  0.08316  0.67086  1.0000
  C   C325      1.0  0.49690  0.34189  0.01030  1.0000
  H   H387      1.0  0.40050  0.01109  0.54101  1.0000
  H   H388      1.0  0.27299  0.50188  0.84897  1.0000
  H   H389      1.0  0.48027  0.37928  0.84375  1.0000
  C   C326      1.0  0.40887  0.04732  0.63600  1.0000
  H   H390      1.0  0.46653  0.35505  0.91494  1.0000
  N   N21       1.0  0.46091  0.37008  0.95664  1.0000
  C   C327      1.0  0.44688  0.36503  0.98436  1.0000
  H   H391      1.0  0.47559  0.41010  0.67025  1.0000
  Fe  Fe47      1.0  0.49431  0.14951  0.85123  1.0000
  C   C328      1.0  0.48889  0.25897  0.86738  1.0000
  C   C329      1.0  0.46302  0.38098  0.71874  1.0000
  H   H392      1.0  0.25901  0.44012  0.93637  1.0000
  Fe  Fe48      1.0  0.46373  0.01578  0.70106  1.0000
  H   H393      1.0  0.38726  0.06666  0.64638  1.0000
  C   C330      1.0  0.27533  0.44586  0.84317  1.0000
  C   C331      1.0  0.44907  0.19444  0.96328  1.0000
  H   H394      1.0  0.42489  0.39007  0.69481  1.0000
  C   C332      1.0  0.47931  0.32432  0.00795  1.0000
  C   C333      1.0  0.48350  0.05522  0.80847  1.0000
  H   H395      1.0  0.45837  0.37475  0.65115  1.0000
  H   H396      1.0  0.43562  0.35864  0.66945  1.0000
  C   C334      1.0  0.48030  0.49385  0.56206  1.0000
  H   H397      1.0  0.32174  0.45480  0.88392  1.0000
  C   C335      1.0  0.39874  0.03586  0.69158  1.0000
  H   H398      1.0  0.46088  0.34180  0.95355  1.0000
  H   H399      1.0  0.49355  0.08936  0.89360  1.0000
  C   C336      1.0  0.47090  0.49375  0.53042  1.0000
  S   S92       1.0  0.35676  0.50223  0.90770  1.0000
  C   C337      1.0  0.41459  0.07771  0.71763  1.0000
  C   C338      1.0  0.41783  0.40903  0.56935  1.0000
  C   C339      1.0  0.46707  0.22583  0.93891  1.0000
  S   S93       1.0  0.48617  0.32301  0.82671  1.0000
  H   H400      1.0  0.45729  0.34155  0.76591  1.0000
  C   C340      1.0  0.43788  0.47296  0.54950  1.0000
  N   N22       1.0  0.45158  0.38716  0.69540  1.0000
  H   H401      1.0  0.46371  0.10975  0.67578  1.0000
  H   H402      1.0  0.37816  0.05595  0.68626  1.0000
  C   C341      1.0  0.44590  0.10700  0.71834  1.0000
  Fe  Fe49      1.0  0.48357  0.15615  0.92262  1.0000
  C   C342      1.0  0.48434  0.36808  0.76287  1.0000
  C   C343      1.0  0.31520  0.43849  0.88072  1.0000
  H   H403      1.0  0.43713  0.37882  0.64558  1.0000
  H   H404      1.0  0.29409  0.42989  0.80133  1.0000
  S   S94       1.0  0.50156  0.36077  0.88145  1.0000
  H   H405      1.0  0.38412  0.43375  0.55695  1.0000
  H   H406      1.0  0.38833  0.02137  0.67925  1.0000
  H   H407      1.0  0.45673  0.12049  0.73131  1.0000
  N   N23       1.0  0.40293  0.05242  0.66897  1.0000
  C   C344      1.0  0.46973  0.41490  0.90473  1.0000
  H   H408      1.0  0.39785  0.48635  0.80173  1.0000
  H   H409      1.0  0.43137  0.35694  0.97467  1.0000
  S   S95       1.0  0.47518  0.27187  0.85970  1.0000
  H   H410      1.0  0.41244  0.03508  0.69865  1.0000
  N   N24       1.0  0.46882  0.21164  0.96212  1.0000
  C   C345      1.0  0.46072  0.15157  0.00131  1.0000
  C   C346      1.0  0.25612  0.45038  0.88726  1.0000
  H   H411      1.0  0.42230  0.38486  0.88041  1.0000
  S   S96       1.0  0.44860  0.00742  0.74996  1.0000
  H   H412      1.0  0.42946  0.13987  0.00479  1.0000
  C   C347      1.0  0.49366  0.38665  0.74934  1.0000
  H   H413      1.0  0.49227  0.16453  0.00618  1.0000
  Fe  Fe50      1.0  0.33810  0.50184  0.86283  1.0000
  H   H414      1.0  0.43874  0.19848  0.97665  1.0000
  C   C348      1.0  0.31553  0.46051  0.00800  1.0000
  H   H415      1.0  0.42235  0.46298  0.54134  1.0000
  H   H416      1.0  0.44264  0.18844  0.93729  1.0000
  H   H417      1.0  0.48903  0.03507  0.77703  1.0000
  H   H418      1.0  0.49412  0.45107  0.53271  1.0000
  H   H419      1.0  0.44895  0.41803  0.87083  1.0000
  C   C349      1.0  0.49316  0.12541  0.00086  1.0000
  S   S97       1.0  0.49653  0.03074  0.70643  1.0000
  H   H420      1.0  0.45741  0.23183  0.94909  1.0000
  H   H421      1.0  0.48149  0.42928  0.89959  1.0000
  H   H422      1.0  0.48468  0.39238  0.98795  1.0000
  H   H423      1.0  0.48792  0.12101  0.97466  1.0000
  C   C350      1.0  0.41366  0.49696  0.80055  1.0000
  C   C351      1.0  0.49533  0.04770  0.79475  1.0000
  Fe  Fe51      1.0  0.49998  0.33954  0.92118  1.0000
  H   H424      1.0  0.44908  0.35533  0.00288  1.0000
  C   C352      1.0  0.26369  0.48238  0.97288  1.0000
  C   C353      1.0  0.26192  0.45238  0.85377  1.0000
  H   H425      1.0  0.26578  0.48570  0.94624  1.0000
  H   H426      1.0  0.44937  0.18182  0.97623  1.0000
  H   H427      1.0  0.49756  0.21721  0.94654  1.0000
  H   H428      1.0  0.41849  0.40805  0.51434  1.0000
  C   C354      1.0  0.26131  0.50349  0.86119  1.0000
  S   S98       1.0  0.46771  0.66162  0.13897  1.0000
  H   H429      1.0  0.41434  0.74363  0.20999  1.0000
  Fe  Fe52      1.0  0.46819  0.64098  0.17825  1.0000
  S   S99       1.0  0.44308  0.62344  0.21200  1.0000
  S   S100      1.0  0.48551  0.81372  0.12101  1.0000
  S   S101      1.0  0.48043  0.82498  0.19995  1.0000
  Fe  Fe53      1.0  0.47543  0.83351  0.14786  1.0000
  S   S102      1.0  0.44786  0.83354  0.12610  1.0000
  C   C355      1.0  0.36899  0.77362  0.19263  1.0000
  S   S103      1.0  0.28716  0.52268  0.20635  1.0000
  C   C356      1.0  0.27227  0.77891  0.19353  1.0000
  H   H430      1.0  0.37555  0.78739  0.14466  1.0000
  S   S104      1.0  0.33935  0.52479  0.22353  1.0000
  H   H431      1.0  0.47717  0.70882  0.18204  1.0000
  H   H432      1.0  0.36556  0.80289  0.05521  1.0000
  Fe  Fe54      1.0  0.34996  0.52198  0.17222  1.0000
  S   S105      1.0  0.37649  0.54335  0.14539  1.0000
  C   C357      1.0  0.48029  0.64383  0.01723  1.0000
  Fe  Fe55      1.0  0.34713  0.83816  0.12892  1.0000
  S   S106      1.0  0.33654  0.81159  0.16075  1.0000
  S   S107      1.0  0.35811  0.83798  0.07651  1.0000
  Fe  Fe56      1.0  0.34940  0.86620  0.18891  1.0000
  S   S108      1.0  0.33876  0.84168  0.22563  1.0000
  S   S109      1.0  0.36298  0.89967  0.19608  1.0000
  Fe  Fe57      1.0  0.35893  0.83197  0.19984  1.0000
  S   S110      1.0  0.38161  0.82557  0.22637  1.0000
  Fe  Fe58      1.0  0.31700  0.82320  0.18318  1.0000
  S   S111      1.0  0.28409  0.80469  0.18825  1.0000
  S   S112      1.0  0.37093  0.85757  0.16643  1.0000
  S   S113      1.0  0.32619  0.84866  0.14815  1.0000
  S   S114      1.0  0.43310  0.98146  0.36957  1.0000
  S   S115      1.0  0.38164  0.95151  0.33483  1.0000
  C   C358      1.0  0.36903  0.91346  0.23551  1.0000
  C   C359      1.0  0.38183  0.93379  0.23597  1.0000
  C   C360      1.0  0.38640  0.94548  0.26639  1.0000
  C   C361      1.0  0.37786  0.93702  0.29664  1.0000
  C   C362      1.0  0.36531  0.91662  0.29631  1.0000
  C   C363      1.0  0.36109  0.90484  0.26601  1.0000
  H   H433      1.0  0.38808  0.94064  0.21258  1.0000
  H   H434      1.0  0.39601  0.96115  0.26618  1.0000
  H   H435      1.0  0.35855  0.90993  0.31949  1.0000
  H   H436      1.0  0.35114  0.88924  0.26604  1.0000
  C   C364      1.0  0.39300  0.76459  0.21642  1.0000
  H   H437      1.0  0.40092  0.81401  0.05839  1.0000
  H   H438      1.0  0.29834  0.77515  0.19151  1.0000
  N   N25       1.0  0.37461  0.95449  0.44606  1.0000
  H   H439      1.0  0.34529  0.89397  0.49981  1.0000
  H   H440      1.0  0.45193  0.84961  0.03097  1.0000
  C   C365      1.0  0.42993  0.83183  0.15468  1.0000
  C   C366      1.0  0.41248  0.83125  0.14184  1.0000
  C   C367      1.0  0.39758  0.82913  0.16373  1.0000
  C   C368      1.0  0.40000  0.82754  0.19867  1.0000
  C   C369      1.0  0.41750  0.82822  0.21162  1.0000
  C   C370      1.0  0.43249  0.83048  0.18968  1.0000
  H   H441      1.0  0.41039  0.83236  0.11486  1.0000
  H   H442      1.0  0.38405  0.82834  0.15336  1.0000
  H   H443      1.0  0.41950  0.82711  0.23865  1.0000
  H   H444      1.0  0.44602  0.83124  0.19987  1.0000
  C   C371      1.0  0.42434  0.60122  0.19360  1.0000
  C   C372      1.0  0.40772  0.58977  0.21199  1.0000
  C   C373      1.0  0.39273  0.57200  0.19753  1.0000
  C   C374      1.0  0.39456  0.56544  0.16492  1.0000
  C   C375      1.0  0.41122  0.57678  0.14682  1.0000
  C   C376      1.0  0.42586  0.59470  0.16086  1.0000
  H   H445      1.0  0.40631  0.59482  0.23722  1.0000
  H   H446      1.0  0.37980  0.56344  0.21155  1.0000
  H   H447      1.0  0.41258  0.57199  0.12136  1.0000
  H   H448      1.0  0.43806  0.60361  0.14583  1.0000
  C   C377      1.0  0.38038  0.78079  0.16446  1.0000
  C   C378      1.0  0.39005  0.60251  0.11934  1.0000
  H   H449      1.0  0.49632  0.70709  0.08198  1.0000
  H   H450      1.0  0.36631  0.75992  0.24039  1.0000
  H   H451      1.0  0.35545  0.77473  0.19468  1.0000
  H   H452      1.0  0.36705  0.57397  0.10779  1.0000
  C   C379      1.0  0.49320  0.84285  0.01382  1.0000
  H   H453      1.0  0.38514  0.60288  0.14482  1.0000
  Fe  Fe59      1.0  0.40722  0.98227  0.34379  1.0000
  H   H454      1.0  0.44718  0.81450  0.02053  1.0000
  S   S116      1.0  0.46563  0.63477  0.05245  1.0000
  C   C380      1.0  0.28259  0.76786  0.19369  1.0000
  S   S117      1.0  0.47242  0.99899  0.30448  1.0000
  C   C381      1.0  0.34516  0.83932  0.04000  1.0000
  C   C382      1.0  0.32632  0.83781  0.04146  1.0000
  C   C383      1.0  0.48573  0.72413  0.17633  1.0000
  H   H455      1.0  0.31944  0.83602  0.06563  1.0000
  N   N26       1.0  0.42450  0.77212  0.18789  1.0000
  C   C384      1.0  0.43660  0.78258  0.21894  1.0000
  C   C385      1.0  0.42145  0.75150  0.18698  1.0000
  C   C386      1.0  0.43600  0.78175  0.15802  1.0000
  C   C387      1.0  0.40531  0.77236  0.18860  1.0000
  C   C388      1.0  0.39835  0.78036  0.16240  1.0000
  H   H456      1.0  0.43022  0.77502  0.24257  1.0000
  H   H457      1.0  0.45155  0.78360  0.21843  1.0000
  H   H458      1.0  0.43834  0.79783  0.22156  1.0000
  H   H459      1.0  0.43569  0.75086  0.18569  1.0000
  H   H460      1.0  0.41210  0.74300  0.16436  1.0000
  H   H461      1.0  0.43941  0.79754  0.15776  1.0000
  H   H462      1.0  0.45035  0.78144  0.15824  1.0000
  H   H463      1.0  0.42822  0.77422  0.13363  1.0000
  H   H464      1.0  0.40671  0.78688  0.14043  1.0000
  H   H465      1.0  0.36066  0.92964  0.50154  1.0000
  S   S118      1.0  0.32009  0.51032  0.14641  1.0000
  C   C389      1.0  0.34741  0.89090  0.44591  1.0000
  C   C390      1.0  0.42873  0.52867  0.24253  1.0000
  H   H466      1.0  0.37412  0.89284  0.12865  1.0000
  H   H467      1.0  0.38186  0.98052  0.47798  1.0000
  H   H468      1.0  0.48869  0.60661  0.01215  1.0000
  H   H469      1.0  0.40804  0.54927  0.22750  1.0000
  H   H470      1.0  0.33664  0.87428  0.08858  1.0000
  C   C391      1.0  0.38944  0.55907  0.03138  1.0000
  C   C392      1.0  0.37521  0.76540  0.21845  1.0000
  S   S119      1.0  0.49893  0.66120  0.19882  1.0000
  S   S120      1.0  0.47781  0.62426  0.14265  1.0000
  H   H471      1.0  0.37086  0.87800  0.09058  1.0000
  H   H472      1.0  0.39122  0.90209  0.09602  1.0000
  H   H473      1.0  0.40290  0.97829  0.43578  1.0000
  C   C393      1.0  0.35894  0.92227  0.47699  1.0000
  C   C394      1.0  0.39392  0.81266  0.03360  1.0000
  H   H474      1.0  0.27035  0.52099  0.27129  1.0000
  C   C395      1.0  0.35367  0.90068  0.41583  1.0000
  Fe  Fe60      1.0  0.47970  0.64622  0.10471  1.0000
  N   N27       1.0  0.41715  0.88761  0.24543  1.0000
  C   C396      1.0  0.41931  0.88216  0.20992  1.0000
  C   C397      1.0  0.42172  0.87521  0.26882  1.0000
  C   C398      1.0  0.39620  0.88270  0.24915  1.0000
  C   C399      1.0  0.43087  0.90868  0.25286  1.0000
  C   C400      1.0  0.42447  0.92296  0.26149  1.0000
  C   C401      1.0  0.45143  0.91554  0.25097  1.0000
  C   C402      1.0  0.43792  0.94281  0.26772  1.0000
  C   C403      1.0  0.46472  0.93541  0.25722  1.0000
  C   C404      1.0  0.45797  0.94900  0.26547  1.0000
  H   H475      1.0  0.43412  0.88347  0.20564  1.0000
  H   H476      1.0  0.40873  0.86660  0.20298  1.0000
  H   H477      1.0  0.41661  0.89159  0.19159  1.0000
  H   H478      1.0  0.43642  0.87616  0.26495  1.0000
  H   H479      1.0  0.41105  0.85930  0.26493  1.0000
  H   H480      1.0  0.42125  0.87956  0.29585  1.0000
  H   H481      1.0  0.39140  0.89067  0.23086  1.0000
  H   H482      1.0  0.38630  0.86670  0.24389  1.0000
  H   H483      1.0  0.39337  0.88624  0.27539  1.0000
  H   H484      1.0  0.40917  0.91929  0.26342  1.0000
  H   H485      1.0  0.45739  0.90561  0.24434  1.0000
  H   H486      1.0  0.47981  0.61914  0.21912  1.0000
  H   H487      1.0  0.38622  0.93141  0.09147  1.0000
  N   N28       1.0  0.48580  0.61136  0.26871  1.0000
  C   C405      1.0  0.48985  0.59595  0.28372  1.0000
  H   H488      1.0  0.46844  0.61371  0.30922  1.0000
  C   C406      1.0  0.35844  0.55108  0.05521  1.0000
  H   H489      1.0  0.40364  0.95690  0.45163  1.0000
  C   C407      1.0  0.49643  0.70778  0.05444  1.0000
  H   H490      1.0  0.35163  0.89233  0.39205  1.0000
  H   H491      1.0  0.42883  0.50859  0.28101  1.0000
  H   H492      1.0  0.34727  0.55592  0.06185  1.0000
  C   C408      1.0  0.45766  0.52592  0.26426  1.0000
  N   N29       1.0  0.37596  0.56727  0.04088  1.0000
  C   C409      1.0  0.49843  0.98027  0.45826  1.0000
  H   H493      1.0  0.38453  0.52830  0.22155  1.0000
  C   C410      1.0  0.39500  0.96191  0.43494  1.0000
  C   C411      1.0  0.46776  0.61159  0.28105  1.0000
  H   H494      1.0  0.46150  0.95362  0.44211  1.0000
  C   C412      1.0  0.25548  0.77633  0.09265  1.0000
  H   H495      1.0  0.36005  0.58064  0.01589  1.0000
  C   C413      1.0  0.47854  0.73779  0.18353  1.0000
  H   H496      1.0  0.38188  0.54553  0.01451  1.0000
  H   H497      1.0  0.43129  0.83943  0.05671  1.0000
  S   S121      1.0  0.48012  0.77453  0.18751  1.0000
  C   C414      1.0  0.48143  0.56767  0.31989  1.0000
  H   H498      1.0  0.26996  0.80776  0.02765  1.0000
  H   H499      1.0  0.40328  0.51400  0.29554  1.0000
  C   C415      1.0  0.47676  0.58163  0.30546  1.0000
  H   H500      1.0  0.46413  0.51923  0.28100  1.0000
  C   C416      1.0  0.26596  0.79360  0.07540  1.0000
  H   H501      1.0  0.38589  0.52091  0.27841  1.0000
  H   H502      1.0  0.48036  0.94036  0.25548  1.0000
  H   H503      1.0  0.43281  0.95355  0.27415  1.0000
  C   C417      1.0  0.36527  0.93271  0.44662  1.0000
  N   N30       1.0  0.40731  0.52206  0.24278  1.0000
  H   H504      1.0  0.48518  0.54451  0.24267  1.0000
  H   H505      1.0  0.36386  0.95574  0.39507  1.0000
  C   C418      1.0  0.49990  0.65804  0.02143  1.0000
  C   C419      1.0  0.48344  0.60816  0.23122  1.0000
  C   C420      1.0  0.36421  0.90052  0.04696  1.0000
  C   C421      1.0  0.48167  0.50931  0.50858  1.0000
  H   H506      1.0  0.40309  0.53124  0.19295  1.0000
  H   H507      1.0  0.36726  0.92812  0.39212  1.0000
  Fe  Fe61      1.0  0.49924  0.68062  0.15593  1.0000
  H   H508      1.0  0.39721  0.75811  0.23712  1.0000
  N   N31       1.0  0.36312  0.90145  0.08447  1.0000
  C   C422      1.0  0.37055  0.92221  0.09693  1.0000
  C   C423      1.0  0.34292  0.89017  0.09649  1.0000
  C   C424      1.0  0.37538  0.89329  0.10053  1.0000
  H   H509      1.0  0.30183  0.83740  0.01241  1.0000
  C   C425      1.0  0.40060  0.53327  0.22022  1.0000
  C   C426      1.0  0.41389  0.61757  0.07682  1.0000
  H   H510      1.0  0.43604  0.55061  0.20313  1.0000
  H   H511      1.0  0.46565  0.62392  0.27047  1.0000
  H   H512      1.0  0.36251  0.54540  0.07827  1.0000
  H   H513      1.0  0.36198  0.92904  0.08491  1.0000
  H   H514      1.0  0.36950  0.92331  0.12510  1.0000
  H   H515      1.0  0.27724  0.80655  0.08905  1.0000
  H   H516      1.0  0.33299  0.89606  0.08679  1.0000
  H   H517      1.0  0.34264  0.89096  0.12482  1.0000
  C   C427      1.0  0.38263  0.90988  0.03157  1.0000
  H   H518      1.0  0.50264  0.55664  0.32430  1.0000
  H   H519      1.0  0.46444  0.73280  0.19477  1.0000
  H   H520      1.0  0.36058  0.95922  0.48971  1.0000
  C   C428      1.0  0.46960  0.54026  0.24262  1.0000
  H   H521      1.0  0.42728  0.62980  0.06898  1.0000
  C   C429      1.0  0.26126  0.51825  0.29390  1.0000
  C   C430      1.0  0.26123  0.51050  0.19955  1.0000
  H   H522      1.0  0.49395  0.59979  0.06576  1.0000
  H   H523      1.0  0.34788  0.95460  0.42824  1.0000
  C   C431      1.0  0.36253  0.92125  0.41612  1.0000
  C   C432      1.0  0.37977  0.58587  0.09763  1.0000
  Fe  Fe62      1.0  0.30886  0.51028  0.19848  1.0000
  C   C433      1.0  0.46427  0.96921  0.44108  1.0000
  H   H524      1.0  0.41539  0.63084  0.12638  1.0000
  H   H525      1.0  0.48481  0.96163  0.39432  1.0000
  H   H526      1.0  0.39606  0.91792  0.04677  1.0000
  H   H527      1.0  0.46830  0.96442  0.26995  1.0000
  H   H528      1.0  0.36986  0.97701  0.42141  1.0000
  H   H529      1.0  0.45430  0.59792  0.27284  1.0000
  H   H530      1.0  0.39554  0.95692  0.40835  1.0000
  H   H531      1.0  0.39553  0.55525  0.05441  1.0000
  C   C434      1.0  0.48754  0.97720  0.39740  1.0000
  H   H532      1.0  0.25859  0.53683  0.21169  1.0000
  C   C435      1.0  0.40715  0.61825  0.10907  1.0000
  H   H533      1.0  0.34050  0.87493  0.44556  1.0000
  H   H534      1.0  0.47388  0.67801  0.04594  1.0000
  H   H535      1.0  0.49642  0.62448  0.06473  1.0000
  H   H536      1.0  0.40196  0.56947  0.01682  1.0000
  H   H537      1.0  0.48662  0.98856  0.50229  1.0000
  C   C436      1.0  0.46149  0.54898  0.22097  1.0000
  C   C437      1.0  0.48957  0.75784  0.17668  1.0000
  H   H538      1.0  0.27016  0.52982  0.31369  1.0000
  N   N32       1.0  0.48490  0.98231  0.43295  1.0000
  Fe  Fe63      1.0  0.49255  0.80670  0.17305  1.0000
  H   H539      1.0  0.46288  0.58095  0.31184  1.0000
  H   H540      1.0  0.50254  0.98698  0.38906  1.0000
  C   C438      1.0  0.38637  0.58462  0.06462  1.0000
  C   C439      1.0  0.49699  0.51251  0.32560  1.0000
  H   H541      1.0  0.47138  0.55691  0.33657  1.0000
  H   H542      1.0  0.47726  0.97906  0.37896  1.0000
  H   H543      1.0  0.28060  0.73883  0.19672  1.0000
  H   H544      1.0  0.35107  0.53825  0.03674  1.0000
  C   C440      1.0  0.40162  0.52428  0.27779  1.0000
  C   C441      1.0  0.37547  0.96425  0.47967  1.0000
  C   C442      1.0  0.36356  0.96068  0.42176  1.0000
  C   C443      1.0  0.44136  0.54338  0.22079  1.0000
  C   C444      1.0  0.49903  0.56742  0.31295  1.0000
  C   C445      1.0  0.43544  0.00368  0.50026  1.0000
  H   H545      1.0  0.47131  0.59335  0.22378  1.0000
  H   H546      1.0  0.40962  0.60127  0.03013  1.0000
  C   C446      1.0  0.27250  0.74727  0.19669  1.0000
  C   C447      1.0  0.40368  0.60108  0.05482  1.0000
  H   H547      1.0  0.38497  0.96168  0.49869  1.0000
  H   H548      1.0  0.45375  0.96989  0.42180  1.0000
  S   S122      1.0  0.44437  0.00251  0.45934  1.0000
  H   H549      1.0  0.46028  0.97346  0.46579  1.0000
  H   H550      1.0  0.33269  0.88269  0.03378  1.0000
  H   H551      1.0  0.47616  0.51000  0.48338  1.0000
  C   C448      1.0  0.49964  0.50756  0.38557  1.0000
  C   C449      1.0  0.35010  0.90166  0.47642  1.0000
  C   C450      1.0  0.34735  0.89044  0.02473  1.0000
  C   C451      1.0  0.43112  0.80980  0.01973  1.0000
  H   H552      1.0  0.25390  0.74698  0.13134  1.0000
  C   C452      1.0  0.37362  0.80599  0.03203  1.0000
  C   C453      1.0  0.26183  0.79432  0.04095  1.0000
  H   H553      1.0  0.42630  0.80615  0.04616  1.0000
  H   H554      1.0  0.41049  0.53958  0.28846  1.0000
  H   H555      1.0  0.43137  0.85437  0.02215  1.0000
  H   H556      1.0  0.47086  0.56000  0.20394  1.0000
  H   H557      1.0  0.25897  0.77681  0.11962  1.0000
  C   C454      1.0  0.43752  0.52008  0.26419  1.0000
  C   C455      1.0  0.49721  0.98401  0.49344  1.0000
  H   H558      1.0  0.49701  0.60946  0.21954  1.0000
  C   C456      1.0  0.48811  0.00298  0.43410  1.0000
  C   C457      1.0  0.48376  0.69146  0.03409  1.0000
  C   C458      1.0  0.43562  0.84291  0.03001  1.0000
  H   H559      1.0  0.47901  0.84249  0.01460  1.0000
  H   H560      1.0  0.49769  0.84580  0.06828  1.0000
  H   H561      1.0  0.25394  0.73325  0.09393  1.0000
  S   S123      1.0  0.42495  0.00399  0.30565  1.0000
  H   H562      1.0  0.49933  0.64318  0.26799  1.0000
  C   C459      1.0  0.50242  0.63115  0.27710  1.0000
  C   C460      1.0  0.31633  0.83843  0.01137  1.0000
  Fe  Fe64      1.0  0.46777  0.62881  0.82983  1.0000
  H   H563      1.0  0.48412  0.53701  0.79143  1.0000
  S   S124      1.0  0.44082  0.59952  0.82036  1.0000
  S   S125      1.0  0.41214  0.00423  0.60741  1.0000
  S   S126      1.0  0.47731  0.64913  0.78632  1.0000
  S   S127      1.0  0.47232  0.65299  0.86786  1.0000
  C   C461      1.0  0.34900  0.88970  0.98947  1.0000
  Fe  Fe65      1.0  0.47393  0.82153  0.82325  1.0000
  S   S128      1.0  0.48843  0.85068  0.85175  1.0000
  S   S129      1.0  0.44369  0.81126  0.79869  1.0000
  H   H564      1.0  0.36869  0.84320  0.00743  1.0000
  H   H565      1.0  0.45818  0.53351  0.68212  1.0000
  S   S130      1.0  0.47853  0.80469  0.86541  1.0000
  Fe  Fe66      1.0  0.31880  0.80567  0.83929  1.0000
  S   S131      1.0  0.31102  0.83062  0.84312  1.0000
  S   S132      1.0  0.29946  0.77340  0.82284  1.0000
  Fe  Fe67      1.0  0.36054  0.83155  0.86885  1.0000
  S   S133      1.0  0.35573  0.85827  0.87613  1.0000
  S   S134      1.0  0.38975  0.83469  0.88854  1.0000
  Fe  Fe68      1.0  0.32640  0.83696  0.89483  1.0000
  S   S135      1.0  0.31249  0.84100  0.94235  1.0000
  Fe  Fe69      1.0  0.34126  0.84994  0.82385  1.0000
  S   S136      1.0  0.34652  0.87175  0.78166  1.0000
  S   S137      1.0  0.33250  0.81103  0.89213  1.0000
  S   S138      1.0  0.34777  0.82422  0.81545  1.0000
  Fe  Fe70      1.0  0.42651  0.97986  0.72164  1.0000
  S   S139      1.0  0.42147  0.95277  0.75190  1.0000
  H   H566      1.0  0.40691  0.53750  0.79132  1.0000
  Fe  Fe71      1.0  0.35711  0.53102  0.92175  1.0000
  H   H567      1.0  0.47410  0.67880  0.98451  1.0000
  S   S140      1.0  0.38536  0.55707  0.94050  1.0000
  H   H568      1.0  0.41861  0.51423  0.86373  1.0000
  H   H569      1.0  0.46449  0.72597  0.72857  1.0000
  H   H570      1.0  0.48384  0.69445  0.89792  1.0000
  H   H571      1.0  0.45818  0.94904  0.74624  1.0000
  S   S141      1.0  0.33997  0.53168  0.87517  1.0000
  H   H572      1.0  0.45219  0.83684  0.97577  1.0000
  C   C462      1.0  0.46423  0.56619  0.81829  1.0000
  C   C463      1.0  0.28786  0.78313  0.95377  1.0000
  C   C464      1.0  0.35398  0.84163  0.00861  1.0000
  C   C465      1.0  0.50129  0.75055  0.74173  1.0000
  C   C466      1.0  0.26143  0.76874  0.82800  1.0000
  C   C467      1.0  0.32504  0.84025  0.97986  1.0000
  C   C468      1.0  0.34387  0.84183  0.97857  1.0000
  H   H573      1.0  0.43985  0.56887  0.75460  1.0000
  H   H574      1.0  0.35080  0.84350  0.95445  1.0000
  H   H575      1.0  0.50010  0.99736  0.73537  1.0000
  C   C469      1.0  0.36662  0.89542  0.77613  1.0000
  C   C470      1.0  0.36648  0.90578  0.74715  1.0000
  C   C471      1.0  0.38274  0.92383  0.74016  1.0000
  C   C472      1.0  0.39954  0.93158  0.76182  1.0000
  C   C473      1.0  0.39962  0.92132  0.79100  1.0000
  C   C474      1.0  0.38317  0.90354  0.79843  1.0000
  H   H576      1.0  0.35377  0.89967  0.72973  1.0000
  H   H577      1.0  0.38246  0.93141  0.71750  1.0000
  H   H578      1.0  0.41249  0.92719  0.80802  1.0000
  H   H579      1.0  0.38338  0.89600  0.82118  1.0000
  H   H580      1.0  0.27420  0.73185  0.81897  1.0000
  C   C475      1.0  0.46963  0.54436  0.66629  1.0000
  S   S142      1.0  0.49732  0.63020  0.84016  1.0000
  H   H581      1.0  0.47774  0.63674  0.93105  1.0000
  H   H582      1.0  0.45707  0.62542  0.98107  1.0000
  C   C476      1.0  0.28000  0.56213  0.87482  1.0000
  C   C477      1.0  0.48391  0.64291  0.95610  1.0000
  H   H583      1.0  0.28483  0.55822  0.89829  1.0000
  H   H584      1.0  0.47252  0.71623  0.76297  1.0000
  C   C478      1.0  0.42770  0.81563  0.82502  1.0000
  C   C479      1.0  0.43453  0.82552  0.85667  1.0000
  C   C480      1.0  0.42258  0.83099  0.87593  1.0000
  C   C481      1.0  0.40350  0.82623  0.86418  1.0000
  C   C482      1.0  0.39618  0.81545  0.83331  1.0000
  C   C483      1.0  0.40833  0.81022  0.81365  1.0000
  H   H585      1.0  0.44912  0.82917  0.86628  1.0000
  H   H586      1.0  0.42831  0.83927  0.89975  1.0000
  H   H587      1.0  0.38130  0.81133  0.82445  1.0000
  H   H588      1.0  0.40285  0.80229  0.78940  1.0000
  C   C484      1.0  0.25728  0.74391  0.94432  1.0000
  C   C485      1.0  0.45288  0.57580  0.73992  1.0000
  C   C486      1.0  0.42565  0.58838  0.85434  1.0000
  C   C487      1.0  0.43101  0.59585  0.88792  1.0000
  C   C488      1.0  0.41864  0.58617  0.91440  1.0000
  C   C489      1.0  0.40093  0.56902  0.90735  1.0000
  C   C490      1.0  0.39574  0.56151  0.87381  1.0000
  C   C491      1.0  0.40798  0.57123  0.84742  1.0000
  H   H589      1.0  0.44466  0.60903  0.89348  1.0000
  H   H590      1.0  0.42276  0.59203  0.94031  1.0000
  H   H591      1.0  0.38224  0.54823  0.86811  1.0000
  H   H592      1.0  0.40368  0.56551  0.82148  1.0000
  C   C492      1.0  0.48707  0.72278  0.83067  1.0000
  H   H593      1.0  0.28788  0.77702  0.00661  1.0000
  H   H594      1.0  0.43415  0.55710  0.82646  1.0000
  H   H595      1.0  0.46095  0.72660  0.82656  1.0000
  H   H596      1.0  0.47863  0.76312  0.83290  1.0000
  H   H597      1.0  0.49364  0.57186  0.80782  1.0000
  C   C493      1.0  0.26494  0.73898  0.82195  1.0000
  C   C494      1.0  0.26066  0.55910  0.87052  1.0000
  H   H598      1.0  0.46231  0.54975  0.64752  1.0000
  H   H599      1.0  0.47554  0.96582  0.77844  1.0000
  H   H600      1.0  0.41016  0.53162  0.85154  1.0000
  H   H601      1.0  0.26785  0.78465  0.82979  1.0000
  H   H602      1.0  0.34808  0.79928  0.99981  1.0000
  H   H603      1.0  0.46647  0.70378  0.72217  1.0000
  H   H604      1.0  0.46839  0.58149  0.82530  1.0000
  H   H605      1.0  0.46786  0.68933  0.93249  1.0000
  H   H606      1.0  0.42384  0.79600  0.00345  1.0000
  C   C495      1.0  0.48673  0.75469  0.83400  1.0000
  H   H607      1.0  0.45664  0.99686  0.52587  1.0000
  C   C496      1.0  0.43600  0.83102  0.97320  1.0000
  C   C497      1.0  0.48310  0.69282  0.92601  1.0000
  C   C498      1.0  0.29303  0.56966  0.84882  1.0000
  H   H608      1.0  0.48127  0.54138  0.72756  1.0000
  H   H609      1.0  0.45023  0.51215  0.79125  1.0000
  C   C499      1.0  0.47123  0.96368  0.75086  1.0000
  C   C500      1.0  0.46019  0.56441  0.72287  1.0000
  H   H610      1.0  0.48566  0.67990  0.93118  1.0000
  C   C501      1.0  0.40500  0.81783  0.00388  1.0000
  C   C502      1.0  0.45334  0.52697  0.79922  1.0000
  H   H611      1.0  0.49409  0.99122  0.60528  1.0000
  C   C503      1.0  0.44457  0.55206  0.81884  1.0000
  H   H612      1.0  0.29708  0.58030  0.79825  1.0000
  H   H613      1.0  0.39005  0.51212  0.78429  1.0000
  C   C504      1.0  0.49313  0.55296  0.71343  1.0000
  C   C505      1.0  0.47302  0.54122  0.79901  1.0000
  H   H614      1.0  0.43074  0.81823  0.95457  1.0000
  H   H615      1.0  0.26260  0.71312  0.92577  1.0000
  H   H616      1.0  0.26343  0.57534  0.78979  1.0000
  C   C506      1.0  0.42172  0.00428  0.56656  1.0000
  C   C507      1.0  0.38411  0.90882  0.99629  1.0000
  Fe  Fe72      1.0  0.48466  0.67381  0.82555  1.0000
  C   C508      1.0  0.43846  0.53199  0.80934  1.0000
  C   C509      1.0  0.47226  0.63641  0.98449  1.0000
  H   H617      1.0  0.41123  0.52319  0.75872  1.0000
  H   H618      1.0  0.47656  0.93670  0.77857  1.0000
  H   H619      1.0  0.44472  0.99754  0.58376  1.0000
  C   C510      1.0  0.27357  0.75968  0.82448  1.0000
  C   C511      1.0  0.47731  0.57328  0.70365  1.0000
  C   C512      1.0  0.48736  0.93698  0.76124  1.0000
  H   H620      1.0  0.49417  0.51767  0.73726  1.0000
  H   H621      1.0  0.40141  0.81899  0.94834  1.0000
  H   H622      1.0  0.48691  0.73976  0.67932  1.0000
  C   C513      1.0  0.48708  0.59423  0.70393  1.0000
  H   H623      1.0  0.48872  0.71730  0.67531  1.0000
  N   N33       1.0  0.42656  0.82528  0.00637  1.0000
  C   C514      1.0  0.49429  0.72751  0.93411  1.0000
  H   H624      1.0  0.46904  0.95022  0.68559  1.0000
  N   N34       1.0  0.48524  0.56104  0.68683  1.0000
  H   H625      1.0  0.28491  0.78503  0.89971  1.0000
  C   C515      1.0  0.49179  0.50864  0.71430  1.0000
  C   C516      1.0  0.26757  0.57157  0.81390  1.0000
  H   H626      1.0  0.33598  0.88170  0.97297  1.0000
  H   H627      1.0  0.46615  0.97488  0.74531  1.0000
  C   C517      1.0  0.25380  0.56365  0.83972  1.0000
  H   H628      1.0  0.36844  0.89759  0.94799  1.0000
  C   C518      1.0  0.47361  0.71858  0.73523  1.0000
  C   C519      1.0  0.28122  0.77118  0.98152  1.0000
  H   H629      1.0  0.30790  0.57159  0.85221  1.0000
  S   S143      1.0  0.40776  0.99428  0.70606  1.0000
  H   H630      1.0  0.39423  0.50603  0.84536  1.0000
  N   N35       1.0  0.41744  0.51743  0.80965  1.0000
  N   N36       1.0  0.40139  0.86274  0.76380  1.0000
  C   C520      1.0  0.39463  0.87404  0.74153  1.0000
  C   C521      1.0  0.38924  0.84154  0.75441  1.0000
  C   C522      1.0  0.39760  0.86644  0.79943  1.0000
  C   C523      1.0  0.42237  0.86789  0.76061  1.0000
  C   C524      1.0  0.43425  0.88063  0.73565  1.0000
  C   C525      1.0  0.43127  0.85923  0.78177  1.0000
  C   C526      1.0  0.45358  0.88386  0.73174  1.0000
  C   C527      1.0  0.45052  0.86246  0.77757  1.0000
  C   C528      1.0  0.46160  0.87461  0.75241  1.0000
  H   H631      1.0  0.39577  0.87101  0.71412  1.0000
  H   H632      1.0  0.37884  0.86990  0.74485  1.0000
  H   H633      1.0  0.40295  0.89018  0.74754  1.0000
  H   H634      1.0  0.39205  0.83797  0.72817  1.0000
  H   H635      1.0  0.37326  0.83710  0.75554  1.0000
  H   H636      1.0  0.39228  0.83193  0.77174  1.0000
  H   H637      1.0  0.40757  0.88185  0.80847  1.0000
  H   H638      1.0  0.38224  0.86405  0.80201  1.0000
  H   H639      1.0  0.39942  0.85641  0.81755  1.0000
  H   H640      1.0  0.42889  0.88809  0.71861  1.0000
  H   H641      1.0  0.42325  0.84950  0.80135  1.0000
  H   H642      1.0  0.46234  0.89341  0.71231  1.0000
  H   H643      1.0  0.45668  0.85510  0.79353  1.0000
  H   H644      1.0  0.47642  0.87677  0.74893  1.0000
  S   S144      1.0  0.33063  0.51741  0.95374  1.0000
  H   H645      1.0  0.45717  0.60504  0.75305  1.0000
  C   C529      1.0  0.36373  0.80397  0.00085  1.0000
  H   H646      1.0  0.29955  0.79812  0.95720  1.0000
  S   S145      1.0  0.48684  0.83976  0.94520  1.0000
  H   H647      1.0  0.36055  0.56055  0.99180  1.0000
  H   H648      1.0  0.25874  0.75145  0.89111  1.0000
  H   H649      1.0  0.48691  0.60503  0.95071  1.0000
  H   H650      1.0  0.47536  0.97594  0.68921  1.0000
  C   C530      1.0  0.26451  0.75651  0.91673  1.0000
  C   C531      1.0  0.49414  0.95044  0.73457  1.0000
  Fe  Fe73      1.0  0.31313  0.51555  0.90566  1.0000
  C   C532      1.0  0.28687  0.57447  0.81846  1.0000
  Fe  Fe74      1.0  0.49497  0.83430  0.89246  1.0000
  H   H651      1.0  0.48792  0.69249  0.71054  1.0000
  C   C533      1.0  0.36732  0.89866  0.97531  1.0000
  H   H652      1.0  0.49382  0.72831  0.90588  1.0000
  S   S146      1.0  0.44335  0.98723  0.67333  1.0000
  H   H653      1.0  0.47565  0.53562  0.65223  1.0000
  C   C534      1.0  0.37411  0.80872  0.97115  1.0000
  C   C535      1.0  0.47977  0.60544  0.72145  1.0000
  H   H654      1.0  0.36646  0.80756  0.94691  1.0000
  H   H655      1.0  0.48954  0.91351  0.78735  1.0000
  C   C536      1.0  0.39441  0.81549  0.97244  1.0000
  C   C537      1.0  0.48402  0.69218  0.99858  1.0000
  C   C538      1.0  0.47676  0.73397  0.83037  1.0000
  N   N37       1.0  0.48767  0.96575  0.72938  1.0000
  H   H656      1.0  0.48003  0.72594  0.94315  1.0000
  C   C539      1.0  0.26478  0.51273  0.89357  1.0000
  C   C540      1.0  0.47843  0.56081  0.80834  1.0000
  C   C541      1.0  0.40598  0.52283  0.78491  1.0000
  C   C542      1.0  0.27954  0.77578  0.92142  1.0000
  C   C543      1.0  0.48102  0.96507  0.69338  1.0000
  C   C544      1.0  0.26614  0.75182  0.97708  1.0000
  N   N38       1.0  0.49782  0.71088  0.94486  1.0000
  C   C545      1.0  0.49468  0.92348  0.76659  1.0000
  Fe  Fe75      1.0  0.50282  0.65641  0.87438  1.0000
  C   C546      1.0  0.46266  0.59625  0.73921  1.0000
  C   C547      1.0  0.44439  0.00002  0.52902  1.0000
  H   H657      1.0  0.26179  0.74340  0.99964  1.0000
  H   H658      1.0  0.49301  0.96882  0.67539  1.0000
  S   S147      1.0  0.47385  0.69698  0.82204  1.0000
  C   C548      1.0  0.50116  0.61126  0.96402  1.0000
  H   H659      1.0  0.45267  0.54867  0.72566  1.0000
  S   S148      1.0  0.28813  0.52305  0.91506  1.0000
  H   H660      1.0  0.39834  0.91578  0.98511  1.0000
  C   C549      1.0  0.50015  0.52455  0.51884  1.0000
  C   C550      1.0  0.49700  0.70954  0.98236  1.0000
  H   H661      1.0  0.49176  0.75729  0.73370  1.0000
  C   C551      1.0  0.49879  0.50913  0.57199  1.0000
  C   C552      1.0  0.43767  0.00042  0.56196  1.0000
  H   H662      1.0  0.43333  0.84283  0.96194  1.0000
  H   H663      1.0  0.38179  0.58376  0.99502  1.0000
  C   C553      1.0  0.40986  0.51735  0.84402  1.0000
  H   H664      1.0  0.48770  0.62141  0.72190  1.0000
  C   C554      1.0  0.49517  0.73198  0.68888  1.0000
  N   N39       1.0  0.49438  0.73038  0.72632  1.0000
  C   C555      1.0  0.50245  0.61230  0.99959  1.0000
  C   C556      1.0  0.50085  0.84152  0.98250  1.0000
  H   H665      1.0  0.49660  0.57970  0.64424  1.0000
  H   H666      1.0  0.50073  0.60241  0.69160  1.0000
  C   C557      1.0  0.50088  0.70092  0.72666  1.0000
  H   H667      1.0  0.50222  0.54648  0.70253  1.0000
  C   C558      1.0  0.50128  0.57220  0.66364  1.0000
  S   S149      1.0  0.50129  0.82652  0.79604  1.0000
  H   H668      1.0  0.50108  0.75033  0.76993  1.0000
  C   C559      1.0  0.36930  0.57336  0.00968  1.0000
  Fe  Fe76      1.0  0.42613  0.00350  0.65925  1.0000
  H   H669      1.0  0.50278  0.56465  0.73238  1.0000
  C   C560      1.0  0.50293  0.00033  0.62682  1.0000
  Fe  Fe77      1.0  0.65679  0.16734  0.12401  1.0000
  S   S150      1.0  0.66779  0.19252  0.16296  1.0000
  S   S151      1.0  0.65196  0.17432  0.07020  1.0000
  Fe  Fe78      1.0  0.65322  0.13715  0.17725  1.0000
  S   S152      1.0  0.66459  0.16019  0.21967  1.0000
  S   S153      1.0  0.64151  0.10409  0.18274  1.0000
  Fe  Fe79      1.0  0.64457  0.17103  0.19555  1.0000
  S   S154      1.0  0.62282  0.17506  0.22823  1.0000
  Fe  Fe80      1.0  0.68678  0.17948  0.18290  1.0000
  S   S155      1.0  0.71986  0.19571  0.19364  1.0000
  S   S156      1.0  0.63206  0.14698  0.15504  1.0000
  S   S157      1.0  0.67697  0.15534  0.14195  1.0000
  H   H670      1.0  0.62273  0.41874  0.01550  1.0000
  H   H671      1.0  0.74782  0.47258  0.11126  1.0000
  H   H672      1.0  0.51132  0.48446  0.43358  1.0000
  C   C561      1.0  0.55485  0.46277  0.22690  1.0000
  H   H673      1.0  0.64763  0.49520  0.30897  1.0000
  H   H674      1.0  0.59183  0.06307  0.47766  1.0000
  Fe  Fe81      1.0  0.60902  0.02523  0.32704  1.0000
  S   S158      1.0  0.63491  0.05410  0.31316  1.0000
  S   S159      1.0  0.60057  0.02440  0.38159  1.0000
  S   S160      1.0  0.66522  0.46510  0.11647  1.0000
  Fe  Fe82      1.0  0.65167  0.46537  0.16576  1.0000
  S   S161      1.0  0.63375  0.43845  0.19529  1.0000
  C   C562      1.0  0.69683  0.13718  0.21275  1.0000
  C   C563      1.0  0.72342  0.21792  0.10411  1.0000
  Fe  Fe83      1.0  0.52257  0.36567  0.17294  1.0000
  S   S162      1.0  0.54396  0.39336  0.14862  1.0000
  Fe  Fe84      1.0  0.52760  0.18088  0.17673  1.0000
  H   H675      1.0  0.51001  0.14223  0.09471  1.0000
  S   S163      1.0  0.55581  0.18738  0.15096  1.0000
  H   H676      1.0  0.68081  0.13648  0.01243  1.0000
  S   S164      1.0  0.52173  0.18075  0.23243  1.0000
  C   C564      1.0  0.52527  0.27237  0.21472  1.0000
  C   C565      1.0  0.55233  0.16873  0.02186  1.0000
  H   H677      1.0  0.53845  0.28076  0.20115  1.0000
  H   H678      1.0  0.51801  0.18353  0.30975  1.0000
  C   C566      1.0  0.60886  0.42560  0.18195  1.0000
  C   C567      1.0  0.60137  0.43251  0.15572  1.0000
  C   C568      1.0  0.58141  0.42244  0.14587  1.0000
  C   C569      1.0  0.56888  0.40523  0.16177  1.0000
  C   C570      1.0  0.57632  0.39821  0.18795  1.0000
  C   C571      1.0  0.59630  0.40847  0.19815  1.0000
  H   H679      1.0  0.61095  0.44554  0.14282  1.0000
  H   H680      1.0  0.57567  0.42789  0.12558  1.0000
  H   H681      1.0  0.56672  0.38487  0.20020  1.0000
  H   H682      1.0  0.60207  0.40299  0.21832  1.0000
  C   C572      1.0  0.57771  0.47882  0.31002  1.0000
  H   H683      1.0  0.73752  0.26637  0.05780  1.0000
  H   H684      1.0  0.53302  0.49522  0.41027  1.0000
  C   C573      1.0  0.72577  0.46484  0.21026  1.0000
  C   C574      1.0  0.51353  0.47319  0.49987  1.0000
  H   H685      1.0  0.54762  0.03397  0.45652  1.0000
  C   C575      1.0  0.60396  0.17788  0.20633  1.0000
  C   C576      1.0  0.58762  0.17624  0.22387  1.0000
  C   C577      1.0  0.57255  0.17873  0.20702  1.0000
  C   C578      1.0  0.57393  0.18321  0.17264  1.0000
  C   C579      1.0  0.59020  0.18468  0.15507  1.0000
  C   C580      1.0  0.60508  0.18184  0.17175  1.0000
  H   H686      1.0  0.58668  0.17320  0.25063  1.0000
  H   H687      1.0  0.56009  0.17757  0.22078  1.0000
  H   H688      1.0  0.59146  0.18828  0.12857  1.0000
  H   H689      1.0  0.61764  0.18317  0.15804  1.0000
  C   C581      1.0  0.63820  0.09092  0.22057  1.0000
  C   C582      1.0  0.64793  0.10007  0.25150  1.0000
  C   C583      1.0  0.64621  0.08869  0.28004  1.0000
  C   C584      1.0  0.63433  0.06815  0.27831  1.0000
  C   C585      1.0  0.62384  0.05915  0.24786  1.0000
  C   C586      1.0  0.62598  0.07045  0.21906  1.0000
  H   H690      1.0  0.65723  0.11580  0.25331  1.0000
  H   H691      1.0  0.65443  0.09576  0.30344  1.0000
  H   H692      1.0  0.61475  0.04335  0.24607  1.0000
  H   H693      1.0  0.61834  0.06320  0.19532  1.0000
  C   C587      1.0  0.73279  0.22184  0.19504  1.0000
  C   C588      1.0  0.73440  0.25300  0.07062  1.0000
  H   H694      1.0  0.73126  0.14441  0.18466  1.0000
  H   H695      1.0  0.65836  0.05531  0.20383  1.0000
  H   H696      1.0  0.70707  0.22631  0.19291  1.0000
  Fe  Fe85      1.0  0.69284  0.49033  0.13897  1.0000
  C   C589      1.0  0.69771  0.10328  0.24933  1.0000
  H   H697      1.0  0.54109  0.07247  0.30632  1.0000
  H   H698      1.0  0.68066  0.13160  0.21123  1.0000
  H   H699      1.0  0.74090  0.24676  0.29003  1.0000
  C   C590      1.0  0.65591  0.16184  0.03535  1.0000
  C   C591      1.0  0.66739  0.15204  0.03877  1.0000
  C   C592      1.0  0.50419  0.35141  0.04221  1.0000
  H   H700      1.0  0.67324  0.15116  0.06357  1.0000
  N   N40       1.0  0.62821  0.47668  0.26803  1.0000
  H   H701      1.0  0.57824  0.43720  0.02455  1.0000
  H   H702      1.0  0.51449  0.39968  0.20595  1.0000
  S   S165      1.0  0.52100  0.35855  0.22788  1.0000
  C   C593      1.0  0.70907  0.22197  0.08929  1.0000
  C   C594      1.0  0.63040  0.45887  0.27601  1.0000
  N   N41       1.0  0.53394  0.42604  0.23508  1.0000
  C   C595      1.0  0.51932  0.02887  0.36873  1.0000
  H   H703      1.0  0.56508  0.47956  0.32031  1.0000
  H   H704      1.0  0.51572  0.47447  0.26792  1.0000
  S   S166      1.0  0.51103  0.19783  0.16332  1.0000
  H   H705      1.0  0.57407  0.38451  0.10580  1.0000
  S   S167      1.0  0.71806  0.48413  0.12388  1.0000
  H   H706      1.0  0.62283  0.43397  0.05131  1.0000
  C   C596      1.0  0.57333  0.38618  0.07860  1.0000
  H   H707      1.0  0.54617  0.50153  0.24776  1.0000
  C   C597      1.0  0.58525  0.40651  0.02881  1.0000
  H   H708      1.0  0.50979  0.44022  0.26150  1.0000
  H   H709      1.0  0.71907  0.20451  0.11788  1.0000
  H   H710      1.0  0.55839  0.05377  0.32536  1.0000
  C   C598      1.0  0.72505  0.44632  0.20759  1.0000
  H   H711      1.0  0.59654  0.41544  0.08130  1.0000
  H   H712      1.0  0.70325  0.24262  0.06148  1.0000
  S   S168      1.0  0.52415  0.30770  0.22346  1.0000
  H   H713      1.0  0.59066  0.06093  0.30291  1.0000
  C   C599      1.0  0.62663  0.47719  0.23057  1.0000
  H   H714      1.0  0.72578  0.26277  0.19655  1.0000
  H   H715      1.0  0.60185  0.05011  0.45236  1.0000
  H   H716      1.0  0.54006  0.42462  0.28837  1.0000
  H   H717      1.0  0.51082  0.15817  0.30065  1.0000
  C   C600      1.0  0.53767  0.44683  0.23868  1.0000
  S   S169      1.0  0.51383  0.33477  0.15419  1.0000
  H   H718      1.0  0.62603  0.49066  0.22218  1.0000
  Fe  Fe86      1.0  0.50934  0.32670  0.20895  1.0000
  N   N42       1.0  0.53781  0.50075  0.46473  1.0000
  H   H719      1.0  0.72527  0.48143  0.05152  1.0000
  H   H720      1.0  0.70356  0.15155  0.20010  1.0000
  C   C601      1.0  0.60757  0.49379  0.27923  1.0000
  C   C602      1.0  0.57310  0.01350  0.46576  1.0000
  H   H721      1.0  0.50349  0.41480  0.21825  1.0000
  H   H722      1.0  0.56422  0.43187  0.24068  1.0000
  C   C603      1.0  0.58030  0.46205  0.31369  1.0000
  H   H723      1.0  0.57831  0.04743  0.44149  1.0000
  C   C604      1.0  0.59402  0.44116  0.02897  1.0000
  C   C605      1.0  0.51038  0.16864  0.32044  1.0000
  H   H724      1.0  0.56091  0.49219  0.46369  1.0000
  C   C606      1.0  0.52862  0.41637  0.26814  1.0000
  C   C607      1.0  0.54378  0.48639  0.24526  1.0000
  H   H725      1.0  0.68958  0.46633  0.03026  1.0000
  H   H726      1.0  0.72840  0.11980  0.18883  1.0000
  H   H727      1.0  0.55475  0.42892  0.19703  1.0000
  N   N43       1.0  0.57953  0.03205  0.48642  1.0000
  C   C608      1.0  0.51948  0.14633  0.04245  1.0000
  H   H728      1.0  0.74422  0.49593  0.21781  1.0000
  C   C609      1.0  0.58820  0.04890  0.46367  1.0000
  C   C610      1.0  0.53806  0.17959  0.06588  1.0000
  H   H729      1.0  0.68017  0.11574  0.15616  1.0000
  C   C611      1.0  0.55108  0.42381  0.22335  1.0000
  H   H730      1.0  0.54798  0.40804  0.22205  1.0000
  H   H731      1.0  0.66761  0.05524  0.26433  1.0000
  H   H732      1.0  0.56970  0.44979  0.32725  1.0000
  C   C612      1.0  0.52354  0.45160  0.25319  1.0000
  C   C613      1.0  0.55772  0.48219  0.23015  1.0000
  N   N44       1.0  0.59158  0.11017  0.23402  1.0000
  C   C614      1.0  0.58104  0.12196  0.22704  1.0000
  C   C615      1.0  0.61198  0.12424  0.24545  1.0000
  C   C616      1.0  0.59210  0.10015  0.20157  1.0000
  C   C617      1.0  0.58240  0.09518  0.25979  1.0000
  C   C618      1.0  0.56384  0.09069  0.27321  1.0000
  C   C619      1.0  0.59170  0.08391  0.27114  1.0000
  C   C620      1.0  0.55536  0.07589  0.29662  1.0000
  H   H733      1.0  0.58016  0.12993  0.25052  1.0000
  H   H734      1.0  0.58874  0.13352  0.20840  1.0000
  H   H735      1.0  0.56599  0.11270  0.21583  1.0000
  H   H736      1.0  0.61234  0.13147  0.27056  1.0000
  H   H737      1.0  0.61893  0.13613  0.22722  1.0000
  H   H738      1.0  0.62176  0.11719  0.24746  1.0000
  H   H739      1.0  0.60096  0.09208  0.20418  1.0000
  H   H740      1.0  0.57708  0.08924  0.19232  1.0000
  H   H741      1.0  0.59878  0.11082  0.18125  1.0000
  H   H742      1.0  0.55550  0.09825  0.26587  1.0000
  H   H743      1.0  0.60556  0.08612  0.26155  1.0000
  H   H744      1.0  0.63172  0.45750  0.30390  1.0000
  C   C621      1.0  0.72740  0.49514  0.03901  1.0000
  N   N45       1.0  0.53948  0.16221  0.05137  1.0000
  C   C622      1.0  0.68889  0.08584  0.26685  1.0000
  C   C623      1.0  0.56503  0.06527  0.30736  1.0000
  C   C624      1.0  0.51745  0.41530  0.20994  1.0000
  C   C625      1.0  0.54935  0.15549  0.07713  1.0000
  C   C626      1.0  0.74346  0.49583  0.13539  1.0000
  N   N46       1.0  0.59849  0.42562  0.01452  1.0000
  H   H745      1.0  0.54902  0.35734  0.06961  1.0000
  H   H746      1.0  0.54970  0.14175  0.06806  1.0000
  H   H747      1.0  0.68800  0.20434  0.01571  1.0000
  C   C627      1.0  0.55923  0.37080  0.05823  1.0000
  S   S170      1.0  0.67974  0.48869  0.19005  1.0000
  C   C628      1.0  0.69353  0.48124  0.02087  1.0000
  H   H748      1.0  0.64379  0.45925  0.26485  1.0000
  C   C629      1.0  0.53160  0.02063  0.36003  1.0000
  C   C630      1.0  0.52706  0.48792  0.43447  1.0000
  H   H749      1.0  0.65983  0.49376  0.27122  1.0000
  H   H750      1.0  0.67306  0.08509  0.17246  1.0000
  H   H751      1.0  0.71241  0.46632  0.20741  1.0000
  H   H752      1.0  0.70806  0.11637  0.26356  1.0000
  H   H753      1.0  0.54212  0.15268  0.10192  1.0000
  H   H754      1.0  0.74304  0.50364  0.03264  1.0000
  H   H755      1.0  0.57089  0.49416  0.22098  1.0000
  H   H756      1.0  0.70370  0.13484  0.14715  1.0000
  H   H757      1.0  0.62990  0.01081  0.45704  1.0000
  H   H758      1.0  0.63956  0.47708  0.21872  1.0000
  H   H759      1.0  0.71101  0.43337  0.20311  1.0000
  H   H760      1.0  0.61798  0.44517  0.26468  1.0000
  C   C631      1.0  0.72384  0.13073  0.19910  1.0000
  H   H761      1.0  0.69234  0.08576  0.29373  1.0000
  H   H762      1.0  0.70163  0.14044  0.24005  1.0000
  C   C632      1.0  0.74944  0.24936  0.08570  1.0000
  Fe  Fe87      1.0  0.57017  0.01335  0.35951  1.0000
  H   H763      1.0  0.61333  0.46419  0.21961  1.0000
  H   H764      1.0  0.56741  0.18027  0.02954  1.0000
  H   H765      1.0  0.51925  0.16868  0.34327  1.0000
  C   C633      1.0  0.65262  0.49419  0.01456  1.0000
  C   C634      1.0  0.51928  0.25226  0.22007  1.0000
  C   C635      1.0  0.72294  0.23334  0.19445  1.0000
  C   C636      1.0  0.69621  0.12058  0.15993  1.0000
  C   C637      1.0  0.58614  0.40380  0.06425  1.0000
  H   H766      1.0  0.52777  0.24530  0.21042  1.0000
  S   S171      1.0  0.64040  0.48614  0.14868  1.0000
  C   C638      1.0  0.59657  0.46107  0.30024  1.0000
  C   C639      1.0  0.67844  0.08599  0.19839  1.0000
  C   C640      1.0  0.61084  0.47709  0.28280  1.0000
  C   C641      1.0  0.51459  0.28182  0.22729  1.0000
  C   C642      1.0  0.73360  0.25404  0.19654  1.0000
  C   C643      1.0  0.74374  0.48153  0.21599  1.0000
  Fe  Fe88      1.0  0.65662  0.48812  0.10125  1.0000
  C   C644      1.0  0.71454  0.23943  0.07249  1.0000
  H   H767      1.0  0.69982  0.10985  0.14612  1.0000
  C   C645      1.0  0.66979  0.06863  0.21617  1.0000
  H   H768      1.0  0.69167  0.49000  0.04229  1.0000
  S   S172      1.0  0.55311  0.02699  0.38424  1.0000
  H   H769      1.0  0.52069  0.42208  0.18469  1.0000
  C   C646      1.0  0.58319  0.06930  0.29470  1.0000
  C   C647      1.0  0.52669  0.47112  0.25668  1.0000
  H   H770      1.0  0.52963  0.17620  0.08949  1.0000
  H   H771      1.0  0.51761  0.36515  0.04425  1.0000
  C   C648      1.0  0.54723  0.03323  0.48391  1.0000
  H   H772      1.0  0.56473  0.16686  0.08329  1.0000
  C   C649      1.0  0.69282  0.10390  0.21446  1.0000
  C   C650      1.0  0.67499  0.06855  0.25029  1.0000
  H   H773      1.0  0.72986  0.13486  0.22571  1.0000
  H   H774      1.0  0.59768  0.44766  0.30392  1.0000
  H   H775      1.0  0.52662  0.40096  0.26634  1.0000
  S   S173      1.0  0.64025  0.48229  0.05063  1.0000
  H   H776      1.0  0.52803  0.47384  0.43406  1.0000
  H   H777      1.0  0.52366  0.03991  0.38929  1.0000
  H   H778      1.0  0.60283  0.45561  0.01747  1.0000
  H   H779      1.0  0.69364  0.21165  0.09127  1.0000
  S   S174      1.0  0.57873  0.01606  0.30522  1.0000
  C   C651      1.0  0.61925  0.43081  0.02357  1.0000
  N   N47       1.0  0.70218  0.12266  0.19665  1.0000
  H   H780      1.0  0.56626  0.46066  0.21484  1.0000
  H   H781      1.0  0.55280  0.19191  0.07322  1.0000
  H   H782      1.0  0.58548  0.01315  0.45212  1.0000
  H   H783      1.0  0.53065  0.18508  0.04745  1.0000
  H   H784      1.0  0.51436  0.41486  0.27685  1.0000
  C   C652      1.0  0.64645  0.49417  0.28068  1.0000
  H   H785      1.0  0.50500  0.46462  0.47770  1.0000
  C   C653      1.0  0.52628  0.00677  0.33290  1.0000
  H   H786      1.0  0.74382  0.23595  0.34776  1.0000
  C   C654      1.0  0.74236  0.44447  0.21006  1.0000
  H   H787      1.0  0.65886  0.20866  0.02307  1.0000
  H   H788      1.0  0.59743  0.44372  0.05686  1.0000
  C   C655      1.0  0.59134  0.49467  0.29285  1.0000
  C   C656      1.0  0.56239  0.03182  0.50329  1.0000
  C   C657      1.0  0.55805  0.37287  0.02333  1.0000
  C   C658      1.0  0.74329  0.23129  0.10223  1.0000
  H   H789      1.0  0.74103  0.42979  0.20780  1.0000
  H   H790      1.0  0.60850  0.03495  0.49745  1.0000
  H   H791      1.0  0.56160  0.01144  0.44604  1.0000
  C   C659      1.0  0.53123  0.03364  0.49946  1.0000
  H   H792      1.0  0.52007  0.03517  0.48424  1.0000
  C   C660      1.0  0.53048  0.49169  0.49756  1.0000
  C   C661      1.0  0.50593  0.13764  0.06830  1.0000
  H   H793      1.0  0.50366  0.01332  0.42963  1.0000
  C   C662      1.0  0.62457  0.00957  0.51082  1.0000
  H   H794      1.0  0.62962  0.44444  0.01124  1.0000
  H   H795      1.0  0.72480  0.50430  0.05881  1.0000
  C   C663      1.0  0.59545  0.03387  0.51079  1.0000
  Fe  Fe89      1.0  0.68250  0.18045  0.84317  1.0000
  S   S175      1.0  0.68879  0.15483  0.85106  1.0000
  S   S176      1.0  0.70286  0.21303  0.83582  1.0000
  Fe  Fe90      1.0  0.63783  0.15403  0.84515  1.0000
  S   S177      1.0  0.64066  0.12656  0.85397  1.0000
  S   S178      1.0  0.60906  0.15291  0.82864  1.0000
  Fe  Fe91      1.0  0.66564  0.14629  0.89025  1.0000
  S   S179      1.0  0.67200  0.13691  0.94112  1.0000
  Fe  Fe92      1.0  0.66315  0.13720  0.81414  1.0000
  S   S180      1.0  0.66290  0.11965  0.76632  1.0000
  S   S181      1.0  0.66089  0.17303  0.88460  1.0000
  S   S182      1.0  0.65885  0.16360  0.80318  1.0000
  C   C664      1.0  0.65400  0.49416  0.95295  1.0000
  H   H796      1.0  0.54269  0.30914  0.86480  1.0000
  N   N48       1.0  0.51999  0.09811  0.86543  1.0000
  S   S183      1.0  0.59733  0.03044  0.73966  1.0000
  C   C665      1.0  0.70531  0.45902  0.92761  1.0000
  S   S184      1.0  0.51000  0.35298  0.97414  1.0000
  S   S185      1.0  0.58556  0.01823  0.63905  1.0000
  H   H797      1.0  0.72565  0.49148  0.88717  1.0000
  Fe  Fe93      1.0  0.51502  0.34574  0.84991  1.0000
  S   S186      1.0  0.53999  0.36193  0.81548  1.0000
  S   S187      1.0  0.51615  0.32653  0.89126  1.0000
  Fe  Fe94      1.0  0.52444  0.16139  0.90999  1.0000
  S   S188      1.0  0.54904  0.15627  0.93260  1.0000
  H   H798      1.0  0.54798  0.31215  0.75715  1.0000
  S   S189      1.0  0.52495  0.17441  0.85956  1.0000
  S   S190      1.0  0.66701  0.46931  0.88483  1.0000
  Fe  Fe95      1.0  0.63690  0.45741  0.86036  1.0000
  S   S191      1.0  0.61231  0.43460  0.88975  1.0000
  C   C666      1.0  0.52950  0.03202  0.53452  1.0000
  H   H799      1.0  0.73008  0.44485  0.83694  1.0000
  C   C667      1.0  0.52181  0.30555  0.80587  1.0000
  C   C668      1.0  0.56001  0.38231  0.83578  1.0000
  C   C669      1.0  0.57577  0.39503  0.81684  1.0000
  C   C670      1.0  0.59187  0.41128  0.83297  1.0000
  C   C671      1.0  0.59230  0.41473  0.86815  1.0000
  C   C672      1.0  0.57653  0.40194  0.88695  1.0000
  C   C673      1.0  0.56042  0.38583  0.87086  1.0000
  H   H800      1.0  0.57551  0.39238  0.78966  1.0000
  H   H801      1.0  0.60395  0.42106  0.81827  1.0000
  H   H802      1.0  0.57667  0.40447  0.91404  1.0000
  H   H803      1.0  0.54837  0.37610  0.88569  1.0000
  H   H804      1.0  0.69552  0.16106  0.77125  1.0000
  C   C674      1.0  0.60373  0.11852  0.74758  1.0000
  S   S192      1.0  0.63879  0.48732  0.85355  1.0000
  C   C675      1.0  0.69255  0.18976  0.74075  1.0000
  C   C676      1.0  0.55989  0.02965  0.53892  1.0000
  C   C677      1.0  0.51701  0.47536  0.56143  1.0000
  H   H805      1.0  0.69869  0.18377  0.98889  1.0000
  C   C678      1.0  0.56059  0.28782  0.81458  1.0000
  C   C679      1.0  0.52546  0.27007  0.80299  1.0000
  C   C680      1.0  0.54116  0.10539  0.87460  1.0000
  C   C681      1.0  0.59352  0.15507  0.85859  1.0000
  C   C682      1.0  0.57731  0.15723  0.84660  1.0000
  C   C683      1.0  0.56409  0.15833  0.86932  1.0000
  C   C684      1.0  0.56676  0.15702  0.90423  1.0000
  C   C685      1.0  0.58300  0.15483  0.91633  1.0000
  C   C686      1.0  0.59646  0.15396  0.89353  1.0000
  H   H806      1.0  0.57503  0.15819  0.81961  1.0000
  H   H807      1.0  0.55170  0.15992  0.85956  1.0000
  H   H808      1.0  0.58512  0.15366  0.94330  1.0000
  H   H809      1.0  0.60891  0.15220  0.90295  1.0000
  C   C687      1.0  0.69182  0.21257  0.96256  1.0000
  Fe  Fe96      1.0  0.58951  0.01002  0.69214  1.0000
  H   H810      1.0  0.56627  0.32246  0.84699  1.0000
  H   H811      1.0  0.64683  0.15564  0.94945  1.0000
  H   H812      1.0  0.52189  0.32013  0.80689  1.0000
  C   C688      1.0  0.64530  0.09453  0.75943  1.0000
  C   C689      1.0  0.64258  0.08536  0.72688  1.0000
  C   C690      1.0  0.62825  0.06562  0.72041  1.0000
  C   C691      1.0  0.61652  0.05483  0.74654  1.0000
  C   C692      1.0  0.61944  0.06395  0.77916  1.0000
  C   C693      1.0  0.63375  0.08364  0.78561  1.0000
  H   H813      1.0  0.65152  0.09358  0.70649  1.0000
  H   H814      1.0  0.62619  0.05880  0.69520  1.0000
  H   H815      1.0  0.61055  0.05571  0.79960  1.0000
  H   H816      1.0  0.63592  0.09032  0.81092  1.0000
  C   C694      1.0  0.72879  0.22732  0.83977  1.0000
  C   C695      1.0  0.73681  0.24795  0.83970  1.0000
  H   H817      1.0  0.72712  0.25469  0.83816  1.0000
  S   S193      1.0  0.64761  0.45519  0.80871  1.0000
  H   H818      1.0  0.73878  0.22080  0.98060  1.0000
  C   C696      1.0  0.57077  0.39043  0.00865  1.0000
  H   H819      1.0  0.72194  0.23019  0.91859  1.0000
  H   H820      1.0  0.65917  0.22393  0.91896  1.0000
  C   C697      1.0  0.51802  0.25731  0.88896  1.0000
  H   H821      1.0  0.57528  0.26974  0.82032  1.0000
  N   N49       1.0  0.69289  0.48159  0.72078  1.0000
  H   H822      1.0  0.55046  0.11137  0.85234  1.0000
  C   C698      1.0  0.50750  0.26808  0.88367  1.0000
  H   H823      1.0  0.70743  0.20478  0.90398  1.0000
  H   H824      1.0  0.68238  0.47976  0.00087  1.0000
  C   C699      1.0  0.59654  0.42564  0.97685  1.0000
  H   H825      1.0  0.69273  0.19881  0.71895  1.0000
  N   N50       1.0  0.54195  0.30757  0.81011  1.0000
  H   H826      1.0  0.66378  0.47440  0.73642  1.0000
  H   H827      1.0  0.60700  0.43995  0.96658  1.0000
  H   H828      1.0  0.69750  0.16249  0.70767  1.0000
  C   C700      1.0  0.54252  0.28844  0.80913  1.0000
  H   H829      1.0  0.71667  0.18535  0.95943  1.0000
  H   H830      1.0  0.56749  0.48717  0.70296  1.0000
  C   C701      1.0  0.72865  0.22494  0.75168  1.0000
  H   H831      1.0  0.71522  0.22621  0.75252  1.0000
  H   H832      1.0  0.71770  0.48343  0.69335  1.0000
  S   S194      1.0  0.61918  0.00726  0.57942  1.0000
  C   C702      1.0  0.50939  0.45910  0.75263  1.0000
  H   H833      1.0  0.74556  0.25640  0.76017  1.0000
  H   H834      1.0  0.54649  0.11764  0.89427  1.0000
  H   H835      1.0  0.69455  0.46424  0.67802  1.0000
  C   C703      1.0  0.68291  0.21804  0.93546  1.0000
  H   H836      1.0  0.57934  0.06873  0.74945  1.0000
  H   H837      1.0  0.53435  0.03239  0.70485  1.0000
  H   H838      1.0  0.52458  0.11839  0.82561  1.0000
  C   C704      1.0  0.50992  0.44356  0.76948  1.0000
  C   C705      1.0  0.56584  0.49935  0.71614  1.0000
  C   C706      1.0  0.68268  0.20939  0.99430  1.0000
  H   H839      1.0  0.51097  0.26889  0.79905  1.0000
  H   H840      1.0  0.67922  0.17526  0.73686  1.0000
  H   H841      1.0  0.58120  0.08402  0.80582  1.0000
  C   C707      1.0  0.66455  0.14531  0.97739  1.0000
  C   C708      1.0  0.50668  0.02126  0.67660  1.0000
  C   C709      1.0  0.67152  0.47395  0.71315  1.0000
  H   H842      1.0  0.51194  0.46924  0.58594  1.0000
  H   H843      1.0  0.70109  0.48951  0.66952  1.0000
  H   H844      1.0  0.56939  0.32339  0.78532  1.0000
  H   H845      1.0  0.71064  0.47189  0.75115  1.0000
  C   C710      1.0  0.70410  0.18860  0.96315  1.0000
  C   C711      1.0  0.74757  0.20685  0.74896  1.0000
  H   H846      1.0  0.60051  0.04725  0.52794  1.0000
  H   H847      1.0  0.71339  0.18553  0.68934  1.0000
  C   C712      1.0  0.52359  0.07300  0.82614  1.0000
  C   C713      1.0  0.64433  0.48579  0.98244  1.0000
  S   S195      1.0  0.63828  0.49013  0.75221  1.0000
  H   H848      1.0  0.69143  0.47481  0.94971  1.0000
  C   C714      1.0  0.64834  0.16283  0.00307  1.0000
  H   H849      1.0  0.54692  0.36088  0.00763  1.0000
  H   H850      1.0  0.54403  0.09367  0.88566  1.0000
  H   H851      1.0  0.73140  0.21279  0.92220  1.0000
  H   H852      1.0  0.68961  0.47097  0.77130  1.0000
  C   C715      1.0  0.72497  0.22191  0.98427  1.0000
  C   C716      1.0  0.55045  0.31827  0.84323  1.0000
  C   C717      1.0  0.50987  0.23729  0.87865  1.0000
  H   H853      1.0  0.73561  0.20299  0.84191  1.0000
  H   H854      1.0  0.59075  0.02076  0.52664  1.0000
  H   H855      1.0  0.66850  0.48247  0.69337  1.0000
  C   C718      1.0  0.51185  0.08091  0.84102  1.0000
  H   H856      1.0  0.54213  0.02819  0.58132  1.0000
  H   H857      1.0  0.69519  0.45387  0.90554  1.0000
  H   H858      1.0  0.54109  0.50158  0.58336  1.0000
  C   C719      1.0  0.71618  0.47776  0.98238  1.0000
  H   H859      1.0  0.59977  0.41428  0.96428  1.0000
  N   N51       1.0  0.58805  0.09974  0.75949  1.0000
  C   C720      1.0  0.59248  0.09796  0.79573  1.0000
  C   C721      1.0  0.58900  0.08344  0.73951  1.0000
  C   C722      1.0  0.56868  0.09956  0.75620  1.0000
  C   C723      1.0  0.56596  0.11533  0.77058  1.0000
  C   C724      1.0  0.55193  0.08374  0.73970  1.0000
  C   C725      1.0  0.54789  0.11560  0.76768  1.0000
  C   C726      1.0  0.53388  0.08412  0.73710  1.0000
  C   C727      1.0  0.53186  0.09999  0.75105  1.0000
  C   C728      1.0  0.56143  0.26993  0.81508  1.0000
  H   H860      1.0  0.61830  0.11854  0.74805  1.0000
  H   H861      1.0  0.59319  0.11041  0.81206  1.0000
  H   H862      1.0  0.60403  0.08473  0.74058  1.0000
  H   H863      1.0  0.58510  0.08351  0.71210  1.0000
  H   H864      1.0  0.57784  0.12767  0.78413  1.0000
  H   H865      1.0  0.55232  0.07087  0.72850  1.0000
  H   H866      1.0  0.54639  0.12809  0.77817  1.0000
  C   C729      1.0  0.65745  0.21703  0.97171  1.0000
  H   H867      1.0  0.64411  0.21834  0.97506  1.0000
  H   H868      1.0  0.60033  0.12116  0.72113  1.0000
  C   C730      1.0  0.73686  0.45983  0.82863  1.0000
  C   C731      1.0  0.55365  0.31981  0.78247  1.0000
  H   H869      1.0  0.72331  0.17223  0.71340  1.0000
  C   C732      1.0  0.54005  0.50177  0.52867  1.0000
  N   N52       1.0  0.70943  0.20959  0.95843  1.0000
  C   C733      1.0  0.50926  0.09295  0.89747  1.0000
  H   H870      1.0  0.52427  0.12804  0.86751  1.0000
  H   H871      1.0  0.54941  0.33234  0.84543  1.0000
  H   H872      1.0  0.55319  0.33420  0.78214  1.0000
  H   H873      1.0  0.69041  0.19669  0.76451  1.0000
  H   H874      1.0  0.57419  0.30117  0.81905  1.0000
  H   H875      1.0  0.51555  0.10545  0.91681  1.0000
  C   C734      1.0  0.72888  0.20649  0.74767  1.0000
  H   H876      1.0  0.60697  0.09808  0.79932  1.0000
  C   C735      1.0  0.70921  0.17536  0.77304  1.0000
  C   C736      1.0  0.71133  0.17654  0.71209  1.0000
  H   H877      1.0  0.70912  0.18329  0.79708  1.0000
  N   N53       1.0  0.71075  0.18749  0.74341  1.0000
  C   C737      1.0  0.51531  0.05657  0.80348  1.0000
  H   H878      1.0  0.72159  0.17167  0.77553  1.0000
  H   H879      1.0  0.51780  0.10013  0.74901  1.0000
  C   C738      1.0  0.65268  0.15466  0.97417  1.0000
  H   H880      1.0  0.63043  0.47268  0.98017  1.0000
  C   C739      1.0  0.53301  0.01379  0.66186  1.0000
  C   C740      1.0  0.70321  0.47088  0.95318  1.0000
  H   H881      1.0  0.53257  0.26453  0.90104  1.0000
  C   C741      1.0  0.73158  0.47229  0.98405  1.0000
  H   H882      1.0  0.52560  0.48764  0.73376  1.0000
  Fe  Fe97      1.0  0.67824  0.46975  0.83290  1.0000
  S   S196      1.0  0.69982  0.45684  0.83049  1.0000
  S   S197      1.0  0.52399  0.22463  0.88439  1.0000
  C   C742      1.0  0.72534  0.46960  0.82386  1.0000
  H   H883      1.0  0.60598  0.13150  0.76399  1.0000
  H   H884      1.0  0.52813  0.43269  0.79406  1.0000
  C   C743      1.0  0.54440  0.25220  0.80957  1.0000
  C   C744      1.0  0.51761  0.11452  0.85053  1.0000
  C   C745      1.0  0.71789  0.21464  0.92440  1.0000
  H   H885      1.0  0.55871  0.46174  0.78495  1.0000
  C   C746      1.0  0.52654  0.25230  0.80305  1.0000
  H   H886      1.0  0.72221  0.44501  0.90968  1.0000
  H   H887      1.0  0.64748  0.48731  0.92841  1.0000
  C   C747      1.0  0.52566  0.02365  0.68288  1.0000
  C   C748      1.0  0.54371  0.02986  0.55411  1.0000
  H   H888      1.0  0.51377  0.28340  0.89214  1.0000
  S   S198      1.0  0.52490  0.49625  0.64963  1.0000
  H   H889      1.0  0.52130  0.07194  0.72429  1.0000
  C   C749      1.0  0.73424  0.48892  0.81299  1.0000
  C   C750      1.0  0.67166  0.14376  0.00981  1.0000
  C   C751      1.0  0.74607  0.24255  0.75618  1.0000
  C   C752      1.0  0.69515  0.46884  0.74649  1.0000
  H   H890      1.0  0.72841  0.23769  0.98282  1.0000
  C   C753      1.0  0.74151  0.21882  0.84174  1.0000
  H   H891      1.0  0.50902  0.39613  0.75604  1.0000
  C   C754      1.0  0.66596  0.22016  0.94015  1.0000
  H   H892      1.0  0.54494  0.23830  0.81106  1.0000
  H   H893      1.0  0.50985  0.08002  0.90876  1.0000
  Fe  Fe98      1.0  0.65121  0.48610  0.80289  1.0000
  H   H894      1.0  0.68846  0.22036  0.91012  1.0000
  H   H895      1.0  0.51701  0.03217  0.54655  1.0000
  H   H896      1.0  0.68686  0.45291  0.73888  1.0000
  C   C755      1.0  0.70196  0.47961  0.68905  1.0000
  H   H897      1.0  0.74890  0.19339  0.74709  1.0000
  H   H898      1.0  0.66445  0.45829  0.70360  1.0000
  H   H899      1.0  0.53921  0.07932  0.83132  1.0000
  H   H900      1.0  0.51229  0.29692  0.82643  1.0000
  H   H901      1.0  0.58168  0.42326  0.96816  1.0000
  C   C756      1.0  0.66585  0.21174  0.99877  1.0000
  H   H902      1.0  0.52443  0.05077  0.79214  1.0000
  H   H903      1.0  0.69216  0.17895  0.94449  1.0000
  H   H904      1.0  0.61625  0.49236  0.69406  1.0000
  C   C757      1.0  0.72058  0.45401  0.92990  1.0000
  H   H905      1.0  0.57014  0.02768  0.55574  1.0000
  C   C758      1.0  0.52783  0.44482  0.78079  1.0000
  H   H906      1.0  0.74548  0.45655  0.95984  1.0000
  Fe  Fe99      1.0  0.51126  0.19136  0.88537  1.0000
  S   S199      1.0  0.51338  0.18033  0.93693  1.0000
  S   S200      1.0  0.68292  0.50042  0.82294  1.0000
  C   C759      1.0  0.54535  0.47798  0.75863  1.0000
  H   H907      1.0  0.72562  0.49672  0.80982  1.0000
  C   C760      1.0  0.53347  0.49360  0.55999  1.0000
  N   N54       1.0  0.56350  0.49632  0.75313  1.0000
  C   C761      1.0  0.58164  0.49629  0.76730  1.0000
  C   C762      1.0  0.50700  0.46522  0.53146  1.0000
  H   H908      1.0  0.52158  0.14556  0.98685  1.0000
  C   C763      1.0  0.54537  0.46173  0.77548  1.0000
  C   C764      1.0  0.73368  0.46061  0.95806  1.0000
  C   C765      1.0  0.50482  0.49605  0.66985  1.0000
  Fe  Fe100     1.0  0.66991  0.49899  0.87414  1.0000
  H   H909      1.0  0.54664  0.17532  0.00231  1.0000
  C   C766      1.0  0.52680  0.47603  0.74711  1.0000
  H   H910      1.0  0.58434  0.48454  0.75489  1.0000
  H   H911      1.0  0.56873  0.39104  0.98153  1.0000
  H   H912      1.0  0.54745  0.01513  0.66748  1.0000
  H   H913      1.0  0.74218  0.47680  0.00520  1.0000
  H   H914      1.0  0.51329  0.23841  0.79939  1.0000
  C   C767      1.0  0.70278  0.50240  0.73375  1.0000
  H   H915      1.0  0.55315  0.50018  0.70352  1.0000
  H   H916      1.0  0.63919  0.17010  0.00031  1.0000
  H   H917      1.0  0.58118  0.49450  0.79528  1.0000
  H   H918      1.0  0.51473  0.29842  0.78083  1.0000
  N   N55       1.0  0.71386  0.49067  0.00869  1.0000
  H   H919      1.0  0.63870  0.02186  0.51775  1.0000
  C   C768      1.0  0.51252  0.13969  0.00832  1.0000
  H   H920      1.0  0.72067  0.21739  0.01061  1.0000
  H   H921      1.0  0.55390  0.15627  0.00948  1.0000
  H   H922      1.0  0.73167  0.50367  0.74139  1.0000
  Fe  Fe101     1.0  0.57350  0.55906  0.35492  1.0000
  S   S201      1.0  0.55973  0.53198  0.31958  1.0000
  S   S202      1.0  0.58350  0.55391  0.40747  1.0000
  Fe  Fe102     1.0  0.57127  0.58546  0.29905  1.0000
  S   S203      1.0  0.55779  0.56044  0.26063  1.0000
  S   S204      1.0  0.57597  0.61593  0.28477  1.0000
  Fe  Fe103     1.0  0.53938  0.54396  0.30273  1.0000
  H   H923      1.0  0.64062  0.98013  0.50775  1.0000
  Fe  Fe104     1.0  0.57967  0.55082  0.28023  1.0000
  S   S205      1.0  0.58972  0.53730  0.23764  1.0000
  S   S206      1.0  0.55125  0.56951  0.34081  1.0000
  S   S207      1.0  0.59498  0.57738  0.31609  1.0000
  C   C769      1.0  0.61076  0.95228  0.19714  1.0000
  C   C770      1.0  0.58868  0.97718  0.49269  1.0000
  C   C771      1.0  0.53637  0.89359  0.01898  1.0000
  H   H924      1.0  0.51538  0.97182  0.42303  1.0000
  H   H925      1.0  0.55105  0.64881  0.06005  1.0000
  C   C772      1.0  0.56673  0.56920  0.45418  1.0000
  H   H926      1.0  0.51613  0.63332  0.26498  1.0000
  C   C773      1.0  0.58811  0.91131  0.18123  1.0000
  C   C774      1.0  0.57357  0.87869  0.20396  1.0000
  S   S208      1.0  0.53597  0.84917  0.08246  1.0000
  H   H927      1.0  0.56449  0.86257  0.19864  1.0000
  S   S209      1.0  0.52638  0.87073  0.24470  1.0000
  S   S210      1.0  0.68485  0.51364  0.12067  1.0000
  C   C775      1.0  0.53562  0.64320  0.06742  1.0000
  S   S211      1.0  0.52334  0.83152  0.17589  1.0000
  Fe  Fe105     1.0  0.57427  0.98473  0.30843  1.0000
  S   S212      1.0  0.55885  0.96393  0.26228  1.0000
  S   S213      1.0  0.56250  0.98141  0.36091  1.0000
  H   H928      1.0  0.59546  0.92472  0.46817  1.0000
  C   C776      1.0  0.57131  0.91101  0.01272  1.0000
  H   H929      1.0  0.54771  0.88978  0.18120  1.0000
  H   H930      1.0  0.53410  0.59638  0.17959  1.0000
  H   H931      1.0  0.50403  0.98973  0.29438  1.0000
  H   H932      1.0  0.55299  0.57953  0.49142  1.0000
  H   H933      1.0  0.59759  0.54991  0.47354  1.0000
  H   H934      1.0  0.63083  0.51692  0.17160  1.0000
  C   C777      1.0  0.50383  0.84479  0.04433  1.0000
  H   H935      1.0  0.54659  0.87135  0.15143  1.0000
  H   H936      1.0  0.74408  0.52126  0.16132  1.0000
  H   H937      1.0  0.53365  0.61071  0.09551  1.0000
  C   C778      1.0  0.51191  0.58091  0.29109  1.0000
  H   H938      1.0  0.54716  0.61530  0.05761  1.0000
  C   C779      1.0  0.58769  0.55623  0.47735  1.0000
  C   C780      1.0  0.53382  0.89638  0.25023  1.0000
  C   C781      1.0  0.53023  0.90705  0.22503  1.0000
  C   C782      1.0  0.53780  0.92767  0.22938  1.0000
  C   C783      1.0  0.54878  0.93783  0.25909  1.0000
  C   C784      1.0  0.55204  0.92711  0.28455  1.0000
  C   C785      1.0  0.54464  0.90651  0.28007  1.0000
  H   H939      1.0  0.52185  0.89950  0.20202  1.0000
  H   H940      1.0  0.53521  0.93584  0.20953  1.0000
  H   H941      1.0  0.56051  0.93471  0.30748  1.0000
  H   H942      1.0  0.54752  0.89842  0.29971  1.0000
  H   H943      1.0  0.71604  0.51980  0.01250  1.0000
  C   C786      1.0  0.61691  0.94302  0.17269  1.0000
  S   S214      1.0  0.59713  0.97649  0.42530  1.0000
  H   H944      1.0  0.61928  0.96793  0.20320  1.0000
  H   H945      1.0  0.64200  0.56573  0.17507  1.0000
  H   H946      1.0  0.63034  0.95158  0.15980  1.0000
  H   H947      1.0  0.52943  0.75553  0.14496  1.0000
  C   C787      1.0  0.52252  0.84595  0.04383  1.0000
  S   S215      1.0  0.50749  0.52521  0.28943  1.0000
  H   H948      1.0  0.53622  0.64496  0.09571  1.0000
  H   H949      1.0  0.57343  0.86575  0.14063  1.0000
  C   C788      1.0  0.56108  0.61884  0.25235  1.0000
  C   C789      1.0  0.55167  0.60437  0.22644  1.0000
  C   C790      1.0  0.54093  0.60752  0.19987  1.0000
  C   C791      1.0  0.53906  0.62495  0.19923  1.0000
  C   C792      1.0  0.54814  0.63932  0.22543  1.0000
  C   C793      1.0  0.55927  0.63633  0.25169  1.0000
  H   H950      1.0  0.55302  0.59093  0.22629  1.0000
  H   H951      1.0  0.56708  0.00052  0.48201  1.0000
  H   H952      1.0  0.54714  0.65298  0.22489  1.0000
  H   H953      1.0  0.56665  0.64771  0.27144  1.0000
  C   C794      1.0  0.61213  0.53676  0.23032  1.0000
  C   C795      1.0  0.61305  0.52610  0.20141  1.0000
  C   C796      1.0  0.63035  0.52496  0.19423  1.0000
  C   C797      1.0  0.64701  0.53444  0.21595  1.0000
  C   C798      1.0  0.64623  0.54537  0.24471  1.0000
  C   C799      1.0  0.62883  0.54649  0.25198  1.0000
  C   C800      1.0  0.55588  0.88683  0.16081  1.0000
  C   C801      1.0  0.52097  0.62108  0.01772  1.0000
  H   H954      1.0  0.65910  0.55291  0.26153  1.0000
  H   H955      1.0  0.62837  0.55486  0.27422  1.0000
  C   C802      1.0  0.50783  0.76408  0.16226  1.0000
  C   C803      1.0  0.59355  0.94139  0.21386  1.0000
  Fe  Fe106     1.0  0.51527  0.83989  0.12566  1.0000
  H   H956      1.0  0.58606  0.91821  0.02410  1.0000
  C   C804      1.0  0.57922  0.56070  0.44885  1.0000
  H   H957      1.0  0.61134  0.91661  0.14541  1.0000
  H   H958      1.0  0.56014  0.57280  0.43259  1.0000
  S   S216      1.0  0.50469  0.86045  0.14802  1.0000
  H   H959      1.0  0.55682  0.89642  0.13943  1.0000
  H   H960      1.0  0.51780  0.60496  0.25966  1.0000
  C   C805      1.0  0.58333  0.88177  0.14616  1.0000
  H   H961      1.0  0.58814  0.88122  0.21466  1.0000
  H   H962      1.0  0.55756  0.90358  0.06089  1.0000
  C   C806      1.0  0.61880  0.95289  0.48452  1.0000
  S   S217      1.0  0.52640  0.62846  0.16386  1.0000
  C   C807      1.0  0.51512  0.75047  0.15550  1.0000
  H   H963      1.0  0.51650  0.77944  0.15691  1.0000
  N   N56       1.0  0.57561  0.89005  0.17300  1.0000
  S   S218      1.0  0.66885  0.53271  0.20812  1.0000
  H   H964      1.0  0.56830  0.51623  0.48250  1.0000
  H   H965      1.0  0.59794  0.88308  0.15395  1.0000
  H   H966      1.0  0.67675  0.59067  0.17842  1.0000
  C   C808      1.0  0.60580  0.92283  0.16467  1.0000
  H   H967      1.0  0.52227  0.53028  0.35844  1.0000
  C   C809      1.0  0.58246  0.92123  0.20619  1.0000
  N   N57       1.0  0.62164  0.60923  0.22645  1.0000
  C   C810      1.0  0.62127  0.62569  0.20782  1.0000
  C   C811      1.0  0.60142  0.59269  0.22430  1.0000
  C   C812      1.0  0.62679  0.61553  0.26288  1.0000
  C   C813      1.0  0.63642  0.60399  0.21226  1.0000
  C   C814      1.0  0.65655  0.61808  0.21323  1.0000
  C   C815      1.0  0.63154  0.58496  0.19779  1.0000
  C   C816      1.0  0.67089  0.61332  0.20107  1.0000
  C   C817      1.0  0.64600  0.58041  0.18557  1.0000
  C   C818      1.0  0.66562  0.59448  0.18742  1.0000
  H   H968      1.0  0.61791  0.62170  0.18017  1.0000
  H   H969      1.0  0.60989  0.62960  0.21752  1.0000
  H   H970      1.0  0.63547  0.63934  0.21049  1.0000
  H   H971      1.0  0.59621  0.58756  0.19751  1.0000
  H   H972      1.0  0.59068  0.59706  0.23530  1.0000
  H   H973      1.0  0.60048  0.57995  0.23867  1.0000
  H   H974      1.0  0.64060  0.62950  0.26664  1.0000
  H   H975      1.0  0.61521  0.61815  0.27523  1.0000
  H   H976      1.0  0.62867  0.60411  0.27727  1.0000
  H   H977      1.0  0.66136  0.63284  0.22381  1.0000
  H   H978      1.0  0.61670  0.57314  0.19604  1.0000
  H   H979      1.0  0.68621  0.62422  0.20248  1.0000
  S   S219      1.0  0.51125  0.66618  0.11886  1.0000
  C   C819      1.0  0.60291  0.93471  0.48981  1.0000
  H   H980      1.0  0.57510  0.96415  0.48589  1.0000
  H   H981      1.0  0.67669  0.51836  0.04180  1.0000
  N   N58       1.0  0.52298  0.62246  0.05537  1.0000
  H   H982      1.0  0.54460  0.53006  0.48359  1.0000
  H   H983      1.0  0.58432  0.88899  0.12158  1.0000
  H   H984      1.0  0.52555  0.58058  0.28551  1.0000
  H   H985      1.0  0.56928  0.91346  0.21992  1.0000
  H   H986      1.0  0.56615  0.88268  0.22445  1.0000
  C   C820      1.0  0.50737  0.59488  0.27650  1.0000
  C   C821      1.0  0.55532  0.90290  0.03349  1.0000
  H   H987      1.0  0.52326  0.59455  0.05830  1.0000
  H   H988      1.0  0.62343  0.95711  0.45889  1.0000
  H   H989      1.0  0.50598  0.66432  0.04641  1.0000
  H   H990      1.0  0.58867  0.94861  0.23281  1.0000
  H   H991      1.0  0.52397  0.88704  0.03523  1.0000
  C   C822      1.0  0.67039  0.51157  0.01707  1.0000
  C   C823      1.0  0.60174  0.98698  0.46719  1.0000
  S   S220      1.0  0.60550  0.99411  0.32705  1.0000
  Fe  Fe107     1.0  0.59384  0.99266  0.37978  1.0000
  S   S221      1.0  0.51451  0.71417  0.15495  1.0000
  C   C824      1.0  0.56262  0.57291  0.48760  1.0000
  C   C825      1.0  0.51310  0.97472  0.44913  1.0000
  H   H992      1.0  0.64735  0.50824  0.27175  1.0000
  H   H993      1.0  0.54491  0.84584  0.01199  1.0000
  H   H994      1.0  0.52037  0.51608  0.46527  1.0000
  H   H995      1.0  0.50591  0.61704  0.10022  1.0000
  Fe  Fe108     1.0  0.51069  0.85056  0.19825  1.0000
  C   C826      1.0  0.52378  0.97648  0.50820  1.0000
  C   C827      1.0  0.52544  0.97274  0.47389  1.0000
  C   C828      1.0  0.53218  0.61022  0.06715  1.0000
  C   C829      1.0  0.50771  0.51803  0.35666  1.0000
  H   H996      1.0  0.60030  0.51874  0.18425  1.0000
  Fe  Fe109     1.0  0.50851  0.64540  0.16029  1.0000
  H   H997      1.0  0.50564  0.63359  0.30505  1.0000
  H   H998      1.0  0.53636  0.96826  0.46636  1.0000
  C   C830      1.0  0.53589  0.51912  0.46292  1.0000
  H   H999      1.0  0.53581  0.00045  0.32598  1.0000
  C   C831      1.0  0.50395  0.61561  0.07205  1.0000
  H   H1000     1.0  0.56476  0.51269  0.43772  1.0000
  H   H1001     1.0  0.61754  0.50632  0.26567  1.0000
  H   H1002     1.0  0.53004  0.65314  0.05696  1.0000
  H   H1003     1.0  0.50802  0.53650  0.50214  1.0000
  H   H1004     1.0  0.51922  0.73759  0.05547  1.0000
  Fe  Fe110     1.0  0.66910  0.50975  0.17018  1.0000
  H   H1005     1.0  0.54114  0.52649  0.43850  1.0000
  C   C832      1.0  0.50829  0.00067  0.31509  1.0000
  C   C833      1.0  0.50936  0.72496  0.03940  1.0000
  H   H1006     1.0  0.50788  0.51196  0.40945  1.0000
  H   H1007     1.0  0.58926  0.50768  0.28972  1.0000
  C   C834      1.0  0.61954  0.00344  0.47636  1.0000
  C   C835      1.0  0.75260  0.51392  0.15368  1.0000
  C   C836      1.0  0.55879  0.50561  0.46210  1.0000
  C   C837      1.0  0.50418  0.73046  0.16261  1.0000
  C   C838      1.0  0.53044  0.84495  0.01249  1.0000
  C   C839      1.0  0.58334  0.55964  0.51076  1.0000
  S   S222      1.0  0.51553  0.67852  0.83402  1.0000
  C   C840      1.0  0.51749  0.75323  0.83916  1.0000
  C   C841      1.0  0.62842  0.96587  0.51208  1.0000
  S   S223      1.0  0.52557  0.65079  0.75460  1.0000
  H   H1008     1.0  0.58403  0.91529  0.52541  1.0000
  C   C842      1.0  0.57582  0.93125  0.58378  1.0000
  S   S224      1.0  0.52399  0.84034  0.87154  1.0000
  H   H1009     1.0  0.54785  0.72857  0.78464  1.0000
  C   C843      1.0  0.55669  0.88648  0.91076  1.0000
  S   S225      1.0  0.53695  0.88707  0.81793  1.0000
  C   C844      1.0  0.52149  0.00184  0.63428  1.0000
  S   S226      1.0  0.56898  0.97105  0.61722  1.0000
  H   H1010     1.0  0.53334  0.76068  0.84204  1.0000
  Fe  Fe111     1.0  0.57382  0.96602  0.67202  1.0000
  S   S227      1.0  0.56423  0.93347  0.68074  1.0000
  Fe  Fe112     1.0  0.55815  0.56839  0.68373  1.0000
  S   S228      1.0  0.54074  0.55099  0.63715  1.0000
  S   S229      1.0  0.54434  0.57854  0.72579  1.0000
  Fe  Fe113     1.0  0.59066  0.55565  0.67151  1.0000
  S   S230      1.0  0.57572  0.53785  0.62310  1.0000
  S   S231      1.0  0.61746  0.55764  0.70183  1.0000
  Fe  Fe114     1.0  0.56929  0.56300  0.61030  1.0000
  S   S232      1.0  0.56436  0.57237  0.55747  1.0000
  Fe  Fe115     1.0  0.54847  0.52749  0.65262  1.0000
  C   C845      1.0  0.67182  0.51137  0.95522  1.0000
  S   S233      1.0  0.58660  0.58217  0.65662  1.0000
  S   S234      1.0  0.56350  0.54344  0.70124  1.0000
  C   C846      1.0  0.59635  0.92960  0.52264  1.0000
  S   S235      1.0  0.51881  0.66447  0.92554  1.0000
  C   C847      1.0  0.56219  0.51338  0.76948  1.0000
  H   H1011     1.0  0.56724  0.91690  0.56972  1.0000
  H   H1012     1.0  0.74817  0.53765  0.76390  1.0000
  C   C848      1.0  0.60524  0.94286  0.55115  1.0000
  C   C849      1.0  0.50971  0.72589  0.00393  1.0000
  H   H1013     1.0  0.55260  0.51623  0.52914  1.0000
  C   C850      1.0  0.55525  0.91733  0.90905  1.0000
  C   C851      1.0  0.69285  0.51410  0.73715  1.0000
  H   H1014     1.0  0.57894  0.51343  0.71110  1.0000
  H   H1015     1.0  0.67745  0.50857  0.73042  1.0000
  Fe  Fe116     1.0  0.55703  0.99059  0.63736  1.0000
  H   H1016     1.0  0.54998  0.51565  0.75827  1.0000
  C   C852      1.0  0.61163  0.99968  0.53635  1.0000
  C   C853      1.0  0.52576  0.88704  0.91188  1.0000
  H   H1017     1.0  0.51817  0.88403  0.97428  1.0000
  H   H1018     1.0  0.55987  0.51141  0.79720  1.0000
  H   H1019     1.0  0.52888  0.74537  0.76881  1.0000
  H   H1020     1.0  0.52252  0.51849  0.70778  1.0000
  H   H1021     1.0  0.53339  0.97504  0.52743  1.0000
  H   H1022     1.0  0.53772  0.69426  0.76417  1.0000
  H   H1023     1.0  0.51812  0.61567  0.79204  1.0000
  C   C854      1.0  0.72245  0.54202  0.75979  1.0000
  H   H1024     1.0  0.54845  0.92639  0.91916  1.0000
  H   H1025     1.0  0.58990  0.55602  0.53237  1.0000
  H   H1026     1.0  0.52103  0.70256  0.94324  1.0000
  C   C855      1.0  0.62236  0.53835  0.71623  1.0000
  C   C856      1.0  0.63361  0.54133  0.74667  1.0000
  C   C857      1.0  0.63828  0.52662  0.75853  1.0000
  C   C858      1.0  0.59343  0.98374  0.52707  1.0000
  C   C859      1.0  0.53478  0.72095  0.76818  1.0000
  H   H1027     1.0  0.62962  0.97216  0.56487  1.0000
  H   H1028     1.0  0.63877  0.55515  0.76117  1.0000
  H   H1029     1.0  0.64694  0.52918  0.78196  1.0000
  C   C860      1.0  0.56838  0.90957  0.97731  1.0000
  S   S236      1.0  0.60431  0.99168  0.67563  1.0000
  H   H1030     1.0  0.55119  0.87192  0.92261  1.0000
  C   C861      1.0  0.60642  0.95407  0.61130  1.0000
  H   H1031     1.0  0.59489  0.51044  0.76314  1.0000
  H   H1032     1.0  0.50563  0.50897  0.59639  1.0000
  H   H1033     1.0  0.51062  0.74028  0.68112  1.0000
  C   C862      1.0  0.54335  0.89957  0.77918  1.0000
  C   C863      1.0  0.55326  0.92031  0.78053  1.0000
  C   C864      1.0  0.55928  0.93092  0.75063  1.0000
  C   C865      1.0  0.55579  0.92088  0.71899  1.0000
  C   C866      1.0  0.54573  0.90015  0.71759  1.0000
  C   C867      1.0  0.53937  0.88953  0.74744  1.0000
  H   H1034     1.0  0.55644  0.92825  0.80490  1.0000
  H   H1035     1.0  0.56703  0.94685  0.75217  1.0000
  H   H1036     1.0  0.54296  0.89221  0.69328  1.0000
  H   H1037     1.0  0.53185  0.87360  0.74597  1.0000
  C   C868      1.0  0.51808  0.61914  0.94549  1.0000
  C   C869      1.0  0.51164  0.66435  0.99312  1.0000
  C   C870      1.0  0.53791  0.62845  0.99797  1.0000
  H   H1038     1.0  0.72284  0.52181  0.90012  1.0000
  C   C871      1.0  0.53326  0.89199  0.98363  1.0000
  C   C872      1.0  0.53145  0.63105  0.74736  1.0000
  C   C873      1.0  0.52593  0.61562  0.76963  1.0000
  C   C874      1.0  0.53060  0.60009  0.76301  1.0000
  C   C875      1.0  0.54059  0.59957  0.73385  1.0000
  C   C876      1.0  0.54617  0.61501  0.71153  1.0000
  C   C877      1.0  0.54165  0.63069  0.71834  1.0000
  C   C878      1.0  0.53642  0.62766  0.96241  1.0000
  H   H1039     1.0  0.52638  0.58833  0.78058  1.0000
  H   H1040     1.0  0.55390  0.61486  0.68902  1.0000
  H   H1041     1.0  0.54605  0.64259  0.70099  1.0000
  C   C879      1.0  0.50720  0.76446  0.83779  1.0000
  Fe  Fe117     1.0  0.50698  0.81163  0.84100  1.0000
  H   H1042     1.0  0.59313  0.90768  0.58016  1.0000
  H   H1043     1.0  0.52306  0.53628  0.55824  1.0000
  H   H1044     1.0  0.52671  0.93537  0.70309  1.0000
  H   H1045     1.0  0.58337  0.97596  0.54644  1.0000
  H   H1046     1.0  0.57283  0.89440  0.91559  1.0000
  C   C880      1.0  0.62183  0.96104  0.54498  1.0000
  H   H1047     1.0  0.55424  0.88369  0.88266  1.0000
  C   C881      1.0  0.51557  0.93573  0.71914  1.0000
  C   C882      1.0  0.50748  0.73247  0.83579  1.0000
  S   S237      1.0  0.52056  0.79053  0.83804  1.0000
  H   H1048     1.0  0.61647  0.92516  0.59876  1.0000
  C   C883      1.0  0.57074  0.56800  0.51609  1.0000
  H   H1049     1.0  0.51559  0.72404  0.83601  1.0000
  H   H1050     1.0  0.58123  0.91583  0.96223  1.0000
  H   H1051     1.0  0.52687  0.67522  0.99652  1.0000
  H   H1052     1.0  0.54952  0.63403  0.94779  1.0000
  H   H1053     1.0  0.50853  0.98505  0.54468  1.0000
  H   H1054     1.0  0.55295  0.91604  0.88076  1.0000
  C   C884      1.0  0.72309  0.51158  0.74340  1.0000
  C   C885      1.0  0.50969  0.98209  0.51792  1.0000
  C   C886      1.0  0.62096  0.50594  0.70907  1.0000
  H   H1055     1.0  0.60493  0.96719  0.60328  1.0000
  C   C887      1.0  0.63209  0.50887  0.73962  1.0000
  H   H1056     1.0  0.62227  0.95854  0.61622  1.0000
  C   C888      1.0  0.73714  0.52212  0.90145  1.0000
  S   S238      1.0  0.55936  0.98371  0.69175  1.0000
  H   H1057     1.0  0.57135  0.92568  0.91421  1.0000
  N   N59       1.0  0.54664  0.89766  0.92406  1.0000
  H   H1058     1.0  0.52934  0.72866  0.94441  1.0000
  H   H1059     1.0  0.57257  0.94235  0.57114  1.0000
  H   H1060     1.0  0.50596  0.74206  0.94386  1.0000
  C   C889      1.0  0.54926  0.89982  0.96163  1.0000
  H   H1061     1.0  0.70750  0.50758  0.97162  1.0000
  S   S239      1.0  0.68450  0.52095  0.91808  1.0000
  H   H1062     1.0  0.57584  0.52743  0.76648  1.0000
  H   H1063     1.0  0.72989  0.55708  0.77002  1.0000
  H   H1064     1.0  0.73286  0.51718  0.98421  1.0000
  H   H1065     1.0  0.52013  0.73950  0.99350  1.0000
  H   H1066     1.0  0.52418  0.88590  0.88365  1.0000
  S   S240      1.0  0.52991  0.98800  0.61037  1.0000
  Fe  Fe118     1.0  0.51627  0.85478  0.82827  1.0000
  C   C890      1.0  0.51952  0.84251  0.98178  1.0000
  H   H1067     1.0  0.51720  0.89462  0.92063  1.0000
  H   H1068     1.0  0.51870  0.87166  0.92040  1.0000
  C   C891      1.0  0.50624  0.72064  0.73773  1.0000
  H   H1069     1.0  0.56968  0.92925  0.60957  1.0000
  C   C892      1.0  0.61606  0.52052  0.69750  1.0000
  C   C893      1.0  0.70260  0.53357  0.75012  1.0000
  C   C894      1.0  0.50867  0.92280  0.74551  1.0000
  C   C895      1.0  0.67982  0.52034  0.98732  1.0000
  H   H1070     1.0  0.50776  0.67648  0.72770  1.0000
  H   H1071     1.0  0.69458  0.54207  0.75293  1.0000
  C   C896      1.0  0.50443  0.98537  0.73771  1.0000
  H   H1072     1.0  0.59476  0.91674  0.62318  1.0000
  H   H1073     1.0  0.59946  0.95003  0.63635  1.0000
  C   C897      1.0  0.73270  0.53106  0.75634  1.0000
  C   C898      1.0  0.60054  0.92104  0.59734  1.0000
  H   H1074     1.0  0.52556  0.84154  0.95771  1.0000
  N   N60       1.0  0.59726  0.93756  0.58536  1.0000
  H   H1075     1.0  0.60781  0.51817  0.67365  1.0000
  H   H1076     1.0  0.51463  0.58335  0.67786  1.0000
  C   C899      1.0  0.71774  0.50962  0.99365  1.0000
  H   H1077     1.0  0.51697  0.61911  0.91796  1.0000
  Fe  Fe119     1.0  0.50726  0.65184  0.79865  1.0000
  C   C900      1.0  0.51750  0.71433  0.93421  1.0000
  H   H1078     1.0  0.51479  0.95949  0.69355  1.0000
  H   H1079     1.0  0.51436  0.91237  0.74981  1.0000
  C   C901      1.0  0.50784  0.50883  0.69795  1.0000
  C   C902      1.0  0.73874  0.50499  0.89443  1.0000
  C   C903      1.0  0.50867  0.52448  0.55049  1.0000
  H   H1080     1.0  0.51033  0.98628  0.76418  1.0000
  H   H1081     1.0  0.69342  0.53389  0.98915  1.0000
  C   C904      1.0  0.51216  0.69162  0.73615  1.0000
  C   C905      1.0  0.52365  0.73045  0.75879  1.0000
  C   C906      1.0  0.52910  0.70163  0.75677  1.0000
  Fe  Fe120     1.0  0.59788  0.99799  0.62218  1.0000
  H   H1082     1.0  0.51676  0.98874  0.72051  1.0000
  H   H1083     1.0  0.51642  0.76076  0.73445  1.0000
  C   C907      1.0  0.50853  0.94943  0.71378  1.0000
  H   H1084     1.0  0.51840  0.71434  0.90598  1.0000
  H   H1085     1.0  0.50626  0.56248  0.64986  1.0000
  H   H1086     1.0  0.75265  0.55310  0.91416  1.0000
  C   C908      1.0  0.50369  0.65672  0.96044  1.0000
  H   H1087     1.0  0.55247  0.63516  0.00985  1.0000
  Fe  Fe121     1.0  0.82932  0.31671  0.13664  1.0000
  S   S241      1.0  0.80210  0.32041  0.13486  1.0000
  S   S242      1.0  0.83390  0.30246  0.08918  1.0000
  Fe  Fe122     1.0  0.84142  0.33502  0.20857  1.0000
  S   S243      1.0  0.81472  0.34017  0.21101  1.0000
  S   S244      1.0  0.85952  0.34395  0.25886  1.0000
  Fe  Fe123     1.0  0.79794  0.30949  0.18756  1.0000
  H   H1088     1.0  0.76761  0.29010  0.08198  1.0000
  Fe  Fe124     1.0  0.82140  0.35043  0.15795  1.0000
  S   S245      1.0  0.81941  0.37490  0.13014  1.0000
  S   S246      1.0  0.82394  0.30347  0.18816  1.0000
  S   S247      1.0  0.84921  0.34756  0.15669  1.0000
  S   S248      1.0  0.95973  0.40848  0.38274  1.0000
  Fe  Fe125     1.0  0.97037  0.40128  0.33420  1.0000
  S   S249      1.0  0.95244  0.38199  0.28790  1.0000
  S   S250      1.0  0.81844  0.47899  0.13474  1.0000
  Fe  Fe126     1.0  0.84024  0.47857  0.17326  1.0000
  S   S251      1.0  0.83317  0.45373  0.20852  1.0000
  H   H1089     1.0  0.88721  0.44765  0.25459  1.0000
  C   C909      1.0  0.82346  0.39663  0.15278  1.0000
  C   C910      1.0  0.82490  0.41267  0.13447  1.0000
  C   C911      1.0  0.82817  0.43032  0.15145  1.0000
  C   C912      1.0  0.82975  0.43191  0.18697  1.0000
  C   C913      1.0  0.82841  0.41590  0.20539  1.0000
  C   C914      1.0  0.82542  0.39829  0.18829  1.0000
  H   H1090     1.0  0.82348  0.41140  0.10704  1.0000
  H   H1091     1.0  0.82919  0.44260  0.13705  1.0000
  H   H1092     1.0  0.82969  0.41711  0.23289  1.0000
  H   H1093     1.0  0.82439  0.38597  0.20257  1.0000
  C   C915      1.0  0.88552  0.35556  0.26560  1.0000
  C   C916      1.0  0.89808  0.35609  0.24004  1.0000
  C   C917      1.0  0.91851  0.36439  0.24722  1.0000
  C   C918      1.0  0.92669  0.37256  0.27979  1.0000
  C   C919      1.0  0.91416  0.37240  0.30512  1.0000
  C   C920      1.0  0.89371  0.36379  0.29812  1.0000
  H   H1094     1.0  0.89203  0.34971  0.21499  1.0000
  H   H1095     1.0  0.92802  0.36435  0.22746  1.0000
  H   H1096     1.0  0.92018  0.37852  0.33032  1.0000
  H   H1097     1.0  0.88418  0.36344  0.31812  1.0000
  H   H1098     1.0  0.77842  0.45585  0.16100  1.0000
  S   S252      1.0  0.97730  0.46521  0.38815  1.0000
  C   C921      1.0  0.77452  0.28211  0.06823  1.0000
  H   H1099     1.0  0.98504  0.48186  0.45560  1.0000
  H   H1100     1.0  0.88582  0.41626  0.12868  1.0000
  H   H1101     1.0  0.77997  0.25910  0.20114  1.0000
  H   H1102     1.0  0.82093  0.35053  0.02806  1.0000
  C   C922      1.0  0.87423  0.40168  0.11868  1.0000
  C   C923      1.0  0.79358  0.31644  0.29187  1.0000
  C   C924      1.0  0.82718  0.32975  0.05497  1.0000
  C   C925      1.0  0.83103  0.31359  0.05226  1.0000
  H   H1103     1.0  0.77194  0.27535  0.13515  1.0000
  H   H1104     1.0  0.82658  0.33587  0.07966  1.0000
  C   C926      1.0  0.76412  0.25202  0.19896  1.0000
  H   H1105     1.0  0.83502  0.29352  0.01764  1.0000
  S   S253      1.0  0.99169  0.43286  0.32444  1.0000
  N   N61       1.0  0.77915  0.45893  0.21552  1.0000
  C   C927      1.0  0.89290  0.40224  0.07060  1.0000
  C   C928      1.0  0.75420  0.26349  0.19863  1.0000
  C   C929      1.0  0.76869  0.27293  0.29482  1.0000
  H   H1106     1.0  0.85833  0.37664  0.04249  1.0000
  H   H1107     1.0  0.79961  0.28608  0.36559  1.0000
  C   C930      1.0  0.76100  0.46125  0.21466  1.0000
  H   H1108     1.0  0.76668  0.27700  0.26952  1.0000
  H   H1109     1.0  0.85991  0.39944  0.12839  1.0000
  H   H1110     1.0  0.77886  0.25588  0.13308  1.0000
  H   H1111     1.0  0.76118  0.22250  0.19796  1.0000
  H   H1112     1.0  0.89689  0.39171  0.08363  1.0000
  H   H1113     1.0  0.81385  0.31888  0.34959  1.0000
  Fe  Fe127     1.0  0.98458  0.40570  0.40968  1.0000
  H   H1114     1.0  0.89314  0.39926  0.04287  1.0000
  C   C931      1.0  0.77501  0.49512  0.13403  1.0000
  C   C932      1.0  0.78713  0.27813  0.34822  1.0000
  N   N62       1.0  0.77060  0.26342  0.08458  1.0000
  C   C933      1.0  0.89613  0.46338  0.25234  1.0000
  C   C934      1.0  0.78587  0.28476  0.31524  1.0000
  H   H1115     1.0  0.86554  0.42966  0.11038  1.0000
  S   S254      1.0  0.97997  0.38976  0.45951  1.0000
  H   H1116     1.0  0.99539  0.48951  0.27413  1.0000
  C   C935      1.0  0.98743  0.48349  0.35870  1.0000
  C   C936      1.0  0.77205  0.26073  0.35971  1.0000
  C   C937      1.0  0.99570  0.49334  0.30088  1.0000
  H   H1117     1.0  0.91686  0.46500  0.29041  1.0000
  C   C938      1.0  0.89020  0.47333  0.22924  1.0000
  H   H1118     1.0  0.77456  0.49360  0.22116  1.0000
  S   S255      1.0  0.83958  0.47650  0.04727  1.0000
  C   C939      1.0  0.78086  0.25419  0.06540  1.0000
  C   C940      1.0  0.79741  0.47797  0.21829  1.0000
  C   C941      1.0  0.90148  0.49354  0.22633  1.0000
  S   S256      1.0  0.76683  0.28959  0.20272  1.0000
  H   H1119     1.0  0.85824  0.45396  0.01831  1.0000
  C   C942      1.0  0.91327  0.47361  0.27287  1.0000
  Fe  Fe128     1.0  0.84362  0.49067  0.09993  1.0000
  C   C943      1.0  0.80935  0.29749  0.27127  1.0000
  H   H1120     1.0  0.79053  0.29243  0.06847  1.0000
  C   C944      1.0  0.77950  0.26871  0.11961  1.0000
  Fe  Fe129     1.0  0.98258  0.43940  0.37497  1.0000
  H   H1121     1.0  0.78005  0.24094  0.07774  1.0000
  C   C945      1.0  0.86927  0.41493  0.06432  1.0000
  C   C946      1.0  0.99343  0.37725  0.23257  1.0000
  H   H1122     1.0  0.79841  0.48726  0.19640  1.0000
  C   C947      1.0  0.99579  0.42264  0.50402  1.0000
  C   C948      1.0  0.85826  0.38001  0.07010  1.0000
  C   C949      1.0  0.81847  0.31387  0.32628  1.0000
  H   H1123     1.0  0.78625  0.31966  0.31344  1.0000
  H   H1124     1.0  0.85877  0.45346  0.08093  1.0000
  N   N63       1.0  0.80160  0.30285  0.30175  1.0000
  H   H1125     1.0  0.90472  0.41743  0.07694  1.0000
  H   H1126     1.0  0.99069  0.36642  0.29485  1.0000
  H   H1127     1.0  0.79842  0.48649  0.24224  1.0000
  H   H1128     1.0  0.88758  0.49396  0.06089  1.0000
  H   H1129     1.0  0.97860  0.37129  0.24349  1.0000
  H   H1130     1.0  0.81325  0.41961  0.05505  1.0000
  H   H1131     1.0  0.81485  0.38823  0.04502  1.0000
  H   H1132     1.0  0.99240  0.39949  0.28358  1.0000
  C   C950      1.0  0.86145  0.44327  0.03097  1.0000
  H   H1133     1.0  0.87736  0.39026  0.13042  1.0000
  S   S257      1.0  0.86450  0.48738  0.13706  1.0000
  H   H1134     1.0  0.84335  0.37819  0.07540  1.0000
  N   N64       1.0  0.87357  0.40006  0.08090  1.0000
  H   H1135     1.0  0.76690  0.43227  0.24367  1.0000
  H   H1136     1.0  0.83001  0.32736  0.31507  1.0000
  H   H1137     1.0  0.95213  0.48352  0.29763  1.0000
  H   H1138     1.0  0.82168  0.31064  0.26105  1.0000
  H   H1139     1.0  0.86015  0.36835  0.08371  1.0000
  H   H1140     1.0  0.82593  0.30489  0.33349  1.0000
  H   H1141     1.0  0.76805  0.43285  0.18178  1.0000
  C   C951      1.0  0.77936  0.44739  0.24508  1.0000
  H   H1142     1.0  0.79534  0.27951  0.11971  1.0000
  H   H1143     1.0  0.79681  0.26457  0.06366  1.0000
  H   H1144     1.0  0.78265  0.31037  0.27008  1.0000
  H   H1145     1.0  0.80530  0.33074  0.28364  1.0000
  H   H1146     1.0  0.79804  0.29078  0.25021  1.0000
  H   H1147     1.0  0.79390  0.44731  0.18272  1.0000
  S   S258      1.0  0.99354  0.39569  0.36158  1.0000
  H   H1148     1.0  0.87673  0.46541  0.21381  1.0000
  C   C952      1.0  0.82416  0.33818  0.02565  1.0000
  H   H1149     1.0  0.97977  0.46323  0.31531  1.0000
  C   C953      1.0  0.81321  0.41417  0.02933  1.0000
  H   H1150     1.0  0.81079  0.47576  0.21848  1.0000
  H   H1151     1.0  0.79306  0.44569  0.24668  1.0000
  C   C954      1.0  0.81412  0.39655  0.02354  1.0000
  C   C955      1.0  0.86568  0.42909  0.08295  1.0000
  H   H1152     1.0  0.99889  0.43136  0.48171  1.0000
  C   C956      1.0  0.98703  0.47850  0.32415  1.0000
  H   H1153     1.0  0.76935  0.27958  0.04104  1.0000
  C   C957      1.0  0.86848  0.41547  0.02827  1.0000
  C   C958      1.0  0.86179  0.44297  0.06633  1.0000
  C   C959      1.0  0.92503  0.49430  0.27071  1.0000
  H   H1154     1.0  0.93753  0.48476  0.33222  1.0000
  H   H1155     1.0  0.99453  0.36465  0.21980  1.0000
  C   C960      1.0  0.77986  0.44828  0.18392  1.0000
  C   C961      1.0  0.98672  0.40208  0.50024  1.0000
  H   H1156     1.0  0.81497  0.28678  0.27726  1.0000
  H   H1157     1.0  0.77852  0.45475  0.26933  1.0000
  H   H1158     1.0  0.99354  0.38762  0.21316  1.0000
  H   H1159     1.0  0.78351  0.48781  0.12623  1.0000
  C   C962      1.0  0.98788  0.48719  0.48199  1.0000
  C   C963      1.0  0.94880  0.49359  0.31406  1.0000
  H   H1160     1.0  0.77450  0.24971  0.03900  1.0000
  C   C964      1.0  0.83202  0.30601  0.01991  1.0000
  C   C965      1.0  0.99264  0.47681  0.50596  1.0000
  H   H1161     1.0  0.99344  0.46350  0.49808  1.0000
  H   H1162     1.0  0.89681  0.50135  0.20851  1.0000
  H   H1163     1.0  0.96233  0.50278  0.33002  1.0000
  H   H1164     1.0  0.77327  0.25590  0.38493  1.0000
  C   C966      1.0  0.75478  0.48656  0.12545  1.0000
  C   C967      1.0  0.76116  0.47991  0.21795  1.0000
  C   C968      1.0  0.99624  0.50327  0.36996  1.0000
  C   C969      1.0  0.86470  0.42950  0.01196  1.0000
  C   C970      1.0  0.75343  0.23128  0.19725  1.0000
  H   H1165     1.0  0.87068  0.40495  0.01241  1.0000
  C   C971      1.0  0.75544  0.24945  0.33885  1.0000
  C   C972      1.0  0.84298  0.49118  0.01184  1.0000
  C   C973      1.0  0.75378  0.25554  0.30643  1.0000
  H   H1166     1.0  0.75377  0.22747  0.11452  1.0000
  C   C974      1.0  0.91859  0.50388  0.24672  1.0000
  C   C975      1.0  0.98679  0.50439  0.49171  1.0000
  Fe  Fe130     1.0  0.96817  0.39629  0.71244  1.0000
  S   S259      1.0  0.97155  0.42330  0.68619  1.0000
  S   S260      1.0  0.93644  0.37223  0.71124  1.0000
  H   H1167     1.0  0.95827  0.47161  0.66514  1.0000
  C   C976      1.0  0.81255  0.41831  0.96861  1.0000
  S   S261      1.0  0.83359  0.48215  0.78235  1.0000
  Fe  Fe131     1.0  0.85199  0.33481  0.84756  1.0000
  S   S262      1.0  0.82722  0.32108  0.80805  1.0000
  S   S263      1.0  0.88486  0.34624  0.84237  1.0000
  Fe  Fe132     1.0  0.82412  0.33177  0.90454  1.0000
  S   S264      1.0  0.79736  0.31807  0.86931  1.0000
  S   S265      1.0  0.82203  0.34246  0.95759  1.0000
  Fe  Fe133     1.0  0.81079  0.29962  0.84823  1.0000
  S   S266      1.0  0.79582  0.26613  0.83930  1.0000
  Fe  Fe134     1.0  0.81597  0.34065  0.83272  1.0000
  S   S267      1.0  0.80364  0.35812  0.80405  1.0000
  S   S268      1.0  0.83657  0.31202  0.88617  1.0000
  S   S269      1.0  0.84168  0.35558  0.86963  1.0000
  Fe  Fe135     1.0  0.84053  0.47327  0.83298  1.0000
  S   S270      1.0  0.84714  0.44841  0.84691  1.0000
  S   S271      1.0  0.82145  0.48322  0.86169  1.0000
  H   H1168     1.0  0.93490  0.38895  0.54713  1.0000
  H   H1169     1.0  0.79506  0.40470  0.90347  1.0000
  C   C977      1.0  0.81682  0.38395  0.80997  1.0000
  C   C978      1.0  0.83608  0.39274  0.82347  1.0000
  C   C979      1.0  0.84549  0.41281  0.83308  1.0000
  C   C980      1.0  0.83597  0.42445  0.82829  1.0000
  C   C981      1.0  0.81726  0.41614  0.81230  1.0000
  C   C982      1.0  0.80765  0.39582  0.80324  1.0000
  H   H1170     1.0  0.84370  0.38404  0.82685  1.0000
  H   H1171     1.0  0.86008  0.41922  0.84502  1.0000
  H   H1172     1.0  0.80982  0.42506  0.80849  1.0000
  H   H1173     1.0  0.79283  0.38916  0.79231  1.0000
  H   H1174     1.0  0.83462  0.38300  0.93821  1.0000
  C   C983      1.0  0.91219  0.46824  0.76255  1.0000
  H   H1175     1.0  0.84516  0.48799  0.92555  1.0000
  H   H1176     1.0  0.79909  0.36133  0.93842  1.0000
  H   H1177     1.0  0.83018  0.30889  0.96554  1.0000
  C   C984      1.0  0.81412  0.38964  0.99025  1.0000
  C   C985      1.0  0.99653  0.48368  0.53983  1.0000
  C   C986      1.0  0.77002  0.25154  0.84159  1.0000
  H   H1178     1.0  0.88461  0.48969  0.99815  1.0000
  H   H1179     1.0  0.95669  0.41046  0.55729  1.0000
  H   H1180     1.0  0.77174  0.22419  0.84286  1.0000
  H   H1181     1.0  0.83916  0.46771  0.97607  1.0000
  H   H1182     1.0  0.97604  0.37506  0.52689  1.0000
  H   H1183     1.0  0.94444  0.37830  0.60160  1.0000
  H   H1184     1.0  0.81230  0.43901  0.00682  1.0000
  H   H1185     1.0  0.92947  0.44187  0.68323  1.0000
  C   C987      1.0  0.76202  0.23089  0.84235  1.0000
  C   C988      1.0  0.92209  0.36669  0.74784  1.0000
  C   C989      1.0  0.93078  0.37205  0.78063  1.0000
  C   C990      1.0  0.91908  0.36616  0.80924  1.0000
  C   C991      1.0  0.89855  0.35530  0.80549  1.0000
  C   C992      1.0  0.88978  0.35035  0.77268  1.0000
  C   C993      1.0  0.90153  0.35583  0.74403  1.0000
  H   H1186     1.0  0.94656  0.38026  0.78399  1.0000
  H   H1187     1.0  0.92603  0.36988  0.83448  1.0000
  H   H1188     1.0  0.87402  0.34184  0.76937  1.0000
  H   H1189     1.0  0.89467  0.35152  0.71879  1.0000
  N   N65       1.0  0.93600  0.40153  0.59775  1.0000
  H   H1190     1.0  0.97673  0.46928  0.61629  1.0000
  C   C994      1.0  0.84545  0.49439  0.95050  1.0000
  C   C995      1.0  0.98293  0.39097  0.52959  1.0000
  C   C996      1.0  0.94067  0.40350  0.56113  1.0000
  C   C997      1.0  0.90768  0.49513  0.78758  1.0000
  H   H1191     1.0  0.76316  0.27583  0.84004  1.0000
  H   H1192     1.0  0.91930  0.41016  0.65401  1.0000
  H   H1193     1.0  0.84385  0.40768  0.92358  1.0000
  H   H1194     1.0  0.88935  0.46959  0.71226  1.0000
  C   C998      1.0  0.89468  0.48242  0.73072  1.0000
  C   C999      1.0  0.94142  0.42090  0.61515  1.0000
  H   H1195     1.0  0.91029  0.37416  0.58319  1.0000
  H   H1196     1.0  0.94317  0.38941  0.64163  1.0000
  C   C1000     1.0  0.95340  0.45766  0.65105  1.0000
  C   C1001     1.0  0.91470  0.38781  0.59941  1.0000
  C   C1002     1.0  0.96380  0.45633  0.62350  1.0000
  H   H1197     1.0  0.78211  0.37070  0.92789  1.0000
  N   N66       1.0  0.86244  0.28241  0.81948  1.0000
  C   C1003     1.0  0.85120  0.29241  0.80641  1.0000
  C   C1004     1.0  0.84839  0.26123  0.82207  1.0000
  C   C1005     1.0  0.87036  0.29048  0.85438  1.0000
  C   C1006     1.0  0.87876  0.28604  0.79679  1.0000
  C   C1007     1.0  0.89357  0.30554  0.79255  1.0000
  C   C1008     1.0  0.88022  0.27074  0.77764  1.0000
  C   C1009     1.0  0.90867  0.30963  0.77020  1.0000
  C   C1010     1.0  0.89553  0.27496  0.75553  1.0000
  C   C1011     1.0  0.90966  0.29436  0.75171  1.0000
  H   H1198     1.0  0.84573  0.28750  0.77965  1.0000
  H   H1199     1.0  0.83823  0.28933  0.82186  1.0000
  H   H1200     1.0  0.86018  0.30870  0.80691  1.0000
  H   H1201     1.0  0.84103  0.25445  0.79698  1.0000
  H   H1202     1.0  0.83635  0.25916  0.83938  1.0000
  H   H1203     1.0  0.85578  0.25281  0.83245  1.0000
  H   H1204     1.0  0.85842  0.28719  0.87246  1.0000
  H   H1205     1.0  0.87999  0.28430  0.86435  1.0000
  H   H1206     1.0  0.87912  0.30680  0.85555  1.0000
  H   H1207     1.0  0.89347  0.31786  0.80631  1.0000
  H   H1208     1.0  0.86971  0.25544  0.77916  1.0000
  H   H1209     1.0  0.91957  0.32479  0.76709  1.0000
  H   H1210     1.0  0.89639  0.26313  0.74105  1.0000
  H   H1211     1.0  0.92140  0.29762  0.73434  1.0000
  C   C1012     1.0  0.75727  0.26000  0.84082  1.0000
  H   H1212     1.0  0.93446  0.41231  0.54819  1.0000
  H   H1213     1.0  0.96745  0.43809  0.58610  1.0000
  Fe  Fe136     1.0  0.99681  0.42248  0.66017  1.0000
  H   H1214     1.0  0.76561  0.46126  0.82500  1.0000
  C   C1013     1.0  0.94716  0.39248  0.61462  1.0000
  H   H1215     1.0  0.83182  0.38685  0.89435  1.0000
  C   C1014     1.0  0.81287  0.40008  0.96170  1.0000
  C   C1015     1.0  0.99714  0.42085  0.56601  1.0000
  C   C1016     1.0  0.95812  0.43826  0.60600  1.0000
  C   C1017     1.0  0.82535  0.33081  0.99335  1.0000
  C   C1018     1.0  0.94440  0.47140  0.74773  1.0000
  C   C1019     1.0  0.80897  0.40380  0.89994  1.0000
  C   C1020     1.0  0.79663  0.37167  0.92206  1.0000
  C   C1021     1.0  0.84210  0.48292  0.97920  1.0000
  H   H1216     1.0  0.00052  0.47575  0.55842  1.0000
  S   S272      1.0  0.86832  0.50142  0.84337  1.0000
  C   C1022     1.0  0.76413  0.24236  0.75721  1.0000
  N   N67       1.0  0.81247  0.39227  0.92668  1.0000
  C   C1023     1.0  0.83153  0.39248  0.92058  1.0000
  C   C1024     1.0  0.81261  0.42509  0.00199  1.0000
  C   C1025     1.0  0.00012  0.50275  0.72762  1.0000
  C   C1026     1.0  0.93121  0.47928  0.74997  1.0000
  C   C1027     1.0  0.90712  0.44873  0.77225  1.0000
  C   C1028     1.0  0.75701  0.46909  0.82194  1.0000
  C   C1029     1.0  0.92044  0.44098  0.76975  1.0000
  C   C1030     1.0  0.93906  0.45233  0.75768  1.0000
  H   H1217     1.0  0.78492  0.49429  0.92141  1.0000
  C   C1031     1.0  0.87940  0.46375  0.77901  1.0000
  H   H1218     1.0  0.89302  0.43916  0.78207  1.0000
  H   H1219     1.0  0.88329  0.48763  0.73105  1.0000
  H   H1220     1.0  0.91639  0.42613  0.77753  1.0000
  H   H1221     1.0  0.94946  0.44638  0.75620  1.0000
  C   C1032     1.0  0.99923  0.48432  0.72054  1.0000
  H   H1222     1.0  0.82133  0.41898  0.89906  1.0000
  H   H1223     1.0  0.81225  0.42765  0.94871  1.0000
  H   H1224     1.0  0.81511  0.37602  0.98702  1.0000
  N   N68       1.0  0.89861  0.47707  0.76502  1.0000
  C   C1033     1.0  0.93134  0.42273  0.64380  1.0000
  S   S273      1.0  0.99241  0.39426  0.68351  1.0000
  H   H1225     1.0  0.79560  0.36569  0.89548  1.0000
  C   C1034     1.0  0.93720  0.44089  0.66117  1.0000
  H   H1226     1.0  0.90562  0.39493  0.59081  1.0000
  C   C1035     1.0  0.98814  0.40028  0.56235  1.0000
  H   H1227     1.0  0.96322  0.40242  0.61491  1.0000
  C   C1036     1.0  0.82926  0.31467  0.99042  1.0000
  H   H1228     1.0  0.95898  0.48019  0.73862  1.0000
  H   H1229     1.0  0.80764  0.39686  0.87420  1.0000
  Fe  Fe137     1.0  0.81689  0.49491  0.81221  1.0000
  H   H1230     1.0  0.87119  0.45014  0.76264  1.0000
  C   C1037     1.0  0.76572  0.48812  0.80974  1.0000
  H   H1231     1.0  0.91055  0.38246  0.62546  1.0000
  S   S274      1.0  0.98787  0.41321  0.75762  1.0000
  H   H1232     1.0  0.77896  0.22447  0.75539  1.0000
  H   H1233     1.0  0.98531  0.39153  0.58461  1.0000
  H   H1234     1.0  0.75724  0.49152  0.88891  1.0000
  H   H1235     1.0  0.88121  0.45957  0.80527  1.0000
  H   H1236     1.0  0.86409  0.42961  0.98442  1.0000
  H   H1237     1.0  0.78807  0.49714  0.87597  1.0000
  Fe  Fe138     1.0  0.99292  0.43992  0.72883  1.0000
  H   H1238     1.0  0.86965  0.47094  0.78095  1.0000
  S   S275      1.0  0.79048  0.49988  0.79773  1.0000
  H   H1239     1.0  0.89756  0.50177  0.79095  1.0000
  H   H1240     1.0  0.91156  0.49189  0.81328  1.0000
  S   S276      1.0  0.99298  0.46697  0.75205  1.0000
  C   C1038     1.0  0.00103  0.43193  0.53670  1.0000
  H   H1241     1.0  0.77752  0.25601  0.76198  1.0000
  C   C1039     1.0  0.99548  0.50086  0.54984  1.0000
  C   C1040     1.0  0.76488  0.22455  0.75366  1.0000
  H   H1242     1.0  0.90789  0.49467  0.72050  1.0000
  H   H1243     1.0  0.93609  0.49421  0.74208  1.0000
  C   C1041     1.0  0.75426  0.49802  0.80558  1.0000
  H   H1244     1.0  0.00211  0.46541  0.68196  1.0000
  C   C1042     1.0  0.89028  0.50428  0.01012  1.0000
  C   C1043     1.0  0.79385  0.50427  0.90166  1.0000
  H   H1245     1.0  0.92632  0.55630  0.10042  1.0000
  C   C1044     1.0  0.77287  0.52248  0.16230  1.0000
  Fe  Fe139     1.0  0.87272  0.51839  0.15526  1.0000
  H   H1246     1.0  0.98012  0.58687  0.49354  1.0000
  S   S277      1.0  0.90565  0.53856  0.16063  1.0000
  C   C1045     1.0  0.99494  0.58872  0.49243  1.0000
  C   C1046     1.0  0.92898  0.56681  0.07980  1.0000
  S   S278      1.0  0.99507  0.55885  0.34369  1.0000
  S   S279      1.0  0.85345  0.52242  0.11503  1.0000
  H   H1247     1.0  0.96206  0.50999  0.25245  1.0000
  C   C1047     1.0  0.95953  0.51868  0.27311  1.0000
  H   H1248     1.0  0.77984  0.53643  0.17663  1.0000
  H   H1249     1.0  0.99451  0.58774  0.43731  1.0000
  C   C1048     1.0  0.89568  0.56204  0.08115  1.0000
  Fe  Fe140     1.0  0.98866  0.57796  0.30801  1.0000
  S   S280      1.0  0.95641  0.57027  0.30023  1.0000
  H   H1250     1.0  0.89990  0.57688  0.09308  1.0000
  C   C1049     1.0  0.91943  0.54715  0.19979  1.0000
  C   C1050     1.0  0.93998  0.55504  0.19985  1.0000
  C   C1051     1.0  0.95150  0.56216  0.23033  1.0000
  C   C1052     1.0  0.94260  0.56177  0.26106  1.0000
  C   C1053     1.0  0.92206  0.55399  0.26097  1.0000
  C   C1054     1.0  0.91050  0.54655  0.23056  1.0000
  H   H1251     1.0  0.94705  0.55563  0.17619  1.0000
  H   H1252     1.0  0.96729  0.56820  0.22996  1.0000
  H   H1253     1.0  0.91503  0.55367  0.28458  1.0000
  H   H1254     1.0  0.89472  0.54064  0.23090  1.0000
  H   H1255     1.0  0.84779  0.51744  0.04062  1.0000
  H   H1256     1.0  0.98321  0.51175  0.47169  1.0000
  H   H1257     1.0  0.93494  0.58165  0.09282  1.0000
  H   H1258     1.0  0.95764  0.53083  0.26148  1.0000
  S   S281      1.0  0.84979  0.50929  0.19446  1.0000
  N   N69       1.0  0.91093  0.56208  0.05871  1.0000
  C   C1055     1.0  0.78415  0.51311  0.15260  1.0000
  S   S282      1.0  0.80947  0.52415  0.16478  1.0000
  H   H1259     1.0  0.89955  0.52654  0.08847  1.0000
  H   H1260     1.0  0.95118  0.52827  0.33389  1.0000
  C   C1056     1.0  0.91565  0.57822  0.03479  1.0000
  C   C1057     1.0  0.89867  0.52546  0.06097  1.0000
  H   H1261     1.0  0.92102  0.59281  0.04853  1.0000
  H   H1262     1.0  0.88137  0.55702  0.06682  1.0000
  H   H1263     1.0  0.97340  0.52614  0.28902  1.0000
  C   C1058     1.0  0.89197  0.50672  0.04543  1.0000
  H   H1264     1.0  0.94065  0.56639  0.06409  1.0000
  H   H1265     1.0  0.93373  0.52854  0.30349  1.0000
  H   H1266     1.0  0.89317  0.55217  0.10267  1.0000
  H   H1267     1.0  0.99140  0.54342  0.48947  1.0000
  C   C1059     1.0  0.84705  0.51095  0.01560  1.0000
  C   C1060     1.0  0.93818  0.51859  0.31715  1.0000
  H   H1268     1.0  0.92745  0.57945  0.01766  1.0000
  H   H1269     1.0  0.92657  0.51957  0.24400  1.0000
  Fe  Fe141     1.0  0.82956  0.51047  0.15284  1.0000
  H   H1270     1.0  0.90245  0.57595  0.01902  1.0000
  N   N70       1.0  0.94258  0.50592  0.29337  1.0000
  C   C1061     1.0  0.90386  0.54239  0.04150  1.0000
  H   H1271     1.0  0.96650  0.52668  0.50040  1.0000
  H   H1272     1.0  0.92592  0.50964  0.33360  1.0000
  H   H1273     1.0  0.99660  0.50714  0.39671  1.0000
  C   C1062     1.0  0.98119  0.53776  0.51071  1.0000
  S   S283      1.0  0.99449  0.58909  0.56251  1.0000
  H   H1274     1.0  0.99684  0.50631  0.75267  1.0000
  S   S284      1.0  0.84358  0.52437  0.82005  1.0000
  Fe  Fe142     1.0  0.99330  0.57600  0.68998  1.0000
  C   C1063     1.0  0.89510  0.52053  0.99021  1.0000
  H   H1275     1.0  0.99892  0.50577  0.57629  1.0000
  H   H1276     1.0  0.90483  0.55113  0.98838  1.0000
  S   S285      1.0  0.85408  0.52886  0.91859  1.0000
  C   C1064     1.0  0.80574  0.53576  0.87681  1.0000
  C   C1065     1.0  0.77244  0.54022  0.91035  1.0000
  C   C1066     1.0  0.80503  0.53330  0.93781  1.0000
  S   S286      1.0  0.98589  0.55776  0.64112  1.0000
  H   H1277     1.0  0.96124  0.51227  0.56021  1.0000
  H   H1278     1.0  0.89309  0.51846  0.96273  1.0000
  S   S287      1.0  0.88058  0.52191  0.74887  1.0000
  H   H1279     1.0  0.97299  0.53787  0.57367  1.0000
  S   S288      1.0  0.97352  0.57122  0.73507  1.0000
  H   H1280     1.0  0.98203  0.52208  0.59008  1.0000
  H   H1281     1.0  0.81953  0.53322  0.93997  1.0000
  C   C1067     1.0  0.90176  0.53934  0.00548  1.0000
  C   C1068     1.0  0.77459  0.52294  0.90395  1.0000
  H   H1282     1.0  0.97936  0.55056  0.52072  1.0000
  H   H1283     1.0  0.78508  0.55434  0.91561  1.0000
  H   H1284     1.0  0.82054  0.53637  0.87614  1.0000
  H   H1285     1.0  0.79646  0.52544  0.95981  1.0000
  C   C1069     1.0  0.90651  0.53543  0.74589  1.0000
  C   C1070     1.0  0.91464  0.53703  0.71376  1.0000
  C   C1071     1.0  0.93509  0.54762  0.70998  1.0000
  C   C1072     1.0  0.94768  0.55694  0.73833  1.0000
  C   C1073     1.0  0.93955  0.55515  0.77052  1.0000
  C   C1074     1.0  0.91911  0.54443  0.77434  1.0000
  Fe  Fe143     1.0  0.86073  0.51095  0.79416  1.0000
  H   H1286     1.0  0.94108  0.54896  0.68505  1.0000
  H   H1287     1.0  0.94913  0.56235  0.79260  1.0000
  H   H1288     1.0  0.91312  0.54345  0.79919  1.0000
  H   H1289     1.0  0.79808  0.52934  0.85170  1.0000
  H   H1290     1.0  0.90504  0.53024  0.69153  1.0000
  C   C1075     1.0  0.84960  0.51418  0.95425  1.0000
  H   H1291     1.0  0.80808  0.55121  0.87885  1.0000
  H   H1292     1.0  0.85361  0.53775  0.98989  1.0000
  C   C1076     1.0  0.85034  0.52243  0.98684  1.0000
  Fe  Fe144     1.0  0.84869  0.51200  0.86819  1.0000
  N   N71       1.0  0.79435  0.52390  0.90504  1.0000
  H   H1293     1.0  0.76092  0.51280  0.79640  1.0000
  C   C1077     1.0  0.97572  0.52515  0.56658  1.0000
  H   H1294     1.0  0.80843  0.54903  0.94079  1.0000
  N   N72       1.0  0.98893  0.52955  0.53763  1.0000
  C   C1078     1.0  0.99028  0.51160  0.52620  1.0000
  C   C1079     1.0  0.75396  0.53972  0.90935  1.0000
  H   H1295     1.0  0.92120  0.50689  0.77726  1.0000
  H   H1296     1.0  0.80885  0.50549  0.90472  1.0000
  C   C1080     1.0  0.75712  0.50527  0.89556  1.0000
