data_image0
_chemical_formula_structural       C2FeHSHCHCHFeS2FeS2FeS5CSHSH3CNH2C6H4C6H4C6H5C2HFeH2CH3C2H2CHC2FeHNHCH5SCH3FeH3C2HFeH4C2HC3H3NHCH3CH4FeCH2CS2HSC2HSCSC4NH3CH4CNH2CHFeS2FeS2FeSFeS3HSFeSHSCSCHCHC6H4C6H4C6H4C3HCH4C2HCHFeNHC2H5CNH6CHCH7C2HC4NFeC3SCHC2HC3NC9H11CNSH2CHFeHSCH2CHCHCFeH3C2H3CH2C4HCHCH2CH9C2SH3CHCHC4HC2H2CHCHSH2CHCFeSH2CH4CHSCHC2NCHCH3CH2S2C3NSCHCH2SHC2S2HCFeSHCHFeS2FeS2FeSFeS3C6H4C3HCH3C6H4C6H4CNC6H4C3SH3C2H7CH3CSC4H2FeCNH4NC9H17CH3CHCHSCH3SC2HCHCHC4HCH2NHC3H5CH2CH3CHC2HC3H2SH3CHNFeCHNH3NHSCHCH2C3HSCH4C6H4SH2SH2FeS2FeS2FeSFeS3FeS2FeS2FeSFeS4FeS2FeSHFeSFeS3H2FeSHNHC6H4C6H4C3HC6H3C6H4C6H4C3HC3HCH2C2H2NH6NC7HCH11CFeH7CH5SC2H2CH4CNH2CSHNSHSFeH2CNCH2C6HC2SC2FeH3CH5C2H2C2HCHCH2C3H2CHC2HCHCSCHC2H5C6H2CHC2H4C4H7CNC2HSHC2HNC2HC2HC3H2C2H3C4H5FeH3SH4CH2FeS2FeS2FeSFeS3FeS2FeS2FeSFeHS2FeS2FeS2FeSFeS4C3HC6H4C5H2C6H4C2HC3HCHC6H6C7H4CH2C4H3CH4NC4H12CH3C2HCH7NCHCHN2H2CH7CH2C10H4SH4C3H7CHC3HCH3C2NH3CHC4HCHCNHCHCH4C3H2C2HCFeCHC3H6CH2CH3CHCSH4S2FeS2FeS2FeSFeS3FeHSFeSFeS3FeSH2CHFeS2FeS2HNFeS2C2HFeS2CHS2C4H6C2HNH4CHCHC2H4CHCHSC2HFeHC6H4C6H4CFeHC3H2C3HC7H7CH2CHCHFeCHC2HC2HFeH3C2H3CHCHCH4CHC2HSC2HCHC2H4C2FeSHFeH2CHC3HCNCHCH3C2FeH3CHC4HFeCHCHC3H3C2SHCH2C2HC2H3C2H2CH2CH2C2NH2CNCH3C2H2NH2CH3C3H3SH2CH2SFeC2HC2HCHFeS2HNC6H5C2H3CHC3H6CHC2HFeCHS2CFeHC2SCH2FeS2HCSCFeS2FeSFeSFeS3H2CH4CFeSHFeSFeCSHCS2HCHSCSHCH2C2FeH2CHCHC6H4C6H6CHCNC6H5NC8SH13C2HCH2CFeC2NCH5CHFeHC2HCNCHCH3CH3NC9H14NCH2C2H2C2HC2HSHCHCHC2SH2CH3CH3CH2CH2SH3C2SC3HCH2SCH2C2SHSFeH2SH3FeSCHSFeH3FeSH3C3H2CH2FeC4SH3C8H5S2HSHNC6H2SHC2H2C3HSCHCHCH3CHNC
_chemical_formula_sum              "C720 Fe96 H864 S192 N48"
_cell_length_a       72.088
_cell_length_b       72.1295
_cell_length_c       30.6183
_cell_angle_alpha    91.2388
_cell_angle_beta     91.1386
_cell_angle_gamma    117.909

_space_group_name_H-M_alt    "P 1"
_space_group_IT_number       1

loop_
  _space_group_symop_operation_xyz
  'x, y, z'

loop_
  _atom_site_type_symbol
  _atom_site_label
  _atom_site_symmetry_multiplicity
  _atom_site_fract_x
  _atom_site_fract_y
  _atom_site_fract_z
  _atom_site_occupancy
  C   C1        1.0  0.01908  0.43907  0.93146  1.0000
  C   C2        1.0  0.32457  0.42922  0.29491  1.0000
  Fe  Fe1       1.0  0.31485  0.46801  0.09223  1.0000
  H   H1        1.0  0.03143  0.49498  0.29448  1.0000
  S   S1        1.0  0.28581  0.46806  0.12190  1.0000
  H   H2        1.0  0.09759  0.38747  0.01943  1.0000
  C   C3        1.0  0.01388  0.40358  0.92253  1.0000
  H   H3        1.0  0.00778  0.43739  0.90431  1.0000
  C   C4        1.0  0.05545  0.43031  0.06410  1.0000
  H   H4        1.0  0.00324  0.39961  0.19389  1.0000
  Fe  Fe2       1.0  0.17835  0.47320  0.04930  1.0000
  S   S2        1.0  0.17232  0.49599  0.01009  1.0000
  S   S3        1.0  0.20359  0.46420  0.02772  1.0000
  Fe  Fe3       1.0  0.14289  0.46645  0.11049  1.0000
  S   S4        1.0  0.13467  0.48921  0.07728  1.0000
  S   S5        1.0  0.12679  0.44658  0.16832  1.0000
  Fe  Fe4       1.0  0.13783  0.47426  0.01463  1.0000
  S   S6        1.0  0.11587  0.47405  0.96010  1.0000
  S   S7        1.0  0.14368  0.44989  0.04783  1.0000
  S   S8        1.0  0.17788  0.48841  0.11379  1.0000
  S   S9        1.0  0.03697  0.47305  0.73367  1.0000
  S   S10       1.0  0.05119  0.39811  0.83675  1.0000
  C   C5        1.0  0.03402  0.42212  0.07092  1.0000
  S   S11       1.0  0.01912  0.43435  0.36028  1.0000
  H   H5        1.0  0.29279  0.45973  0.25267  1.0000
  S   S12       1.0  0.04145  0.43933  0.24087  1.0000
  H   H6        1.0  0.18987  0.44419  0.15392  1.0000
  H   H7        1.0  0.05542  0.43426  0.95432  1.0000
  H   H8        1.0  0.22157  0.47626  0.11763  1.0000
  C   C6        1.0  0.00410  0.47257  0.38665  1.0000
  N   N1        1.0  0.00869  0.45622  0.60648  1.0000
  H   H9        1.0  0.03123  0.49771  0.41956  1.0000
  H   H10       1.0  0.00427  0.46605  0.67096  1.0000
  C   C7        1.0  0.10290  0.44441  0.18788  1.0000
  C   C8        1.0  0.09312  0.45519  0.16887  1.0000
  C   C9        1.0  0.07420  0.45322  0.18529  1.0000
  C   C10       1.0  0.06487  0.44052  0.22092  1.0000
  C   C11       1.0  0.07456  0.42965  0.23986  1.0000
  C   C12       1.0  0.09350  0.43160  0.22335  1.0000
  H   H11       1.0  0.10018  0.46510  0.14163  1.0000
  H   H12       1.0  0.06681  0.46167  0.17040  1.0000
  H   H13       1.0  0.06755  0.41986  0.26735  1.0000
  H   H14       1.0  0.10095  0.42322  0.23832  1.0000
  C   C13       1.0  0.09893  0.45261  0.92531  1.0000
  C   C14       1.0  0.09539  0.43207  0.93177  1.0000
  C   C15       1.0  0.08089  0.41545  0.90418  1.0000
  C   C16       1.0  0.06991  0.41926  0.87003  1.0000
  C   C17       1.0  0.07364  0.43983  0.86354  1.0000
  C   C18       1.0  0.08803  0.45637  0.89105  1.0000
  H   H15       1.0  0.10371  0.42900  0.95806  1.0000
  H   H16       1.0  0.07814  0.39958  0.90930  1.0000
  H   H17       1.0  0.06574  0.44309  0.83676  1.0000
  H   H18       1.0  0.09093  0.47223  0.88541  1.0000
  C   C19       1.0  0.22673  0.46617  0.05451  1.0000
  C   C20       1.0  0.24034  0.46111  0.03053  1.0000
  C   C21       1.0  0.25870  0.46212  0.05024  1.0000
  C   C22       1.0  0.26350  0.46776  0.09463  1.0000
  C   C23       1.0  0.24986  0.47275  0.11868  1.0000
  C   C24       1.0  0.23171  0.47215  0.09875  1.0000
  H   H19       1.0  0.23666  0.45642  0.99634  1.0000
  H   H20       1.0  0.26887  0.45807  0.03126  1.0000
  H   H21       1.0  0.15397  0.40447  0.18128  1.0000
  H   H22       1.0  0.06635  0.43335  0.09157  1.0000
  H   H23       1.0  0.16296  0.43884  0.15173  1.0000
  C   C25       1.0  0.04890  0.43074  0.98640  1.0000
  C   C26       1.0  0.11181  0.39259  0.03948  1.0000
  H   H24       1.0  0.02796  0.39986  0.61615  1.0000
  Fe  Fe5       1.0  0.02115  0.41995  0.29588  1.0000
  H   H25       1.0  0.07354  0.48565  0.24615  1.0000
  H   H26       1.0  0.09779  0.39625  0.09823  1.0000
  C   C27       1.0  0.13035  0.40450  0.10952  1.0000
  H   H27       1.0  0.13015  0.39152  0.98601  1.0000
  H   H28       1.0  0.00976  0.37369  0.15235  1.0000
  H   H29       1.0  0.16249  0.40392  0.02917  1.0000
  C   C28       1.0  0.02922  0.47530  0.60314  1.0000
  C   C29       1.0  0.01883  0.49362  0.39497  1.0000
  H   H30       1.0  0.01933  0.44356  0.65890  1.0000
  H   H31       1.0  0.30295  0.38937  0.87542  1.0000
  C   C30       1.0  0.02699  0.42254  0.99205  1.0000
  H   H32       1.0  0.25340  0.47719  0.15300  1.0000
  C   C31       1.0  0.01275  0.39680  0.50816  1.0000
  C   C32       1.0  0.04150  0.48818  0.28268  1.0000
  Fe  Fe6       1.0  0.02996  0.40489  0.79159  1.0000
  H   H33       1.0  0.07959  0.44112  0.01666  1.0000
  N   N2        1.0  0.01268  0.41899  0.95374  1.0000
  H   H34       1.0  0.04029  0.47235  0.58296  1.0000
  C   C33       1.0  0.06287  0.43463  0.02193  1.0000
  H   H35       1.0  0.02840  0.41891  0.10397  1.0000
  H   H36       1.0  0.30488  0.46256  0.30623  1.0000
  H   H37       1.0  0.00355  0.41193  0.04331  1.0000
  H   H38       1.0  0.02726  0.48823  0.58822  1.0000
  H   H39       1.0  0.00632  0.43206  0.46259  1.0000
  S   S13       1.0  0.01405  0.38901  0.32518  1.0000
  C   C34       1.0  0.01239  0.43938  0.62507  1.0000
  H   H40       1.0  0.03866  0.48516  0.24674  1.0000
  H   H41       1.0  0.31888  0.38003  0.81565  1.0000
  H   H42       1.0  0.01993  0.45156  0.95469  1.0000
  Fe  Fe7       1.0  0.00909  0.40262  0.38904  1.0000
  H   H43       1.0  0.06111  0.49122  0.35973  1.0000
  H   H44       1.0  0.30936  0.41774  0.28187  1.0000
  H   H45       1.0  0.06935  0.47482  0.29893  1.0000
  C   C35       1.0  0.01755  0.39639  0.58775  1.0000
  C   C36       1.0  0.02507  0.48447  0.76613  1.0000
  H   H46       1.0  0.03471  0.44494  0.91655  1.0000
  Fe  Fe8       1.0  0.02374  0.43931  0.75082  1.0000
  H   H47       1.0  0.32880  0.40547  0.32899  1.0000
  H   H48       1.0  0.03719  0.48109  0.63593  1.0000
  H   H49       1.0  0.07206  0.49334  0.89439  1.0000
  H   H50       1.0  0.29125  0.43724  0.27894  1.0000
  C   C37       1.0  0.07550  0.48993  0.28171  1.0000
  C   C38       1.0  0.13018  0.39486  0.02073  1.0000
  H   H51       1.0  0.02964  0.40955  0.90823  1.0000
  C   C39       1.0  0.11191  0.39743  0.08380  1.0000
  C   C40       1.0  0.14875  0.40199  0.04617  1.0000
  C   C41       1.0  0.01989  0.41822  0.03557  1.0000
  H   H52       1.0  0.18295  0.39859  0.08567  1.0000
  H   H53       1.0  0.17979  0.40745  0.17910  1.0000
  H   H54       1.0  0.20112  0.42086  0.11874  1.0000
  N   N3        1.0  0.16883  0.41517  0.11940  1.0000
  H   H55       1.0  0.17829  0.44713  0.10396  1.0000
  C   C42       1.0  0.16507  0.40260  0.15913  1.0000
  H   H56       1.0  0.15848  0.38559  0.15025  1.0000
  H   H57       1.0  0.00623  0.45622  0.80010  1.0000
  H   H58       1.0  0.19145  0.42509  0.06840  1.0000
  C   C43       1.0  0.14936  0.40694  0.09161  1.0000
  H   H59       1.0  0.30594  0.49992  0.98007  1.0000
  H   H60       1.0  0.30623  0.42859  0.21510  1.0000
  H   H61       1.0  0.01052  0.38870  0.93865  1.0000
  H   H62       1.0  0.12971  0.40873  0.14334  1.0000
  Fe  Fe9       1.0  0.00117  0.39562  0.70973  1.0000
  C   C44       1.0  0.18677  0.41478  0.09700  1.0000
  H   H63       1.0  0.00506  0.46047  0.40516  1.0000
  H   H64       1.0  0.02300  0.44353  0.53486  1.0000
  C   C45       1.0  0.17524  0.43724  0.13299  1.0000
  S   S14       1.0  0.03545  0.41777  0.72363  1.0000
  S   S15       1.0  0.32590  0.47366  0.02318  1.0000
  H   H65       1.0  0.04277  0.40887  0.54236  1.0000
  S   S16       1.0  0.02438  0.40344  0.45604  1.0000
  C   C46       1.0  0.01067  0.47259  0.79714  1.0000
  C   C47       1.0  0.02593  0.40146  0.54578  1.0000
  H   H66       1.0  0.03552  0.47259  0.29783  1.0000
  S   S17       1.0  0.32480  0.44291  0.10220  1.0000
  C   C48       1.0  0.00812  0.44345  0.52901  1.0000
  S   S18       1.0  0.02106  0.42838  0.81924  1.0000
  C   C49       1.0  0.30180  0.45415  0.27385  1.0000
  C   C50       1.0  0.31569  0.40164  0.85840  1.0000
  C   C51       1.0  0.32516  0.39652  0.82403  1.0000
  C   C52       1.0  0.31672  0.44563  0.21170  1.0000
  N   N4        1.0  0.32173  0.45772  0.25388  1.0000
  H   H67       1.0  0.31608  0.42628  0.89986  1.0000
  H   H68       1.0  0.30864  0.45113  0.18778  1.0000
  H   H69       1.0  0.32441  0.48504  0.22078  1.0000
  C   C53       1.0  0.00180  0.48184  0.82450  1.0000
  H   H70       1.0  0.02359  0.43621  0.60598  1.0000
  H   H71       1.0  0.09253  0.49882  0.29072  1.0000
  H   H72       1.0  0.00246  0.39957  0.89437  1.0000
  H   H73       1.0  0.32812  0.37713  0.74562  1.0000
  C   C54       1.0  0.32301  0.42248  0.87220  1.0000
  N   N5        1.0  0.06413  0.50189  0.29362  1.0000
  H   H74       1.0  0.33133  0.44729  0.19682  1.0000
  H   H75       1.0  0.30553  0.49910  0.06033  1.0000
  C   C55       1.0  0.99869  0.43684  0.48733  1.0000
  H   H76       1.0  0.24249  0.50085  0.97123  1.0000
  Fe  Fe10      1.0  0.12138  0.64883  0.13646  1.0000
  S   S19       1.0  0.13136  0.66088  0.06876  1.0000
  S   S20       1.0  0.10102  0.65979  0.17286  1.0000
  Fe  Fe11      1.0  0.14303  0.62172  0.13313  1.0000
  S   S21       1.0  0.15496  0.63177  0.06624  1.0000
  S   S22       1.0  0.14517  0.59587  0.16989  1.0000
  Fe  Fe12      1.0  0.16325  0.66473  0.09022  1.0000
  S   S23       1.0  0.19442  0.69099  0.06581  1.0000
  Fe  Fe13      1.0  0.12259  0.62737  0.05032  1.0000
  S   S24       1.0  0.10374  0.60510  0.99393  1.0000
  S   S25       1.0  0.15372  0.65480  0.15920  1.0000
  S   S26       1.0  0.11021  0.61533  0.11603  1.0000
  H   H77       1.0  0.22489  0.60430  0.07505  1.0000
  S   S27       1.0  0.18513  0.54496  0.07499  1.0000
  Fe  Fe14      1.0  0.01419  0.58974  0.83611  1.0000
  S   S28       1.0  0.03941  0.61878  0.87159  1.0000
  H   H78       1.0  0.05127  0.59058  0.72459  1.0000
  S   S29       1.0  0.02259  0.56884  0.79552  1.0000
  C   C56       1.0  0.10121  0.62824  0.74709  1.0000
  S   S30       1.0  0.02912  0.62226  0.31241  1.0000
  C   C57       1.0  0.23272  0.72661  0.05991  1.0000
  H   H79       1.0  0.22557  0.65673  0.01013  1.0000
  C   C58       1.0  0.06769  0.60232  0.71799  1.0000
  H   H80       1.0  0.23210  0.72116  0.02646  1.0000
  C   C59       1.0  0.08154  0.64787  0.21236  1.0000
  C   C60       1.0  0.07507  0.62760  0.22791  1.0000
  C   C61       1.0  0.05881  0.61914  0.25844  1.0000
  C   C62       1.0  0.04921  0.63105  0.27358  1.0000
  C   C63       1.0  0.05583  0.65115  0.25781  1.0000
  C   C64       1.0  0.07174  0.65942  0.22752  1.0000
  H   H81       1.0  0.08260  0.61855  0.21666  1.0000
  H   H82       1.0  0.05388  0.60362  0.27060  1.0000
  H   H83       1.0  0.04862  0.66049  0.26920  1.0000
  H   H84       1.0  0.07656  0.67503  0.21585  1.0000
  C   C65       1.0  0.08568  0.60938  0.96155  1.0000
  C   C66       1.0  0.08798  0.62952  0.95568  1.0000
  C   C67       1.0  0.07380  0.63232  0.92771  1.0000
  C   C68       1.0  0.05721  0.61500  0.90581  1.0000
  C   C69       1.0  0.05487  0.59489  0.91195  1.0000
  C   C70       1.0  0.06907  0.59214  0.93970  1.0000
  H   H85       1.0  0.10085  0.64296  0.97210  1.0000
  H   H86       1.0  0.07564  0.64792  0.92312  1.0000
  H   H87       1.0  0.04213  0.58144  0.89528  1.0000
  H   H88       1.0  0.06726  0.57658  0.94396  1.0000
  C   C71       1.0  0.15503  0.58100  0.14164  1.0000
  C   C72       1.0  0.16673  0.58856  0.10428  1.0000
  C   C73       1.0  0.17546  0.57707  0.08360  1.0000
  C   C74       1.0  0.17235  0.55784  0.09972  1.0000
  C   C75       1.0  0.16008  0.54988  0.13623  1.0000
  C   C76       1.0  0.15168  0.56160  0.15753  1.0000
  H   H89       1.0  0.16969  0.60356  0.09203  1.0000
  H   H90       1.0  0.18477  0.58315  0.05508  1.0000
  H   H91       1.0  0.15775  0.53509  0.14902  1.0000
  H   H92       1.0  0.14287  0.55576  0.18674  1.0000
  C   C77       1.0  0.13082  0.53072  0.99852  1.0000
  C   C78       1.0  0.21713  0.72222  0.13046  1.0000
  C   C79       1.0  0.21599  0.71485  0.08726  1.0000
  H   H93       1.0  0.06632  0.61394  0.69658  1.0000
  C   C80       1.0  0.03075  0.60828  0.05869  1.0000
  H   H94       1.0  0.20446  0.71348  0.15200  1.0000
  H   H95       1.0  0.22825  0.62369  0.00745  1.0000
  H   H96       1.0  0.11070  0.63806  0.77578  1.0000
  H   H97       1.0  0.06832  0.61721  0.13751  1.0000
  C   C81       1.0  0.02057  0.51460  0.78786  1.0000
  C   C82       1.0  0.11189  0.54149  0.04749  1.0000
  H   H98       1.0  0.00518  0.60670  0.44333  1.0000
  C   C83       1.0  0.03119  0.60709  0.01234  1.0000
  H   H99       1.0  0.09697  0.52081  0.23433  1.0000
  Fe  Fe15      1.0  0.16944  0.50959  0.07445  1.0000
  N   N6        1.0  0.11801  0.54194  0.00138  1.0000
  H   H100      1.0  0.13596  0.56524  0.95531  1.0000
  C   C84       1.0  0.06697  0.53314  0.94392  1.0000
  C   C85       1.0  0.25020  0.74552  0.07514  1.0000
  H   H101      1.0  0.07305  0.62140  0.04372  1.0000
  H   H102      1.0  0.02126  0.66387  0.45559  1.0000
  H   H103      1.0  0.12396  0.57419  0.99572  1.0000
  H   H104      1.0  0.04539  0.61552  0.99479  1.0000
  H   H105      1.0  0.08371  0.51621  0.35125  1.0000
  C   C86       1.0  0.25449  0.50981  0.99618  1.0000
  N   N7        1.0  0.31237  0.52637  0.02353  1.0000
  H   H106      1.0  0.13668  0.53098  0.96505  1.0000
  H   H107      1.0  0.00782  0.65487  0.40325  1.0000
  H   H108      1.0  0.10094  0.52518  0.05671  1.0000
  H   H109      1.0  0.04842  0.50951  0.89475  1.0000
  H   H110      1.0  0.01604  0.61610  0.51425  1.0000
  H   H111      1.0  0.03366  0.63042  0.13534  1.0000
  C   C87       1.0  0.32766  0.54906  0.02588  1.0000
  H   H112      1.0  0.04088  0.51465  0.73695  1.0000
  C   C88       1.0  0.09341  0.60437  0.82916  1.0000
  H   H113      1.0  0.07500  0.59441  0.69850  1.0000
  H   H114      1.0  0.06785  0.63466  0.76037  1.0000
  H   H115      1.0  0.11005  0.62064  0.73226  1.0000
  H   H116      1.0  0.10046  0.63928  0.72309  1.0000
  H   H117      1.0  0.10413  0.55142  0.05378  1.0000
  H   H118      1.0  0.06776  0.64351  0.03821  1.0000
  H   H119      1.0  0.02758  0.63258  0.44840  1.0000
  C   C89       1.0  0.00063  0.57003  0.62373  1.0000
  C   C90       1.0  0.02993  0.50547  0.76125  1.0000
  H   H120      1.0  0.08844  0.55856  0.86831  1.0000
  C   C91       1.0  0.09897  0.53269  0.97209  1.0000
  C   C92       1.0  0.28457  0.53147  0.06250  1.0000
  C   C93       1.0  0.08506  0.54160  0.97122  1.0000
  C   C94       1.0  0.29065  0.52348  0.02574  1.0000
  N   N8        1.0  0.04965  0.62140  0.08664  1.0000
  Fe  Fe16      1.0  0.99883  0.56796  0.74522  1.0000
  C   C95       1.0  0.06911  0.63261  0.06172  1.0000
  C   C96       1.0  0.06206  0.53508  0.27870  1.0000
  C   C97       1.0  0.07163  0.52203  0.27116  1.0000
  S   S31       1.0  0.01213  0.57164  0.67661  1.0000
  C   C98       1.0  0.07568  0.50678  0.91610  1.0000
  H   H121      1.0  0.23531  0.74654  0.17917  1.0000
  C   C99       1.0  0.09582  0.54908  0.22309  1.0000
  C   C100      1.0  0.09597  0.59059  0.85708  1.0000
  H   H122      1.0  0.12175  0.51404  0.00784  1.0000
  C   C101      1.0  0.27492  0.51252  0.99250  1.0000
  C   C102      1.0  0.13164  0.56410  0.99021  1.0000
  C   C103      1.0  0.05343  0.60803  0.11801  1.0000
  N   N9        1.0  0.21536  0.65315  0.16154  1.0000
  C   C104      1.0  0.19496  0.63731  0.17780  1.0000
  C   C105      1.0  0.23230  0.65631  0.19380  1.0000
  C   C106      1.0  0.21456  0.67331  0.15918  1.0000
  C   C107      1.0  0.21918  0.64555  0.11902  1.0000
  C   C108      1.0  0.22067  0.62661  0.11615  1.0000
  C   C109      1.0  0.22114  0.65624  0.07950  1.0000
  C   C110      1.0  0.22412  0.61899  0.07642  1.0000
  C   C111      1.0  0.22439  0.64838  0.03987  1.0000
  C   C112      1.0  0.22590  0.62981  0.03831  1.0000
  H   H123      1.0  0.19465  0.62208  0.18443  1.0000
  H   H124      1.0  0.19077  0.64268  0.20868  1.0000
  H   H125      1.0  0.18208  0.63391  0.15325  1.0000
  H   H126      1.0  0.23264  0.64143  0.20091  1.0000
  H   H127      1.0  0.23030  0.66276  0.22571  1.0000
  H   H128      1.0  0.24797  0.66749  0.18165  1.0000
  H   H129      1.0  0.22941  0.68612  0.14709  1.0000
  H   H130      1.0  0.20132  0.67168  0.13739  1.0000
  H   H131      1.0  0.21193  0.67881  0.19162  1.0000
  H   H132      1.0  0.21878  0.61729  0.14451  1.0000
  H   H133      1.0  0.22003  0.67064  0.07809  1.0000
  C   C113      1.0  0.06945  0.62309  0.78152  1.0000
  N   N10       1.0  0.07995  0.61228  0.75919  1.0000
  S   S32       1.0  0.02288  0.58300  0.40485  1.0000
  H   H134      1.0  0.05335  0.61168  0.79069  1.0000
  H   H135      1.0  0.07790  0.63173  0.81216  1.0000
  C   C114      1.0  0.06235  0.51585  0.91623  1.0000
  H   H136      1.0  0.01330  0.57062  0.51613  1.0000
  Fe  Fe17      1.0  0.01268  0.58983  0.33981  1.0000
  H   H137      1.0  0.05813  0.51422  0.35370  1.0000
  S   S33       1.0  0.03438  0.53574  0.38438  1.0000
  C   C115      1.0  0.08624  0.56157  0.23176  1.0000
  H   H138      1.0  0.04217  0.64698  0.08901  1.0000
  H   H139      1.0  0.02431  0.53078  0.78397  1.0000
  C   C116      1.0  0.01296  0.59489  0.98689  1.0000
  H   H140      1.0  0.14646  0.57135  0.01059  1.0000
  C   C117      1.0  0.08176  0.59718  0.78887  1.0000
  H   H141      1.0  0.09206  0.57680  0.21720  1.0000
  C   C118      1.0  0.31624  0.51722  0.98292  1.0000
  Fe  Fe18      1.0  0.01537  0.55229  0.37152  1.0000
  H   H142      1.0  0.05467  0.59496  0.10061  1.0000
  H   H143      1.0  0.06304  0.56813  0.74938  1.0000
  H   H144      1.0  0.06069  0.64851  0.13076  1.0000
  C   C119      1.0  0.24906  0.51777  0.03277  1.0000
  C   C120      1.0  0.26406  0.52859  0.06586  1.0000
  H   H145      1.0  0.10049  0.62072  0.83971  1.0000
  H   H146      1.0  0.05646  0.54006  0.94403  1.0000
  H   H147      1.0  0.10482  0.59650  0.88783  1.0000
  C   C121      1.0  0.04633  0.63745  0.11143  1.0000
  H   H148      1.0  0.06750  0.54484  0.79927  1.0000
  H   H149      1.0  0.01184  0.62408  0.39903  1.0000
  C   C122      1.0  0.23466  0.74107  0.14575  1.0000
  C   C123      1.0  0.31677  0.51616  0.06092  1.0000
  C   C124      1.0  0.07492  0.56155  0.80731  1.0000
  C   C125      1.0  0.07251  0.57523  0.77877  1.0000
  H   H150      1.0  0.04083  0.60113  0.14210  1.0000
  C   C126      1.0  0.08667  0.56922  0.84627  1.0000
  H   H151      1.0  0.23301  0.51507  0.03585  1.0000
  C   C127      1.0  0.06933  0.55454  0.25939  1.0000
  H   H152      1.0  0.14498  0.53794  0.02095  1.0000
  H   H153      1.0  0.01208  0.61462  0.59242  1.0000
  C   C128      1.0  0.01221  0.57063  0.58678  1.0000
  H   H154      1.0  0.25963  0.53446  0.09457  1.0000
  H   H155      1.0  0.06192  0.56432  0.26641  1.0000
  H   H156      1.0  0.08296  0.64244  0.08373  1.0000
  H   H157      1.0  0.29555  0.53973  0.08931  1.0000
  H   H158      1.0  0.31549  0.52280  0.09308  1.0000
  H   H159      1.0  0.08810  0.55526  0.99159  1.0000
  H   H160      1.0  0.02755  0.57156  0.59118  1.0000
  H   H161      1.0  0.99948  0.51626  0.32342  1.0000
  H   H162      1.0  0.32438  0.55752  0.99930  1.0000
  C   C129      1.0  0.08871  0.52957  0.24233  1.0000
  C   C130      1.0  0.09368  0.51491  0.94364  1.0000
  S   S34       1.0  0.00784  0.56011  0.30522  1.0000
  H   H163      1.0  0.10903  0.55476  0.20164  1.0000
  H   H164      1.0  0.31382  0.52459  0.95328  1.0000
  H   H165      1.0  0.12581  0.54756  0.07054  1.0000
  C   C131      1.0  0.01113  0.62344  0.43537  1.0000
  H   H166      1.0  0.04903  0.53046  0.30023  1.0000
  C   C132      1.0  0.00417  0.57011  0.54413  1.0000
  H   H167      1.0  0.01371  0.59446  0.95150  1.0000
  C   C133      1.0  0.01696  0.50939  0.37263  1.0000
  C   C134      1.0  0.00648  0.62257  0.52771  1.0000
  C   C135      1.0  0.01098  0.59639  0.07778  1.0000
  C   C136      1.0  0.00080  0.50413  0.34122  1.0000
  H   H168      1.0  0.00941  0.59658  0.11281  1.0000
  C   C137      1.0  0.06689  0.50605  0.34159  1.0000
  C   C138      1.0  0.00568  0.65367  0.43925  1.0000
  H   H169      1.0  0.27781  0.50551  0.96370  1.0000
  H   H170      1.0  0.10318  0.50696  0.94191  1.0000
  C   C139      1.0  0.00433  0.62158  0.57302  1.0000
  H   H171      1.0  0.32741  0.55674  0.05754  1.0000
  C   C140      1.0  0.00671  0.50284  0.81985  1.0000
  H   H172      1.0  0.29008  0.84839  0.17746  1.0000
  S   S35       1.0  0.30732  0.83480  0.10000  1.0000
  H   H173      1.0  0.30720  0.83286  0.22854  1.0000
  H   H174      1.0  0.21746  0.80425  0.32309  1.0000
  C   C141      1.0  0.24494  0.81698  0.28376  1.0000
  H   H175      1.0  0.25083  0.79118  0.19443  1.0000
  C   C142      1.0  0.25508  0.81397  0.24690  1.0000
  Fe  Fe19      1.0  0.30418  0.80314  0.11578  1.0000
  S   S36       1.0  0.27278  0.77692  0.13957  1.0000
  H   H176      1.0  0.27101  0.82212  0.16406  1.0000
  H   H177      1.0  0.28765  0.84675  0.29562  1.0000
  C   C143      1.0  0.22409  0.77953  0.23394  1.0000
  H   H178      1.0  0.27493  0.85735  0.25944  1.0000
  H   H179      1.0  0.30080  0.86124  0.24972  1.0000
  H   H180      1.0  0.29175  0.81574  0.27023  1.0000
  H   H181      1.0  0.28653  0.80731  0.21375  1.0000
  C   C144      1.0  0.27486  0.83547  0.18769  1.0000
  H   H182      1.0  0.25208  0.83103  0.30447  1.0000
  S   S37       1.0  0.32673  0.80473  0.06379  1.0000
  C   C145      1.0  0.24407  0.79469  0.22259  1.0000
  H   H183      1.0  0.26270  0.84071  0.18317  1.0000
  C   C146      1.0  0.29099  0.82103  0.23668  1.0000
  C   C147      1.0  0.28510  0.84958  0.26096  1.0000
  N   N11       1.0  0.27611  0.82984  0.23361  1.0000
  C   C148      1.0  0.32226  0.84882  0.84197  1.0000
  H   H184      1.0  0.19902  0.77119  0.27869  1.0000
  C   C149      1.0  0.22495  0.80165  0.29495  1.0000
  H   H185      1.0  0.30535  0.84022  0.84453  1.0000
  H   H186      1.0  0.21599  0.76502  0.21447  1.0000
  H   H187      1.0  0.26276  0.75437  0.05344  1.0000
  C   C150      1.0  0.21453  0.78300  0.27004  1.0000
  H   H188      1.0  0.32809  0.83191  0.89297  1.0000
  H   H189      1.0  0.32068  0.86830  0.79245  1.0000
  S   S38       1.0  0.33059  0.85328  0.98954  1.0000
  S   S39       1.0  0.32960  0.81749  0.16893  1.0000
  C   C151      1.0  0.33122  0.86502  0.81252  1.0000
  C   C152      1.0  0.25129  0.75297  0.11822  1.0000
  C   C153      1.0  0.53812  0.06269  0.90973  1.0000
  N   N12       1.0  0.62257  0.00721  0.14962  1.0000
  S   S40       1.0  0.60825  0.04923  0.78914  1.0000
  C   C154      1.0  0.52660  0.06111  0.17322  1.0000
  H   H190      1.0  0.55202  0.21688  0.03025  1.0000
  C   C155      1.0  0.52692  0.02865  0.31621  1.0000
  H   H191      1.0  0.60560  0.15141  0.15069  1.0000
  H   H192      1.0  0.50440  0.08122  0.94532  1.0000
  S   S41       1.0  0.58779  0.03838  0.23058  1.0000
  H   H193      1.0  0.47637  0.00750  0.27828  1.0000
  C   C156      1.0  0.65413  0.08112  0.90628  1.0000
  C   C157      1.0  0.53427  0.03947  0.22206  1.0000
  S   S42       1.0  0.61248  0.00962  0.31040  1.0000
  S   S43       1.0  0.64427  0.10600  0.03771  1.0000
  H   H194      1.0  0.53725  0.19050  0.13415  1.0000
  C   C158      1.0  0.61415  0.14600  0.17318  1.0000
  Fe  Fe20      1.0  0.64101  0.13462  0.02289  1.0000
  S   S44       1.0  0.60701  0.12576  0.00781  1.0000
  H   H195      1.0  0.62572  0.05095  0.65584  1.0000
  C   C159      1.0  0.59983  0.11243  0.13441  1.0000
  H   H196      1.0  0.64514  0.10553  0.90042  1.0000
  Fe  Fe21      1.0  0.48396  0.11559  0.05564  1.0000
  S   S45       1.0  0.46266  0.11439  0.11014  1.0000
  S   S46       1.0  0.47850  0.09996  0.98798  1.0000
  Fe  Fe22      1.0  0.52352  0.14648  0.10542  1.0000
  S   S47       1.0  0.50580  0.14762  0.16347  1.0000
  S   S48       1.0  0.55869  0.16682  0.10781  1.0000
  Fe  Fe23      1.0  0.48717  0.11259  0.15458  1.0000
  S   S49       1.0  0.48668  0.09532  0.21645  1.0000
  Fe  Fe24      1.0  0.48293  0.14983  0.11565  1.0000
  S   S50       1.0  0.47191  0.17349  0.13873  1.0000
  S   S51       1.0  0.50690  0.11141  0.09986  1.0000
  S   S52       1.0  0.50215  0.15109  0.05790  1.0000
  C   C160      1.0  0.59427  0.13830  0.03406  1.0000
  C   C161      1.0  0.60536  0.15708  0.05859  1.0000
  C   C162      1.0  0.59437  0.16620  0.08006  1.0000
  C   C163      1.0  0.57234  0.15635  0.07766  1.0000
  C   C164      1.0  0.56136  0.13775  0.05270  1.0000
  C   C165      1.0  0.57230  0.12879  0.03095  1.0000
  H   H197      1.0  0.62234  0.16460  0.06073  1.0000
  H   H198      1.0  0.60294  0.18071  0.09907  1.0000
  H   H199      1.0  0.54443  0.13025  0.04993  1.0000
  H   H200      1.0  0.56366  0.11430  0.01200  1.0000
  C   C166      1.0  0.47639  0.19780  0.11577  1.0000
  C   C167      1.0  0.48354  0.20311  0.07338  1.0000
  C   C168      1.0  0.48628  0.22224  0.05617  1.0000
  H   H201      1.0  0.63260  0.12270  0.18941  1.0000
  C   C169      1.0  0.47234  0.21207  0.14077  1.0000
  H   H202      1.0  0.48648  0.19226  0.05344  1.0000
  H   H203      1.0  0.49159  0.22601  0.02319  1.0000
  H   H204      1.0  0.46675  0.20818  0.17354  1.0000
  C   C170      1.0  0.46574  0.07338  0.23970  1.0000
  C   C171      1.0  0.44535  0.06387  0.22130  1.0000
  C   C172      1.0  0.42912  0.04695  0.24203  1.0000
  C   C173      1.0  0.43310  0.03931  0.28111  1.0000
  C   C174      1.0  0.45361  0.04852  0.29890  1.0000
  C   C175      1.0  0.46980  0.06555  0.27839  1.0000
  H   H205      1.0  0.44201  0.06959  0.19137  1.0000
  H   H206      1.0  0.41331  0.03988  0.22803  1.0000
  H   H207      1.0  0.45685  0.04287  0.32907  1.0000
  H   H208      1.0  0.48552  0.07283  0.29289  1.0000
  C   C176      1.0  0.63282  0.04411  0.67885  1.0000
  C   C177      1.0  0.65206  0.05941  0.09244  1.0000
  C   C178      1.0  0.63008  0.06737  0.23398  1.0000
  C   C179      1.0  0.61119  0.05799  0.20932  1.0000
  C   C180      1.0  0.61038  0.06533  0.16762  1.0000
  C   C181      1.0  0.62817  0.08220  0.15098  1.0000
  H   H209      1.0  0.59167  0.09505  0.13668  1.0000
  H   H210      1.0  0.63082  0.06192  0.26631  1.0000
  H   H211      1.0  0.59586  0.05810  0.14824  1.0000
  H   H212      1.0  0.62721  0.08778  0.11904  1.0000
  C   C182      1.0  0.56767  0.12208  0.17784  1.0000
  N   N13       1.0  0.60300  0.12292  0.17816  1.0000
  C   C183      1.0  0.42727  0.03482  0.93970  1.0000
  C   C184      1.0  0.42618  0.04262  0.98156  1.0000
  C   C185      1.0  0.44198  0.06235  0.99747  1.0000
  C   C186      1.0  0.45864  0.07465  0.97101  1.0000
  C   C187      1.0  0.45958  0.06688  0.92911  1.0000
  C   C188      1.0  0.44423  0.04691  0.91382  1.0000
  H   H213      1.0  0.41302  0.03340  0.00162  1.0000
  H   H214      1.0  0.44099  0.06824  0.02966  1.0000
  H   H215      1.0  0.47203  0.07655  0.90800  1.0000
  H   H216      1.0  0.44505  0.04120  0.88131  1.0000
  C   C189      1.0  0.62552  0.06088  0.83507  1.0000
  C   C190      1.0  0.62875  0.08048  0.85190  1.0000
  C   C191      1.0  0.64275  0.09042  0.88778  1.0000
  S   S53       1.0  0.41188  0.01925  0.30808  1.0000
  H   H217      1.0  0.61037  0.10026  0.20824  1.0000
  H   H218      1.0  0.62778  0.02754  0.20643  1.0000
  H   H219      1.0  0.62035  0.08801  0.83725  1.0000
  C   C192      1.0  0.45050  0.01459  0.64072  1.0000
  C   C193      1.0  0.50247  0.04262  0.22998  1.0000
  H   H220      1.0  0.59028  0.11662  0.11166  1.0000
  H   H221      1.0  0.61501  0.11693  0.11825  1.0000
  H   H222      1.0  0.55865  0.09136  0.94885  1.0000
  H   H223      1.0  0.44059  0.02153  0.63203  1.0000
  H   H224      1.0  0.59858  0.01287  0.60285  1.0000
  H   H225      1.0  0.52324  0.08110  0.85447  1.0000
  H   H226      1.0  0.45284  0.03220  0.51831  1.0000
  C   C194      1.0  0.57606  0.07682  0.92500  1.0000
  H   H227      1.0  0.52534  0.20338  0.04711  1.0000
  H   H228      1.0  0.52932  0.04436  0.32787  1.0000
  H   H229      1.0  0.65041  0.05078  0.15832  1.0000
  C   C195      1.0  0.64469  0.04479  0.12549  1.0000
  S   S54       1.0  0.43203  0.01213  0.42768  1.0000
  C   C196      1.0  0.55740  0.07807  0.92969  1.0000
  C   C197      1.0  0.55764  0.04525  0.87995  1.0000
  C   C198      1.0  0.54533  0.23854  0.09740  1.0000
  C   C199      1.0  0.53886  0.04627  0.88466  1.0000
  H   H230      1.0  0.49376  0.01885  0.54864  1.0000
  H   H231      1.0  0.63408  0.03619  0.84170  1.0000
  Fe  Fe25      1.0  0.58691  0.01540  0.28122  1.0000
  C   C200      1.0  0.57618  0.06046  0.90021  1.0000
  N   N14       1.0  0.51810  0.06368  0.91311  1.0000
  H   H232      1.0  0.52254  0.00750  0.43842  1.0000
  H   H233      1.0  0.48784  0.03933  0.24494  1.0000
  H   H234      1.0  0.49625  0.06774  0.87019  1.0000
  H   H235      1.0  0.54491  0.03341  0.23130  1.0000
  N   N15       1.0  0.43581  0.12071  0.23349  1.0000
  C   C201      1.0  0.43877  0.13889  0.26178  1.0000
  C   C202      1.0  0.45675  0.12298  0.22300  1.0000
  C   C203      1.0  0.42553  0.12172  0.19166  1.0000
  C   C204      1.0  0.42372  0.10099  0.25676  1.0000
  C   C205      1.0  0.40347  0.08524  0.24189  1.0000
  C   C206      1.0  0.43213  0.09713  0.29580  1.0000
  C   C207      1.0  0.39260  0.06677  0.26465  1.0000
  C   C208      1.0  0.42115  0.07856  0.31810  1.0000
  C   C209      1.0  0.40143  0.06343  0.30258  1.0000
  H   H236      1.0  0.44745  0.15398  0.24482  1.0000
  H   H237      1.0  0.42337  0.13753  0.27131  1.0000
  H   H238      1.0  0.44797  0.14024  0.29235  1.0000
  H   H239      1.0  0.46675  0.12472  0.25246  1.0000
  H   H240      1.0  0.46582  0.13710  0.20348  1.0000
  H   H241      1.0  0.45515  0.10898  0.20399  1.0000
  H   H242      1.0  0.41016  0.12139  0.19700  1.0000
  H   H243      1.0  0.43528  0.13653  0.17451  1.0000
  H   H244      1.0  0.42316  0.10861  0.16851  1.0000
  H   H245      1.0  0.39577  0.08663  0.21250  1.0000
  H   H246      1.0  0.44746  0.10825  0.30903  1.0000
  H   H247      1.0  0.37739  0.05471  0.25241  1.0000
  H   H248      1.0  0.42817  0.07552  0.34693  1.0000
  H   H249      1.0  0.39325  0.04879  0.31936  1.0000
  H   H250      1.0  0.58576  0.09939  0.25320  1.0000
  H   H251      1.0  0.62993  0.15131  0.15918  1.0000
  H   H252      1.0  0.57105  0.13055  0.14786  1.0000
  C   C210      1.0  0.61712  0.11750  0.20476  1.0000
  H   H253      1.0  0.50678  0.04024  0.96200  1.0000
  H   H254      1.0  0.52491  0.07987  0.97623  1.0000
  H   H255      1.0  0.61627  0.15450  0.20517  1.0000
  C   C211      1.0  0.60425  0.00463  0.49415  1.0000
  H   H256      1.0  0.62040  0.12513  0.23798  1.0000
  C   C212      1.0  0.57600  0.10479  0.23627  1.0000
  H   H257      1.0  0.49733  0.03011  0.90733  1.0000
  S   S55       1.0  0.66240  0.15391  0.07894  1.0000
  C   C213      1.0  0.58233  0.11660  0.19770  1.0000
  H   H258      1.0  0.53748  0.12143  0.18077  1.0000
  H   H259      1.0  0.64938  0.02212  0.19450  1.0000
  H   H260      1.0  0.64480  0.07486  0.73864  1.0000
  S   S56       1.0  0.48545  0.00801  0.81732  1.0000
  C   C214      1.0  0.53971  0.05289  0.18692  1.0000
  C   C215      1.0  0.54187  0.20772  0.05688  1.0000
  H   H261      1.0  0.49041  0.02989  0.31572  1.0000
  C   C216      1.0  0.54831  0.11683  0.19626  1.0000
  H   H262      1.0  0.53894  0.21206  0.16662  1.0000
  C   C217      1.0  0.64533  0.05323  0.04913  1.0000
  H   H263      1.0  0.57554  0.23477  0.14175  1.0000
  C   C218      1.0  0.55652  0.09951  0.25425  1.0000
  C   C219      1.0  0.57017  0.22529  0.11055  1.0000
  C   C220      1.0  0.64783  0.08445  0.21750  1.0000
  C   C221      1.0  0.64690  0.09208  0.17612  1.0000
  H   H264      1.0  0.51780  0.19885  0.12610  1.0000
  C   C222      1.0  0.54280  0.10567  0.23451  1.0000
  H   H265      1.0  0.55196  0.09049  0.28359  1.0000
  H   H266      1.0  0.49795  0.06260  0.18424  1.0000
  N   N16       1.0  0.54788  0.21936  0.09972  1.0000
  H   H267      1.0  0.52306  0.01852  0.34502  1.0000
  C   C223      1.0  0.63033  0.02331  0.11581  1.0000
  C   C224      1.0  0.63647  0.05130  0.85429  1.0000
  C   C225      1.0  0.47531  0.23131  0.12375  1.0000
  H   H268      1.0  0.59061  0.08877  0.94041  1.0000
  H   H269      1.0  0.57255  0.21120  0.11427  1.0000
  H   H270      1.0  0.59071  0.05964  0.89639  1.0000
  H   H271      1.0  0.54321  0.19293  0.05786  1.0000
  H   H272      1.0  0.55793  0.03275  0.86007  1.0000
  C   C226      1.0  0.50806  0.05603  0.19476  1.0000
  H   H273      1.0  0.52770  0.10154  0.24850  1.0000
  H   H274      1.0  0.53081  0.09677  0.92998  1.0000
  C   C227      1.0  0.51976  0.08115  0.94242  1.0000
  H   H275      1.0  0.59385  0.02415  0.52909  1.0000
  H   H276      1.0  0.50789  0.05320  0.84599  1.0000
  H   H277      1.0  0.52829  0.01976  0.79708  1.0000
  C   C228      1.0  0.51110  0.06659  0.86908  1.0000
  H   H278      1.0  0.66224  0.09198  0.23722  1.0000
  C   C229      1.0  0.45200  0.02823  0.55343  1.0000
  C   C230      1.0  0.53487  0.20466  0.13319  1.0000
  H   H279      1.0  0.48667  0.04451  0.93545  1.0000
  C   C231      1.0  0.50160  0.04380  0.93024  1.0000
  C   C232      1.0  0.48218  0.23650  0.08112  1.0000
  C   C233      1.0  0.51547  0.03390  0.24471  1.0000
  H   H280      1.0  0.58088  0.23456  0.08470  1.0000
  H   H281      1.0  0.52492  0.03421  0.86801  1.0000
  S   S57       1.0  0.56989  0.00988  0.34389  1.0000
  H   H282      1.0  0.53085  0.07161  0.14611  1.0000
  H   H283      1.0  0.54224  0.03043  0.30502  1.0000
  H   H284      1.0  0.52230  0.23158  0.14887  1.0000
  C   C234      1.0  0.62359  0.01763  0.07135  1.0000
  H   H285      1.0  0.47201  0.24200  0.14341  1.0000
  N   N17       1.0  0.51008  0.01950  0.28158  1.0000
  Fe  Fe26      1.0  0.59856  0.01556  0.76793  1.0000
  C   C235      1.0  0.45015  0.00902  0.68425  1.0000
  H   H286      1.0  0.44865  0.24768  0.90272  1.0000
  N   N18       1.0  0.46312  0.01580  0.56317  1.0000
  H   H287      1.0  0.65117  0.06464  0.02361  1.0000
  H   H288      1.0  0.66220  0.07388  0.62871  1.0000
  H   H289      1.0  0.55419  0.05687  0.17034  1.0000
  N   N19       1.0  0.65490  0.05911  0.69120  1.0000
  H   H290      1.0  0.48647  0.00452  0.32972  1.0000
  S   S58       1.0  0.40677  0.01050  0.91957  1.0000
  C   C236      1.0  0.65093  0.06153  0.88935  1.0000
  H   H291      1.0  0.62308  0.03954  0.70831  1.0000
  C   C237      1.0  0.53195  0.24258  0.12521  1.0000
  H   H292      1.0  0.45880  0.04324  0.57307  1.0000
  H   H293      1.0  0.66115  0.02481  0.67434  1.0000
  C   C238      1.0  0.60223  0.00638  0.57413  1.0000
  C   C239      1.0  0.66338  0.04901  0.72165  1.0000
  C   C240      1.0  0.48997  0.01527  0.30194  1.0000
  H   H294      1.0  0.62588  0.02771  0.00479  1.0000
  S   S59       1.0  0.60293  0.01518  0.44265  1.0000
  C   C241      1.0  0.63107  0.03240  0.03862  1.0000
  H   H295      1.0  0.65965  0.05422  0.90352  1.0000
  H   H296      1.0  0.49395  0.04236  0.57040  1.0000
  H   H297      1.0  0.48553  0.03321  0.51462  1.0000
  H   H298      1.0  0.63128  0.02944  0.66275  1.0000
  C   C242      1.0  0.51847  0.00390  0.78461  1.0000
  C   C243      1.0  0.63198  0.01542  0.19399  1.0000
  C   C244      1.0  0.65519  0.07841  0.71014  1.0000
  C   C245      1.0  0.48505  0.02811  0.54891  1.0000
  C   C246      1.0  0.46289  0.01073  0.60984  1.0000
  C   C247      1.0  0.59947  0.01270  0.53218  1.0000
  H   H299      1.0  0.43494  0.01926  0.55963  1.0000
  H   H300      1.0  0.39581  0.00589  0.60749  1.0000
  H   H301      1.0  0.64922  0.08593  0.68625  1.0000
  H   H302      1.0  0.59516  0.01091  0.16165  1.0000
  S   S60       1.0  0.58183  0.00293  0.70247  1.0000
  H   H303      1.0  0.44029  0.01177  0.70703  1.0000
  H   H304      1.0  0.62614  0.00279  0.21830  1.0000
  S   S61       1.0  0.48151  0.00478  0.43681  1.0000
  H   H305      1.0  0.56717  0.25214  0.04465  1.0000
  H   H306      1.0  0.66301  0.07573  0.10048  1.0000
  Fe  Fe27      1.0  0.45034  0.40722  0.79254  1.0000
  S   S62       1.0  0.42870  0.41953  0.76990  1.0000
  S   S63       1.0  0.48477  0.42503  0.78022  1.0000
  Fe  Fe28      1.0  0.41591  0.36952  0.83152  1.0000
  S   S64       1.0  0.39081  0.37842  0.81143  1.0000
  S   S65       1.0  0.40948  0.34121  0.87182  1.0000
  Fe  Fe29      1.0  0.40706  0.38662  0.74681  1.0000
  S   S66       1.0  0.39031  0.38655  0.68260  1.0000
  Fe  Fe30      1.0  0.41427  0.41094  0.83532  1.0000
  S   S67       1.0  0.41038  0.43720  0.86890  1.0000
  S   S68       1.0  0.42996  0.37469  0.76477  1.0000
  S   S69       1.0  0.43802  0.40150  0.85997  1.0000
  Fe  Fe31      1.0  0.41542  0.39096  0.42769  1.0000
  S   S70       1.0  0.40301  0.41358  0.41180  1.0000
  S   S71       1.0  0.41416  0.37287  0.48885  1.0000
  Fe  Fe32      1.0  0.44077  0.39980  0.34382  1.0000
  S   S72       1.0  0.43120  0.42361  0.32183  1.0000
  S   S73       1.0  0.46582  0.39499  0.30898  1.0000
  Fe  Fe33      1.0  0.43587  0.43469  0.39202  1.0000
  S   S74       1.0  0.45234  0.46903  0.40981  1.0000
  Fe  Fe34      1.0  0.39901  0.40088  0.34222  1.0000
  S   S75       1.0  0.37172  0.39514  0.29591  1.0000
  S   S76       1.0  0.44869  0.41332  0.41255  1.0000
  S   S77       1.0  0.40812  0.37580  0.35961  1.0000
  S   S78       1.0  0.37030  0.47519  0.05973  1.0000
  Fe  Fe35      1.0  0.48661  0.32998  0.04698  1.0000
  S   S79       1.0  0.49495  0.34774  0.11133  1.0000
  S   S80       1.0  0.48661  0.34853  0.98841  1.0000
  Fe  Fe36      1.0  0.48734  0.29092  0.08540  1.0000
  S   S81       1.0  0.49585  0.30606  0.15322  1.0000
  H   H307      1.0  0.56323  0.42351  0.98739  1.0000
  Fe  Fe37      1.0  0.47197  0.31730  0.13883  1.0000
  S   S82       1.0  0.44665  0.31671  0.18236  1.0000
  Fe  Fe38      1.0  0.51815  0.33555  0.11988  1.0000
  S   S83       1.0  0.55105  0.35806  0.14463  1.0000
  S   S84       1.0  0.46170  0.30012  0.07324  1.0000
  S   S85       1.0  0.51158  0.31986  0.05359  1.0000
  H   H308      1.0  0.46028  0.39342  0.05102  1.0000
  H   H309      1.0  0.40316  0.46882  0.25298  1.0000
  Fe  Fe39      1.0  0.63116  0.46091  0.04488  1.0000
  S   S86       1.0  0.60618  0.42977  0.01585  1.0000
  H   H310      1.0  0.36383  0.43015  0.35989  1.0000
  N   N20       1.0  0.43494  0.33688  0.41100  1.0000
  H   H311      1.0  0.51390  0.45135  0.86094  1.0000
  C   C248      1.0  0.56705  0.37678  0.10730  1.0000
  C   C249      1.0  0.55961  0.37702  0.06488  1.0000
  C   C250      1.0  0.57203  0.39296  0.03670  1.0000
  C   C251      1.0  0.59168  0.40919  0.05113  1.0000
  C   C252      1.0  0.59925  0.40877  0.09332  1.0000
  C   C253      1.0  0.58711  0.39245  0.12106  1.0000
  H   H312      1.0  0.54422  0.36504  0.05377  1.0000
  H   H313      1.0  0.56625  0.39281  0.00377  1.0000
  H   H314      1.0  0.61457  0.42089  0.10444  1.0000
  H   H315      1.0  0.59316  0.39219  0.15353  1.0000
  C   C254      1.0  0.46004  0.37343  0.27281  1.0000
  C   C255      1.0  0.43937  0.35850  0.26186  1.0000
  C   C256      1.0  0.43545  0.34133  0.23352  1.0000
  C   C257      1.0  0.45212  0.33910  0.21568  1.0000
  C   C258      1.0  0.47277  0.35435  0.22570  1.0000
  C   C259      1.0  0.47669  0.37138  0.25436  1.0000
  H   H316      1.0  0.42642  0.36013  0.27529  1.0000
  H   H317      1.0  0.41942  0.32967  0.22561  1.0000
  H   H318      1.0  0.48573  0.35268  0.21242  1.0000
  H   H319      1.0  0.49272  0.38284  0.26288  1.0000
  C   C260      1.0  0.35979  0.42869  0.20416  1.0000
  C   C261      1.0  0.35894  0.41215  0.22926  1.0000
  C   C262      1.0  0.44724  0.26992  0.97287  1.0000
  H   H320      1.0  0.36256  0.44632  0.80285  1.0000
  C   C263      1.0  0.44109  0.32356  0.38374  1.0000
  C   C264      1.0  0.55370  0.47415  0.84270  1.0000
  C   C265      1.0  0.36426  0.45708  0.33000  1.0000
  C   C266      1.0  0.47426  0.47983  0.37724  1.0000
  C   C267      1.0  0.48157  0.46677  0.35836  1.0000
  C   C268      1.0  0.49946  0.47524  0.33332  1.0000
  H   H321      1.0  0.48906  0.48833  0.47761  1.0000
  H   H322      1.0  0.47368  0.45013  0.36356  1.0000
  H   H323      1.0  0.50533  0.46508  0.31999  1.0000
  C   C269      1.0  0.40857  0.37821  0.54259  1.0000
  C   C270      1.0  0.41588  0.37131  0.57850  1.0000
  C   C271      1.0  0.41091  0.37424  0.62159  1.0000
  C   C272      1.0  0.39812  0.38368  0.62918  1.0000
  C   C273      1.0  0.39097  0.39077  0.59332  1.0000
  C   C274      1.0  0.39633  0.38825  0.55029  1.0000
  H   H324      1.0  0.42523  0.36340  0.57294  1.0000
  H   H325      1.0  0.41642  0.36858  0.64879  1.0000
  H   H326      1.0  0.38105  0.39807  0.59875  1.0000
  H   H327      1.0  0.39042  0.39348  0.52301  1.0000
  C   C275      1.0  0.43062  0.34351  0.90574  1.0000
  C   C276      1.0  0.42740  0.32836  0.93699  1.0000
  C   C277      1.0  0.44431  0.32979  0.96342  1.0000
  C   C278      1.0  0.46452  0.34631  0.95830  1.0000
  C   C279      1.0  0.46766  0.36142  0.92726  1.0000
  C   C280      1.0  0.45082  0.36005  0.90115  1.0000
  H   H328      1.0  0.41184  0.31541  0.94038  1.0000
  H   H329      1.0  0.44177  0.31798  0.98703  1.0000
  H   H330      1.0  0.48328  0.37411  0.92282  1.0000
  H   H331      1.0  0.45361  0.37153  0.87663  1.0000
  C   C281      1.0  0.38929  0.43303  0.90274  1.0000
  C   C282      1.0  0.37254  0.41302  0.90826  1.0000
  C   C283      1.0  0.35581  0.41055  0.93469  1.0000
  H   H332      1.0  0.37243  0.39947  0.89219  1.0000
  C   C284      1.0  0.54139  0.27583  0.09176  1.0000
  C   C285      1.0  0.49197  0.45170  0.78429  1.0000
  C   C286      1.0  0.47863  0.45834  0.80379  1.0000
  H   H333      1.0  0.45333  0.35097  0.12452  1.0000
  C   C287      1.0  0.44118  0.30775  0.31184  1.0000
  H   H334      1.0  0.46494  0.44735  0.82044  1.0000
  H   H335      1.0  0.42267  0.40600  0.21289  1.0000
  C   C288      1.0  0.48284  0.29312  0.95572  1.0000
  C   C289      1.0  0.38922  0.45046  0.92390  1.0000
  H   H336      1.0  0.43394  0.32238  0.47240  1.0000
  H   H337      1.0  0.40180  0.43968  0.29646  1.0000
  N   N21       1.0  0.54486  0.47363  0.88620  1.0000
  H   H338      1.0  0.49701  0.42022  0.23443  1.0000
  H   H339      1.0  0.56329  0.28395  0.04020  1.0000
  H   H340      1.0  0.54651  0.45823  0.82652  1.0000
  H   H341      1.0  0.63091  0.50084  0.92549  1.0000
  H   H342      1.0  0.46582  0.33316  0.85102  1.0000
  H   H343      1.0  0.45662  0.41912  0.69526  1.0000
  N   N22       1.0  0.55849  0.42520  0.17557  1.0000
  C   C290      1.0  0.54883  0.41595  0.13200  1.0000
  C   C291      1.0  0.58086  0.44050  0.16923  1.0000
  C   C292      1.0  0.55821  0.40840  0.20320  1.0000
  C   C293      1.0  0.54632  0.43465  0.19616  1.0000
  C   C294      1.0  0.52499  0.42181  0.20644  1.0000
  C   C295      1.0  0.55493  0.45655  0.20591  1.0000
  C   C296      1.0  0.51314  0.43034  0.22589  1.0000
  H   H344      1.0  0.48845  0.28574  0.98081  1.0000
  C   C297      1.0  0.52208  0.45186  0.23502  1.0000
  H   H345      1.0  0.54741  0.42779  0.11140  1.0000
  H   H346      1.0  0.55845  0.41021  0.11391  1.0000
  H   H347      1.0  0.53297  0.40226  0.13423  1.0000
  H   H348      1.0  0.58245  0.45291  0.14633  1.0000
  H   H349      1.0  0.58977  0.43290  0.15479  1.0000
  H   H350      1.0  0.58918  0.44818  0.20076  1.0000
  H   H351      1.0  0.54234  0.39470  0.20477  1.0000
  H   H352      1.0  0.56834  0.40188  0.19024  1.0000
  H   H353      1.0  0.56397  0.41447  0.23718  1.0000
  H   H354      1.0  0.51735  0.40506  0.19968  1.0000
  H   H355      1.0  0.57096  0.46757  0.19911  1.0000
  C   C298      1.0  0.35082  0.41725  0.72586  1.0000
  Fe  Fe40      1.0  0.35610  0.46892  0.12592  1.0000
  H   H356      1.0  0.48231  0.30674  0.97229  1.0000
  H   H357      1.0  0.54976  0.49548  0.93975  1.0000
  H   H358      1.0  0.51964  0.26368  0.14332  1.0000
  H   H359      1.0  0.43656  0.30522  0.27736  1.0000
  H   H360      1.0  0.43578  0.34790  0.47762  1.0000
  H   H361      1.0  0.39831  0.39202  0.14863  1.0000
  H   H362      1.0  0.46250  0.36512  0.39437  1.0000
  C   C299      1.0  0.43308  0.27559  0.88503  1.0000
  H   H363      1.0  0.45849  0.34578  0.46308  1.0000
  H   H364      1.0  0.49509  0.29908  0.93070  1.0000
  H   H365      1.0  0.40348  0.31189  0.41746  1.0000
  H   H366      1.0  0.43976  0.35917  0.36083  1.0000
  H   H367      1.0  0.47818  0.48520  0.62274  1.0000
  S   S87       1.0  0.61878  0.49277  0.17770  1.0000
  C   C300      1.0  0.50027  0.49349  0.77921  1.0000
  C   C301      1.0  0.43513  0.31978  0.33865  1.0000
  H   H368      1.0  0.45904  0.31670  0.43397  1.0000
  H   H369      1.0  0.46922  0.29602  0.38618  1.0000
  C   C302      1.0  0.45357  0.31459  0.40028  1.0000
  H   H370      1.0  0.37267  0.46154  0.96637  1.0000
  H   H371      1.0  0.40599  0.32964  0.37489  1.0000
  H   H372      1.0  0.44455  0.46794  0.49968  1.0000
  H   H373      1.0  0.35823  0.43464  0.72940  1.0000
  C   C303      1.0  0.34244  0.41236  0.80244  1.0000
  N   N23       1.0  0.52256  0.50118  0.48602  1.0000
  H   H374      1.0  0.40855  0.27530  0.84289  1.0000
  H   H375      1.0  0.34642  0.39636  0.22295  1.0000
  C   C304      1.0  0.53022  0.26105  0.12243  1.0000
  S   S88       1.0  0.62044  0.48505  0.05659  1.0000
  H   H376      1.0  0.42598  0.32638  0.32354  1.0000
  N   N24       1.0  0.46426  0.44567  0.65423  1.0000
  S   S89       1.0  0.37627  0.47103  0.18579  1.0000
  H   H377      1.0  0.38425  0.41204  0.75294  1.0000
  S   S90       1.0  0.34540  0.49355  0.12119  1.0000
  Fe  Fe41      1.0  0.33842  0.45078  0.03526  1.0000
  H   H378      1.0  0.47005  0.47425  0.69066  1.0000
  H   H379      1.0  0.43209  0.25618  0.96275  1.0000
  C   C305      1.0  0.45969  0.45700  0.69001  1.0000
  N   N25       1.0  0.46193  0.27805  0.93638  1.0000
  C   C306      1.0  0.53372  0.43955  0.92625  1.0000
  H   H380      1.0  0.47475  0.26582  0.88768  1.0000
  H   H381      1.0  0.51639  0.48982  0.57164  1.0000
  C   C307      1.0  0.44533  0.43620  0.57949  1.0000
  C   C308      1.0  0.41179  0.32860  0.40816  1.0000
  C   C309      1.0  0.44113  0.33817  0.45802  1.0000
  C   C310      1.0  0.48694  0.45168  0.65644  1.0000
  C   C311      1.0  0.48477  0.50143  0.37070  1.0000
  C   C312      1.0  0.33985  0.43835  0.85173  1.0000
  H   H382      1.0  0.54982  0.48163  0.23310  1.0000
  C   C313      1.0  0.33541  0.42203  0.32233  1.0000
  C   C314      1.0  0.45366  0.28746  0.90376  1.0000
  S   S91       1.0  0.66074  0.48321  0.01163  1.0000
  C   C315      1.0  0.34491  0.38475  0.75677  1.0000
  C   C316      1.0  0.35371  0.46440  0.30208  1.0000
  Fe  Fe42      1.0  0.63810  0.49193  0.12082  1.0000
  H   H383      1.0  0.51425  0.46514  0.91133  1.0000
  H   H384      1.0  0.34808  0.42552  0.17849  1.0000
  H   H385      1.0  0.51750  0.43317  0.91530  1.0000
  C   C317      1.0  0.51011  0.49680  0.32702  1.0000
  H   H386      1.0  0.34280  0.39508  0.93862  1.0000
  H   H387      1.0  0.34672  0.37661  0.78583  1.0000
  H   H388      1.0  0.37808  0.41052  0.80985  1.0000
  H   H389      1.0  0.49714  0.47262  0.50971  1.0000
  H   H390      1.0  0.44307  0.45400  0.68768  1.0000
  C   C318      1.0  0.54291  0.46491  0.22522  1.0000
  C   C319      1.0  0.43633  0.30510  0.84358  1.0000
  H   H391      1.0  0.55105  0.48482  0.82057  1.0000
  H   H392      1.0  0.43518  0.41744  0.66213  1.0000
  C   C320      1.0  0.35518  0.43594  0.33991  1.0000
  C   C321      1.0  0.42606  0.39796  0.18628  1.0000
  H   H393      1.0  0.45827  0.29014  0.30781  1.0000
  C   C322      1.0  0.45887  0.45139  0.61142  1.0000
  H   H394      1.0  0.52656  0.41130  0.96088  1.0000
  C   C323      1.0  0.55668  0.25408  0.06682  1.0000
  H   H395      1.0  0.49701  0.46897  0.65633  1.0000
  H   H396      1.0  0.46387  0.37106  0.03619  1.0000
  C   C324      1.0  0.37262  0.44797  0.95060  1.0000
  C   C325      1.0  0.53822  0.49342  0.49123  1.0000
  C   C326      1.0  0.41232  0.39000  0.15004  1.0000
  H   H397      1.0  0.58327  0.48050  0.92051  1.0000
  H   H398      1.0  0.59124  0.45783  0.96664  1.0000
  C   C327      1.0  0.44043  0.44222  0.53958  1.0000
  H   H399      1.0  0.40659  0.33767  0.43018  1.0000
  C   C328      1.0  0.45958  0.30261  0.37308  1.0000
  C   C329      1.0  0.34937  0.43345  0.81720  1.0000
  H   H400      1.0  0.40507  0.37366  0.08888  1.0000
  C   C330      1.0  0.46755  0.47280  0.60036  1.0000
  H   H401      1.0  0.42251  0.37049  0.02895  1.0000
  C   C331      1.0  0.45240  0.42287  0.66255  1.0000
  S   S92       1.0  0.64668  0.46595  0.11118  1.0000
  C   C332      1.0  0.37405  0.41596  0.26275  1.0000
  H   H402      1.0  0.57098  0.47998  0.84492  1.0000
  C   C333      1.0  0.53870  0.42672  0.95246  1.0000
  C   C334      1.0  0.44876  0.46339  0.53032  1.0000
  H   H403      1.0  0.51289  0.45849  0.24986  1.0000
  H   H404      1.0  0.35840  0.41357  0.69792  1.0000
  H   H405      1.0  0.49952  0.47293  0.45184  1.0000
  H   H406      1.0  0.45579  0.41320  0.63838  1.0000
  H   H407      1.0  0.34849  0.48395  0.22771  1.0000
  C   C335      1.0  0.43458  0.37632  0.11723  1.0000
  C   C336      1.0  0.33344  0.45062  0.28362  1.0000
  C   C337      1.0  0.44511  0.35851  0.39476  1.0000
  C   C338      1.0  0.39022  0.43643  0.27046  1.0000
  C   C339      1.0  0.45343  0.29924  0.32897  1.0000
  C   C340      1.0  0.54944  0.45973  0.91444  1.0000
  H   H408      1.0  0.47169  0.48407  0.81389  1.0000
  H   H409      1.0  0.51905  0.47794  0.86019  1.0000
  C   C341      1.0  0.44029  0.34645  0.09991  1.0000
  H   H410      1.0  0.44288  0.33689  0.07404  1.0000
  C   C342      1.0  0.48253  0.47916  0.80043  1.0000
  C   C343      1.0  0.46242  0.47866  0.56049  1.0000
  H   H411      1.0  0.42946  0.31215  0.82198  1.0000
  H   H412      1.0  0.42551  0.33602  0.11638  1.0000
  H   H413      1.0  0.44156  0.36929  0.41536  1.0000
  H   H414      1.0  0.52084  0.46119  0.75067  1.0000
  C   C344      1.0  0.51032  0.46627  0.76516  1.0000
  C   C345      1.0  0.37560  0.44926  0.21295  1.0000
  C   C346      1.0  0.55464  0.27238  0.06406  1.0000
  C   C347      1.0  0.39091  0.45298  0.24585  1.0000
  H   H415      1.0  0.42769  0.34900  0.01904  1.0000
  H   H416      1.0  0.40208  0.46598  0.91963  1.0000
  H   H417      1.0  0.49127  0.44623  0.68692  1.0000
  H   H418      1.0  0.36208  0.48078  0.29446  1.0000
  H   H419      1.0  0.40774  0.34590  0.05601  1.0000
  H   H420      1.0  0.46211  0.38264  0.15862  1.0000
  H   H421      1.0  0.47317  0.38385  0.08830  1.0000
  C   C348      1.0  0.35581  0.42800  0.95606  1.0000
  N   N26       1.0  0.43937  0.36496  0.08195  1.0000
  C   C349      1.0  0.42357  0.35731  0.04507  1.0000
  C   C350      1.0  0.46005  0.37897  0.06369  1.0000
  H   H422      1.0  0.46218  0.45190  0.72250  1.0000
  S   S93       1.0  0.48563  0.26028  0.05714  1.0000
  H   H423      1.0  0.42995  0.43037  0.51574  1.0000
  C   C351      1.0  0.44823  0.38465  0.15474  1.0000
  C   C352      1.0  0.57034  0.46583  0.92943  1.0000
  H   H424      1.0  0.38412  0.43379  0.78120  1.0000
  N   N27       1.0  0.35316  0.40759  0.76645  1.0000
  C   C353      1.0  0.46544  0.30841  0.88989  1.0000
  C   C354      1.0  0.44404  0.39543  0.18846  1.0000
  H   H425      1.0  0.45460  0.40159  0.21692  1.0000
  C   C355      1.0  0.41644  0.37939  0.11584  1.0000
  C   C356      1.0  0.52203  0.46664  0.87963  1.0000
  H   H426      1.0  0.43813  0.41954  0.58458  1.0000
  C   C357      1.0  0.55933  0.43346  0.96732  1.0000
  C   C358      1.0  0.57512  0.45292  0.95567  1.0000
  C   C359      1.0  0.46398  0.26039  0.91555  1.0000
  H   H427      1.0  0.49121  0.44449  0.62845  1.0000
  H   H428      1.0  0.53954  0.28986  0.08919  1.0000
  C   C360      1.0  0.51451  0.48722  0.76274  1.0000
  C   C361      1.0  0.55457  0.49535  0.90549  1.0000
  H   H429      1.0  0.48112  0.31885  0.90252  1.0000
  H   H430      1.0  0.59243  0.50060  0.23525  1.0000
  H   H431      1.0  0.53512  0.48309  0.51943  1.0000
  C   C362      1.0  0.37584  0.41638  0.77797  1.0000
  C   C363      1.0  0.45682  0.31695  0.86010  1.0000
  C   C364      1.0  0.50121  0.48299  0.48139  1.0000
  C   C365      1.0  0.42453  0.28441  0.85576  1.0000
  H   H432      1.0  0.37999  0.46767  0.34259  1.0000
  H   H433      1.0  0.42331  0.25948  0.89345  1.0000
  H   H434      1.0  0.53842  0.48420  0.46171  1.0000
  H   H435      1.0  0.52825  0.49827  0.74643  1.0000
  H   H436      1.0  0.46893  0.49512  0.55301  1.0000
  Fe  Fe43      1.0  0.35704  0.49762  0.05303  1.0000
  H   H437      1.0  0.33710  0.49058  0.27383  1.0000
  H   H438      1.0  0.35359  0.38171  0.73013  1.0000
  H   H439      1.0  0.44367  0.28228  0.98649  1.0000
  S   S94       1.0  0.33414  0.42460  0.98734  1.0000
  H   H440      1.0  0.61079  0.49799  0.85658  1.0000
  H   H441      1.0  0.45388  0.26454  0.00010  1.0000
  H   H442      1.0  0.33394  0.41141  0.71661  1.0000
  H   H443      1.0  0.34592  0.45447  0.86365  1.0000
  C   C366      1.0  0.33350  0.48033  0.24386  1.0000
  H   H444      1.0  0.47038  0.25310  0.93928  1.0000
  H   H445      1.0  0.52541  0.50193  0.41582  1.0000
  Fe  Fe44      1.0  0.57639  0.57394  0.73469  1.0000
  S   S95       1.0  0.55018  0.57580  0.77034  1.0000
  S   S96       1.0  0.58777  0.59130  0.67138  1.0000
  Fe  Fe45      1.0  0.58120  0.54566  0.80246  1.0000
  S   S97       1.0  0.55504  0.54460  0.84220  1.0000
  S   S98       1.0  0.59623  0.52490  0.81764  1.0000
  Fe  Fe46      1.0  0.53831  0.54136  0.77805  1.0000
  S   S99       1.0  0.50406  0.51891  0.77187  1.0000
  Fe  Fe47      1.0  0.56905  0.57920  0.83195  1.0000
  S   S100      1.0  0.57213  0.59859  0.89362  1.0000
  S   S101      1.0  0.56290  0.53906  0.73836  1.0000
  S   S102      1.0  0.59683  0.58068  0.79617  1.0000
  Fe  Fe48      1.0  0.58100  0.56280  0.40969  1.0000
  S   S103      1.0  0.55013  0.55702  0.37859  1.0000
  S   S104      1.0  0.58268  0.55243  0.47943  1.0000
  Fe  Fe49      1.0  0.60167  0.57031  0.31968  1.0000
  S   S105      1.0  0.57245  0.56539  0.28283  1.0000
  S   S106      1.0  0.62958  0.57521  0.27948  1.0000
  Fe  Fe50      1.0  0.56897  0.58466  0.33723  1.0000
  S   S107      1.0  0.55390  0.60550  0.32367  1.0000
  Fe  Fe51      1.0  0.55627  0.53852  0.32656  1.0000
  H   H446      1.0  0.47970  0.54719  0.03970  1.0000
  S   S108      1.0  0.59986  0.59212  0.37186  1.0000
  S   S109      1.0  0.58551  0.54190  0.35989  1.0000
  Fe  Fe52      1.0  0.50709  0.64049  0.01471  1.0000
  S   S110      1.0  0.53423  0.66642  0.05164  1.0000
  S   S111      1.0  0.50840  0.63329  0.94300  1.0000
  Fe  Fe53      1.0  0.48027  0.62703  0.09407  1.0000
  S   S112      1.0  0.50534  0.65225  0.13771  1.0000
  S   S113      1.0  0.45175  0.60211  0.12600  1.0000
  Fe  Fe54      1.0  0.51020  0.67396  0.08192  1.0000
  S   S114      1.0  0.52163  0.70912  0.09683  1.0000
  Fe  Fe55      1.0  0.52732  0.64304  0.10423  1.0000
  S   S115      1.0  0.55420  0.63893  0.13344  1.0000
  S   S116      1.0  0.48307  0.64928  0.04098  1.0000
  S   S117      1.0  0.50210  0.61652  0.06448  1.0000
  S   S118      1.0  0.37429  0.52897  0.02098  1.0000
  C   C367      1.0  0.55997  0.67045  0.30283  1.0000
  C   C368      1.0  0.52390  0.56578  0.20250  1.0000
  C   C369      1.0  0.50941  0.56004  0.27434  1.0000
  H   H447      1.0  0.61736  0.52296  0.11242  1.0000
  C   C370      1.0  0.43080  0.58177  0.09554  1.0000
  C   C371      1.0  0.41717  0.56358  0.11685  1.0000
  C   C372      1.0  0.40014  0.54709  0.09398  1.0000
  C   C373      1.0  0.39624  0.54896  0.04983  1.0000
  C   C374      1.0  0.40976  0.56724  0.02848  1.0000
  C   C375      1.0  0.42715  0.58353  0.05115  1.0000
  H   H448      1.0  0.41967  0.56232  0.15137  1.0000
  H   H449      1.0  0.38978  0.53314  0.11080  1.0000
  H   H450      1.0  0.40674  0.56883  0.99438  1.0000
  H   H451      1.0  0.43734  0.59768  0.03469  1.0000
  C   C376      1.0  0.60839  0.55342  0.13360  1.0000
  C   C377      1.0  0.49332  0.73910  0.03203  1.0000
  C   C378      1.0  0.51415  0.72813  0.07824  1.0000
  C   C379      1.0  0.49806  0.72328  0.04671  1.0000
  C   C380      1.0  0.52759  0.53956  0.60066  1.0000
  H   H452      1.0  0.48929  0.70739  0.03355  1.0000
  H   H453      1.0  0.51076  0.52657  0.34014  1.0000
  C   C381      1.0  0.55321  0.61343  0.26978  1.0000
  C   C382      1.0  0.53809  0.61961  0.25736  1.0000
  C   C383      1.0  0.53781  0.62691  0.21520  1.0000
  C   C384      1.0  0.55290  0.62841  0.18548  1.0000
  C   C385      1.0  0.56784  0.62201  0.19777  1.0000
  C   C386      1.0  0.56790  0.61438  0.23962  1.0000
  H   H454      1.0  0.52679  0.61908  0.28069  1.0000
  H   H455      1.0  0.52631  0.63192  0.20616  1.0000
  H   H456      1.0  0.57961  0.62322  0.17499  1.0000
  H   H457      1.0  0.57974  0.60986  0.24899  1.0000
  C   C387      1.0  0.62698  0.55237  0.25153  1.0000
  C   C388      1.0  0.60862  0.53333  0.25433  1.0000
  H   H458      1.0  0.43374  0.54184  0.97092  1.0000
  C   C389      1.0  0.62267  0.51600  0.20592  1.0000
  C   C390      1.0  0.64102  0.53507  0.20255  1.0000
  C   C391      1.0  0.64320  0.55320  0.22552  1.0000
  H   H459      1.0  0.59594  0.53248  0.27382  1.0000
  C   C392      1.0  0.58396  0.72245  0.19918  1.0000
  H   H460      1.0  0.52642  0.53609  0.24559  1.0000
  C   C393      1.0  0.58435  0.57965  0.61804  1.0000
  C   C394      1.0  0.58700  0.59203  0.58145  1.0000
  C   C395      1.0  0.58587  0.58382  0.53862  1.0000
  C   C396      1.0  0.58250  0.56322  0.53206  1.0000
  C   C397      1.0  0.57963  0.55077  0.56863  1.0000
  C   C398      1.0  0.58032  0.55883  0.61133  1.0000
  H   H461      1.0  0.59021  0.60818  0.58627  1.0000
  H   H462      1.0  0.58821  0.59362  0.51086  1.0000
  H   H463      1.0  0.57703  0.53482  0.56393  1.0000
  H   H464      1.0  0.57819  0.54906  0.63896  1.0000
  H   H465      1.0  0.52205  0.55976  0.16808  1.0000
  H   H466      1.0  0.52471  0.56335  0.29038  1.0000
  C   C399      1.0  0.58807  0.67100  0.26062  1.0000
  C   C400      1.0  0.55374  0.60747  0.90671  1.0000
  C   C401      1.0  0.55413  0.61534  0.94928  1.0000
  C   C402      1.0  0.54008  0.62297  0.96082  1.0000
  C   C403      1.0  0.52569  0.62307  0.92965  1.0000
  C   C404      1.0  0.52512  0.61502  0.88717  1.0000
  C   C405      1.0  0.53902  0.60714  0.87577  1.0000
  H   H467      1.0  0.56547  0.61569  0.97340  1.0000
  H   H468      1.0  0.54070  0.62912  0.99367  1.0000
  H   H469      1.0  0.51398  0.61496  0.86289  1.0000
  H   H470      1.0  0.53858  0.60114  0.84287  1.0000
  C   C406      1.0  0.61120  0.52789  0.86637  1.0000
  H   H471      1.0  0.61925  0.52636  0.05533  1.0000
  H   H472      1.0  0.47141  0.51136  0.21126  1.0000
  C   C407      1.0  0.63482  0.53143  0.94401  1.0000
  C   C408      1.0  0.63041  0.54770  0.93202  1.0000
  C   C409      1.0  0.61834  0.54581  0.89380  1.0000
  C   C410      1.0  0.47476  0.54974  0.95374  1.0000
  H   H473      1.0  0.54352  0.68582  0.27766  1.0000
  H   H474      1.0  0.63636  0.56187  0.95245  1.0000
  H   H475      1.0  0.61496  0.55842  0.88517  1.0000
  C   C411      1.0  0.53347  0.72308  0.93930  1.0000
  H   H476      1.0  0.54928  0.67459  0.15678  1.0000
  H   H477      1.0  0.61185  0.54507  0.16003  1.0000
  H   H478      1.0  0.63322  0.54535  0.63481  1.0000
  H   H479      1.0  0.54840  0.71401  0.23837  1.0000
  N   N28       1.0  0.52905  0.70084  0.93826  1.0000
  C   C412      1.0  0.54782  0.69921  0.95410  1.0000
  C   C413      1.0  0.51144  0.68887  0.96724  1.0000
  C   C414      1.0  0.52307  0.69046  0.89403  1.0000
  C   C415      1.0  0.50362  0.55356  0.90697  1.0000
  H   H480      1.0  0.53587  0.56493  0.55702  1.0000
  H   H481      1.0  0.59829  0.72125  0.19061  1.0000
  H   H482      1.0  0.49672  0.54939  0.29563  1.0000
  H   H483      1.0  0.55211  0.70451  0.98888  1.0000
  H   H484      1.0  0.54513  0.68265  0.95215  1.0000
  H   H485      1.0  0.56170  0.70882  0.93439  1.0000
  H   H486      1.0  0.51549  0.69424  0.00209  1.0000
  H   H487      1.0  0.50686  0.67184  0.96570  1.0000
  H   H488      1.0  0.49731  0.69055  0.95788  1.0000
  H   H489      1.0  0.53573  0.69861  0.87051  1.0000
  H   H490      1.0  0.52024  0.67385  0.89449  1.0000
  H   H491      1.0  0.50819  0.68974  0.88113  1.0000
  C   C416      1.0  0.52391  0.51450  0.52477  1.0000
  H   H492      1.0  0.59891  0.53286  0.00887  1.0000
  H   H493      1.0  0.63522  0.60712  0.56316  1.0000
  H   H494      1.0  0.61437  0.54312  0.69697  1.0000
  C   C417      1.0  0.58453  0.68287  0.22917  1.0000
  C   C418      1.0  0.60023  0.54818  0.01585  1.0000
  H   H495      1.0  0.53978  0.56903  0.21520  1.0000
  C   C419      1.0  0.64073  0.59571  0.71817  1.0000
  H   H496      1.0  0.59440  0.51878  0.08111  1.0000
  H   H497      1.0  0.55750  0.69912  0.13049  1.0000
  H   H498      1.0  0.58628  0.54772  0.95248  1.0000
  H   H499      1.0  0.33296  0.51792  0.06018  1.0000
  H   H500      1.0  0.45848  0.57116  0.17576  1.0000
  H   H501      1.0  0.60560  0.60406  0.03046  1.0000
  H   H502      1.0  0.52541  0.72509  0.87049  1.0000
  N   N29       1.0  0.46686  0.55837  0.98890  1.0000
  C   C420      1.0  0.63545  0.59399  0.57930  1.0000
  H   H503      1.0  0.61869  0.59007  0.08861  1.0000
  C   C421      1.0  0.54663  0.70498  0.20728  1.0000
  H   H504      1.0  0.60403  0.56136  0.70014  1.0000
  N   N30       1.0  0.56515  0.70157  0.19984  1.0000
  N   N31       1.0  0.63744  0.57595  0.69530  1.0000
  H   H505      1.0  0.44599  0.51995  0.93999  1.0000
  H   H506      1.0  0.50629  0.57660  0.95456  1.0000
  C   C422      1.0  0.43196  0.75016  0.02476  1.0000
  H   H507      1.0  0.61503  0.56996  0.14603  1.0000
  H   H508      1.0  0.49272  0.57865  0.20709  1.0000
  H   H509      1.0  0.34412  0.55168  0.02270  1.0000
  H   H510      1.0  0.55028  0.66523  0.33120  1.0000
  H   H511      1.0  0.44232  0.52892  0.01067  1.0000
  H   H512      1.0  0.54304  0.52555  0.44437  1.0000
  H   H513      1.0  0.51557  0.51865  0.43797  1.0000
  C   C423      1.0  0.60399  0.58838  0.02668  1.0000
  H   H514      1.0  0.46033  0.50719  0.88279  1.0000
  H   H515      1.0  0.63061  0.54584  0.55516  1.0000
  C   C424      1.0  0.55621  0.68226  0.27150  1.0000
  C   C425      1.0  0.61168  0.52888  0.08456  1.0000
  C   C426      1.0  0.63419  0.55931  0.62046  1.0000
  C   C427      1.0  0.49576  0.56132  0.94006  1.0000
  C   C428      1.0  0.46215  0.52991  0.93215  1.0000
  C   C429      1.0  0.63683  0.59404  0.62494  1.0000
  C   C430      1.0  0.63636  0.57667  0.64700  1.0000
  C   C431      1.0  0.56195  0.69105  0.15612  1.0000
  C   C432      1.0  0.46961  0.52497  0.20349  1.0000
  C   C433      1.0  0.61131  0.58016  0.05983  1.0000
  H   H516      1.0  0.52005  0.51194  0.63665  1.0000
  H   H517      1.0  0.58935  0.58311  0.96248  1.0000
  H   H518      1.0  0.60003  0.66610  0.25600  1.0000
  H   H519      1.0  0.49645  0.57388  0.02577  1.0000
  S   S119      1.0  0.65032  0.53473  0.99208  1.0000
  H   H520      1.0  0.57615  0.69036  0.14467  1.0000
  H   H521      1.0  0.64598  0.58044  0.10284  1.0000
  H   H522      1.0  0.55009  0.50570  0.88642  1.0000
  H   H523      1.0  0.54431  0.71419  0.18088  1.0000
  C   C434      1.0  0.56843  0.68883  0.23352  1.0000
  C   C435      1.0  0.52930  0.53610  0.52215  1.0000
  C   C436      1.0  0.59480  0.57659  0.98833  1.0000
  H   H524      1.0  0.59101  0.54668  0.13067  1.0000
  H   H525      1.0  0.52432  0.58134  0.20206  1.0000
  H   H526      1.0  0.58195  0.73264  0.17468  1.0000
  H   H527      1.0  0.63754  0.60761  0.64210  1.0000
  H   H528      1.0  0.48488  0.59079  0.97109  1.0000
  H   H529      1.0  0.54231  0.72870  0.00893  1.0000
  H   H530      1.0  0.45960  0.57690  0.94421  1.0000
  C   C437      1.0  0.61752  0.55879  0.71039  1.0000
  H   H531      1.0  0.61753  0.55776  0.74667  1.0000
  C   C438      1.0  0.64048  0.56352  0.09499  1.0000
  C   C439      1.0  0.50272  0.50992  0.34543  1.0000
  C   C440      1.0  0.52032  0.50603  0.56712  1.0000
  H   H532      1.0  0.58714  0.73072  0.23176  1.0000
  C   C441      1.0  0.57586  0.66487  0.29743  1.0000
  H   H533      1.0  0.59434  0.68707  0.20107  1.0000
  H   H534      1.0  0.64767  0.56241  0.06374  1.0000
  H   H535      1.0  0.48096  0.73514  0.00741  1.0000
  C   C442      1.0  0.51027  0.53185  0.23305  1.0000
  C   C443      1.0  0.60659  0.51524  0.23207  1.0000
  N   N32       1.0  0.50698  0.55063  0.22972  1.0000
  H   H536      1.0  0.65263  0.55618  0.69770  1.0000
  H   H537      1.0  0.65682  0.57222  0.74549  1.0000
  H   H538      1.0  0.43933  0.55124  0.02642  1.0000
  C   C444      1.0  0.52523  0.74898  0.09500  1.0000
  H   H539      1.0  0.50896  0.57525  0.27424  1.0000
  C   C445      1.0  0.59297  0.55658  0.98290  1.0000
  C   C446      1.0  0.47979  0.56196  0.02959  1.0000
  C   C447      1.0  0.54013  0.73526  0.97902  1.0000
  C   C448      1.0  0.48134  0.56237  0.20083  1.0000
  H   H540      1.0  0.53187  0.68980  0.20750  1.0000
  C   C449      1.0  0.53101  0.54832  0.55964  1.0000
  H   H541      1.0  0.57834  0.65524  0.32124  1.0000
  C   C450      1.0  0.44462  0.54441  0.99944  1.0000
  N   N33       1.0  0.61726  0.55137  0.09143  1.0000
  H   H542      1.0  0.47388  0.56785  0.05720  1.0000
  C   C451      1.0  0.46839  0.57870  0.97566  1.0000
  H   H543      1.0  0.65361  0.53577  0.18286  1.0000
  C   C452      1.0  0.60941  0.55968  0.05572  1.0000
  H   H544      1.0  0.62737  0.59909  0.71152  1.0000
  H   H545      1.0  0.46205  0.58545  0.00069  1.0000
  H   H546      1.0  0.64709  0.55759  0.12112  1.0000
  H   H547      1.0  0.51968  0.56275  0.89689  1.0000
  C   C453      1.0  0.44602  0.53763  0.17586  1.0000
  C   C454      1.0  0.63334  0.57671  0.55432  1.0000
  C   C455      1.0  0.48607  0.54586  0.21083  1.0000
  H   H548      1.0  0.64178  0.59480  0.75435  1.0000
  H   H549      1.0  0.42343  0.73792  0.04875  1.0000
  C   C456      1.0  0.49086  0.53412  0.88646  1.0000
  C   C457      1.0  0.53047  0.73301  0.90211  1.0000
  H   H550      1.0  0.53304  0.54421  0.49174  1.0000
  C   C458      1.0  0.63270  0.55940  0.57484  1.0000
  Fe  Fe56      1.0  0.65090  0.50792  0.02917  1.0000
  C   C459      1.0  0.52679  0.51239  0.44438  1.0000
  H   H551      1.0  0.44715  0.74996  0.01926  1.0000
  C   C460      1.0  0.46168  0.55825  0.18323  1.0000
  C   C461      1.0  0.65502  0.57189  0.70917  1.0000
  C   C462      1.0  0.62735  0.51334  0.91696  1.0000
  H   H552      1.0  0.50817  0.52366  0.20072  1.0000
  H   H553      1.0  0.42260  0.74531  0.99339  1.0000
  H   H554      1.0  0.49950  0.52048  0.25643  1.0000
  H   H555      1.0  0.63152  0.57647  0.51899  1.0000
  H   H556      1.0  0.65749  0.56787  0.22330  1.0000
  H   H557      1.0  0.52966  0.54935  0.62968  1.0000
  C   C463      1.0  0.61595  0.51179  0.87790  1.0000
  H   H558      1.0  0.65551  0.60936  0.70835  1.0000
  H   H559      1.0  0.37272  0.74959  0.11315  1.0000
  C   C464      1.0  0.52226  0.51846  0.60444  1.0000
  H   H560      1.0  0.55438  0.50683  0.49621  1.0000
  H   H561      1.0  0.47904  0.51152  0.38511  1.0000
  H   H562      1.0  0.49697  0.52827  0.86053  1.0000
  C   C465      1.0  0.47020  0.52231  0.89905  1.0000
  H   H563      1.0  0.43070  0.53445  0.16265  1.0000
  C   C466      1.0  0.44993  0.52105  0.18622  1.0000
  S   S120      1.0  0.53310  0.50717  0.29764  1.0000
  H   H564      1.0  0.40556  0.74865  0.09910  1.0000
  H   H565      1.0  0.43747  0.50501  0.18126  1.0000
  H   H566      1.0  0.33271  0.51965  0.98239  1.0000
  H   H567      1.0  0.57200  0.50320  0.90539  1.0000
  S   S121      1.0  0.37825  0.81308  0.13331  1.0000
  S   S122      1.0  0.35874  0.85382  0.10081  1.0000
  Fe  Fe57      1.0  0.48614  0.84244  0.02961  1.0000
  S   S123      1.0  0.49333  0.82733  0.08582  1.0000
  S   S124      1.0  0.45653  0.84437  0.01174  1.0000
  Fe  Fe58      1.0  0.52959  0.85759  0.99162  1.0000
  S   S125      1.0  0.54054  0.84356  0.04584  1.0000
  S   S126      1.0  0.54171  0.86931  0.92420  1.0000
  Fe  Fe59      1.0  0.50868  0.81480  0.03844  1.0000
  S   S127      1.0  0.49770  0.77919  0.02829  1.0000
  Fe  Fe60      1.0  0.52443  0.85700  0.09008  1.0000
  S   S128      1.0  0.53036  0.87106  0.15938  1.0000
  S   S129      1.0  0.49901  0.82809  0.98166  1.0000
  S   S130      1.0  0.51591  0.87273  0.03643  1.0000
  Fe  Fe61      1.0  0.59540  0.97356  0.79344  1.0000
  H   H568      1.0  0.34477  0.91409  0.23886  1.0000
  S   S131      1.0  0.60160  0.96034  0.85547  1.0000
  Fe  Fe62      1.0  0.56073  0.97466  0.73897  1.0000
  S   S132      1.0  0.52617  0.95747  0.72551  1.0000
  Fe  Fe63      1.0  0.60190  0.98699  0.69671  1.0000
  S   S133      1.0  0.61563  0.98496  0.63108  1.0000
  S   S134      1.0  0.57938  0.95746  0.72965  1.0000
  S   S135      1.0  0.57492  0.98873  0.80473  1.0000
  Fe  Fe64      1.0  0.40720  0.96828  0.78018  1.0000
  S   S136      1.0  0.42980  0.95654  0.80051  1.0000
  H   H569      1.0  0.54212  0.78102  0.94714  1.0000
  H   H570      1.0  0.50598  0.94794  0.45139  1.0000
  C   C467      1.0  0.35598  0.90043  0.07092  1.0000
  H   H571      1.0  0.61883  0.98099  0.10756  1.0000
  Fe  Fe65      1.0  0.41521  0.95049  0.86595  1.0000
  S   S137      1.0  0.41237  0.92221  0.90241  1.0000
  S   S138      1.0  0.39072  0.95958  0.84473  1.0000
  Fe  Fe66      1.0  0.59148  0.97577  0.28855  1.0000
  S   S139      1.0  0.56699  0.98218  0.25722  1.0000
  S   S140      1.0  0.60161  0.95821  0.24040  1.0000
  H   H572      1.0  0.45171  0.99908  0.50145  1.0000
  N   N34       1.0  0.36241  0.89490  0.78003  1.0000
  Fe  Fe67      1.0  0.55257  0.97602  0.32247  1.0000
  S   S141      1.0  0.51773  0.95598  0.32660  1.0000
  S   S142      1.0  0.57534  0.96675  0.35297  1.0000
  C   C468      1.0  0.35335  0.87711  0.80983  1.0000
  C   C469      1.0  0.40042  0.97655  0.05553  1.0000
  H   H573      1.0  0.54808  0.76480  0.01239  1.0000
  Fe  Fe68      1.0  0.40823  0.95540  0.37756  1.0000
  S   S143      1.0  0.38891  0.97212  0.38931  1.0000
  S   S144      1.0  0.39944  0.92284  0.34887  1.0000
  C   C470      1.0  0.45277  0.99600  0.53653  1.0000
  H   H574      1.0  0.51544  0.92176  0.59244  1.0000
  S   S145      1.0  0.43468  0.98278  0.34677  1.0000
  S   S146      1.0  0.42327  0.96359  0.44545  1.0000
  C   C471      1.0  0.48420  0.97416  0.77173  1.0000
  C   C472      1.0  0.47740  0.97111  0.38709  1.0000
  C   C473      1.0  0.48557  0.96024  0.36236  1.0000
  C   C474      1.0  0.50717  0.96686  0.36395  1.0000
  H   H575      1.0  0.38287  0.87988  0.83846  1.0000
  H   H576      1.0  0.50560  0.95003  0.53091  1.0000
  H   H577      1.0  0.46078  0.96627  0.38477  1.0000
  H   H578      1.0  0.47524  0.94726  0.34072  1.0000
  H   H579      1.0  0.52340  0.97609  0.59117  1.0000
  H   H580      1.0  0.48431  0.85884  0.13757  1.0000
  C   C475      1.0  0.39628  0.96499  0.66063  1.0000
  C   C476      1.0  0.35162  0.92490  0.11805  1.0000
  H   H581      1.0  0.55614  0.93978  0.60213  1.0000
  N   N35       1.0  0.36750  0.92104  0.09495  1.0000
  H   H582      1.0  0.51746  0.93612  0.64248  1.0000
  H   H583      1.0  0.34102  0.91114  0.13711  1.0000
  H   H584      1.0  0.46004  0.85175  0.16395  1.0000
  H   H585      1.0  0.33732  0.90345  0.78362  1.0000
  C   C477      1.0  0.61042  0.99232  0.57875  1.0000
  H   H586      1.0  0.53761  0.95186  0.41424  1.0000
  C   C478      1.0  0.55540  0.95582  0.47418  1.0000
  H   H587      1.0  0.37472  0.86376  0.99885  1.0000
  C   C479      1.0  0.61179  0.99005  0.49875  1.0000
  C   C480      1.0  0.61508  0.98415  0.54078  1.0000
  H   H588      1.0  0.34566  0.90098  0.04397  1.0000
  H   H589      1.0  0.52914  0.78068  0.09369  1.0000
  H   H590      1.0  0.50372  0.94749  0.82719  1.0000
  H   H591      1.0  0.62147  0.97331  0.54385  1.0000
  C   C481      1.0  0.51499  0.97230  0.74754  1.0000
  H   H592      1.0  0.36311  0.90021  0.71087  1.0000
  C   C482      1.0  0.36591  0.87145  0.83735  1.0000
  H   H593      1.0  0.46160  0.99525  0.73220  1.0000
  S   S147      1.0  0.43797  0.98248  0.89299  1.0000
  C   C483      1.0  0.49325  0.96313  0.75071  1.0000
  C   C484      1.0  0.52031  0.98330  0.39284  1.0000
  H   H594      1.0  0.39146  0.91353  0.81649  1.0000
  Fe  Fe69      1.0  0.33414  0.84905  0.14928  1.0000
  H   H595      1.0  0.48341  0.94731  0.73789  1.0000
  C   C485      1.0  0.55011  0.89593  0.17942  1.0000
  C   C486      1.0  0.54741  0.90359  0.22010  1.0000
  C   C487      1.0  0.56274  0.92300  0.23809  1.0000
  C   C488      1.0  0.58137  0.93462  0.21639  1.0000
  C   C489      1.0  0.58416  0.92699  0.17567  1.0000
  C   C490      1.0  0.56843  0.90787  0.15688  1.0000
  H   H596      1.0  0.53345  0.89438  0.23810  1.0000
  H   H597      1.0  0.56046  0.92860  0.26958  1.0000
  H   H598      1.0  0.59858  0.93578  0.15878  1.0000
  H   H599      1.0  0.57079  0.90205  0.12574  1.0000
  C   C491      1.0  0.55762  0.89514  0.90670  1.0000
  C   C492      1.0  0.57065  0.91162  0.93563  1.0000
  C   C493      1.0  0.58407  0.93154  0.91950  1.0000
  C   C494      1.0  0.58410  0.93530  0.87459  1.0000
  C   C495      1.0  0.57059  0.91899  0.84590  1.0000
  C   C496      1.0  0.55765  0.89895  0.86184  1.0000
  H   H600      1.0  0.57093  0.90884  0.97016  1.0000
  H   H601      1.0  0.59458  0.94404  0.94188  1.0000
  H   H602      1.0  0.57066  0.92161  0.81123  1.0000
  H   H603      1.0  0.54778  0.88623  0.83920  1.0000
  C   C497      1.0  0.50446  0.75998  0.04866  1.0000
  Fe  Fe70      1.0  0.35219  0.82104  0.11615  1.0000
  H   H604      1.0  0.39204  0.91985  0.76027  1.0000
  C   C498      1.0  0.38215  0.91074  0.30315  1.0000
  C   C499      1.0  0.38084  0.89221  0.28423  1.0000
  C   C500      1.0  0.36670  0.88163  0.24890  1.0000
  H   H605      1.0  0.39070  0.88591  0.29731  1.0000
  H   H606      1.0  0.36574  0.86728  0.23492  1.0000
  C   C501      1.0  0.38969  0.90436  0.92905  1.0000
  C   C502      1.0  0.37013  0.90353  0.92128  1.0000
  C   C503      1.0  0.35214  0.88799  0.94055  1.0000
  H   H607      1.0  0.36879  0.91457  0.89983  1.0000
  C   C504      1.0  0.35676  0.85507  0.86630  1.0000
  C   C505      1.0  0.40057  0.82318  0.10096  1.0000
  C   C506      1.0  0.40107  0.83343  0.06245  1.0000
  C   C507      1.0  0.41845  0.84004  0.03558  1.0000
  C   C508      1.0  0.43550  0.83663  0.04727  1.0000
  C   C509      1.0  0.43532  0.82696  0.08643  1.0000
  C   C510      1.0  0.41783  0.82014  0.11311  1.0000
  H   H608      1.0  0.38782  0.83580  0.05282  1.0000
  H   H609      1.0  0.41856  0.84760  0.00536  1.0000
  H   H610      1.0  0.44849  0.82450  0.09581  1.0000
  H   H611      1.0  0.41746  0.81217  0.14287  1.0000
  H   H612      1.0  0.45316  0.90633  0.92247  1.0000
  H   H613      1.0  0.41737  0.79329  0.99629  1.0000
  H   H614      1.0  0.50984  0.91828  0.80188  1.0000
  C   C511      1.0  0.49670  0.99443  0.78925  1.0000
  H   H615      1.0  0.47853  0.92568  0.27596  1.0000
  H   H616      1.0  0.43985  0.90588  0.28057  1.0000
  C   C512      1.0  0.35367  0.87352  0.96852  1.0000
  H   H617      1.0  0.51721  0.89858  0.90039  1.0000
  C   C513      1.0  0.35446  0.91006  0.79049  1.0000
  H   H618      1.0  0.55334  0.95339  0.64918  1.0000
  Fe  Fe71      1.0  0.41456  0.99227  0.86848  1.0000
  C   C514      1.0  0.48390  0.92022  0.89487  1.0000
  H   H619      1.0  0.56992  0.96808  0.60736  1.0000
  C   C515      1.0  0.47670  0.86402  0.16296  1.0000
  C   C516      1.0  0.48702  0.88588  0.92760  1.0000
  H   H620      1.0  0.33694  0.88699  0.93336  1.0000
  C   C517      1.0  0.51731  0.93698  0.60620  1.0000
  C   C518      1.0  0.50361  0.90100  0.90474  1.0000
  H   H621      1.0  0.59100  0.99073  0.12132  1.0000
  Fe  Fe72      1.0  0.44778  0.99234  0.41531  1.0000
  H   H622      1.0  0.46392  0.78657  0.00397  1.0000
  H   H623      1.0  0.43657  0.86627  0.17176  1.0000
  H   H624      1.0  0.46136  0.98664  0.53850  1.0000
  C   C519      1.0  0.35619  0.88712  0.73410  1.0000
  C   C520      1.0  0.37638  0.77095  0.06243  1.0000
  H   H625      1.0  0.37819  0.91992  0.00733  1.0000
  H   H626      1.0  0.53112  0.76100  0.87654  1.0000
  H   H627      1.0  0.50867  0.89505  0.12372  1.0000
  C   C521      1.0  0.46894  0.88784  0.93405  1.0000
  H   H628      1.0  0.61590  0.98396  0.47001  1.0000
  C   C522      1.0  0.53755  0.95243  0.44968  1.0000
  H   H629      1.0  0.38995  0.93365  0.14937  1.0000
  C   C523      1.0  0.40147  0.75843  0.07908  1.0000
  H   H630      1.0  0.33890  0.87951  0.72814  1.0000
  H   H631      1.0  0.45611  0.87602  0.95174  1.0000
  H   H632      1.0  0.50293  0.93823  0.59754  1.0000
  H   H633      1.0  0.36662  0.85154  0.88819  1.0000
  C   C524      1.0  0.62747  0.98994  0.13774  1.0000
  H   H634      1.0  0.44072  0.76453  0.10683  1.0000
  C   C525      1.0  0.38897  0.78284  0.02927  1.0000
  C   C526      1.0  0.52042  0.76477  0.08045  1.0000
  H   H635      1.0  0.48818  0.87250  0.94037  1.0000
  S   S148      1.0  0.39230  0.95350  0.71297  1.0000
  C   C527      1.0  0.46948  0.91299  0.25237  1.0000
  C   C528      1.0  0.44772  0.90178  0.25516  1.0000
  H   H636      1.0  0.51528  0.96125  0.87882  1.0000
  C   C529      1.0  0.46735  0.90493  0.91761  1.0000
  H   H637      1.0  0.56980  0.95935  0.53671  1.0000
  C   C530      1.0  0.40809  0.78301  0.02136  1.0000
  C   C531      1.0  0.52764  0.99280  0.76397  1.0000
  H   H638      1.0  0.35879  0.93819  0.14242  1.0000
  H   H639      1.0  0.39800  0.94943  0.96185  1.0000
  H   H640      1.0  0.46754  0.96685  0.77413  1.0000
  H   H641      1.0  0.56948  0.95818  0.45760  1.0000
  C   C532      1.0  0.35493  0.90800  0.25121  1.0000
  C   C533      1.0  0.51746  0.95268  0.85039  1.0000
  Fe  Fe73      1.0  0.41647  0.00009  0.36152  1.0000
  S   S149      1.0  0.33467  0.87600  0.18996  1.0000
  H   H642      1.0  0.37336  0.90589  0.14958  1.0000
  Fe  Fe74      1.0  0.45048  0.98938  0.82575  1.0000
  H   H643      1.0  0.45192  0.87157  0.10815  1.0000
  H   H644      1.0  0.49665  0.91702  0.22009  1.0000
  C   C534      1.0  0.35350  0.88936  0.23267  1.0000
  H   H645      1.0  0.46893  0.89913  0.10335  1.0000
  C   C535      1.0  0.55537  0.95651  0.51988  1.0000
  C   C536      1.0  0.51960  0.95118  0.51635  1.0000
  C   C537      1.0  0.33502  0.84396  0.86902  1.0000
  H   H646      1.0  0.36209  0.92440  0.77082  1.0000
  C   C538      1.0  0.47975  0.90779  0.21976  1.0000
  N   N36       1.0  0.53677  0.95483  0.59075  1.0000
  C   C539      1.0  0.44786  0.77677  0.08222  1.0000
  H   H647      1.0  0.40700  0.99260  0.06830  1.0000
  C   C540      1.0  0.43614  0.88511  0.22567  1.0000
  H   H648      1.0  0.46401  0.77878  0.07793  1.0000
  H   H649      1.0  0.41923  0.87622  0.22833  1.0000
  H   H650      1.0  0.36160  0.87544  0.72509  1.0000
  C   C541      1.0  0.53728  0.95388  0.54242  1.0000
  C   C542      1.0  0.55482  0.95392  0.61304  1.0000
  Fe  Fe75      1.0  0.59377  0.00114  0.37257  1.0000
  H   H651      1.0  0.44089  0.78281  0.97460  1.0000
  H   H652      1.0  0.54433  0.93108  0.90201  1.0000
  H   H653      1.0  0.55380  0.95538  0.87585  1.0000
  C   C543      1.0  0.46856  0.88391  0.11056  1.0000
  H   H654      1.0  0.39426  0.91667  0.11179  1.0000
  C   C544      1.0  0.36930  0.91875  0.28613  1.0000
  C   C545      1.0  0.39125  0.89010  0.95750  1.0000
  C   C546      1.0  0.41507  0.77096  0.04656  1.0000
  C   C547      1.0  0.38191  0.91928  0.12784  1.0000
  H   H655      1.0  0.36685  0.89506  0.05692  1.0000
  Fe  Fe76      1.0  0.40643  0.98271  0.45515  1.0000
  C   C548      1.0  0.51216  0.99422  0.41748  1.0000
  H   H656      1.0  0.49666  0.99223  0.23804  1.0000
  C   C549      1.0  0.51971  0.95018  0.47072  1.0000
  H   H657      1.0  0.37014  0.93296  0.30053  1.0000
  C   C550      1.0  0.37985  0.93861  0.06618  1.0000
  C   C551      1.0  0.38379  0.93538  0.02210  1.0000
  C   C552      1.0  0.50267  0.91877  0.88793  1.0000
  H   H658      1.0  0.55158  0.98854  0.59360  1.0000
  H   H659      1.0  0.41207  0.98586  0.99109  1.0000
  H   H660      1.0  0.43648  0.98594  0.54701  1.0000
  C   C553      1.0  0.39675  0.95332  0.62356  1.0000
  C   C554      1.0  0.39684  0.97965  0.57472  1.0000
  S   S150      1.0  0.39588  0.98907  0.52164  1.0000
  H   H661      1.0  0.48452  0.86427  0.19492  1.0000
  C   C555      1.0  0.53994  0.94331  0.89258  1.0000
  H   H662      1.0  0.53799  0.95064  0.92329  1.0000
  H   H663      1.0  0.44943  0.79171  0.09678  1.0000
  C   C556      1.0  0.39643  0.98423  0.65445  1.0000
  C   C557      1.0  0.39733  0.96071  0.58095  1.0000
  H   H664      1.0  0.39626  0.93825  0.62773  1.0000
  C   C558      1.0  0.46836  0.89107  0.18864  1.0000
  C   C559      1.0  0.44625  0.87967  0.19311  1.0000
  H   H665      1.0  0.50417  0.91601  0.14449  1.0000
  H   H666      1.0  0.39292  0.89644  0.77403  1.0000
  H   H667      1.0  0.53743  0.93631  0.80565  1.0000
  C   C560      1.0  0.59949  0.99842  0.15255  1.0000
  C   C561      1.0  0.38905  0.95975  0.08246  1.0000
  H   H668      1.0  0.48380  0.99670  0.60342  1.0000
  H   H669      1.0  0.38760  0.96348  0.11617  1.0000
  C   C562      1.0  0.39530  0.95227  0.99553  1.0000
  H   H670      1.0  0.39736  0.95136  0.55286  1.0000
  H   H671      1.0  0.51047  0.90013  0.18082  1.0000
  C   C563      1.0  0.39645  0.99135  0.61180  1.0000
  H   H672      1.0  0.52756  0.91181  0.83188  1.0000
  H   H673      1.0  0.50298  0.98738  0.29210  1.0000
  C   C564      1.0  0.37336  0.87489  0.97758  1.0000
  C   C565      1.0  0.50143  0.89980  0.15069  1.0000
  N   N37       1.0  0.43552  0.77122  0.04019  1.0000
  H   H674      1.0  0.35753  0.91518  0.82558  1.0000
  H   H675      1.0  0.34567  0.88775  0.09269  1.0000
  C   C566      1.0  0.38571  0.90660  0.78301  1.0000
  N   N38       1.0  0.52058  0.93469  0.86423  1.0000
  C   C567      1.0  0.52397  0.92481  0.82430  1.0000
  H   H676      1.0  0.36205  0.77168  0.06968  1.0000
  H   H677      1.0  0.53119  0.96433  0.83277  1.0000
  H   H678      1.0  0.48153  0.93298  0.88306  1.0000
  C   C568      1.0  0.49085  0.98863  0.41322  1.0000
  C   C569      1.0  0.40339  0.97281  0.01204  1.0000
  H   H679      1.0  0.40633  0.89065  0.96368  1.0000
  H   H680      1.0  0.62300  0.97816  0.16375  1.0000
  N   N39       1.0  0.47870  0.88497  0.15392  1.0000
  H   H681      1.0  0.47649  0.88000  0.08363  1.0000
  H   H682      1.0  0.38428  0.79271  0.01076  1.0000
  C   C570      1.0  0.53715  0.97481  0.60475  1.0000
  H   H683      1.0  0.53699  0.97636  0.64101  1.0000
  H   H684      1.0  0.59319  0.98622  0.17776  1.0000
  H   H685      1.0  0.53678  0.98773  0.39608  1.0000
  C   C571      1.0  0.38253  0.75865  0.08711  1.0000
  C   C572      1.0  0.44859  0.78654  0.00774  1.0000
  C   C573      1.0  0.47427  0.99545  0.66903  1.0000
  H   H686      1.0  0.39554  0.99318  0.68241  1.0000
  H   H687      1.0  0.45223  0.80283  0.01785  1.0000
  H   H688      1.0  0.34165  0.92815  0.09444  1.0000
  S   S151      1.0  0.62030  0.00154  0.76011  1.0000
  H   H689      1.0  0.53771  0.75301  0.11938  1.0000
  H   H690      1.0  0.54449  0.00013  0.76095  1.0000
  C   C574      1.0  0.46204  0.99956  0.69841  1.0000
  H   H691      1.0  0.64457  0.99609  0.13267  1.0000
  H   H692      1.0  0.48338  0.98793  0.68031  1.0000
  S   S152      1.0  0.42883  0.00181  0.80243  1.0000
  Fe  Fe77      1.0  0.33176  0.83769  0.05242  1.0000
  C   C575      1.0  0.54338  0.75595  0.98149  1.0000
  C   C576      1.0  0.54002  0.76511  0.94471  1.0000
  H   H693      1.0  0.52346  0.00036  0.25532  1.0000
  C   C577      1.0  0.50824  0.99907  0.26596  1.0000
  C   C578      1.0  0.47458  0.00075  0.62526  1.0000
  H   H694      1.0  0.61254  0.00167  0.06150  1.0000
  C   C579      1.0  0.53372  0.75373  0.90505  1.0000
  H   H695      1.0  0.73592  0.24449  0.03069  1.0000
  Fe  Fe78      1.0  0.68875  0.16391  0.03100  1.0000
  S   S153      1.0  0.71214  0.19942  0.03227  1.0000
  S   S154      1.0  0.69516  0.13691  0.04593  1.0000
  H   H696      1.0  0.66684  0.06844  0.78086  1.0000
  N   N40       1.0  0.73262  0.17774  0.15673  1.0000
  C   C580      1.0  0.74721  0.23858  0.03229  1.0000
  C   C581      1.0  0.73993  0.21669  0.03239  1.0000
  C   C582      1.0  0.75485  0.20943  0.03423  1.0000
  C   C583      1.0  0.77657  0.22381  0.03720  1.0000
  C   C584      1.0  0.71141  0.17548  0.14657  1.0000
  C   C585      1.0  0.78386  0.24570  0.03762  1.0000
  H   H697      1.0  0.74971  0.19276  0.03347  1.0000
  H   H698      1.0  0.78786  0.21792  0.03936  1.0000
  H   H699      1.0  0.69892  0.15892  0.14873  1.0000
  H   H700      1.0  0.70737  0.18506  0.16963  1.0000
  H   H701      1.0  0.73055  0.21470  0.13486  1.0000
  C   C586      1.0  0.74972  0.19955  0.15389  1.0000
  C   C587      1.0  0.77097  0.20420  0.16193  1.0000
  H   H702      1.0  0.75094  0.16318  0.13234  1.0000
  H   H703      1.0  0.71024  0.18016  0.11263  1.0000
  H   H704      1.0  0.67465  0.00770  0.72399  1.0000
  C   C588      1.0  0.78745  0.22454  0.15832  1.0000
  H   H705      1.0  0.71919  0.15415  0.20523  1.0000
  C   C589      1.0  0.73605  0.16374  0.12541  1.0000
  C   C590      1.0  0.74602  0.21665  0.14301  1.0000
  C   C591      1.0  0.76262  0.23697  0.14016  1.0000
  H   H706      1.0  0.73660  0.16908  0.09138  1.0000
  H   H707      1.0  0.80361  0.22766  0.16303  1.0000
  H   H708      1.0  0.68433  0.07494  0.65922  1.0000
  H   H709      1.0  0.73069  0.18088  0.22621  1.0000
  H   H710      1.0  0.72323  0.14724  0.12616  1.0000
  H   H711      1.0  0.74708  0.16949  0.21027  1.0000
  C   C592      1.0  0.73243  0.17027  0.20156  1.0000
  H   H712      1.0  0.77506  0.19206  0.17021  1.0000
  C   C593      1.0  0.78328  0.24088  0.14734  1.0000
  C   C594      1.0  0.66730  0.06500  0.65099  1.0000
  H   H713      1.0  0.67137  0.09029  0.72086  1.0000
  Fe  Fe79      1.0  0.67096  0.11874  0.99231  1.0000
  C   C595      1.0  0.67338  0.02137  0.73556  1.0000
  H   H714      1.0  0.67988  0.05060  0.82845  1.0000
  S   S155      1.0  0.66890  0.11466  0.15786  1.0000
  S   S156      1.0  0.67312  0.09392  0.94907  1.0000
  C   C596      1.0  0.66579  0.03142  0.70725  1.0000
  Fe  Fe80      1.0  0.66756  0.12594  0.08978  1.0000
  H   H715      1.0  0.68402  0.02025  0.80114  1.0000
  C   C597      1.0  0.67624  0.04545  0.79434  1.0000
  C   C598      1.0  0.67858  0.02836  0.77903  1.0000
  S   S157      1.0  0.66643  0.14639  0.97358  1.0000
  C   C599      1.0  0.66872  0.05566  0.76631  1.0000
  H   H716      1.0  0.75953  0.24964  0.13023  1.0000
  H   H717      1.0  0.66551  0.05107  0.63135  1.0000
  Fe  Fe81      1.0  0.83189  0.46068  0.09007  1.0000
  S   S158      1.0  0.82852  0.47113  0.02334  1.0000
  S   S159      1.0  0.81847  0.42663  0.10727  1.0000
  H   H718      1.0  0.88010  0.44373  0.96931  1.0000
  C   C600      1.0  0.99098  0.38707  0.51319  1.0000
  S   S160      1.0  0.82177  0.48184  0.12595  1.0000
  C   C601      1.0  0.97559  0.48921  0.46821  1.0000
  Fe  Fe82      1.0  0.86983  0.33579  0.09449  1.0000
  S   S161      1.0  0.88219  0.35498  0.03525  1.0000
  S   S162      1.0  0.88548  0.35438  0.15751  1.0000
  Fe  Fe83      1.0  0.83506  0.29835  0.04065  1.0000
  S   S163      1.0  0.84532  0.31542  0.97734  1.0000
  Fe  Fe84      1.0  0.87847  0.32566  0.00134  1.0000
  S   S164      1.0  0.90442  0.32541  0.96010  1.0000
  Fe  Fe85      1.0  0.84844  0.34381  0.01607  1.0000
  S   S165      1.0  0.84334  0.36967  0.98659  1.0000
  S   S166      1.0  0.86853  0.30689  0.06234  1.0000
  S   S167      1.0  0.83587  0.32632  0.07767  1.0000
  H   H719      1.0  0.97395  0.47912  0.30790  1.0000
  H   H720      1.0  0.90225  0.29921  0.85136  1.0000
  C   C602      1.0  0.99579  0.38642  0.59274  1.0000
  H   H721      1.0  0.93107  0.32198  0.12590  1.0000
  H   H722      1.0  0.96952  0.40039  0.18345  1.0000
  H   H723      1.0  0.93843  0.50000  0.92929  1.0000
  H   H724      1.0  0.94175  0.46551  0.35283  1.0000
  C   C603      1.0  0.98771  0.46736  0.35575  1.0000
  Fe  Fe86      1.0  0.98805  0.40493  0.79984  1.0000
  S   S168      1.0  0.96211  0.40242  0.84421  1.0000
  H   H725      1.0  0.95546  0.34340  0.70106  1.0000
  Fe  Fe87      1.0  0.67602  0.48990  0.07948  1.0000
  S   S169      1.0  0.96848  0.44132  0.34719  1.0000
  Fe  Fe88      1.0  0.97998  0.37988  0.31001  1.0000
  C   C604      1.0  0.91619  0.33623  0.77239  1.0000
  S   S170      1.0  0.95799  0.35008  0.27167  1.0000
  H   H726      1.0  0.92508  0.44162  0.85086  1.0000
  C   C605      1.0  0.91560  0.31949  0.79711  1.0000
  S   S171      1.0  0.97448  0.39085  0.37576  1.0000
  S   S172      1.0  0.86613  0.48309  0.09840  1.0000
  H   H727      1.0  0.90173  0.40964  0.88654  1.0000
  C   C606      1.0  0.74376  0.48788  0.11027  1.0000
  H   H728      1.0  0.95500  0.37501  0.71657  1.0000
  S   S173      1.0  0.98743  0.40979  0.27751  1.0000
  C   C607      1.0  0.98000  0.36030  0.11637  1.0000
  S   S174      1.0  0.81154  0.26299  0.04457  1.0000
  H   H729      1.0  0.87918  0.31439  0.87162  1.0000
  C   C608      1.0  0.96059  0.36052  0.10890  1.0000
  H   H730      1.0  0.91724  0.34632  0.10194  1.0000
  H   H731      1.0  0.96702  0.34295  0.03402  1.0000
  C   C609      1.0  0.93741  0.32363  0.09260  1.0000
  C   C610      1.0  0.90243  0.34435  0.78476  1.0000
  Fe  Fe89      1.0  0.86239  0.49548  0.03380  1.0000
  H   H732      1.0  0.95211  0.37158  0.77462  1.0000
  H   H733      1.0  0.93408  0.37673  0.74288  1.0000
  C   C611      1.0  0.95726  0.37551  0.13388  1.0000
  H   H734      1.0  0.89948  0.45441  0.37909  1.0000
  C   C612      1.0  0.94337  0.36805  0.74263  1.0000
  H   H735      1.0  0.90730  0.34904  0.69535  1.0000
  C   C613      1.0  0.90455  0.35186  0.19064  1.0000
  C   C614      1.0  0.90889  0.33497  0.18548  1.0000
  C   C615      1.0  0.92511  0.33437  0.21096  1.0000
  C   C616      1.0  0.93714  0.35069  0.24145  1.0000
  C   C617      1.0  0.93233  0.36721  0.24747  1.0000
  C   C618      1.0  0.91594  0.36760  0.22262  1.0000
  H   H736      1.0  0.89964  0.32230  0.16220  1.0000
  H   H737      1.0  0.92838  0.32126  0.20715  1.0000
  H   H738      1.0  0.94100  0.37949  0.27190  1.0000
  H   H739      1.0  0.91199  0.38011  0.22860  1.0000
  C   C619      1.0  0.94646  0.38081  0.87632  1.0000
  C   C620      1.0  0.94991  0.36334  0.87930  1.0000
  C   C621      1.0  0.93711  0.34661  0.90565  1.0000
  C   C622      1.0  0.92072  0.34715  0.92889  1.0000
  C   C623      1.0  0.91750  0.36476  0.92631  1.0000
  C   C624      1.0  0.93036  0.38152  0.90025  1.0000
  H   H740      1.0  0.96230  0.36263  0.86117  1.0000
  H   H741      1.0  0.93965  0.33300  0.90737  1.0000
  H   H742      1.0  0.90489  0.36533  0.94389  1.0000
  H   H743      1.0  0.92769  0.39504  0.89832  1.0000
  H   H744      1.0  0.92470  0.31171  0.07063  1.0000
  H   H745      1.0  0.90189  0.35699  0.76747  1.0000
  C   C625      1.0  0.97261  0.38951  0.16382  1.0000
  H   H746      1.0  0.94200  0.33562  0.00924  1.0000
  C   C626      1.0  0.96937  0.44174  0.50949  1.0000
  N   N41       1.0  0.94464  0.34523  0.07730  1.0000
  C   C627      1.0  0.82472  0.41059  0.07287  1.0000
  C   C628      1.0  0.82152  0.39097  0.08707  1.0000
  C   C629      1.0  0.82741  0.37837  0.06116  1.0000
  C   C630      1.0  0.83597  0.38508  0.02032  1.0000
  C   C631      1.0  0.83878  0.40451  0.00579  1.0000
  C   C632      1.0  0.83347  0.41738  0.03221  1.0000
  H   H747      1.0  0.81471  0.38561  0.11846  1.0000
  H   H748      1.0  0.82499  0.36332  0.07243  1.0000
  H   H749      1.0  0.84509  0.40964  0.97397  1.0000
  H   H750      1.0  0.83604  0.43248  0.02096  1.0000
  H   H751      1.0  0.87902  0.41012  0.94547  1.0000
  N   N42       1.0  0.88686  0.41737  0.13603  1.0000
  C   C633      1.0  0.87915  0.43184  0.11945  1.0000
  C   C634      1.0  0.89131  0.40744  0.09735  1.0000
  C   C635      1.0  0.86968  0.40072  0.16006  1.0000
  C   C636      1.0  0.90575  0.42794  0.16549  1.0000
  C   C637      1.0  0.91624  0.41674  0.18063  1.0000
  C   C638      1.0  0.91369  0.44905  0.18161  1.0000
  C   C639      1.0  0.93357  0.42601  0.20991  1.0000
  C   C640      1.0  0.93111  0.45821  0.21079  1.0000
  S   S175      1.0  0.70635  0.48960  0.10439  1.0000
  H   H752      1.0  0.89156  0.44512  0.10209  1.0000
  H   H753      1.0  0.86572  0.42371  0.09565  1.0000
  H   H754      1.0  0.87320  0.43819  0.14609  1.0000
  H   H755      1.0  0.90518  0.41907  0.08009  1.0000
  H   H756      1.0  0.87772  0.40053  0.07334  1.0000
  H   H757      1.0  0.89421  0.39412  0.10609  1.0000
  H   H758      1.0  0.85511  0.39234  0.13919  1.0000
  H   H759      1.0  0.87385  0.38852  0.17130  1.0000
  H   H760      1.0  0.86573  0.40737  0.18943  1.0000
  H   H761      1.0  0.91082  0.40053  0.17055  1.0000
  H   H762      1.0  0.90667  0.45882  0.17244  1.0000
  H   H763      1.0  0.94115  0.41702  0.22155  1.0000
  H   H764      1.0  0.92762  0.47611  0.32391  1.0000
  C   C641      1.0  0.94575  0.49702  0.90030  1.0000
  C   C642      1.0  0.73015  0.49182  0.08283  1.0000
  H   H765      1.0  0.90312  0.47628  0.93491  1.0000
  C   C643      1.0  0.95382  0.34681  0.03370  1.0000
  H   H766      1.0  0.97205  0.43059  0.44521  1.0000
  H   H767      1.0  0.95631  0.49070  0.91218  1.0000
  C   C644      1.0  0.90222  0.31167  0.83219  1.0000
  Fe  Fe90      1.0  0.98489  0.42160  0.34363  1.0000
  C   C645      1.0  0.94096  0.44668  0.22499  1.0000
  C   C646      1.0  0.91552  0.44294  0.87620  1.0000
  N   N43       1.0  0.93022  0.34508  0.73523  1.0000
  C   C647      1.0  0.88914  0.32019  0.84369  1.0000
  H   H768      1.0  0.87919  0.34322  0.82961  1.0000
  H   H769      1.0  0.95499  0.33851  0.75805  1.0000
  H   H770      1.0  0.91428  0.33680  0.04734  1.0000
  H   H771      1.0  0.72592  0.50093  0.01851  1.0000
  H   H772      1.0  0.90700  0.32415  0.68794  1.0000
  C   C648      1.0  0.88924  0.33650  0.82006  1.0000
  H   H773      1.0  0.91538  0.49337  0.22631  1.0000
  Fe  Fe91      1.0  0.82037  0.49389  0.05955  1.0000
  H   H774      1.0  0.95135  0.49524  0.81495  1.0000
  C   C649      1.0  0.94147  0.47993  0.83015  1.0000
  C   C650      1.0  0.88942  0.42460  0.92997  1.0000
  H   H775      1.0  0.95429  0.44098  0.50167  1.0000
  C   C651      1.0  0.90221  0.42437  0.89665  1.0000
  N   N44       1.0  0.92917  0.48157  0.39428  1.0000
  C   C652      1.0  0.94472  0.33597  0.72850  1.0000
  H   H776      1.0  0.93603  0.31888  0.71988  1.0000
  C   C653      1.0  0.91745  0.34125  0.69428  1.0000
  H   H777      1.0  0.98703  0.48346  0.47000  1.0000
  H   H778      1.0  0.94272  0.37640  0.13197  1.0000
  H   H779      1.0  0.92545  0.31227  0.79041  1.0000
  C   C654      1.0  0.89000  0.44346  0.94329  1.0000
  H   H780      1.0  0.99088  0.47261  0.84882  1.0000
  H   H781      1.0  0.92758  0.34739  0.66547  1.0000
  H   H782      1.0  0.93003  0.36426  0.05889  1.0000
  N   N45       1.0  0.75966  0.43083  0.04292  1.0000
  C   C655      1.0  0.75396  0.40827  0.04530  1.0000
  C   C656      1.0  0.77006  0.43834  0.00077  1.0000
  C   C657      1.0  0.77531  0.44264  0.07847  1.0000
  C   C658      1.0  0.74076  0.43370  0.04829  1.0000
  C   C659      1.0  0.73365  0.44324  0.01646  1.0000
  C   C660      1.0  0.72906  0.42723  0.08686  1.0000
  C   C661      1.0  0.71590  0.44594  0.02303  1.0000
  C   C662      1.0  0.71148  0.43024  0.09327  1.0000
  C   C663      1.0  0.70493  0.43960  0.06142  1.0000
  H   H783      1.0  0.74168  0.39870  0.01997  1.0000
  H   H784      1.0  0.76784  0.40559  0.04035  1.0000
  H   H785      1.0  0.74792  0.40184  0.07765  1.0000
  H   H786      1.0  0.78409  0.43578  0.99765  1.0000
  H   H787      1.0  0.77585  0.45555  0.99787  1.0000
  H   H788      1.0  0.75930  0.42990  0.97236  1.0000
  H   H789      1.0  0.77961  0.45959  0.07833  1.0000
  H   H790      1.0  0.76957  0.43689  0.11138  1.0000
  H   H791      1.0  0.78996  0.44126  0.07493  1.0000
  H   H792      1.0  0.74178  0.44926  0.98665  1.0000
  H   H793      1.0  0.73364  0.42011  0.11275  1.0000
  H   H794      1.0  0.71101  0.45372  0.99892  1.0000
  H   H795      1.0  0.70307  0.42568  0.12339  1.0000
  H   H796      1.0  0.69167  0.44249  0.06699  1.0000
  N   N46       1.0  0.92993  0.48240  0.86763  1.0000
  C   C664      1.0  0.94521  0.48934  0.43056  1.0000
  H   H797      1.0  0.98335  0.34887  0.09991  1.0000
  H   H798      1.0  0.93696  0.47434  0.22268  1.0000
  C   C665      1.0  0.91622  0.46241  0.88856  1.0000
  C   C666      1.0  0.90320  0.46208  0.92310  1.0000
  H   H799      1.0  0.73937  0.48331  0.14344  1.0000
  H   H800      1.0  0.95954  0.36283  0.02106  1.0000
  C   C667      1.0  0.97933  0.43591  0.47759  1.0000
  C   C668      1.0  0.92586  0.34845  0.07127  1.0000
  H   H801      1.0  0.97007  0.45273  0.57438  1.0000
  C   C669      1.0  0.91195  0.46089  0.40548  1.0000
  C   C670      1.0  0.76304  0.48991  0.09542  1.0000
  H   H802      1.0  0.96574  0.37401  0.55845  1.0000
  S   S176      1.0  0.98998  0.41822  0.73349  1.0000
  H   H803      1.0  0.95027  0.31926  0.09424  1.0000
  C   C671      1.0  0.97869  0.44849  0.55133  1.0000
  H   H804      1.0  0.90458  0.48142  0.82747  1.0000
  C   C672      1.0  0.98258  0.38179  0.55517  1.0000
  H   H805      1.0  0.98061  0.38334  0.48465  1.0000
  C   C673      1.0  0.93832  0.47902  0.35289  1.0000
  C   C674      1.0  0.98628  0.48311  0.33256  1.0000
  S   S177      1.0  0.98453  0.37925  0.64511  1.0000
  H   H806      1.0  0.95428  0.45367  0.24799  1.0000
  H   H807      1.0  0.90949  0.49652  0.87749  1.0000
  C   C675      1.0  0.75546  0.49991  0.02522  1.0000
  H   H808      1.0  0.77322  0.48693  0.11724  1.0000
  H   H809      1.0  0.77415  0.26967  0.03491  1.0000
  H   H810      1.0  0.91777  0.44922  0.41033  1.0000
  C   C676      1.0  0.91718  0.49219  0.85100  1.0000
  H   H811      1.0  0.90456  0.46207  0.43628  1.0000
  H   H812      1.0  0.95873  0.46856  0.41472  1.0000
  H   H813      1.0  0.95262  0.47407  0.84061  1.0000
  C   C677      1.0  0.92011  0.49597  0.38561  1.0000
  H   H814      1.0  0.98813  0.42189  0.98762  1.0000
  H   H815      1.0  0.93053  0.46921  0.80403  1.0000
  C   C678      1.0  0.95951  0.48107  0.43595  1.0000
  H   H816      1.0  0.98009  0.40861  0.93553  1.0000
  H   H817      1.0  0.95313  0.49348  0.34659  1.0000
  S   S178      1.0  0.88996  0.50025  0.99244  1.0000
  H   H818      1.0  0.98407  0.39517  0.97990  1.0000
  H   H819      1.0  0.99361  0.47452  0.62751  1.0000
  H   H820      1.0  0.90968  0.49106  0.35563  1.0000
  C   C679      1.0  0.76910  0.49606  0.05275  1.0000
  C   C680      1.0  0.99523  0.37441  0.14636  1.0000
  S   S179      1.0  0.79359  0.49962  0.03230  1.0000
  C   C681      1.0  0.73612  0.49778  0.04003  1.0000
  C   C682      1.0  0.99615  0.46120  0.63816  1.0000
  C   C683      1.0  0.99031  0.41080  0.96508  1.0000
  H   H821      1.0  0.88618  0.49545  0.18664  1.0000
  C   C684      1.0  0.99156  0.38900  0.16996  1.0000
  H   H822      1.0  0.98073  0.44726  0.64331  1.0000
  H   H823      1.0  0.91028  0.49652  0.41261  1.0000
  S   S180      1.0  0.99649  0.38037  0.77553  1.0000
  C   C685      1.0  0.76895  0.25296  0.03461  1.0000
  H   H824      1.0  0.79612  0.25648  0.14292  1.0000
  H   H825      1.0  0.99748  0.42440  0.62616  1.0000
  C   C686      1.0  0.99839  0.44941  0.56246  1.0000
  C   C687      1.0  0.76633  0.53817  0.16774  1.0000
  S   S181      1.0  0.85426  0.51932  0.06398  1.0000
  H   H826      1.0  0.98971  0.62745  0.62832  1.0000
  S   S182      1.0  0.87261  0.52767  0.18621  1.0000
  Fe  Fe92      1.0  0.85613  0.50544  0.12806  1.0000
  H   H827      1.0  0.92696  0.50709  0.83417  1.0000
  H   H828      1.0  0.82339  0.54214  0.06495  1.0000
  S   S183      1.0  0.97234  0.53946  0.77347  1.0000
  H   H829      1.0  0.76119  0.54571  0.06027  1.0000
  H   H830      1.0  0.95763  0.56787  0.57034  1.0000
  H   H831      1.0  0.96505  0.62517  0.44030  1.0000
  Fe  Fe93      1.0  0.96737  0.56224  0.81703  1.0000
  S   S184      1.0  0.93402  0.55559  0.83099  1.0000
  C   C688      1.0  0.78928  0.54793  0.09157  1.0000
  H   H832      1.0  0.99000  0.51170  0.52175  1.0000
  S   S185      1.0  0.98197  0.53624  0.39147  1.0000
  Fe  Fe94      1.0  0.99563  0.54247  0.82621  1.0000
  H   H833      1.0  0.81388  0.52420  0.17884  1.0000
  H   H834      1.0  0.84795  0.55688  0.09361  1.0000
  H   H835      1.0  0.79686  0.55088  0.06057  1.0000
  Fe  Fe95      1.0  0.97458  0.54662  0.32778  1.0000
  S   S186      1.0  0.94756  0.52110  0.28687  1.0000
  H   H836      1.0  0.96892  0.60244  0.44336  1.0000
  H   H837      1.0  0.95588  0.51258  0.88629  1.0000
  H   H838      1.0  0.82813  0.56152  0.19962  1.0000
  C   C689      1.0  0.82022  0.52896  0.14585  1.0000
  C   C690      1.0  0.89021  0.52275  0.91989  1.0000
  C   C691      1.0  0.99382  0.58344  0.00664  1.0000
  H   H839      1.0  0.74092  0.53694  0.12750  1.0000
  H   H840      1.0  0.93274  0.51219  0.38010  1.0000
  C   C692      1.0  0.76866  0.54498  0.09082  1.0000
  H   H841      1.0  0.85042  0.56834  0.16723  1.0000
  H   H842      1.0  0.93640  0.51180  0.46154  1.0000
  Fe  Fe96      1.0  0.98865  0.56753  0.42043  1.0000
  C   C693      1.0  0.89377  0.52608  0.21345  1.0000
  C   C694      1.0  0.90755  0.54259  0.24194  1.0000
  C   C695      1.0  0.92435  0.54154  0.26426  1.0000
  C   C696      1.0  0.92727  0.52378  0.25868  1.0000
  S   S187      1.0  0.97873  0.57704  0.35793  1.0000
  H   H843      1.0  0.97174  0.56844  0.64550  1.0000
  H   H844      1.0  0.90531  0.55631  0.24657  1.0000
  H   H845      1.0  0.93490  0.55437  0.28592  1.0000
  C   C697      1.0  0.98324  0.63821  0.52304  1.0000
  C   C698      1.0  0.83384  0.56560  0.16598  1.0000
  C   C699      1.0  0.90195  0.51913  0.95236  1.0000
  C   C700      1.0  0.89679  0.50838  0.20792  1.0000
  C   C701      1.0  0.90029  0.53463  0.88352  1.0000
  C   C702      1.0  0.92210  0.54287  0.87934  1.0000
  C   C703      1.0  0.93383  0.53993  0.91284  1.0000
  C   C704      1.0  0.92381  0.52814  0.94907  1.0000
  H   H846      1.0  0.79323  0.53928  0.19988  1.0000
  H   H847      1.0  0.89106  0.53687  0.85786  1.0000
  H   H848      1.0  0.95057  0.54643  0.91064  1.0000
  H   H849      1.0  0.87330  0.51563  0.92173  1.0000
  H   H850      1.0  0.97460  0.64458  0.50507  1.0000
  S   S188      1.0  0.66832  0.51641  0.09479  1.0000
  S   S189      1.0  0.99204  0.59083  0.78445  1.0000
  H   H851      1.0  0.67016  0.58387  0.69637  1.0000
  S   S190      1.0  0.97413  0.56955  0.48486  1.0000
  H   H852      1.0  0.83400  0.58071  0.15845  1.0000
  N   N47       1.0  0.82081  0.54891  0.13299  1.0000
  C   C705      1.0  0.78699  0.54127  0.16900  1.0000
  C   C706      1.0  0.91335  0.50720  0.23062  1.0000
  C   C707      1.0  0.79915  0.54627  0.13093  1.0000
  C   C708      1.0  0.97285  0.56850  0.57477  1.0000
  C   C709      1.0  0.83160  0.55470  0.09076  1.0000
  C   C710      1.0  0.98449  0.56922  0.53789  1.0000
  H   H853      1.0  0.83272  0.56967  0.07908  1.0000
  H   H854      1.0  0.96406  0.52496  0.51749  1.0000
  S   S191      1.0  0.98915  0.56332  0.87137  1.0000
  H   H855      1.0  0.83619  0.53013  0.14687  1.0000
  C   C711      1.0  0.98081  0.56883  0.61747  1.0000
  C   C712      1.0  0.75719  0.54004  0.12873  1.0000
  H   H856      1.0  0.97788  0.57526  0.06729  1.0000
  H   H857      1.0  0.75711  0.53383  0.19687  1.0000
  C   C713      1.0  0.94677  0.50482  0.46216  1.0000
  C   C714      1.0  0.99284  0.58415  0.05202  1.0000
  C   C715      1.0  0.96268  0.51257  0.49481  1.0000
  H   H858      1.0  0.75993  0.50471  0.99218  1.0000
  S   S192      1.0  0.99535  0.51398  0.85442  1.0000
  C   C716      1.0  0.99164  0.62871  0.59329  1.0000
  H   H859      1.0  0.81019  0.51599  0.12225  1.0000
  C   C717      1.0  0.98118  0.63710  0.56839  1.0000
  H   H860      1.0  0.97119  0.64250  0.58430  1.0000
  C   C718      1.0  0.97606  0.61892  0.43231  1.0000
  H   H861      1.0  0.97972  0.57409  0.98666  1.0000
  H   H862      1.0  0.97661  0.61824  0.39597  1.0000
  H   H863      1.0  0.93300  0.52552  0.97421  1.0000
  C   C719      1.0  0.99586  0.63085  0.50119  1.0000
  H   H864      1.0  0.99509  0.66047  0.44715  1.0000
  N   N48       1.0  0.99727  0.63167  0.45296  1.0000
  C   C720      1.0  0.97728  0.50507  0.49735  1.0000
