data_image0
_chemical_formula_structural       SFeCSFeS2CFeHS2HSFeS2FeSFeCSCH2CHC2HCH4C2HC4SH4C2H3C5H3CNCNHCHC7H4CHCH4CSC2H2CHCH2CHC4HC2HSH2CHNC3H2CH5CSHSC2H2C4H3C2HCH2C3HC2H2NC2H2CH3NCH2CHSFeS2FeSHSCHFeSFeSCHFeSHSFeS2HSFeSFeHSFeS2HSHFeSHSHC2HFeC5H2C5SH2SHC6H4C6H4C5HCH3FeHSH5CHC2H4C3H2NC2HC3SCHSH2SH3C5HC2HCNCHCSC3H4C2H2Fe2S2HSFeSFeSCS3FeSCHSFeSFeS2H2CSC6H4C4HCH4C6H12NHNH2C4HCH2C3FeSH3C3HSHCH2CNCSC5H2CH3CHCHFeC2H2C2H2C2HNC3H7C2HC3H5CH4SC2H3CH2CH2CHNCH2C2HCH3CFeSHSFeSFeS3CSFeS2FeS2FeSHSCSHC6H4C6H2CHC2H3C6H4C4H2CHCH5CSH3CH3C2H4CHFeSC2HNH2CHCH2C2HCH2CHCH3NHCH2NH3CHNCFeH2CHC3HFeHCH2SFeS2FeSFeSFeSHS3HFeS2FeS2FeSFeS3CSC7H4C6H4C3H2C6H4C2HSH2C5H2CHNC7H13C2HC5H3CH5CHCHNCHCNCH6CHNCH2CHCHC2NC3HCH2CHCH3C2HCH2C3H4CHCH2C2NHCHCH2C4H2CH3C2H4NC2HCH4CHCH4CH6C2H5CHC3H7CH3CHC2HCHC2HSFeS2FeS2FeSFeS4HFeSFeS2FeSFeS2C2HCH3C3SCHCH2C4HC6H4CHC2H2C6H4C6NH3SH5CHNFeHCHCH5C2H2CH2NC2H2C2HCH6CHCH2CH3CHCH2C3NHCNC9H13CH2CHC3H3C2HCH3CHCH4SHNC2HCHC2HC2H2NHCHC6H6CH3CH2C2HCHC3FeHCHCNH3CHC2H3CHCH2CHC2H5CH2CHCH3CH3CSFeS2FeS2Fe2S3CSFeS2FeSFe2S2C4H3C4H3C6H4CH3C2HCH2C6H4SC2H2SH9CH3C3H3CH3CH2CHC2FeC5HCH2NH3CH2C2H4CHCHC3FeH2N3CNC2HCH2C3HC2H2CH2C2HCH4CH4CNH3CHCHC2H3CHC2H2SCH2CHC2H2FeS2FeS2FeSFeHS2H2FeS2FeSFeHFeS2CHC5H4C6H4C6H7C4H3NC3HCHCH3C2HCH5CHC5HCHCH2C4HSH3SHSCH3CSH4CH3C2HCHNH2C2H2CH5CNC2NCSC2HC2HC2H7CH3CH3C2HCH2FeSHFeHCFeCSHC2FeS2FeSFeS3FeS2FeS2Fe2S3FeS2FeSFe2S2H3C6H7C6H4CHCH2C6H2CHSC2SHCH3CHC2NCH2C2HSCH2NC3H2C3HCH5CHCH2SHSCHCH3CH7CH2CH3SH5CHCH4C2HCH4CFeC2HCHC2HNSFeS2FeSFeSFeS3FeS2FeS2FeSFeS4C6H8C2HC8H7CHC4H2NHCHC7H6CH7C3H4C2H6CHCH3CH2NHCH2FeC3H3NC2H2CHC2HCHCHCHC2HNCHCH2C2HSCH3C2H5CH3CH
_chemical_formula_sum              "S192 Fe96 C720 H864 N48"
_cell_length_a       53.8271
_cell_length_b       53.984
_cell_length_c       48.0511
_cell_angle_alpha    90.2881
_cell_angle_beta     89.9417
_cell_angle_gamma    120.022

_space_group_name_H-M_alt    "P 1"
_space_group_IT_number       1

loop_
  _space_group_symop_operation_xyz
  'x, y, z'

loop_
  _atom_site_type_symbol
  _atom_site_label
  _atom_site_symmetry_multiplicity
  _atom_site_fract_x
  _atom_site_fract_y
  _atom_site_fract_z
  _atom_site_occupancy
  S   S1        1.0  0.44332  0.07322  0.30061  1.0000
  Fe  Fe1       1.0  0.44799  0.11516  0.13720  1.0000
  C   C1        1.0  0.38058  0.11961  0.20762  1.0000
  S   S2        1.0  0.44578  0.12807  0.18231  1.0000
  Fe  Fe2       1.0  0.42669  0.08241  0.08101  1.0000
  S   S3        1.0  0.46269  0.11764  0.05723  1.0000
  S   S4        1.0  0.39662  0.03869  0.06083  1.0000
  C   C2        1.0  0.37195  0.12920  0.25481  1.0000
  Fe  Fe3       1.0  0.45543  0.14833  0.08318  1.0000
  H   H1        1.0  0.99321  0.44876  0.11052  1.0000
  S   S5        1.0  0.45484  0.08166  0.11568  1.0000
  S   S6        1.0  0.41661  0.11307  0.10457  1.0000
  H   H2        1.0  0.33529  0.11069  0.30007  1.0000
  S   S7        1.0  0.45994  0.40166  0.11875  1.0000
  Fe  Fe4       1.0  0.44234  0.32317  0.10758  1.0000
  S   S8        1.0  0.41400  0.33542  0.13152  1.0000
  S   S9        1.0  0.42304  0.27480  0.11006  1.0000
  Fe  Fe5       1.0  0.42204  0.36624  0.09621  1.0000
  S   S10       1.0  0.38752  0.37304  0.07547  1.0000
  Fe  Fe6       1.0  0.45473  0.36948  0.15145  1.0000
  C   C3        1.0  0.44414  0.25753  0.20553  1.0000
  S   S11       1.0  0.44752  0.35166  0.07120  1.0000
  C   C4        1.0  0.44197  0.24399  0.17943  1.0000
  H   H3        1.0  0.38483  0.12573  0.18590  1.0000
  H   H4        1.0  0.40411  0.21586  0.12030  1.0000
  C   C5        1.0  0.00471  0.45091  0.09057  1.0000
  H   H5        1.0  0.07034  0.40776  0.02233  1.0000
  C   C6        1.0  0.03779  0.39507  0.05429  1.0000
  C   C7        1.0  0.00828  0.38062  0.06052  1.0000
  H   H6        1.0  0.36873  0.14308  0.26879  1.0000
  C   C8        1.0  0.44278  0.21849  0.17763  1.0000
  H   H7        1.0  0.05325  0.40367  0.07109  1.0000
  H   H8        1.0  0.02450  0.47230  0.09082  1.0000
  H   H9        1.0  0.31770  0.25543  0.05277  1.0000
  H   H10       1.0  0.40794  0.29539  0.03730  1.0000
  C   C9        1.0  0.03576  0.33071  0.04733  1.0000
  C   C10       1.0  0.45306  0.36991  0.23004  1.0000
  H   H11       1.0  0.37749  0.15628  0.21969  1.0000
  C   C11       1.0  0.45839  0.36970  0.28082  1.0000
  C   C12       1.0  0.42855  0.35439  0.28412  1.0000
  C   C13       1.0  0.41113  0.34670  0.26015  1.0000
  C   C14       1.0  0.42326  0.35430  0.23327  1.0000
  S   S12       1.0  0.48285  0.35620  0.12872  1.0000
  H   H12       1.0  0.43766  0.31524  0.18443  1.0000
  H   H13       1.0  0.38803  0.33500  0.26245  1.0000
  H   H14       1.0  0.40949  0.34846  0.21516  1.0000
  H   H15       1.0  0.45158  0.12914  0.28436  1.0000
  C   C15       1.0  0.36496  0.38798  0.03112  1.0000
  C   C16       1.0  0.38586  0.38117  0.03968  1.0000
  H   H16       1.0  0.44969  0.25330  0.24995  1.0000
  H   H17       1.0  0.35019  0.38812  0.04631  1.0000
  H   H18       1.0  0.42097  0.37592  0.02578  1.0000
  C   C17       1.0  0.45406  0.21430  0.07791  1.0000
  C   C18       1.0  0.43137  0.20482  0.09678  1.0000
  C   C19       1.0  0.42219  0.22367  0.10627  1.0000
  C   C20       1.0  0.43607  0.25238  0.09767  1.0000
  C   C21       1.0  0.45919  0.26208  0.07926  1.0000
  H   H19       1.0  0.01829  0.32273  0.08782  1.0000
  H   H20       1.0  0.42039  0.18274  0.10345  1.0000
  H   H21       1.0  0.43959  0.25262  0.16004  1.0000
  C   C22       1.0  0.44717  0.44679  0.04605  1.0000
  N   N1        1.0  0.36301  0.28076  0.04375  1.0000
  C   C23       1.0  0.39291  0.02688  0.02540  1.0000
  N   N2        1.0  0.36604  0.09640  0.29451  1.0000
  H   H22       1.0  0.44105  0.20849  0.15751  1.0000
  C   C24       1.0  0.42011  0.28043  0.22766  1.0000
  H   H23       1.0  0.42382  0.27585  0.24929  1.0000
  C   C25       1.0  0.38721  0.27514  0.04025  1.0000
  C   C26       1.0  0.44559  0.08942  0.26783  1.0000
  C   C27       1.0  0.44930  0.11690  0.26572  1.0000
  C   C28       1.0  0.44987  0.12853  0.23936  1.0000
  C   C29       1.0  0.44723  0.11310  0.21476  1.0000
  C   C30       1.0  0.44423  0.08589  0.21685  1.0000
  C   C31       1.0  0.44329  0.07410  0.24326  1.0000
  H   H24       1.0  0.32026  0.07414  0.28888  1.0000
  H   H25       1.0  0.04104  0.45402  0.05481  1.0000
  H   H26       1.0  0.44198  0.07368  0.19815  1.0000
  H   H27       1.0  0.37479  0.28953  0.08727  1.0000
  C   C32       1.0  0.37961  0.09464  0.21648  1.0000
  H   H28       1.0  0.41811  0.29997  0.22916  1.0000
  C   C33       1.0  0.44575  0.20572  0.20153  1.0000
  H   H29       1.0  0.44626  0.18587  0.19993  1.0000
  H   H30       1.0  0.05735  0.34487  0.05486  1.0000
  H   H31       1.0  0.32522  0.30087  0.03910  1.0000
  H   H32       1.0  0.39005  0.26458  0.05890  1.0000
  C   C34       1.0  0.37661  0.99737  0.01936  1.0000
  S   S13       1.0  0.41204  0.34472  0.31756  1.0000
  C   C35       1.0  0.37672  0.13686  0.22673  1.0000
  C   C36       1.0  0.33713  0.09118  0.30223  1.0000
  H   H33       1.0  0.39900  0.26251  0.22058  1.0000
  H   H34       1.0  0.45206  0.14952  0.23800  1.0000
  C   C37       1.0  0.47541  0.45442  0.04004  1.0000
  H   H35       1.0  0.47174  0.32825  0.22122  1.0000
  C   C38       1.0  0.47051  0.37752  0.25397  1.0000
  H   H36       1.0  0.45388  0.03043  0.07872  1.0000
  H   H37       1.0  0.41865  0.06858  0.00747  1.0000
  C   C39       1.0  0.47117  0.30735  0.21966  1.0000
  H   H38       1.0  0.46996  0.28405  0.07231  1.0000
  C   C40       1.0  0.99845  0.37157  0.01079  1.0000
  C   C41       1.0  0.38770  0.12014  0.31196  1.0000
  C   C42       1.0  0.03078  0.32668  0.01880  1.0000
  C   C43       1.0  0.02885  0.45371  0.03685  1.0000
  H   H39       1.0  0.33114  0.23911  0.02912  1.0000
  C   C44       1.0  0.37137  0.10413  0.26468  1.0000
  C   C45       1.0  0.37536  0.08700  0.24457  1.0000
  H   H40       1.0  0.47209  0.37579  0.29899  1.0000
  S   S14       1.0  0.46522  0.19092  0.06405  1.0000
  H   H41       1.0  0.38362  0.26048  0.02242  1.0000
  H   H42       1.0  0.35065  0.05108  0.29035  1.0000
  C   C46       1.0  0.36881  0.29844  0.06927  1.0000
  H   H43       1.0  0.01090  0.43408  0.09111  1.0000
  N   N3        1.0  0.44340  0.28455  0.20832  1.0000
  C   C47       1.0  0.44815  0.21852  0.22740  1.0000
  C   C48       1.0  0.36733  0.07029  0.30162  1.0000
  C   C49       1.0  0.04155  0.45566  0.01091  1.0000
  H   H44       1.0  0.40980  0.12467  0.30712  1.0000
  H   H45       1.0  0.38666  0.32056  0.06569  1.0000
  C   C50       1.0  0.98684  0.44922  0.01366  1.0000
  H   H46       1.0  0.41751  0.27919  0.17196  1.0000
  H   H47       1.0  0.45860  0.05620  0.02166  1.0000
  H   H48       1.0  0.38742  0.14043  0.30946  1.0000
  H   H49       1.0  0.37589  0.06787  0.24995  1.0000
  H   H50       1.0  0.45159  0.99764  0.06652  1.0000
  C   C51       1.0  0.45318  0.01806  0.05979  1.0000
  S   S15       1.0  0.99726  0.37582  0.09620  1.0000
  H   H51       1.0  0.43601  0.43196  0.06286  1.0000
  S   S16       1.0  0.46984  0.38067  0.19684  1.0000
  C   C52       1.0  0.47672  0.01724  0.01692  1.0000
  C   C53       1.0  0.04759  0.39764  0.02657  1.0000
  H   H52       1.0  0.38329  0.08166  0.20154  1.0000
  H   H53       1.0  0.44049  0.05285  0.24463  1.0000
  C   C54       1.0  0.43835  0.29507  0.18158  1.0000
  C   C55       1.0  0.40630  0.04583  0.00336  1.0000
  C   C56       1.0  0.47872  0.06095  0.03249  1.0000
  C   C57       1.0  0.33805  0.30416  0.02071  1.0000
  H   H54       1.0  0.47547  0.30241  0.24094  1.0000
  H   H55       1.0  0.33889  0.24096  0.06579  1.0000
  H   H56       1.0  0.38880  0.07298  0.29680  1.0000
  C   C58       1.0  0.46790  0.24301  0.06920  1.0000
  C   C59       1.0  0.43290  0.45748  0.03012  1.0000
  H   H57       1.0  0.35011  0.30035  0.07607  1.0000
  C   C60       1.0  0.40472  0.38102  0.01968  1.0000
  H   H58       1.0  0.41081  0.45000  0.03559  1.0000
  H   H59       1.0  0.43265  0.01256  0.04929  1.0000
  C   C61       1.0  0.44749  0.24408  0.22944  1.0000
  C   C62       1.0  0.33652  0.25286  0.04805  1.0000
  C   C63       1.0  0.35895  0.29544  0.01966  1.0000
  H   H60       1.0  0.06248  0.45736  0.00962  1.0000
  C   C64       1.0  0.00100  0.45047  0.03901  1.0000
  C   C65       1.0  0.01293  0.31773  0.06611  1.0000
  H   H61       1.0  0.48086  0.07495  0.05049  1.0000
  H   H62       1.0  0.45579  0.30008  0.16629  1.0000
  N   N4        1.0  0.47850  0.03464  0.04161  1.0000
  C   C66       1.0  0.44686  0.47665  0.00773  1.0000
  C   C67       1.0  0.98865  0.36956  0.03843  1.0000
  H   H63       1.0  0.33189  0.08430  0.32433  1.0000
  H   H64       1.0  0.39976  0.48325  0.01985  1.0000
  C   C68       1.0  0.00297  0.30962  0.00885  1.0000
  H   H65       1.0  0.38397  0.11511  0.33454  1.0000
  H   H66       1.0  0.45064  0.20858  0.24595  1.0000
  H   H67       1.0  0.36364  0.06525  0.32421  1.0000
  N   N5        1.0  0.98642  0.44741  0.06601  1.0000
  C   C69       1.0  0.02796  0.38541  0.00461  1.0000
  H   H68       1.0  0.04838  0.33773  0.00427  1.0000
  H   H69       1.0  0.98446  0.45465  0.31779  1.0000
  C   C70       1.0  0.36280  0.39437  0.00301  1.0000
  H   H70       1.0  0.28166  0.48036  0.54610  1.0000
  S   S17       1.0  0.46515  0.08239  0.37979  1.0000
  Fe  Fe7       1.0  0.43781  0.13673  0.37730  1.0000
  S   S18       1.0  0.40956  0.08960  0.36830  1.0000
  S   S19       1.0  0.42495  0.16897  0.36326  1.0000
  Fe  Fe8       1.0  0.43030  0.08233  0.40603  1.0000
  S   S20       1.0  0.40358  0.04259  0.43310  1.0000
  H   H71       1.0  0.21649  0.48102  0.61991  1.0000
  S   S21       1.0  0.45588  0.12957  0.41691  1.0000
  C   C71       1.0  0.46308  0.03555  0.46327  1.0000
  H   H72       1.0  0.38814  0.32355  0.46182  1.0000
  Fe  Fe9       1.0  0.39673  0.47219  0.62479  1.0000
  S   S22       1.0  0.38472  0.42611  0.62891  1.0000
  Fe  Fe10      1.0  0.33384  0.45682  0.62018  1.0000
  S   S23       1.0  0.31821  0.40977  0.62376  1.0000
  C   C72       1.0  0.98623  0.32225  0.51970  1.0000
  H   H73       1.0  0.06602  0.41498  0.54255  1.0000
  Fe  Fe11      1.0  0.35417  0.41802  0.59365  1.0000
  S   S24       1.0  0.34697  0.38980  0.55484  1.0000
  H   H74       1.0  0.34026  0.27536  0.51100  1.0000
  S   S25       1.0  0.36777  0.46437  0.58815  1.0000
  Fe  Fe12      1.0  0.44068  0.31613  0.40642  1.0000
  S   S26       1.0  0.40786  0.32970  0.39912  1.0000
  S   S27       1.0  0.43144  0.27513  0.42836  1.0000
  H   H75       1.0  0.01124  0.34120  0.58595  1.0000
  S   S28       1.0  0.46123  0.39281  0.38204  1.0000
  Fe  Fe13      1.0  0.43816  0.37067  0.42182  1.0000
  S   S29       1.0  0.43426  0.39499  0.45995  1.0000
  Fe  Fe14      1.0  0.43377  0.35058  0.36002  1.0000
  H   H76       1.0  0.02683  0.45150  0.52489  1.0000
  S   S30       1.0  0.46423  0.33396  0.36633  1.0000
  Fe  Fe15      1.0  0.14195  0.44222  0.62717  1.0000
  S   S31       1.0  0.09990  0.41711  0.65031  1.0000
  S   S32       1.0  0.16963  0.42124  0.62235  1.0000
  H   H77       1.0  0.48170  0.06556  0.49692  1.0000
  S   S33       1.0  0.08986  0.47078  0.64085  1.0000
  H   H78       1.0  0.42664  0.21992  0.34460  1.0000
  Fe  Fe16      1.0  0.08109  0.43172  0.61602  1.0000
  S   S34       1.0  0.03618  0.40745  0.59593  1.0000
  H   H79       1.0  0.18577  0.39376  0.55441  1.0000
  S   S35       1.0  0.12217  0.45393  0.59172  1.0000
  H   H80       1.0  0.32967  0.45276  0.53337  1.0000
  C   C73       1.0  0.46315  0.02207  0.51127  1.0000
  C   C74       1.0  0.02488  0.40295  0.56037  1.0000
  H   H81       1.0  0.02856  0.34349  0.53796  1.0000
  Fe  Fe17      1.0  0.35077  0.42307  0.65851  1.0000
  C   C75       1.0  0.00450  0.39328  0.50432  1.0000
  C   C76       1.0  0.03355  0.40299  0.51050  1.0000
  C   C77       1.0  0.04372  0.40791  0.53825  1.0000
  C   C78       1.0  0.35838  0.32810  0.55846  1.0000
  C   C79       1.0  0.38190  0.00509  0.47730  1.0000
  H   H82       1.0  0.26737  0.39136  0.56476  1.0000
  H   H83       1.0  0.34852  0.33515  0.57394  1.0000
  C   C80       1.0  0.26817  0.46150  0.61948  1.0000
  C   C81       1.0  0.25022  0.43196  0.62264  1.0000
  C   C82       1.0  0.22020  0.42014  0.62408  1.0000
  C   C83       1.0  0.20772  0.43764  0.62298  1.0000
  C   C84       1.0  0.22572  0.46727  0.62088  1.0000
  S   S36       1.0  0.30589  0.47730  0.61445  1.0000
  H   H84       1.0  0.25934  0.41813  0.62350  1.0000
  H   H85       1.0  0.40121  0.26496  0.48421  1.0000
  S   S37       1.0  0.36474  0.46971  0.65633  1.0000
  H   H86       1.0  0.42297  0.35070  0.52891  1.0000
  C   C85       1.0  0.37144  0.39232  0.52812  1.0000
  C   C86       1.0  0.40063  0.41303  0.52866  1.0000
  C   C87       1.0  0.41928  0.41357  0.50756  1.0000
  C   C88       1.0  0.40920  0.39340  0.48559  1.0000
  C   C89       1.0  0.37995  0.37287  0.48491  1.0000
  C   C90       1.0  0.36128  0.37239  0.50597  1.0000
  H   H87       1.0  0.40888  0.42856  0.54543  1.0000
  H   H88       1.0  0.44168  0.42980  0.50835  1.0000
  H   H89       1.0  0.37155  0.35749  0.46807  1.0000
  H   H90       1.0  0.33880  0.35625  0.50522  1.0000
  C   C91       1.0  0.42710  0.19827  0.38202  1.0000
  C   C92       1.0  0.42794  0.19950  0.41111  1.0000
  C   C93       1.0  0.42905  0.22308  0.42508  1.0000
  C   C94       1.0  0.42967  0.24571  0.41009  1.0000
  C   C95       1.0  0.42900  0.24451  0.38102  1.0000
  C   C96       1.0  0.42748  0.22079  0.36709  1.0000
  H   H91       1.0  0.42720  0.18208  0.42282  1.0000
  H   H92       1.0  0.42943  0.22378  0.44758  1.0000
  H   H93       1.0  0.42930  0.26170  0.36926  1.0000
  H   H94       1.0  0.30535  0.41041  0.56053  1.0000
  C   C97       1.0  0.40018  0.03373  0.46933  1.0000
  C   C98       1.0  0.41519  0.05402  0.49018  1.0000
  C   C99       1.0  0.41210  0.04567  0.51843  1.0000
  C   C100      1.0  0.39398  0.01698  0.52639  1.0000
  C   C101      1.0  0.23717  0.46367  0.55140  1.0000
  H   H95       1.0  0.42923  0.07613  0.48455  1.0000
  C   C102      1.0  0.02510  0.47023  0.52091  1.0000
  H   H96       1.0  0.46876  0.02956  0.53244  1.0000
  H   H97       1.0  0.27660  0.42378  0.49496  1.0000
  H   H98       1.0  0.46787  0.05194  0.44784  1.0000
  Fe  Fe18      1.0  0.44658  0.09356  0.34322  1.0000
  H   H99       1.0  0.36753  0.25598  0.49903  1.0000
  S   S38       1.0  0.99329  0.38763  0.46869  1.0000
  H   H100      1.0  0.26073  0.39088  0.51410  1.0000
  H   H101      1.0  0.42388  0.06159  0.53428  1.0000
  H   H102      1.0  0.04832  0.40659  0.49365  1.0000
  H   H103      1.0  0.28845  0.42464  0.58266  1.0000
  H   H104      1.0  0.31122  0.46974  0.51920  1.0000
  C   C103      1.0  0.21007  0.43956  0.55395  1.0000
  H   H105      1.0  0.43944  0.32093  0.51130  1.0000
  C   C104      1.0  0.40040  0.33637  0.53244  1.0000
  C   C105      1.0  0.38766  0.34456  0.55318  1.0000
  H   H106      1.0  0.22703  0.38769  0.54498  1.0000
  H   H107      1.0  0.43705  0.31210  0.47518  1.0000
  H   H108      1.0  0.07323  0.46529  0.51835  1.0000
  H   H109      1.0  0.39889  0.27072  0.52084  1.0000
  C   C106      1.0  0.99958  0.46597  0.50895  1.0000
  C   C107      1.0  0.35420  0.29465  0.52252  1.0000
  C   C108      1.0  0.98573  0.38873  0.52643  1.0000
  H   H110      1.0  0.44112  0.00106  0.43419  1.0000
  H   H111      1.0  0.31880  0.29072  0.54710  1.0000
  N   N6        1.0  0.28365  0.42930  0.53914  1.0000
  C   C109      1.0  0.27964  0.41281  0.51310  1.0000
  C   C110      1.0  0.31137  0.45657  0.53686  1.0000
  H   H112      1.0  0.39234  0.29418  0.45001  1.0000
  C   C111      1.0  0.25865  0.43333  0.54375  1.0000
  C   C112      1.0  0.26123  0.46077  0.54656  1.0000
  C   C113      1.0  0.23064  0.40922  0.54625  1.0000
  S   S39       1.0  0.46958  0.35583  0.43082  1.0000
  C   C114      1.0  0.20681  0.41240  0.55143  1.0000
  H   H113      1.0  0.05468  0.46400  0.56514  1.0000
  S   S40       1.0  0.39151  0.00782  0.56251  1.0000
  H   H114      1.0  0.19169  0.44190  0.55901  1.0000
  H   H115      1.0  0.43410  0.34231  0.48547  1.0000
  S   S41       1.0  0.15518  0.48276  0.65099  1.0000
  H   H116      1.0  0.31646  0.46944  0.55641  1.0000
  H   H117      1.0  0.47226  0.99403  0.55570  1.0000
  H   H118      1.0  0.36001  0.28729  0.46683  1.0000
  C   C115      1.0  0.34167  0.30320  0.54316  1.0000
  C   C116      1.0  0.28626  0.41317  0.56272  1.0000
  C   C117      1.0  0.39076  0.27207  0.49994  1.0000
  C   C118      1.0  0.99585  0.39340  0.55420  1.0000
  C   C119      1.0  0.25573  0.47906  0.61892  1.0000
  H   H119      1.0  0.29850  0.41007  0.50875  1.0000
  C   C120      1.0  0.42820  0.32015  0.49162  1.0000
  C   C121      1.0  0.38399  0.31093  0.51653  1.0000
  H   H120      1.0  0.20649  0.39720  0.62576  1.0000
  C   C122      1.0  0.99596  0.33182  0.56898  1.0000
  N   N7        1.0  0.39662  0.30154  0.49432  1.0000
  C   C123      1.0  0.38365  0.30163  0.46714  1.0000
  H   H121      1.0  0.40030  0.36438  0.56463  1.0000
  C   C124      1.0  0.44796  0.00681  0.45563  1.0000
  S   S42       1.0  0.47355  0.14051  0.35023  1.0000
  C   C125      1.0  0.47078  0.04316  0.49098  1.0000
  C   C126      1.0  0.00568  0.33309  0.54188  1.0000
  C   C127      1.0  0.37871  0.99677  0.50554  1.0000
  H   H122      1.0  0.48349  0.24618  0.39770  1.0000
  H   H123      1.0  0.99542  0.32496  0.49919  1.0000
  H   H124      1.0  0.48361  0.21514  0.43035  1.0000
  H   H125      1.0  0.43823  0.99269  0.56097  1.0000
  C   C128      1.0  0.06930  0.48752  0.56673  1.0000
  C   C129      1.0  0.44789  0.99248  0.50414  1.0000
  H   H126      1.0  0.23970  0.48473  0.55443  1.0000
  H   H127      1.0  0.36995  0.98920  0.46148  1.0000
  Fe  Fe19      1.0  0.09225  0.47527  0.92093  1.0000
  Fe  Fe20      1.0  0.30756  0.43286  0.91227  1.0000
  S   S43       1.0  0.32362  0.40632  0.89049  1.0000
  S   S44       1.0  0.25868  0.41190  0.91358  1.0000
  H   H128      1.0  0.13521  0.43169  0.85018  1.0000
  S   S45       1.0  0.38819  0.46004  0.89833  1.0000
  Fe  Fe21      1.0  0.35259  0.44666  0.86687  1.0000
  S   S46       1.0  0.35772  0.45728  0.82020  1.0000
  Fe  Fe22      1.0  0.35767  0.42223  0.92442  1.0000
  S   S47       1.0  0.37804  0.39904  0.94669  1.0000
  C   C130      1.0  0.99979  0.45120  0.98785  1.0000
  S   S48       1.0  0.33937  0.44557  0.94764  1.0000
  S   S49       1.0  0.34375  0.40001  0.70014  1.0000
  S   S50       1.0  0.11631  0.47458  0.71781  1.0000
  Fe  Fe23      1.0  0.13620  0.45543  0.92263  1.0000
  S   S51       1.0  0.10319  0.41004  0.91180  1.0000
  C   C131      1.0  0.20604  0.45430  0.84330  1.0000
  H   H129      1.0  0.43982  0.46380  0.76405  1.0000
  S   S52       1.0  0.05696  0.43167  0.90861  1.0000
  Fe  Fe24      1.0  0.07423  0.41587  0.94241  1.0000
  S   S53       1.0  0.03904  0.38209  0.97041  1.0000
  Fe  Fe25      1.0  0.08877  0.43033  0.87933  1.0000
  S   S54       1.0  0.07715  0.41153  0.83532  1.0000
  S   S55       1.0  0.10855  0.45977  0.95580  1.0000
  H   H130      1.0  0.03684  0.45534  0.96644  1.0000
  H   H131      1.0  0.29779  0.44493  0.82866  1.0000
  C   C132      1.0  0.23738  0.38305  0.84527  1.0000
  S   S56       1.0  0.33531  0.47243  0.88773  1.0000
  C   C133      1.0  0.10526  0.45638  0.75015  1.0000
  C   C134      1.0  0.11546  0.47235  0.77497  1.0000
  C   C135      1.0  0.10704  0.45904  0.80118  1.0000
  C   C136      1.0  0.08811  0.42955  0.80288  1.0000
  C   C137      1.0  0.07779  0.41363  0.77808  1.0000
  C   C138      1.0  0.08633  0.42692  0.75185  1.0000
  H   H132      1.0  0.27490  0.47222  0.91992  1.0000
  H   H133      1.0  0.11491  0.47160  0.82005  1.0000
  H   H134      1.0  0.06309  0.39081  0.77916  1.0000
  H   H135      1.0  0.07813  0.41437  0.73298  1.0000
  C   C139      1.0  0.23855  0.42963  0.91706  1.0000
  C   C140      1.0  0.20838  0.41330  0.91690  1.0000
  C   C141      1.0  0.19153  0.42646  0.91981  1.0000
  C   C142      1.0  0.20473  0.45619  0.92288  1.0000
  H   H136      1.0  0.28956  0.43715  0.78137  1.0000
  C   C143      1.0  0.25173  0.45937  0.91972  1.0000
  H   H137      1.0  0.19797  0.39027  0.91502  1.0000
  H   H138      1.0  0.16837  0.41358  0.92009  1.0000
  H   H139      1.0  0.15795  0.43587  0.72559  1.0000
  H   H140      1.0  0.16303  0.48328  0.83680  1.0000
  C   C144      1.0  0.35229  0.43998  0.78735  1.0000
  C   C145      1.0  0.34820  0.41238  0.78437  1.0000
  C   C146      1.0  0.34488  0.40015  0.75759  1.0000
  C   C147      1.0  0.34563  0.41532  0.73354  1.0000
  C   C148      1.0  0.34909  0.44267  0.73665  1.0000
  C   C149      1.0  0.35255  0.45492  0.76335  1.0000
  H   H141      1.0  0.34800  0.40061  0.80261  1.0000
  H   H142      1.0  0.34218  0.37897  0.75545  1.0000
  H   H143      1.0  0.34940  0.45454  0.71847  1.0000
  H   H144      1.0  0.28493  0.38301  0.83441  1.0000
  H   H145      1.0  0.38908  0.45418  0.99501  1.0000
  H   H146      1.0  0.27068  0.44824  0.74010  1.0000
  H   H147      1.0  0.16081  0.43767  0.87651  1.0000
  H   H148      1.0  0.22495  0.47122  0.83211  1.0000
  H   H149      1.0  0.26738  0.44074  0.84829  1.0000
  H   H150      1.0  0.46577  0.45954  0.71107  1.0000
  H   H151      1.0  0.20215  0.38587  0.81214  1.0000
  H   H152      1.0  0.41405  0.05031  0.95903  1.0000
  N   N8        1.0  0.17910  0.45398  0.83602  1.0000
  H   H153      1.0  0.42582  0.43384  0.74055  1.0000
  N   N9        1.0  0.25964  0.40301  0.82556  1.0000
  H   H154      1.0  0.28770  0.42488  0.85998  1.0000
  H   H155      1.0  0.24710  0.37781  0.86318  1.0000
  C   C150      1.0  0.27640  0.38942  0.81640  1.0000
  C   C151      1.0  0.24787  0.41014  0.80100  1.0000
  C   C152      1.0  0.23489  0.47252  0.92268  1.0000
  C   C153      1.0  0.26655  0.42819  0.77986  1.0000
  H   H156      1.0  0.20440  0.43338  0.83843  1.0000
  C   C154      1.0  0.40246  0.38728  0.99157  1.0000
  H   H157      1.0  0.99922  0.30755  0.98656  1.0000
  H   H158      1.0  0.39506  0.45665  0.70148  1.0000
  C   C155      1.0  0.18242  0.48229  0.84308  1.0000
  C   C156      1.0  0.14313  0.41940  0.76666  1.0000
  C   C157      1.0  0.21801  0.39966  0.79722  1.0000
  Fe  Fe26      1.0  0.11250  0.45867  0.67269  1.0000
  S   S57       1.0  0.38583  0.99416  0.93457  1.0000
  H   H159      1.0  0.41690  0.38661  0.97631  1.0000
  H   H160      1.0  0.26310  0.37005  0.80345  1.0000
  H   H161      1.0  0.22522  0.39265  0.85475  1.0000
  C   C158      1.0  0.20769  0.40655  0.77348  1.0000
  C   C159      1.0  0.06291  0.48337  0.82599  1.0000
  C   C160      1.0  0.42598  0.45412  0.74540  1.0000
  H   H162      1.0  0.12347  0.40112  0.75909  1.0000
  S   S58       1.0  0.18470  0.47411  0.92567  1.0000
  H   H163      1.0  0.41359  0.43767  0.69376  1.0000
  C   C161      1.0  0.38144  0.39388  0.98295  1.0000
  H   H164      1.0  0.22221  0.36234  0.83510  1.0000
  H   H165      1.0  0.18483  0.39805  0.77075  1.0000
  C   C162      1.0  0.25598  0.43484  0.75619  1.0000
  N   N10       1.0  0.43610  0.47409  0.72143  1.0000
  C   C163      1.0  0.34956  0.32295  0.97395  1.0000
  S   S59       1.0  0.12277  0.47539  0.88889  1.0000
  C   C164      1.0  0.46339  0.99652  0.86157  1.0000
  C   C165      1.0  0.37498  0.30113  0.99459  1.0000
  C   C166      1.0  0.14815  0.42384  0.79531  1.0000
  C   C167      1.0  0.19293  0.46731  0.78594  1.0000
  C   C168      1.0  0.37024  0.31471  0.97217  1.0000
  H   H166      1.0  0.05722  0.46112  0.82368  1.0000
  H   H167      1.0  0.34648  0.33413  0.95678  1.0000
  C   C169      1.0  0.40360  0.03537  0.97583  1.0000
  H   H168      1.0  0.38299  0.31940  0.95341  1.0000
  H   H169      1.0  0.46541  0.03423  0.82730  1.0000
  H   H170      1.0  0.40351  0.44761  0.75105  1.0000
  C   C170      1.0  0.16253  0.43897  0.74774  1.0000
  H   H171      1.0  0.15289  0.41067  0.85094  1.0000
  C   C171      1.0  0.38745  0.00586  0.96978  1.0000
  H   H172      1.0  0.29545  0.40411  0.80392  1.0000
  Fe  Fe27      1.0  0.36874  0.48277  0.92049  1.0000
  C   C172      1.0  0.15597  0.43246  0.85402  1.0000
  C   C173      1.0  0.27892  0.42959  0.84112  1.0000
  H   H173      1.0  0.44760  0.00385  0.86513  1.0000
  H   H174      1.0  0.35558  0.47623  0.76538  1.0000
  C   C174      1.0  0.22661  0.42398  0.75297  1.0000
  C   C175      1.0  0.45013  0.98980  0.97553  1.0000
  H   H175      1.0  0.21848  0.42891  0.73441  1.0000
  H   H176      1.0  0.39151  0.29560  0.99181  1.0000
  C   C176      1.0  0.41662  0.45938  0.69765  1.0000
  C   C177      1.0  0.17323  0.44817  0.80586  1.0000
  H   H177      1.0  0.13154  0.40831  0.80868  1.0000
  N   N11       1.0  0.47069  0.99724  0.83161  1.0000
  C   C178      1.0  0.45260  0.00640  0.99890  1.0000
  C   C179      1.0  0.18749  0.46280  0.75735  1.0000
  C   C180      1.0  0.02705  0.45434  0.98649  1.0000
  H   H178      1.0  0.21251  0.48618  0.79236  1.0000
  H   H179      1.0  0.48273  0.01058  0.87428  1.0000
  H   H180      1.0  0.34622  0.39898  0.99678  1.0000
  H   H181      1.0  0.05649  0.48037  0.87026  1.0000
  H   H182      1.0  0.21101  0.45859  0.86589  1.0000
  H   H183      1.0  0.42456  0.47149  0.67794  1.0000
  H   H184      1.0  0.42286  0.45816  0.95751  1.0000
  C   C181      1.0  0.33359  0.31779  0.99821  1.0000
  C   C182      1.0  0.46529  0.47977  0.71407  1.0000
  H   H185      1.0  0.20246  0.47803  0.74250  1.0000
  C   C183      1.0  0.48072  0.02679  0.82167  1.0000
  C   C184      1.0  0.40210  0.47777  0.99803  1.0000
  C   C185      1.0  0.43339  0.48174  0.96080  1.0000
  H   H186      1.0  0.39207  0.48722  0.98466  1.0000
  H   H187      1.0  0.48274  0.02859  0.79866  1.0000
  H   H188      1.0  0.18546  0.48673  0.86592  1.0000
  H   H189      1.0  0.98850  0.44982  0.96871  1.0000
  H   H190      1.0  0.31812  0.32504  0.99975  1.0000
  C   C186      1.0  0.47584  0.48439  0.00250  1.0000
  H   H191      1.0  0.43540  0.01081  0.00270  1.0000
  H   H192      1.0  0.03376  0.62792  0.30816  1.0000
  H   H193      1.0  0.12617  0.64143  0.02457  1.0000
  H   H194      1.0  0.44918  0.52652  0.01621  1.0000
  S   S60       1.0  0.99150  0.64659  0.08179  1.0000
  C   C187      1.0  0.00374  0.64522  0.04740  1.0000
  C   C188      1.0  0.02919  0.66891  0.03752  1.0000
  H   H195      1.0  0.03540  0.59766  0.01201  1.0000
  H   H196      1.0  0.99635  0.61584  0.31498  1.0000
  H   H197      1.0  0.04109  0.68724  0.05105  1.0000
  C   C189      1.0  0.05704  0.55952  0.01146  1.0000
  H   H198      1.0  0.10361  0.62201  0.05351  1.0000
  H   H199      1.0  0.02081  0.65272  0.30969  1.0000
  C   C190      1.0  0.98857  0.62185  0.02945  1.0000
  H   H200      1.0  0.05435  0.62950  0.03183  1.0000
  H   H201      1.0  0.36596  0.98245  0.03614  1.0000
  C   C191      1.0  0.03945  0.66929  0.01029  1.0000
  H   H202      1.0  0.04866  0.59676  0.04655  1.0000
  N   N12       1.0  0.08111  0.61389  0.01451  1.0000
  C   C192      1.0  0.05366  0.60900  0.02679  1.0000
  H   H203      1.0  0.10317  0.65257  0.03923  1.0000
  H   H204      1.0  0.05900  0.68775  0.00316  1.0000
  C   C193      1.0  0.10451  0.63317  0.03379  1.0000
  C   C194      1.0  0.01876  0.63306  0.31934  1.0000
  H   H205      1.0  0.03618  0.55650  0.01655  1.0000
  C   C195      1.0  0.08189  0.58716  0.00964  1.0000
  H   H206      1.0  0.00577  0.58144  0.32763  1.0000
  H   H207      1.0  0.99555  0.49106  0.06571  1.0000
  H   H208      1.0  0.03917  0.51391  0.00678  1.0000
  C   C196      1.0  0.05841  0.53475  0.00596  1.0000
  Fe  Fe28      1.0  0.37066  0.96614  0.58818  1.0000
  S   S61       1.0  0.35201  0.92132  0.57143  1.0000
  H   H209      1.0  0.05687  0.68086  0.34212  1.0000
  S   S62       1.0  0.35230  0.89951  0.63576  1.0000
  Fe  Fe29      1.0  0.38330  0.91792  0.60008  1.0000
  S   S63       1.0  0.41269  0.90167  0.58525  1.0000
  Fe  Fe30      1.0  0.32280  0.90742  0.60884  1.0000
  S   S64       1.0  0.27420  0.87846  0.60725  1.0000
  S   S65       1.0  0.40289  0.96292  0.61529  1.0000
  S   S66       1.0  0.33935  0.95280  0.62430  1.0000
  C   C197      1.0  0.09743  0.53231  0.54341  1.0000
  S   S67       1.0  0.14953  0.53657  0.59988  1.0000
  Fe  Fe31      1.0  0.15301  0.71490  0.61818  1.0000
  S   S68       1.0  0.12272  0.73116  0.62769  1.0000
  S   S69       1.0  0.20094  0.74201  0.60927  1.0000
  Fe  Fe32      1.0  0.10794  0.65336  0.63179  1.0000
  S   S70       1.0  0.07537  0.66597  0.64316  1.0000
  S   S71       1.0  0.08867  0.60571  0.63661  1.0000
  Fe  Fe33      1.0  0.08961  0.69198  0.60383  1.0000
  S   S72       1.0  0.05158  0.68592  0.57697  1.0000
  H   H210      1.0  0.00293  0.54077  0.35151  1.0000
  S   S73       1.0  0.12085  0.67769  0.59168  1.0000
  C   C198      1.0  0.00388  0.64335  0.36278  1.0000
  S   S74       1.0  0.01102  0.64638  0.45079  1.0000
  H   H211      1.0  0.07072  0.65681  0.34590  1.0000
  C   C199      1.0  0.02154  0.65583  0.48632  1.0000
  C   C200      1.0  0.01809  0.56252  0.39069  1.0000
  C   C201      1.0  0.01254  0.66583  0.53368  1.0000
  C   C202      1.0  0.04086  0.67438  0.54184  1.0000
  C   C203      1.0  0.05941  0.67327  0.52205  1.0000
  C   C204      1.0  0.04989  0.66439  0.49443  1.0000
  H   H212      1.0  0.28663  0.83637  0.66781  1.0000
  H   H213      1.0  0.00438  0.66233  0.35322  1.0000
  H   H214      1.0  0.08130  0.67995  0.52783  1.0000
  H   H215      1.0  0.06470  0.66444  0.47918  1.0000
  C   C205      1.0  0.13180  0.55574  0.60767  1.0000
  C   C206      1.0  0.14543  0.58530  0.60273  1.0000
  C   C207      1.0  0.13226  0.60112  0.61085  1.0000
  C   C208      1.0  0.10524  0.58721  0.62347  1.0000
  C   C209      1.0  0.09115  0.55756  0.62711  1.0000
  C   C210      1.0  0.10440  0.54196  0.61933  1.0000
  H   H216      1.0  0.16659  0.59616  0.59348  1.0000
  H   H217      1.0  0.14323  0.62407  0.60788  1.0000
  C   C211      1.0  0.00312  0.61419  0.59444  1.0000
  H   H218      1.0  0.09332  0.51929  0.62257  1.0000
  C   C212      1.0  0.46089  0.53766  0.63158  1.0000
  C   C213      1.0  0.44540  0.55195  0.62882  1.0000
  H   H219      1.0  0.01636  0.63072  0.61031  1.0000
  H   H220      1.0  0.42267  0.54001  0.62417  1.0000
  H   H221      1.0  0.01590  0.54386  0.40129  1.0000
  C   C214      1.0  0.25454  0.84050  0.60634  1.0000
  C   C215      1.0  0.26793  0.82401  0.60770  1.0000
  C   C216      1.0  0.25125  0.79387  0.60810  1.0000
  C   C217      1.0  0.22110  0.77993  0.60711  1.0000
  C   C218      1.0  0.20778  0.79642  0.60515  1.0000
  C   C219      1.0  0.22443  0.82652  0.60487  1.0000
  H   H222      1.0  0.29108  0.83448  0.60864  1.0000
  H   H223      1.0  0.26177  0.78130  0.60937  1.0000
  H   H224      1.0  0.18466  0.78596  0.60376  1.0000
  H   H225      1.0  0.99733  0.56974  0.62384  1.0000
  C   C220      1.0  0.44549  0.91424  0.60314  1.0000
  C   C221      1.0  0.45554  0.93764  0.62122  1.0000
  C   C222      1.0  0.45961  0.58194  0.63128  1.0000
  C   C223      1.0  0.46185  0.90079  0.59935  1.0000
  H   H226      1.0  0.44349  0.94837  0.62420  1.0000
  H   H227      1.0  0.10826  0.49212  0.52842  1.0000
  C   C224      1.0  0.04324  0.52131  0.52223  1.0000
  H   H228      1.0  0.42877  0.96356  0.46864  1.0000
  C   C225      1.0  0.44861  0.98031  0.55381  1.0000
  H   H229      1.0  0.21395  0.83912  0.60342  1.0000
  H   H230      1.0  0.40165  0.93231  0.53978  1.0000
  H   H231      1.0  0.03680  0.63115  0.40424  1.0000
  H   H232      1.0  0.45567  0.49747  0.55158  1.0000
  H   H233      1.0  0.07013  0.54667  0.63666  1.0000
  C   C226      1.0  0.45324  0.95214  0.51764  1.0000
  S   S75       1.0  0.44493  0.50056  0.62658  1.0000
  H   H234      1.0  0.44508  0.94054  0.49757  1.0000
  H   H235      1.0  0.44776  0.59308  0.62839  1.0000
  H   H236      1.0  0.15120  0.58188  0.65985  1.0000
  C   C227      1.0  0.47256  0.51530  0.54019  1.0000
  H   H237      1.0  0.09075  0.54311  0.55907  1.0000
  H   H238      1.0  0.46434  0.49158  0.50194  1.0000
  H   H239      1.0  0.03272  0.58933  0.42721  1.0000
  C   C228      1.0  0.40821  0.95045  0.52511  1.0000
  C   C229      1.0  0.05411  0.66174  0.35353  1.0000
  H   H240      1.0  0.00783  0.64789  0.38550  1.0000
  H   H241      1.0  0.26938  0.50193  0.61652  1.0000
  H   H242      1.0  0.36411  0.97478  0.51115  1.0000
  H   H243      1.0  0.44854  0.93539  0.53362  1.0000
  C   C230      1.0  0.02771  0.58812  0.40521  1.0000
  H   H244      1.0  0.18113  0.81096  0.64705  1.0000
  Fe  Fe34      1.0  0.37011  0.94514  0.64955  1.0000
  S   S76       1.0  0.14274  0.68852  0.65724  1.0000
  C   C231      1.0  0.04459  0.61384  0.57568  1.0000
  C   C232      1.0  0.99698  0.57413  0.56624  1.0000
  H   H245      1.0  0.39730  0.96240  0.53172  1.0000
  N   N13       1.0  0.02485  0.63676  0.34972  1.0000
  H   H246      1.0  0.16421  0.55737  0.66086  1.0000
  H   H247      1.0  0.10286  0.54440  0.52354  1.0000
  C   C233      1.0  0.01075  0.56082  0.36267  1.0000
  H   H248      1.0  0.05469  0.60086  0.57013  1.0000
  C   C234      1.0  0.01844  0.58325  0.61361  1.0000
  H   H249      1.0  0.11786  0.53444  0.55133  1.0000
  H   H250      1.0  0.04456  0.62561  0.55683  1.0000
  C   C235      1.0  0.47741  0.51199  0.51230  1.0000
  C   C236      1.0  0.02278  0.61117  0.36322  1.0000
  H   H251      1.0  0.39932  0.94073  0.50449  1.0000
  C   C237      1.0  0.03006  0.61209  0.39176  1.0000
  H   H252      1.0  0.05899  0.63044  0.59088  1.0000
  H   H253      1.0  0.00066  0.60529  0.53514  1.0000
  C   C238      1.0  0.00280  0.65623  0.50630  1.0000
  H   H254      1.0  0.02922  0.57045  0.61022  1.0000
  C   C239      1.0  0.01753  0.51681  0.51040  1.0000
  H   H255      1.0  0.45428  0.88269  0.58530  1.0000
  H   H256      1.0  0.05909  0.54320  0.52697  1.0000
  H   H257      1.0  0.44192  0.96247  0.56887  1.0000
  N   N14       1.0  0.01540  0.59574  0.58723  1.0000
  H   H258      1.0  0.05899  0.66850  0.37570  1.0000
  C   C240      1.0  0.08733  0.48880  0.52049  1.0000
  H   H259      1.0  0.01442  0.53483  0.50634  1.0000
  H   H260      1.0  0.99799  0.66677  0.54864  1.0000
  N   N15       1.0  0.43977  0.96949  0.52493  1.0000
  H   H261      1.0  0.03208  0.60022  0.62897  1.0000
  H   H262      1.0  0.19065  0.77113  0.65692  1.0000
  H   H263      1.0  0.47692  0.96583  0.51592  1.0000
  C   C241      1.0  0.01273  0.58460  0.34907  1.0000
  H   H264      1.0  0.00220  0.62634  0.57632  1.0000
  N   N16       1.0  0.07507  0.50184  0.53931  1.0000
  C   C242      1.0  0.17215  0.80725  0.66846  1.0000
  Fe  Fe35      1.0  0.11112  0.70301  0.66578  1.0000
  H   H265      1.0  0.43640  0.89496  0.66692  1.0000
  H   H266      1.0  0.98730  0.53541  0.58964  1.0000
  C   C243      1.0  0.04795  0.49803  0.52747  1.0000
  H   H267      1.0  0.09086  0.49808  0.49924  1.0000
  C   C244      1.0  0.48117  0.94708  0.63594  1.0000
  C   C245      1.0  0.99583  0.48923  0.50361  1.0000
  C   C246      1.0  0.99129  0.58287  0.54030  1.0000
  H   H268      1.0  0.05914  0.49594  0.58127  1.0000
  Fe  Fe36      1.0  0.13160  0.49224  0.61808  1.0000
  H   H269      1.0  0.08938  0.49068  0.57671  1.0000
  C   C247      1.0  0.44067  0.98553  0.47563  1.0000
  H   H270      1.0  0.14923  0.78998  0.66712  1.0000
  H   H271      1.0  0.23757  0.79746  0.66892  1.0000
  S   S77       1.0  0.38836  0.95745  0.69369  1.0000
  Fe  Fe37      1.0  0.34146  0.92468  0.85235  1.0000
  S   S78       1.0  0.34577  0.88639  0.86120  1.0000
  S   S79       1.0  0.32221  0.92498  0.81009  1.0000
  Fe  Fe38      1.0  0.36522  0.95119  0.91083  1.0000
  S   S80       1.0  0.37089  0.91408  0.92307  1.0000
  Fe  Fe39      1.0  0.38826  0.91723  0.88005  1.0000
  S   S81       1.0  0.42705  0.91463  0.86637  1.0000
  Fe  Fe40      1.0  0.32734  0.88602  0.90321  1.0000
  S   S82       1.0  0.29804  0.84140  0.92074  1.0000
  H   H272      1.0  0.27816  0.87013  0.77363  1.0000
  S   S83       1.0  0.32020  0.92289  0.89365  1.0000
  S   S84       1.0  0.39663  0.52638  0.94010  1.0000
  S   S85       1.0  0.11068  0.72092  0.70899  1.0000
  H   H273      1.0  0.41134  0.90164  0.80255  1.0000
  Fe  Fe41      1.0  0.13374  0.72168  0.91119  1.0000
  S   S86       1.0  0.08783  0.70170  0.89572  1.0000
  S   S87       1.0  0.16152  0.77025  0.91046  1.0000
  Fe  Fe42      1.0  0.12915  0.66390  0.91872  1.0000
  S   S88       1.0  0.08405  0.64067  0.90327  1.0000
  S   S89       1.0  0.15190  0.63974  0.92993  1.0000
  Fe  Fe43      1.0  0.09907  0.67383  0.86962  1.0000
  S   S90       1.0  0.08872  0.65596  0.82520  1.0000
  Fe  Fe44      1.0  0.07701  0.67029  0.93126  1.0000
  S   S91       1.0  0.03562  0.64524  0.95739  1.0000
  S   S92       1.0  0.14497  0.69518  0.88345  1.0000
  S   S93       1.0  0.12220  0.69234  0.94822  1.0000
  C   C248      1.0  0.07792  0.54163  0.83239  1.0000
  S   S94       1.0  0.38538  0.95577  0.86839  1.0000
  C   C249      1.0  0.27739  0.86737  0.68564  1.0000
  C   C250      1.0  0.09688  0.54216  0.92842  1.0000
  C   C251      1.0  0.08400  0.55905  0.93103  1.0000
  C   C252      1.0  0.10079  0.58893  0.93149  1.0000
  C   C253      1.0  0.13063  0.60219  0.92940  1.0000
  C   C254      1.0  0.14360  0.58528  0.92696  1.0000
  C   C255      1.0  0.12672  0.55524  0.92626  1.0000
  H   H274      1.0  0.06094  0.54898  0.93308  1.0000
  H   H275      1.0  0.09061  0.60156  0.93425  1.0000
  H   H276      1.0  0.16672  0.59544  0.92550  1.0000
  H   H277      1.0  0.13677  0.54225  0.92435  1.0000
  C   C256      1.0  0.10557  0.70274  0.74111  1.0000
  C   C257      1.0  0.10935  0.71778  0.76624  1.0000
  C   C258      1.0  0.10480  0.70399  0.79218  1.0000
  C   C259      1.0  0.09610  0.67487  0.79325  1.0000
  C   C260      1.0  0.09251  0.65989  0.76813  1.0000
  C   C261      1.0  0.09742  0.67376  0.74222  1.0000
  H   H278      1.0  0.11526  0.74010  0.76562  1.0000
  H   H279      1.0  0.10714  0.71565  0.81129  1.0000
  H   H280      1.0  0.08543  0.63729  0.76867  1.0000
  H   H281      1.0  0.09416  0.66188  0.72307  1.0000
  C   C262      1.0  0.43107  0.54793  0.92568  1.0000
  C   C263      1.0  0.45056  0.57397  0.93854  1.0000
  C   C264      1.0  0.43955  0.53905  0.90195  1.0000
  H   H282      1.0  0.44406  0.58108  0.95680  1.0000
  H   H283      1.0  0.42462  0.51945  0.89151  1.0000
  C   C265      1.0  0.26008  0.82200  0.91761  1.0000
  C   C266      1.0  0.24517  0.79257  0.92366  1.0000
  C   C267      1.0  0.21499  0.77643  0.92177  1.0000
  C   C268      1.0  0.19938  0.78972  0.91425  1.0000
  C   C269      1.0  0.21429  0.81919  0.90841  1.0000
  C   C270      1.0  0.24450  0.83520  0.90975  1.0000
  H   H284      1.0  0.25699  0.78218  0.92990  1.0000
  H   H285      1.0  0.20380  0.75379  0.92635  1.0000
  H   H286      1.0  0.20242  0.82972  0.90276  1.0000
  H   H287      1.0  0.25567  0.85787  0.90530  1.0000
  C   C271      1.0  0.44967  0.91272  0.89163  1.0000
  C   C272      1.0  0.44369  0.91177  0.92007  1.0000
  H   H288      1.0  0.07106  0.49249  0.78250  1.0000
  S   S95       1.0  0.07463  0.50486  0.92809  1.0000
  H   H289      1.0  0.42540  0.91325  0.92701  1.0000
  H   H290      1.0  0.13721  0.64540  0.75252  1.0000
  C   C273      1.0  0.27017  0.84004  0.67661  1.0000
  C   C274      1.0  0.36915  0.94683  0.72561  1.0000
  C   C275      1.0  0.38436  0.95007  0.75046  1.0000
  C   C276      1.0  0.37017  0.94272  0.77636  1.0000
  C   C277      1.0  0.34068  0.93269  0.77778  1.0000
  H   H291      1.0  0.46883  0.82897  0.94205  1.0000
  H   H292      1.0  0.16334  0.62402  0.77514  1.0000
  C   C278      1.0  0.42623  0.50687  0.75228  1.0000
  H   H293      1.0  0.38204  0.94536  0.79532  1.0000
  N   N17       1.0  0.37033  0.83113  0.92793  1.0000
  C   C279      1.0  0.34492  0.80205  0.93034  1.0000
  C   C280      1.0  0.36898  0.84951  0.95027  1.0000
  C   C281      1.0  0.36814  0.84304  0.90084  1.0000
  C   C282      1.0  0.39699  0.82972  0.93093  1.0000
  C   C283      1.0  0.41819  0.83872  0.90970  1.0000
  C   C284      1.0  0.40262  0.81952  0.95598  1.0000
  C   C285      1.0  0.44351  0.83791  0.91369  1.0000
  H   H294      1.0  0.45483  0.52028  0.68687  1.0000
  H   H295      1.0  0.46050  0.91323  0.81493  1.0000
  H   H296      1.0  0.34347  0.79240  0.95106  1.0000
  H   H297      1.0  0.32451  0.80242  0.92752  1.0000
  H   H298      1.0  0.34546  0.78735  0.91432  1.0000
  H   H299      1.0  0.36703  0.84034  0.97132  1.0000
  H   H300      1.0  0.35003  0.85246  0.94777  1.0000
  H   H301      1.0  0.38850  0.87109  0.95021  1.0000
  H   H302      1.0  0.36823  0.82988  0.88299  1.0000
  H   H303      1.0  0.34783  0.84362  0.89914  1.0000
  H   H304      1.0  0.43767  0.87565  0.69673  1.0000
  H   H305      1.0  0.43555  0.95490  0.82364  1.0000
  H   H306      1.0  0.17232  0.82709  0.67504  1.0000
  C   C286      1.0  0.33952  0.93598  0.72693  1.0000
  C   C287      1.0  0.15555  0.59409  0.74171  1.0000
  H   H307      1.0  0.07385  0.57972  0.79639  1.0000
  C   C288      1.0  0.12840  0.59665  0.70275  1.0000
  C   C289      1.0  0.11221  0.58621  0.85458  1.0000
  C   C290      1.0  0.07813  0.52990  0.80581  1.0000
  C   C291      1.0  0.24165  0.81776  0.67732  1.0000
  C   C292      1.0  0.13868  0.62820  0.74232  1.0000
  H   H308      1.0  0.15023  0.53916  0.73492  1.0000
  H   H309      1.0  0.16112  0.75432  0.67975  1.0000
  H   H310      1.0  0.24532  0.49553  0.92500  1.0000
  C   C293      1.0  0.02409  0.64610  0.99221  1.0000
  H   H311      1.0  0.11870  0.59026  0.68235  1.0000
  H   H312      1.0  0.11890  0.60906  0.85883  1.0000
  H   H313      1.0  0.10862  0.57582  0.87520  1.0000
  H   H314      1.0  0.13059  0.58545  0.84490  1.0000
  H   H315      1.0  0.47313  0.49168  0.69418  1.0000
  C   C294      1.0  0.40068  0.89679  0.70136  1.0000
  H   H316      1.0  0.12888  0.56484  0.98951  1.0000
  C   C295      1.0  0.47167  0.98353  0.96930  1.0000
  H   H317      1.0  0.06745  0.59663  0.85234  1.0000
  N   N18       1.0  0.08627  0.57205  0.83668  1.0000
  C   C296      1.0  0.42699  0.90623  0.78618  1.0000
  H   H318      1.0  0.15400  0.77888  0.71695  1.0000
  C   C297      1.0  0.09288  0.58854  0.81041  1.0000
  N   N19       1.0  0.43211  0.91156  0.70673  1.0000
  C   C298      1.0  0.44410  0.97727  0.81639  1.0000
  H   H319      1.0  0.46854  0.95331  0.69872  1.0000
  H   H320      1.0  0.45580  0.56530  0.69515  1.0000
  H   H321      1.0  0.38748  0.81222  0.97298  1.0000
  H   H322      1.0  0.16253  0.73265  0.82069  1.0000
  H   H323      1.0  0.45617  0.90684  0.96151  1.0000
  H   H324      1.0  0.11500  0.62805  0.70618  1.0000
  C   C299      1.0  0.08433  0.53668  0.99853  1.0000
  H   H325      1.0  0.18383  0.80013  0.85554  1.0000
  N   N20       1.0  0.14608  0.56146  0.69964  1.0000
  C   C300      1.0  0.44864  0.82847  0.93877  1.0000
  H   H326      1.0  0.48105  0.49253  0.73064  1.0000
  H   H327      1.0  0.47022  0.53069  0.98559  1.0000
  C   C301      1.0  0.32544  0.92920  0.75291  1.0000
  H   H328      1.0  0.48292  0.59701  0.80652  1.0000
  C   C302      1.0  0.22457  0.80116  0.78280  1.0000
  H   H329      1.0  0.10459  0.52709  0.71193  1.0000
  C   C303      1.0  0.41930  0.90555  0.75826  1.0000
  C   C304      1.0  0.26131  0.85130  0.78386  1.0000
  N   N21       1.0  0.18878  0.79954  0.68761  1.0000
  C   C305      1.0  0.44730  0.52326  0.70675  1.0000
  C   C306      1.0  0.25523  0.85290  0.81174  1.0000
  C   C307      1.0  0.16161  0.54968  0.71532  1.0000
  H   H330      1.0  0.45980  0.84565  0.89759  1.0000
  C   C308      1.0  0.22754  0.85048  0.69648  1.0000
  H   H331      1.0  0.36136  0.96418  0.98764  1.0000
  H   H332      1.0  0.25109  0.82447  0.74770  1.0000
  C   C309      1.0  0.14323  0.58381  0.71496  1.0000
  H   H333      1.0  0.40728  0.95858  0.74971  1.0000
  C   C310      1.0  0.25616  0.87256  0.69571  1.0000
  H   H334      1.0  0.18407  0.56643  0.72013  1.0000
  H   H335      1.0  0.45549  0.49157  0.95237  1.0000
  H   H336      1.0  0.39757  0.90073  0.75436  1.0000
  C   C311      1.0  0.17683  0.79637  0.71607  1.0000
  C   C312      1.0  0.17927  0.75103  0.80856  1.0000
  H   H337      1.0  0.38979  0.87437  0.70902  1.0000
  C   C313      1.0  0.44468  0.94174  0.69800  1.0000
  H   H338      1.0  0.18399  0.59184  0.67759  1.0000
  H   H339      1.0  0.30269  0.92175  0.75378  1.0000
  C   C314      1.0  0.06272  0.57404  0.85073  1.0000
  C   C315      1.0  0.21771  0.80215  0.81126  1.0000
  C   C316      1.0  0.43932  0.91115  0.73642  1.0000
  H   H340      1.0  0.17696  0.81594  0.72348  1.0000
  H   H341      1.0  0.09923  0.61129  0.81442  1.0000
  H   H342      1.0  0.43809  0.94342  0.67646  1.0000
  H   H343      1.0  0.46968  0.97061  0.95116  1.0000
  C   C317      1.0  0.46763  0.91857  0.74447  1.0000
  H   H344      1.0  0.05912  0.56588  0.87243  1.0000
  C   C318      1.0  0.16204  0.57364  0.67342  1.0000
  H   H345      1.0  0.08382  0.54235  0.78699  1.0000
  H   H346      1.0  0.47374  0.54858  0.87309  1.0000
  C   C319      1.0  0.06245  0.49420  0.85220  1.0000
  C   C320      1.0  0.12618  0.61844  0.71626  1.0000
  N   N22       1.0  0.43265  0.48875  0.99058  1.0000
  H   H347      1.0  0.39578  0.89606  0.67872  1.0000
  C   C321      1.0  0.24600  0.82553  0.76938  1.0000
  H   H348      1.0  0.21176  0.85585  0.70359  1.0000
  C   C322      1.0  0.42816  0.81910  0.95981  1.0000
  H   H349      1.0  0.42203  0.48979  0.94754  1.0000
  H   H350      1.0  0.41623  0.84726  0.89007  1.0000
  C   C323      1.0  0.07073  0.50116  0.80284  1.0000
  C   C324      1.0  0.44801  0.52032  0.99392  1.0000
  C   C325      1.0  0.23382  0.82880  0.82531  1.0000
  C   C326      1.0  0.44400  0.89737  0.68888  1.0000
  H   H351      1.0  0.11119  0.58902  0.79926  1.0000
  H   H352      1.0  0.22457  0.76286  0.84022  1.0000
  C   C327      1.0  0.21936  0.82234  0.68731  1.0000
  H   H353      1.0  0.10611  0.63456  0.97778  1.0000
  H   H354      1.0  0.39048  0.90822  0.71103  1.0000
  H   H355      1.0  0.38590  0.86544  0.89815  1.0000
  C   C328      1.0  0.15334  0.61607  0.75500  1.0000
  C   C329      1.0  0.46123  0.90838  0.93957  1.0000
  H   H356      1.0  0.21390  0.78178  0.77056  1.0000
  H   H357      1.0  0.16302  0.53279  0.70307  1.0000
  H   H358      1.0  0.43238  0.81190  0.97934  1.0000
  H   H359      1.0  0.26186  0.89407  0.70214  1.0000
  N   N23       1.0  0.19553  0.77684  0.82638  1.0000
  C   C330      1.0  0.44780  0.54910  0.71128  1.0000
  C   C331      1.0  0.17431  0.78348  0.83901  1.0000
  H   H360      1.0  0.32764  0.93378  0.70805  1.0000
  C   C332      1.0  0.43670  0.50139  0.72713  1.0000
  H   H361      1.0  0.10452  0.54346  0.67950  1.0000
  H   H362      1.0  0.19344  0.74354  0.79960  1.0000
  H   H363      1.0  0.16465  0.79103  0.82309  1.0000
  H   H364      1.0  0.15647  0.76446  0.84942  1.0000
  C   C333      1.0  0.45470  0.91277  0.79325  1.0000
  H   H365      1.0  0.16788  0.75504  0.79139  1.0000
  C   C334      1.0  0.47380  0.91140  0.88286  1.0000
  H   H366      1.0  0.43735  0.95351  0.71171  1.0000
  H   H367      1.0  0.19339  0.75156  0.86196  1.0000
  H   H368      1.0  0.26743  0.87299  0.82300  1.0000
  H   H369      1.0  0.47857  0.91204  0.86094  1.0000
  C   C335      1.0  0.20945  0.76933  0.84882  1.0000
  H   H370      1.0  0.45314  0.97447  0.87008  1.0000
  H   H371      1.0  0.22210  0.78756  0.86318  1.0000
  H   H372      1.0  0.23027  0.83117  0.84709  1.0000
  H   H373      1.0  0.06905  0.53008  0.87619  1.0000
  H   H374      1.0  0.16730  0.58576  0.75262  1.0000
  H   H375      1.0  0.41812  0.53620  0.77574  1.0000
  C   C336      1.0  0.06974  0.52280  0.85540  1.0000
  C   C337      1.0  0.11723  0.53712  0.69276  1.0000
  H   H376      1.0  0.19593  0.76376  0.69238  1.0000
  H   H377      1.0  0.11871  0.52003  0.68108  1.0000
  H   H378      1.0  0.43137  0.98193  0.96213  1.0000
  H   H379      1.0  0.43748  0.57371  0.73942  1.0000
  H   H380      1.0  0.18909  0.79116  0.73121  1.0000
  C   C338      1.0  0.18413  0.77108  0.67886  1.0000
  H   H381      1.0  0.04216  0.56174  0.83913  1.0000
  C   C339      1.0  0.42669  0.53276  0.75658  1.0000
  C   C340      1.0  0.43750  0.55384  0.73617  1.0000
  C   C341      1.0  0.46737  0.55578  0.89137  1.0000
  H   H382      1.0  0.43699  0.53003  0.98249  1.0000
  H   H383      1.0  0.08515  0.51752  0.99336  1.0000
  H   H384      1.0  0.42690  0.98276  0.81956  1.0000
  H   H385      1.0  0.44760  0.97735  0.79358  1.0000
  H   H386      1.0  0.29938  0.88475  0.68403  1.0000
  H   H387      1.0  0.41710  0.49137  0.76884  1.0000
  H   H388      1.0  0.46780  0.90977  0.68735  1.0000
  C   C342      1.0  0.47844  0.59091  0.92778  1.0000
  H   H389      1.0  0.12999  0.49517  0.77393  1.0000
  H   H390      1.0  0.20130  0.50025  0.83290  1.0000
  H   H391      1.0  0.08436  0.64885  0.99024  1.0000
  C   C343      1.0  0.08517  0.62874  0.98765  1.0000
  H   H392      1.0  0.06798  0.61509  0.97250  1.0000
  C   C344      1.0  0.37395  0.98690  0.99181  1.0000
  C   C345      1.0  0.10899  0.56339  0.99639  1.0000
  H   H393      1.0  0.12720  0.60848  0.99785  1.0000
  C   C346      1.0  0.10781  0.58830  0.00145  1.0000
  H   H394      1.0  0.98637  0.60439  0.98831  1.0000
  C   C347      1.0  0.47497  0.91889  0.77244  1.0000
  C   C348      1.0  0.99854  0.62245  0.00204  1.0000
  H   H395      1.0  0.55292  0.43024  0.32641  1.0000
  S   S96       1.0  0.53242  0.12265  0.07892  1.0000
  Fe  Fe45      1.0  0.67833  0.07426  0.12110  1.0000
  S   S97       1.0  0.66423  0.10582  0.11024  1.0000
  S   S98       1.0  0.66940  0.03538  0.09395  1.0000
  Fe  Fe46      1.0  0.69467  0.09817  0.18209  1.0000
  S   S99       1.0  0.68069  0.13024  0.17470  1.0000
  S   S100      1.0  0.71856  0.09996  0.22227  1.0000
  Fe  Fe47      1.0  0.64294  0.09505  0.15213  1.0000
  S   S101      1.0  0.59680  0.08231  0.16118  1.0000
  Fe  Fe48      1.0  0.70374  0.13826  0.13372  1.0000
  S   S102      1.0  0.72980  0.18551  0.12274  1.0000
  S   S103      1.0  0.65516  0.06204  0.16234  1.0000
  S   S104      1.0  0.71966  0.10759  0.14177  1.0000
  S   S105      1.0  0.52220  0.42177  0.07177  1.0000
  H   H396      1.0  0.54752  0.19024  0.04048  1.0000
  Fe  Fe49      1.0  0.95240  0.35897  0.11493  1.0000
  S   S106      1.0  0.91395  0.34389  0.08743  1.0000
  Fe  Fe50      1.0  0.91647  0.34963  0.16901  1.0000
  S   S107      1.0  0.87607  0.33477  0.14373  1.0000
  S   S108      1.0  0.90348  0.34681  0.21482  1.0000
  Fe  Fe51      1.0  0.89061  0.30908  0.11906  1.0000
  S   S109      1.0  0.86558  0.26142  0.10927  1.0000
  Fe  Fe52      1.0  0.90344  0.37108  0.11510  1.0000
  S   S110      1.0  0.89190  0.40166  0.09457  1.0000
  S   S111      1.0  0.92998  0.32222  0.14520  1.0000
  C   C349      1.0  0.90598  0.43520  0.11119  1.0000
  C   C350      1.0  0.90606  0.45814  0.09743  1.0000
  H   H397      1.0  0.61795  0.44277  0.05377  1.0000
  C   C351      1.0  0.91682  0.43913  0.13823  1.0000
  H   H398      1.0  0.89767  0.45518  0.07648  1.0000
  H   H399      1.0  0.96281  0.36678  0.23311  1.0000
  H   H400      1.0  0.91613  0.42146  0.14932  1.0000
  C   C352      1.0  0.61990  0.46212  0.04498  1.0000
  C   C353      1.0  0.94328  0.35601  0.30193  1.0000
  C   C354      1.0  0.91962  0.35002  0.24787  1.0000
  S   S112      1.0  0.48602  0.15142  0.11630  1.0000
  C   C355      1.0  0.91376  0.34487  0.29853  1.0000
  H   H401      1.0  0.95131  0.32102  0.07394  1.0000
  C   C356      1.0  0.96756  0.29119  0.10574  1.0000
  H   H402      1.0  0.50569  0.02497  0.06679  1.0000
  H   H403      1.0  0.96712  0.41627  0.31809  1.0000
  C   C357      1.0  0.55404  0.44318  0.09041  1.0000
  C   C358      1.0  0.56391  0.43112  0.11006  1.0000
  C   C359      1.0  0.59072  0.44808  0.12284  1.0000
  C   C360      1.0  0.97714  0.46902  0.06859  1.0000
  H   H404      1.0  0.55145  0.40851  0.11457  1.0000
  C   C361      1.0  0.76751  0.20604  0.11819  1.0000
  C   C362      1.0  0.78444  0.19335  0.11437  1.0000
  C   C363      1.0  0.81443  0.21058  0.11153  1.0000
  C   C364      1.0  0.82780  0.24060  0.11276  1.0000
  C   C365      1.0  0.81087  0.25326  0.11672  1.0000
  C   C366      1.0  0.78087  0.23605  0.11915  1.0000
  H   H405      1.0  0.77441  0.17028  0.11340  1.0000
  H   H406      1.0  0.82734  0.20060  0.10839  1.0000
  H   H407      1.0  0.82085  0.27632  0.11758  1.0000
  H   H408      1.0  0.76794  0.24607  0.12197  1.0000
  C   C367      1.0  0.65956  0.02632  0.05828  1.0000
  H   H409      1.0  0.49841  0.44706  0.20603  1.0000
  C   C368      1.0  0.56040  0.45075  0.31635  1.0000
  C   C369      1.0  0.66455  0.04687  0.03808  1.0000
  H   H410      1.0  0.54103  0.99291  0.12147  1.0000
  H   H411      1.0  0.67460  0.06921  0.04399  1.0000
  C   C370      1.0  0.55003  0.11141  0.10205  1.0000
  C   C371      1.0  0.57813  0.11783  0.09611  1.0000
  C   C372      1.0  0.59275  0.10916  0.11423  1.0000
  C   C373      1.0  0.57914  0.09360  0.13812  1.0000
  C   C374      1.0  0.55078  0.08659  0.14371  1.0000
  C   C375      1.0  0.53633  0.09575  0.12588  1.0000
  H   H412      1.0  0.58879  0.12989  0.07765  1.0000
  H   H413      1.0  0.61463  0.11477  0.10980  1.0000
  H   H414      1.0  0.54001  0.07425  0.16198  1.0000
  H   H415      1.0  0.51463  0.09063  0.13057  1.0000
  C   C376      1.0  0.70833  0.08634  0.31767  1.0000
  C   C377      1.0  0.72968  0.08477  0.30245  1.0000
  C   C378      1.0  0.73211  0.08910  0.27360  1.0000
  C   C379      1.0  0.71272  0.09423  0.25887  1.0000
  C   C380      1.0  0.69104  0.09583  0.27385  1.0000
  C   C381      1.0  0.68898  0.09212  0.30327  1.0000
  N   N24       1.0  0.57625  0.01463  0.09254  1.0000
  H   H416      1.0  0.74896  0.08786  0.26248  1.0000
  H   H417      1.0  0.67596  0.09992  0.26282  1.0000
  H   H418      1.0  0.67220  0.09318  0.31467  1.0000
  S   S113      1.0  0.94294  0.38786  0.14159  1.0000
  H   H419      1.0  0.49857  0.23866  0.12318  1.0000
  H   H420      1.0  0.75885  0.14597  0.31530  1.0000
  H   H421      1.0  0.92100  0.28787  0.08465  1.0000
  H   H422      1.0  0.51873  0.43905  0.30006  1.0000
  H   H423      1.0  0.48609  0.44554  0.05213  1.0000
  C   C382      1.0  0.49852  0.01073  0.00981  1.0000
  H   H424      1.0  0.95763  0.24549  0.07373  1.0000
  N   N25       1.0  0.95941  0.28615  0.07583  1.0000
  Fe  Fe53      1.0  0.48521  0.38604  0.09494  1.0000
  H   H425      1.0  0.93557  0.46842  0.17263  1.0000
  C   C383      1.0  0.57801  0.24195  0.06542  1.0000
  H   H426      1.0  0.50856  0.09158  0.22622  1.0000
  C   C384      1.0  0.56487  0.09352  0.27791  1.0000
  H   H427      1.0  0.50670  0.22448  0.16972  1.0000
  H   H428      1.0  0.52450  0.05800  0.04708  1.0000
  H   H429      1.0  0.56183  0.07519  0.33322  1.0000
  H   H430      1.0  0.58915  0.19889  0.06569  1.0000
  H   H431      1.0  0.97818  0.31440  0.11117  1.0000
  C   C385      1.0  0.56240  0.99814  0.06684  1.0000
  C   C386      1.0  0.93991  0.29752  0.07052  1.0000
  H   H432      1.0  0.60231  0.01327  0.04370  1.0000
  H   H433      1.0  0.56781  0.18068  0.09502  1.0000
  C   C387      1.0  0.83421  0.43579  0.12286  1.0000
  H   H434      1.0  0.52090  0.45565  0.13292  1.0000
  H   H435      1.0  0.82584  0.48127  0.18606  1.0000
  N   N26       1.0  0.93863  0.43333  0.32304  1.0000
  C   C388      1.0  0.52720  0.11289  0.32731  1.0000
  C   C389      1.0  0.53932  0.09146  0.28888  1.0000
  H   H436      1.0  0.83184  0.39755  0.10586  1.0000
  H   H437      1.0  0.56461  0.25083  0.05769  1.0000
  C   C390      1.0  0.60735  0.47728  0.11664  1.0000
  C   C391      1.0  0.75059  0.16085  0.31963  1.0000
  H   H438      1.0  0.60391  0.01437  0.12494  1.0000
  C   C392      1.0  0.51828  0.22318  0.15184  1.0000
  H   H439      1.0  0.56194  0.44984  0.17197  1.0000
  H   H440      1.0  0.61656  0.04770  0.07513  1.0000
  H   H441      1.0  0.58137  0.09397  0.29103  1.0000
  H   H442      1.0  0.57709  0.11378  0.33350  1.0000
  H   H443      1.0  0.94860  0.44657  0.28019  1.0000
  H   H444      1.0  0.50484  0.05634  0.07742  1.0000
  C   C393      1.0  0.51912  0.09055  0.26931  1.0000
  H   H445      1.0  0.87927  0.33385  0.26933  1.0000
  C   C394      1.0  0.48975  0.47324  0.01834  1.0000
  H   H446      1.0  0.85590  0.45934  0.18953  1.0000
  H   H447      1.0  0.91055  0.42620  0.28817  1.0000
  C   C395      1.0  0.56982  0.09498  0.24919  1.0000
  H   H448      1.0  0.48789  0.43528  0.17117  1.0000
  H   H449      1.0  0.52369  0.20195  0.05257  1.0000
  H   H450      1.0  0.58705  0.05452  0.07263  1.0000
  C   C396      1.0  0.72884  0.00868  0.04028  1.0000
  H   H451      1.0  0.87285  0.28564  0.22732  1.0000
  C   C397      1.0  0.63880  0.98910  0.02196  1.0000
  H   H452      1.0  0.93376  0.24891  0.04996  1.0000
  H   H453      1.0  0.81003  0.46882  0.10925  1.0000
  C   C398      1.0  0.81100  0.19885  0.31356  1.0000
  C   C399      1.0  0.50458  0.04370  0.05887  1.0000
  C   C400      1.0  0.96079  0.36369  0.27811  1.0000
  N   N27       1.0  0.83973  0.48108  0.14397  1.0000
  H   H454      1.0  0.49688  0.07373  0.01810  1.0000
  C   C401      1.0  0.85632  0.23837  0.32973  1.0000
  N   N28       1.0  0.76791  0.19378  0.20853  1.0000
  C   C402      1.0  0.75173  0.17852  0.23386  1.0000
  C   C403      1.0  0.75104  0.20466  0.19397  1.0000
  C   C404      1.0  0.76969  0.17232  0.19046  1.0000
  C   C405      1.0  0.79702  0.21812  0.21435  1.0000
  C   C406      1.0  0.80698  0.22856  0.24172  1.0000
  C   C407      1.0  0.81583  0.23325  0.19206  1.0000
  C   C408      1.0  0.83410  0.25260  0.24621  1.0000
  C   C409      1.0  0.84287  0.25715  0.19678  1.0000
  C   C410      1.0  0.85198  0.26683  0.22380  1.0000
  H   H455      1.0  0.76321  0.16952  0.24560  1.0000
  H   H456      1.0  0.74748  0.19256  0.24765  1.0000
  H   H457      1.0  0.73027  0.15994  0.22845  1.0000
  H   H458      1.0  0.74880  0.22055  0.20693  1.0000
  H   H459      1.0  0.72918  0.18712  0.18833  1.0000
  H   H460      1.0  0.76124  0.21545  0.17415  1.0000
  H   H461      1.0  0.78354  0.16474  0.19995  1.0000
  H   H462      1.0  0.74820  0.15315  0.18684  1.0000
  H   H463      1.0  0.77818  0.18067  0.16947  1.0000
  H   H464      1.0  0.79412  0.21883  0.25994  1.0000
  H   H465      1.0  0.80957  0.22709  0.17066  1.0000
  H   H466      1.0  0.84126  0.26065  0.26713  1.0000
  H   H467      1.0  0.85668  0.26850  0.17929  1.0000
  C   C411      1.0  0.54107  0.45572  0.30162  1.0000
  H   H468      1.0  0.49360  0.38961  0.25179  1.0000
  H   H469      1.0  0.96660  0.40161  0.06524  1.0000
  C   C412      1.0  0.57977  0.20213  0.08510  1.0000
  H   H470      1.0  0.52436  0.17280  0.06926  1.0000
  C   C413      1.0  0.65749  0.03865  0.00990  1.0000
  C   C414      1.0  0.96674  0.43503  0.32739  1.0000
  C   C415      1.0  0.94906  0.36064  0.25120  1.0000
  H   H471      1.0  0.93124  0.40882  0.28509  1.0000
  H   H472      1.0  0.94453  0.41480  0.05126  1.0000
  H   H473      1.0  0.53520  0.48619  0.27824  1.0000
  C   C416      1.0  0.93197  0.42873  0.29280  1.0000
  C   C417      1.0  0.90209  0.34215  0.27169  1.0000
  H   H474      1.0  0.94841  0.28030  0.11954  1.0000
  C   C418      1.0  0.84944  0.44624  0.17099  1.0000
  H   H475      1.0  0.59876  0.43850  0.13738  1.0000
  H   H476      1.0  0.75214  0.17295  0.30048  1.0000
  H   H477      1.0  0.85855  0.41587  0.19086  1.0000
  C   C419      1.0  0.92755  0.46571  0.15154  1.0000
  H   H478      1.0  0.58937  0.09644  0.24112  1.0000
  C   C420      1.0  0.55563  0.01465  0.11314  1.0000
  H   H479      1.0  0.56546  0.20155  0.13555  1.0000
  H   H480      1.0  0.58962  0.24021  0.04699  1.0000
  H   H481      1.0  0.54284  0.02366  0.10410  1.0000
  H   H482      1.0  0.72729  0.14698  0.32416  1.0000
  S   S114      1.0  0.95936  0.36144  0.33538  1.0000
  H   H483      1.0  0.49898  0.08843  0.27602  1.0000
  N   N29       1.0  0.53284  0.46646  0.17610  1.0000
  C   C421      1.0  0.55040  0.48226  0.28934  1.0000
  C   C422      1.0  0.52435  0.09218  0.24067  1.0000
  H   H484      1.0  0.55381  0.09574  0.20844  1.0000
  C   C423      1.0  0.85110  0.42120  0.17210  1.0000
  H   H485      1.0  0.94955  0.41511  0.08781  1.0000
  C   C424      1.0  0.50759  0.06179  0.32549  1.0000
  C   C425      1.0  0.54005  0.44347  0.17953  1.0000
  H   H486      1.0  0.60267  0.46703  0.33119  1.0000
  C   C426      1.0  0.53545  0.47427  0.14628  1.0000
  C   C427      1.0  0.59702  0.04500  0.08586  1.0000
  H   H487      1.0  0.60518  0.05841  0.10503  1.0000
  H   H488      1.0  0.59801  0.21658  0.09884  1.0000
  N   N30       1.0  0.56060  0.21393  0.07928  1.0000
  H   H489      1.0  0.56688  0.02802  0.13176  1.0000
  C   C428      1.0  0.53815  0.19403  0.05957  1.0000
  H   H490      1.0  0.82887  0.44108  0.10294  1.0000
  C   C429      1.0  0.54696  0.21766  0.10456  1.0000
  C   C430      1.0  0.55158  0.21025  0.13170  1.0000
  C   C431      1.0  0.52796  0.22865  0.10241  1.0000
  C   C432      1.0  0.53730  0.21294  0.15488  1.0000
  C   C433      1.0  0.51376  0.23118  0.12568  1.0000
  C   C434      1.0  0.59748  0.46086  0.02942  1.0000
  H   H491      1.0  0.58068  0.48389  0.00867  1.0000
  H   H492      1.0  0.74466  0.08022  0.31308  1.0000
  H   H493      1.0  0.52507  0.42383  0.16757  1.0000
  H   H494      1.0  0.96589  0.35871  0.04251  1.0000
  H   H495      1.0  0.51790  0.01835  0.02191  1.0000
  H   H496      1.0  0.92507  0.24376  0.08591  1.0000
  C   C435      1.0  0.59199  0.00196  0.10611  1.0000
  H   H497      1.0  0.48933  0.31064  0.20606  1.0000
  H   H498      1.0  0.85073  0.21693  0.29053  1.0000
  H   H499      1.0  0.95877  0.28383  0.01860  1.0000
  C   C436      1.0  0.50225  0.45441  0.18401  1.0000
  H   H500      1.0  0.52311  0.23448  0.08249  1.0000
  H   H501      1.0  0.93131  0.29333  0.04895  1.0000
  C   C437      1.0  0.57044  0.47249  0.08451  1.0000
  C   C438      1.0  0.94337  0.25475  0.07111  1.0000
  H   H502      1.0  0.96756  0.46819  0.08942  1.0000
  C   C439      1.0  0.93519  0.47857  0.31775  1.0000
  H   H503      1.0  0.59423  0.25795  0.08001  1.0000
  C   C440      1.0  0.83585  0.41079  0.12425  1.0000
  C   C441      1.0  0.58915  0.47224  0.31889  1.0000
  C   C442      1.0  0.71468  0.01486  0.01963  1.0000
  Fe  Fe54      1.0  0.49017  0.11810  0.09238  1.0000
  H   H504      1.0  0.84654  0.38464  0.14943  1.0000
  C   C443      1.0  0.96071  0.41852  0.06754  1.0000
  H   H505      1.0  0.57802  0.44042  0.02632  1.0000
  C   C444      1.0  0.97999  0.29634  0.02741  1.0000
  N   N31       1.0  0.53319  0.08983  0.31910  1.0000
  H   H506      1.0  0.53868  0.43721  0.20177  1.0000
  H   H507      1.0  0.89992  0.33842  0.31657  1.0000
  H   H508      1.0  0.96020  0.46551  0.05330  1.0000
  C   C445      1.0  0.54970  0.09446  0.23064  1.0000
  H   H509      1.0  0.73841  0.02322  0.05777  1.0000
  C   C446      1.0  0.84057  0.45414  0.14631  1.0000
  C   C447      1.0  0.84425  0.40350  0.14882  1.0000
  H   H510      1.0  0.54523  0.13432  0.32145  1.0000
  H   H511      1.0  0.75383  0.21123  0.33146  1.0000
  H   H512      1.0  0.79999  0.18335  0.29724  1.0000
  C   C448      1.0  0.57930  0.99962  0.04351  1.0000
  H   H513      1.0  0.87901  0.25320  0.32652  1.0000
  C   C449      1.0  0.84028  0.21798  0.30946  1.0000
  H   H514      1.0  0.79356  0.45900  0.14310  1.0000
  H   H515      1.0  0.54040  0.20630  0.17523  1.0000
  C   C450      1.0  0.59925  0.48597  0.01939  1.0000
  H   H516      1.0  0.91343  0.38760  0.32887  1.0000
  C   C451      1.0  0.91696  0.48489  0.11076  1.0000
  C   C452      1.0  0.64665  0.99741  0.04998  1.0000
  H   H517      1.0  0.93093  0.47532  0.29570  1.0000
  H   H518      1.0  0.56277  0.48189  0.06940  1.0000
  H   H519      1.0  0.49477  0.47001  0.18073  1.0000
  H   H520      1.0  0.60818  0.00159  0.09200  1.0000
  H   H521      1.0  0.71313  0.03411  0.02120  1.0000
  C   C453      1.0  0.64433  0.48843  0.05023  1.0000
  H   H522      1.0  0.55748  0.48213  0.13837  1.0000
  H   H523      1.0  0.98215  0.28297  0.11136  1.0000
  C   C454      1.0  0.81225  0.47568  0.13136  1.0000
  H   H524      1.0  0.48797  0.05883  0.31475  1.0000
  C   C455      1.0  0.93972  0.45944  0.33440  1.0000
  H   H525      1.0  0.50725  0.11026  0.31765  1.0000
  H   H526      1.0  0.51086  0.04381  0.31896  1.0000
  H   H527      1.0  0.96536  0.44604  0.01360  1.0000
  C   C456      1.0  0.92744  0.48858  0.13803  1.0000
  H   H528      1.0  0.51169  0.47902  0.01372  1.0000
  H   H529      1.0  0.48535  0.25048  0.05444  1.0000
  H   H530      1.0  0.98364  0.37216  0.28049  1.0000
  C   C457      1.0  0.98425  0.29992  0.05666  1.0000
  S   S115      1.0  0.53700  0.15564  0.39579  1.0000
  Fe  Fe55      1.0  0.64278  0.09921  0.41980  1.0000
  S   S116      1.0  0.65555  0.06539  0.42032  1.0000
  S   S117      1.0  0.59468  0.08036  0.41912  1.0000
  Fe  Fe56      1.0  0.70501  0.14793  0.42463  1.0000
  S   S118      1.0  0.72156  0.11727  0.42643  1.0000
  S   S119      1.0  0.73322  0.19639  0.42157  1.0000
  Fe  Fe57      1.0  0.69066  0.09470  0.39101  1.0000
  Fe  Fe58      1.0  0.68455  0.09090  0.45559  1.0000
  S   S120      1.0  0.69095  0.07438  0.49747  1.0000
  S   S121      1.0  0.67570  0.12645  0.38788  1.0000
  S   S122      1.0  0.67026  0.12362  0.45635  1.0000
  C   C458      1.0  0.96670  0.31966  0.57409  1.0000
  S   S123      1.0  0.53871  0.39797  0.38804  1.0000
  Fe  Fe59      1.0  0.89605  0.31886  0.42306  1.0000
  S   S124      1.0  0.94230  0.33309  0.41367  1.0000
  S   S125      1.0  0.86921  0.27211  0.43599  1.0000
  Fe  Fe60      1.0  0.90593  0.37846  0.41270  1.0000
  S   S126      1.0  0.88398  0.40365  0.40262  1.0000
  Fe  Fe61      1.0  0.93811  0.35716  0.37763  1.0000
  Fe  Fe62      1.0  0.95313  0.37136  0.44080  1.0000
  S   S127      1.0  0.89120  0.33987  0.38483  1.0000
  S   S128      1.0  0.90691  0.35612  0.45191  1.0000
  C   C459      1.0  0.89366  0.43631  0.41937  1.0000
  C   C460      1.0  0.88484  0.45446  0.40775  1.0000
  C   C461      1.0  0.91566  0.46992  0.45758  1.0000
  C   C462      1.0  0.90946  0.44426  0.44413  1.0000
  H   H531      1.0  0.54249  0.01080  0.48853  1.0000
  H   H532      1.0  0.72820  0.18300  0.35359  1.0000
  H   H533      1.0  0.91609  0.43022  0.45330  1.0000
  C   C463      1.0  0.53469  0.31595  0.39835  1.0000
  C   C464      1.0  0.58601  0.45133  0.39419  1.0000
  C   C465      1.0  0.55648  0.43555  0.38848  1.0000
  C   C466      1.0  0.54129  0.44989  0.38412  1.0000
  H   H534      1.0  0.98273  0.44445  0.50365  1.0000
  H   H535      1.0  0.59790  0.44030  0.39748  1.0000
  H   H536      1.0  0.51877  0.43805  0.37901  1.0000
  C   C467      1.0  0.77085  0.21723  0.42719  1.0000
  C   C468      1.0  0.78700  0.20527  0.43694  1.0000
  C   C469      1.0  0.81705  0.22239  0.43968  1.0000
  C   C470      1.0  0.83128  0.25160  0.43273  1.0000
  C   C471      1.0  0.81511  0.26358  0.42311  1.0000
  C   C472      1.0  0.78506  0.24649  0.42046  1.0000
  H   H537      1.0  0.77637  0.18285  0.44237  1.0000
  H   H538      1.0  0.82935  0.21292  0.44719  1.0000
  H   H539      1.0  0.82572  0.28603  0.41777  1.0000
  H   H540      1.0  0.77278  0.25599  0.41299  1.0000
  C   C473      1.0  0.66994  0.04305  0.51781  1.0000
  H   H541      1.0  0.95872  0.28578  0.47396  1.0000
  H   H542      1.0  0.70536  0.05588  0.44682  1.0000
  H   H543      1.0  0.53661  0.42570  0.44829  1.0000
  C   C474      1.0  0.66279  0.01828  0.56248  1.0000
  C   C475      1.0  0.67706  0.04320  0.54605  1.0000
  H   H544      1.0  0.76031  0.21097  0.36789  1.0000
  C   C476      1.0  0.53600  0.48036  0.48393  1.0000
  H   H545      1.0  0.66922  0.01866  0.58388  1.0000
  H   H546      1.0  0.69422  0.06263  0.55514  1.0000
  C   C477      1.0  0.55340  0.13535  0.40391  1.0000
  C   C478      1.0  0.53685  0.10691  0.41239  1.0000
  C   C479      1.0  0.54993  0.09049  0.41751  1.0000
  C   C480      1.0  0.57964  0.10241  0.41429  1.0000
  C   C481      1.0  0.59633  0.13100  0.40624  1.0000
  C   C482      1.0  0.58320  0.14745  0.40107  1.0000
  H   H547      1.0  0.51402  0.09760  0.41529  1.0000
  H   H548      1.0  0.92144  0.40762  0.36000  1.0000
  H   H549      1.0  0.61928  0.14034  0.40379  1.0000
  H   H550      1.0  0.59613  0.16949  0.39463  1.0000
  S   S129      1.0  0.95280  0.39681  0.40372  1.0000
  C   C483      1.0  0.94518  0.46622  0.36317  1.0000
  C   C484      1.0  0.60798  0.04843  0.51874  1.0000
  H   H551      1.0  0.48729  0.45515  0.45318  1.0000
  H   H552      1.0  0.58501  0.99724  0.61839  1.0000
  S   S130      1.0  0.70743  0.08042  0.35431  1.0000
  H   H553      1.0  0.71596  0.05567  0.41159  1.0000
  H   H554      1.0  0.73718  0.05388  0.43919  1.0000
  H   H555      1.0  0.51788  0.46907  0.43066  1.0000
  H   H556      1.0  0.49477  0.40697  0.47647  1.0000
  H   H557      1.0  0.89695  0.25883  0.48908  1.0000
  H   H558      1.0  0.96320  0.32077  0.46702  1.0000
  H   H559      1.0  0.91001  0.31604  0.51843  1.0000
  H   H560      1.0  0.48884  0.20977  0.38074  1.0000
  H   H561      1.0  0.62013  0.04170  0.55851  1.0000
  C   C485      1.0  0.50776  0.29151  0.39629  1.0000
  H   H562      1.0  0.95936  0.31941  0.59516  1.0000
  H   H563      1.0  0.53697  0.06844  0.42392  1.0000
  H   H564      1.0  0.92701  0.47555  0.47720  1.0000
  C   C486      1.0  0.63398  0.99257  0.52263  1.0000
  C   C487      1.0  0.50539  0.21815  0.43364  1.0000
  C   C488      1.0  0.90692  0.48813  0.44588  1.0000
  H   H565      1.0  0.59966  0.03143  0.60230  1.0000
  H   H566      1.0  0.87261  0.44837  0.38859  1.0000
  H   H567      1.0  0.50264  0.05948  0.34818  1.0000
  C   C489      1.0  0.57434  0.01139  0.55081  1.0000
  H   H568      1.0  0.77051  0.17480  0.38728  1.0000
  H   H569      1.0  0.48537  0.42930  0.49550  1.0000
  H   H570      1.0  0.96343  0.38163  0.52223  1.0000
  C   C490      1.0  0.51104  0.21398  0.38437  1.0000
  H   H571      1.0  0.62947  0.06579  0.51417  1.0000
  H   H572      1.0  0.52411  0.11326  0.35019  1.0000
  C   C491      1.0  0.71470  0.04636  0.43258  1.0000
  H   H573      1.0  0.72216  0.04072  0.48388  1.0000
  C   C492      1.0  0.55872  0.31335  0.40373  1.0000
  C   C493      1.0  0.76229  0.16209  0.36781  1.0000
  Fe  Fe63      1.0  0.48928  0.12949  0.38869  1.0000
  C   C494      1.0  0.59996  0.48130  0.39688  1.0000
  C   C495      1.0  0.75151  0.19708  0.34919  1.0000
  C   C496      1.0  0.84326  0.23948  0.35435  1.0000
  C   C497      1.0  0.58648  0.04000  0.49878  1.0000
  C   C498      1.0  0.70854  0.01773  0.48415  1.0000
  H   H574      1.0  0.54877  0.02143  0.59307  1.0000
  C   C499      1.0  0.70460  0.00466  0.51011  1.0000
  H   H575      1.0  0.90451  0.30777  0.48219  1.0000
  H   H576      1.0  0.92463  0.30000  0.55708  1.0000
  N   N32       1.0  0.52454  0.23188  0.40948  1.0000
  H   H577      1.0  0.93096  0.28920  0.45706  1.0000
  H   H578      1.0  0.97189  0.43515  0.34980  1.0000
  H   H579      1.0  0.51610  0.42625  0.50606  1.0000
  C   C500      1.0  0.52865  0.26091  0.40535  1.0000
  H   H580      1.0  0.57965  0.33249  0.40529  1.0000
  H   H581      1.0  0.55991  0.44747  0.47612  1.0000
  C   C501      1.0  0.69417  0.00152  0.46000  1.0000
  C   C502      1.0  0.50477  0.26443  0.39957  1.0000
  H   H582      1.0  0.71487  0.01759  0.52844  1.0000
  H   H583      1.0  0.59118  0.05097  0.47890  1.0000
  H   H584      1.0  0.73928  0.14630  0.37161  1.0000
  H   H585      1.0  0.52381  0.22433  0.36537  1.0000
  C   C503      1.0  0.89185  0.48055  0.42072  1.0000
  H   H586      1.0  0.54782  0.20966  0.41793  1.0000
  C   C504      1.0  0.52963  0.48382  0.51196  1.0000
  H   H587      1.0  0.98101  0.38941  0.57109  1.0000
  C   C505      1.0  0.92105  0.31587  0.49895  1.0000
  C   C506      1.0  0.94703  0.30861  0.55211  1.0000
  C   C507      1.0  0.50520  0.45201  0.44596  1.0000
  Fe  Fe64      1.0  0.49028  0.37492  0.39018  1.0000
  H   H588      1.0  0.51454  0.46606  0.52445  1.0000
  H   H589      1.0  0.89914  0.26623  0.52526  1.0000
  N   N33       1.0  0.69709  0.01463  0.43227  1.0000
  N   N34       1.0  0.93490  0.29818  0.50124  1.0000
  N   N35       1.0  0.52288  0.45218  0.46969  1.0000
  C   C508      1.0  0.91240  0.26815  0.50681  1.0000
  N   N36       1.0  0.56711  0.99649  0.57798  1.0000
  C   C509      1.0  0.95615  0.30939  0.52420  1.0000
  C   C510      1.0  0.66832  0.00698  0.42131  1.0000
  H   H590      1.0  0.71386  0.01364  0.39173  1.0000
  C   C511      1.0  0.60221  0.03435  0.54435  1.0000
  H   H591      1.0  0.50229  0.19646  0.43776  1.0000
  H   H592      1.0  0.93718  0.33847  0.49404  1.0000
  C   C512      1.0  0.55592  0.28630  0.40723  1.0000
  C   C513      1.0  0.55169  0.23179  0.41485  1.0000
  C   C514      1.0  0.94766  0.29851  0.47371  1.0000
  H   H593      1.0  0.94829  0.45243  0.37725  1.0000
  C   C515      1.0  0.50408  0.42774  0.48793  1.0000
  C   C516      1.0  0.55522  0.47974  0.38654  1.0000
  H   H594      1.0  0.66981  0.01824  0.40143  1.0000
  H   H595      1.0  0.73225  0.00860  0.42054  1.0000
  C   C517      1.0  0.64780  0.01766  0.50636  1.0000
  H   H596      1.0  0.64196  0.01707  0.48477  1.0000
  H   H597      1.0  0.56251  0.24387  0.43413  1.0000
  C   C518      1.0  0.59147  0.00836  0.59796  1.0000
  C   C519      1.0  0.91617  0.40784  0.33777  1.0000
  H   H598      1.0  0.56676  0.24076  0.39698  1.0000
  C   C520      1.0  0.64152  0.99259  0.55071  1.0000
  H   H599      1.0  0.92208  0.25439  0.51023  1.0000
  H   H600      1.0  0.53690  0.33696  0.39578  1.0000
  H   H601      1.0  0.50927  0.19258  0.38620  1.0000
  H   H602      1.0  0.85581  0.25507  0.37038  1.0000
  C   C521      1.0  0.54569  0.44686  0.45901  1.0000
  H   H603      1.0  0.48901  0.29356  0.39229  1.0000
  H   H604      1.0  0.51429  0.23128  0.45286  1.0000
  H   H605      1.0  0.80509  0.22196  0.37824  1.0000
  H   H606      1.0  0.55963  0.46294  0.44346  1.0000
  C   C522      1.0  0.55904  0.01735  0.50429  1.0000
  N   N37       1.0  0.76591  0.18026  0.34338  1.0000
  H   H607      1.0  0.55206  0.09202  0.35936  1.0000
  H   H608      1.0  0.77366  0.14981  0.36481  1.0000
  H   H609      1.0  0.65650  0.01284  0.43657  1.0000
  C   C523      1.0  0.55299  0.00317  0.52986  1.0000
  H   H610      1.0  0.60943  0.00553  0.59025  1.0000
  C   C524      1.0  0.81408  0.22045  0.35865  1.0000
  H   H611      1.0  0.57542  0.28593  0.41143  1.0000
  C   C525      1.0  0.54337  0.99870  0.59129  1.0000
  C   C526      1.0  0.71079  0.00376  0.41271  1.0000
  H   H612      1.0  0.49538  0.43133  0.43434  1.0000
  H   H613      1.0  0.97606  0.48585  0.49419  1.0000
  H   H614      1.0  0.89503  0.40691  0.33707  1.0000
  C   C527      1.0  0.79689  0.19981  0.33828  1.0000
  H   H615      1.0  0.53885  0.98958  0.61268  1.0000
  C   C528      1.0  0.55719  0.09286  0.33684  1.0000
  C   C529      1.0  0.50498  0.99239  0.79935  1.0000
  H   H616      1.0  0.69034  0.00142  0.98234  1.0000
  H   H617      1.0  0.50196  0.04217  0.83090  1.0000
  S   S131      1.0  0.63818  0.00100  0.96538  1.0000
  C   C530      1.0  0.49585  0.99408  0.98631  1.0000
  H   H618      1.0  0.66226  0.05488  0.99437  1.0000
  H   H619      1.0  0.98305  0.36169  0.99410  1.0000
  C   C531      1.0  0.70169  0.99593  0.99738  1.0000
  H   H620      1.0  0.49772  0.99987  0.78209  1.0000
  C   C532      1.0  0.64464  0.00976  0.00158  1.0000
  C   C533      1.0  0.49287  0.98916  0.82632  1.0000
  H   H621      1.0  0.51271  0.98941  0.98109  1.0000
  H   H622      1.0  0.53604  0.98903  0.77349  1.0000
  Fe  Fe65      1.0  0.66712  0.59851  0.10164  1.0000
  S   S132      1.0  0.68881  0.57267  0.09255  1.0000
  S   S133      1.0  0.63933  0.60689  0.07045  1.0000
  Fe  Fe66      1.0  0.67607  0.59650  0.16593  1.0000
  S   S134      1.0  0.69822  0.57099  0.16076  1.0000
  S   S135      1.0  0.66122  0.60477  0.20786  1.0000
  Fe  Fe67      1.0  0.72148  0.60027  0.12500  1.0000
  S   S136      1.0  0.77021  0.62149  0.11987  1.0000
  Fe  Fe68      1.0  0.66400  0.54563  0.12906  1.0000
  H   H623      1.0  0.57511  0.68422  0.00991  1.0000
  S   S137      1.0  0.70134  0.62811  0.13206  1.0000
  S   S138      1.0  0.64028  0.56908  0.13627  1.0000
  H   H624      1.0  0.94887  0.65702  0.02976  1.0000
  H   H625      1.0  0.61598  0.76242  0.01234  1.0000
  Fe  Fe69      1.0  0.89455  0.58075  0.12940  1.0000
  S   S139      1.0  0.92886  0.62638  0.13685  1.0000
  S   S140      1.0  0.84789  0.56273  0.11591  1.0000
  Fe  Fe70      1.0  0.93504  0.55850  0.14423  1.0000
  S   S141      1.0  0.94053  0.52110  0.15637  1.0000
  Fe  Fe71      1.0  0.93974  0.60989  0.17549  1.0000
  H   H626      1.0  0.55524  0.53978  0.24164  1.0000
  Fe  Fe72      1.0  0.95818  0.61489  0.11300  1.0000
  S   S142      1.0  0.90362  0.56516  0.16928  1.0000
  S   S143      1.0  0.92304  0.56993  0.10343  1.0000
  C   C534      1.0  0.67103  0.70969  0.05352  1.0000
  H   H627      1.0  0.61110  0.65618  0.08304  1.0000
  C   C535      1.0  0.94426  0.63001  0.27538  1.0000
  C   C536      1.0  0.93728  0.58964  0.30358  1.0000
  C   C537      1.0  0.93533  0.57465  0.27890  1.0000
  C   C538      1.0  0.93767  0.58713  0.25260  1.0000
  C   C539      1.0  0.94231  0.61498  0.25065  1.0000
  H   H628      1.0  0.61966  0.55686  0.31410  1.0000
  H   H629      1.0  0.66519  0.54973  0.28173  1.0000
  H   H630      1.0  0.93212  0.55324  0.28003  1.0000
  H   H631      1.0  0.93627  0.57535  0.23382  1.0000
  C   C540      1.0  0.79094  0.60418  0.12168  1.0000
  C   C541      1.0  0.77897  0.57492  0.11619  1.0000
  C   C542      1.0  0.79665  0.56252  0.11504  1.0000
  C   C543      1.0  0.82637  0.57903  0.11996  1.0000
  C   C544      1.0  0.83824  0.60812  0.12629  1.0000
  C   C545      1.0  0.82064  0.62064  0.12682  1.0000
  H   H632      1.0  0.75622  0.56201  0.11205  1.0000
  H   H633      1.0  0.78722  0.54004  0.11004  1.0000
  H   H634      1.0  0.86105  0.62117  0.12999  1.0000
  H   H635      1.0  0.83015  0.64332  0.13093  1.0000
  C   C546      1.0  0.67665  0.60637  0.24099  1.0000
  C   C547      1.0  0.66313  0.60901  0.26502  1.0000
  C   C548      1.0  0.67490  0.61092  0.29170  1.0000
  C   C549      1.0  0.70048  0.61036  0.29465  1.0000
  C   C550      1.0  0.71389  0.60756  0.27065  1.0000
  C   C551      1.0  0.70194  0.60532  0.24399  1.0000
  H   H636      1.0  0.64377  0.61024  0.26291  1.0000
  H   H637      1.0  0.66469  0.61375  0.30988  1.0000
  H   H638      1.0  0.73381  0.60736  0.27262  1.0000
  H   H639      1.0  0.71267  0.60344  0.22572  1.0000
  H   H640      1.0  0.91798  0.66149  0.09831  1.0000
  H   H641      1.0  0.85599  0.59930  0.06164  1.0000
  H   H642      1.0  0.91506  0.64215  0.01170  1.0000
  C   C552      1.0  0.83154  0.64547  0.05455  1.0000
  C   C553      1.0  0.61790  0.62356  0.02664  1.0000
  C   C554      1.0  0.64283  0.62624  0.03914  1.0000
  C   C555      1.0  0.66930  0.64380  0.02633  1.0000
  H   H643      1.0  0.59729  0.61018  0.03634  1.0000
  H   H644      1.0  0.68872  0.64624  0.03558  1.0000
  H   H645      1.0  0.64271  0.98128  0.06536  1.0000
  N   N38       1.0  0.91232  0.64649  0.05595  1.0000
  C   C556      1.0  0.90968  0.61834  0.06218  1.0000
  C   C557      1.0  0.60217  0.53069  0.20192  1.0000
  C   C558      1.0  0.81496  0.61435  0.32606  1.0000
  H   H646      1.0  0.62886  0.96679  0.01611  1.0000
  C   C559      1.0  0.62385  0.51320  0.02433  1.0000
  H   H647      1.0  0.89776  0.60233  0.04554  1.0000
  C   C560      1.0  0.62426  0.67475  0.07028  1.0000
  H   H648      1.0  0.67026  0.56418  0.00814  1.0000
  H   H649      1.0  0.63962  0.51564  0.26710  1.0000
  H   H650      1.0  0.67128  0.53216  0.32385  1.0000
  C   C561      1.0  0.64859  0.51425  0.32300  1.0000
  C   C562      1.0  0.73027  0.98364  0.03861  1.0000
  H   H651      1.0  0.74123  0.97891  0.05485  1.0000
  C   C563      1.0  0.63068  0.54689  0.32491  1.0000
  H   H652      1.0  0.60709  0.56288  0.23142  1.0000
  H   H653      1.0  0.71869  0.94526  0.01674  1.0000
  H   H654      1.0  0.81053  0.49547  0.13114  1.0000
  H   H655      1.0  0.89854  0.60973  0.08236  1.0000
  H   H656      1.0  0.66584  0.53322  0.04523  1.0000
  C   C564      1.0  0.58295  0.50565  0.18776  1.0000
  H   H657      1.0  0.91730  0.50260  0.10000  1.0000
  C   C565      1.0  0.53764  0.96392  0.01843  1.0000
  C   C566      1.0  0.71719  0.96445  0.01647  1.0000
  C   C567      1.0  0.88431  0.64543  0.05427  1.0000
  C   C568      1.0  0.65285  0.56592  0.01883  1.0000
  C   C569      1.0  0.65390  0.68639  0.07039  1.0000
  H   H658      1.0  0.86342  0.52133  0.12280  1.0000
  C   C570      1.0  0.62840  0.70995  0.03557  1.0000
  H   H659      1.0  0.84537  0.58087  0.29767  1.0000
  C   C571      1.0  0.85724  0.67084  0.05018  1.0000
  H   H660      1.0  0.60302  0.56320  0.02512  1.0000
  H   H661      1.0  0.57501  0.70705  0.03778  1.0000
  C   C572      1.0  0.78687  0.60897  0.32953  1.0000
  C   C573      1.0  0.88326  0.67089  0.04984  1.0000
  C   C574      1.0  0.55290  0.49198  0.19262  1.0000
  C   C575      1.0  0.56289  0.52992  0.22680  1.0000
  H   H662      1.0  0.94352  0.62936  0.32050  1.0000
  S   S144      1.0  0.93580  0.57319  0.33600  1.0000
  H   H663      1.0  0.57723  0.97945  0.11245  1.0000
  H   H664      1.0  0.77970  0.62209  0.31906  1.0000
  H   H665      1.0  0.63171  0.54421  0.26984  1.0000
  S   S145      1.0  0.64117  0.49748  0.13241  1.0000
  H   H666      1.0  0.62498  0.54118  0.19733  1.0000
  S   S146      1.0  0.71700  0.61386  0.32758  1.0000
  C   C576      1.0  0.56706  0.98284  0.01971  1.0000
  H   H667      1.0  0.51773  0.97583  0.08148  1.0000
  H   H668      1.0  0.64877  0.49618  0.31195  1.0000
  H   H669      1.0  0.60788  0.54503  0.05382  1.0000
  C   C577      1.0  0.94168  0.61742  0.30173  1.0000
  S   S147      1.0  0.94643  0.63195  0.21793  1.0000
  H   H670      1.0  0.88283  0.60587  0.30301  1.0000
  H   H671      1.0  0.90265  0.69116  0.04675  1.0000
  H   H672      1.0  0.94798  0.65161  0.27408  1.0000
  H   H673      1.0  0.66352  0.67683  0.08310  1.0000
  C   C578      1.0  0.59947  0.49950  0.30635  1.0000
  H   H674      1.0  0.69406  0.71831  0.05330  1.0000
  H   H675      1.0  0.59191  0.49754  0.17243  1.0000
  H   H676      1.0  0.53033  0.49160  0.14275  1.0000
  C   C579      1.0  0.93002  0.66675  0.07832  1.0000
  C   C580      1.0  0.83171  0.61996  0.05793  1.0000
  H   H677      1.0  0.88466  0.50678  0.13539  1.0000
  C   C581      1.0  0.92786  0.65650  0.02917  1.0000
  H   H678      1.0  0.60973  0.51214  0.09301  1.0000
  N   N39       1.0  0.62448  0.53962  0.01495  1.0000
  H   H679      1.0  0.58088  0.52512  0.02815  1.0000
  H   H680      1.0  0.81167  0.60035  0.06180  1.0000
  C   C582      1.0  0.60304  0.54330  0.03109  1.0000
  C   C583      1.0  0.65859  0.72147  0.03648  1.0000
  H   H681      1.0  0.64920  0.76631  0.02423  1.0000
  H   H682      1.0  0.58843  0.67576  0.05383  1.0000
  C   C584      1.0  0.86080  0.60235  0.30636  1.0000
  H   H683      1.0  0.96894  0.60348  0.03652  1.0000
  H   H684      1.0  0.81145  0.64555  0.05581  1.0000
  H   H685      1.0  0.49739  0.94711  0.03968  1.0000
  H   H686      1.0  0.65315  0.56429  0.32875  1.0000
  H   H687      1.0  0.85924  0.61856  0.29350  1.0000
  C   C585      1.0  0.54343  0.50472  0.21293  1.0000
  N   N40       1.0  0.62966  0.52292  0.30875  1.0000
  C   C586      1.0  0.61152  0.68621  0.05317  1.0000
  C   C587      1.0  0.64191  0.53344  0.28067  1.0000
  N   N41       1.0  0.61576  0.72260  0.01699  1.0000
  C   C588      1.0  0.58386  0.70678  0.01692  1.0000
  S   S148      1.0  0.97208  0.60267  0.15254  1.0000
  C   C589      1.0  0.57911  0.50390  0.29171  1.0000
  C   C590      1.0  0.59696  0.48962  0.09782  1.0000
  H   H688      1.0  0.95025  0.66633  0.08204  1.0000
  C   C591      1.0  0.85759  0.61976  0.05787  1.0000
  C   C592      1.0  0.64649  0.51364  0.03998  1.0000
  H   H689      1.0  0.82894  0.63189  0.31269  1.0000
  C   C593      1.0  0.59214  0.54294  0.22119  1.0000
  C   C594      1.0  0.62552  0.75246  0.02573  1.0000
  H   H690      1.0  0.93109  0.61993  0.06383  1.0000
  H   H691      1.0  0.52108  0.49594  0.21813  1.0000
  H   H692      1.0  0.65306  0.58522  0.01042  1.0000
  H   H693      1.0  0.65840  0.57079  0.04125  1.0000
  H   H694      1.0  0.67281  0.73941  0.02366  1.0000
  H   H695      1.0  0.93672  0.68930  0.07335  1.0000
  H   H696      1.0  0.86280  0.49190  0.10497  1.0000
  C   C595      1.0  0.52028  0.96208  0.04080  1.0000
  H   H697      1.0  0.61930  0.75332  0.04766  1.0000
  H   H698      1.0  0.93148  0.51666  0.31668  1.0000
  H   H699      1.0  0.93277  0.67851  0.02391  1.0000
  C   C596      1.0  0.53233  0.97883  0.06473  1.0000
  H   H700      1.0  0.58527  0.52433  0.28237  1.0000
  H   H701      1.0  0.85698  0.69066  0.04761  1.0000
  H   H702      1.0  0.84087  0.51519  0.16881  1.0000
  C   C597      1.0  0.86362  0.50107  0.12593  1.0000
  C   C598      1.0  0.93551  0.50253  0.32950  1.0000
  H   H703      1.0  0.86420  0.50312  0.18069  1.0000
  C   C599      1.0  0.84272  0.49560  0.17116  1.0000
  H   H704      1.0  0.87333  0.65025  0.33396  1.0000
  H   H705      1.0  0.66133  0.48942  0.06318  1.0000
  Fe  Fe73      1.0  0.57681  0.88315  0.64115  1.0000
  S   S149      1.0  0.62352  0.91629  0.64149  1.0000
  H   H706      1.0  0.49718  0.60638  0.54776  1.0000
  Fe  Fe74      1.0  0.55885  0.92877  0.64843  1.0000
  H   H707      1.0  0.55621  0.60949  0.58999  1.0000
  C   C600      1.0  0.96011  0.53376  0.52600  1.0000
  Fe  Fe75      1.0  0.61141  0.94255  0.61350  1.0000
  C   C601      1.0  0.96578  0.52439  0.55088  1.0000
  S   S150      1.0  0.56500  0.90756  0.61110  1.0000
  H   H708      1.0  0.48441  0.54302  0.57523  1.0000
  C   C602      1.0  0.56901  0.53236  0.48264  1.0000
  C   C603      1.0  0.48924  0.59762  0.63653  1.0000
  Fe  Fe76      1.0  0.60889  0.66613  0.60498  1.0000
  S   S151      1.0  0.57957  0.68398  0.59675  1.0000
  S   S152      1.0  0.61607  0.63854  0.57248  1.0000
  Fe  Fe77      1.0  0.60710  0.71923  0.62715  1.0000
  S   S153      1.0  0.62694  0.76755  0.62293  1.0000
  Fe  Fe78      1.0  0.55565  0.65983  0.63496  1.0000
  S   S154      1.0  0.50714  0.63524  0.63656  1.0000
  S   S155      1.0  0.63838  0.70315  0.63283  1.0000
  S   S156      1.0  0.58317  0.64023  0.64202  1.0000
  Fe  Fe79      1.0  0.70817  0.57531  0.42098  1.0000
  S   S157      1.0  0.72582  0.62110  0.40918  1.0000
  S   S158      1.0  0.73600  0.55705  0.43543  1.0000
  Fe  Fe80      1.0  0.64706  0.56067  0.40570  1.0000
  S   S159      1.0  0.66127  0.60568  0.39250  1.0000
  S   S160      1.0  0.59932  0.53198  0.40082  1.0000
  Fe  Fe81      1.0  0.69748  0.60365  0.37116  1.0000
  Fe  Fe82      1.0  0.68742  0.61788  0.43212  1.0000
  S   S161      1.0  0.69164  0.65208  0.46357  1.0000
  S   S162      1.0  0.68152  0.55784  0.38229  1.0000
  S   S163      1.0  0.67143  0.57283  0.44609  1.0000
  Fe  Fe83      1.0  0.90176  0.60140  0.42443  1.0000
  S   S164      1.0  0.94243  0.62761  0.39972  1.0000
  S   S165      1.0  0.87237  0.62054  0.42485  1.0000
  Fe  Fe84      1.0  0.91801  0.55638  0.43819  1.0000
  S   S166      1.0  0.91416  0.51962  0.46366  1.0000
  Fe  Fe85      1.0  0.96498  0.61861  0.43472  1.0000
  Fe  Fe86      1.0  0.93246  0.58540  0.38097  1.0000
  S   S167      1.0  0.92530  0.59612  0.46082  1.0000
  S   S168      1.0  0.89093  0.55946  0.40414  1.0000
  H   H709      1.0  0.94554  0.51840  0.51087  1.0000
  H   H710      1.0  0.81047  0.56191  0.36921  1.0000
  H   H711      1.0  0.52144  0.62423  0.57624  1.0000
  C   C604      1.0  0.77376  0.57454  0.43067  1.0000
  C   C605      1.0  0.78961  0.60322  0.42266  1.0000
  C   C606      1.0  0.81973  0.61684  0.42065  1.0000
  C   C607      1.0  0.83432  0.60185  0.42614  1.0000
  C   C608      1.0  0.81842  0.57293  0.43331  1.0000
  C   C609      1.0  0.78831  0.55944  0.43579  1.0000
  H   H712      1.0  0.77876  0.61505  0.41842  1.0000
  H   H713      1.0  0.83183  0.63920  0.41506  1.0000
  H   H714      1.0  0.82936  0.56116  0.43769  1.0000
  H   H715      1.0  0.77625  0.53724  0.44198  1.0000
  H   H716      1.0  0.77538  0.65427  0.44590  1.0000
  H   H717      1.0  0.98104  0.65003  0.50043  1.0000
  H   H718      1.0  0.86994  0.63640  0.36843  1.0000
  C   C610      1.0  0.63721  0.64322  0.54202  1.0000
  C   C611      1.0  0.63321  0.61873  0.52748  1.0000
  C   C612      1.0  0.64923  0.62100  0.50330  1.0000
  C   C613      1.0  0.66984  0.64791  0.49337  1.0000
  C   C614      1.0  0.67392  0.67241  0.50796  1.0000
  C   C615      1.0  0.65764  0.67013  0.53198  1.0000
  H   H719      1.0  0.61783  0.59780  0.53518  1.0000
  H   H720      1.0  0.64589  0.60192  0.49255  1.0000
  H   H721      1.0  0.68975  0.69337  0.50058  1.0000
  H   H722      1.0  0.66109  0.68922  0.54280  1.0000
  C   C616      1.0  0.51582  0.56145  0.51099  1.0000
  H   H723      1.0  0.53220  0.57830  0.49851  1.0000
  C   C617      1.0  0.56331  0.78660  0.63585  1.0000
  H   H724      1.0  0.50223  0.54221  0.64029  1.0000
  H   H725      1.0  0.61775  0.97282  0.51318  1.0000
  C   C618      1.0  0.57803  0.81667  0.63477  1.0000
  C   C619      1.0  0.60767  0.83131  0.63016  1.0000
  C   C620      1.0  0.62232  0.81597  0.62657  1.0000
  C   C621      1.0  0.60756  0.78590  0.62759  1.0000
  C   C622      1.0  0.57797  0.77127  0.63236  1.0000
  C   C623      1.0  0.49901  0.53499  0.49776  1.0000
  H   H726      1.0  0.56631  0.74814  0.63308  1.0000
  H   H727      1.0  0.94896  0.49454  0.39679  1.0000
  C   C624      1.0  0.58433  0.49540  0.39362  1.0000
  H   H728      1.0  0.48862  0.96515  0.64998  1.0000
  S   S169      1.0  0.55868  0.83485  0.64096  1.0000
  C   C625      1.0  0.67239  0.95873  0.48959  1.0000
  C   C626      1.0  0.94045  0.50822  0.35788  1.0000
  S   S170      1.0  0.95836  0.57861  0.41349  1.0000
  H   H729      1.0  0.52886  0.57305  0.59293  1.0000
  C   C627      1.0  0.54292  0.51079  0.52480  1.0000
  H   H730      1.0  0.55305  0.95421  0.59389  1.0000
  H   H731      1.0  0.56133  0.50482  0.44809  1.0000
  H   H732      1.0  0.89760  0.63898  0.34567  1.0000
  C   C628      1.0  0.86178  0.58462  0.35169  1.0000
  H   H733      1.0  0.53789  0.95440  0.56104  1.0000
  C   C629      1.0  0.84305  0.65907  0.49462  1.0000
  C   C630      1.0  0.49686  0.93296  0.63312  1.0000
  N   N42       1.0  0.52848  0.59322  0.55419  1.0000
  C   C631      1.0  0.55775  0.96581  0.57372  1.0000
  H   H734      1.0  0.86457  0.67745  0.49513  1.0000
  H   H735      1.0  0.50281  0.53230  0.47607  1.0000
  C   C632      1.0  0.77679  0.57002  0.36040  1.0000
  C   C633      1.0  0.50433  0.58309  0.64040  1.0000
  H   H736      1.0  0.76200  0.55317  0.37416  1.0000
  S   S171      1.0  0.52721  0.94427  0.65442  1.0000
  C   C634      1.0  0.54367  0.58928  0.57796  1.0000
  H   H737      1.0  0.53783  0.51299  0.54620  1.0000
  H   H738      1.0  0.66502  0.95771  0.44607  1.0000
  N   N43       1.0  0.76608  0.64389  0.48921  1.0000
  C   C635      1.0  0.77047  0.66271  0.46504  1.0000
  C   C636      1.0  0.73830  0.61704  0.48496  1.0000
  C   C637      1.0  0.79084  0.63919  0.49190  1.0000
  H   H739      1.0  0.73878  0.60548  0.46590  1.0000
  H   H740      1.0  0.57471  0.96322  0.56304  1.0000
  C   C638      1.0  0.81186  0.60794  0.49352  1.0000
  C   C639      1.0  0.80489  0.57532  0.35728  1.0000
  C   C640      1.0  0.56270  0.53495  0.51024  1.0000
  H   H741      1.0  0.94006  0.52648  0.36697  1.0000
  C   C641      1.0  0.51130  0.56558  0.53941  1.0000
  H   H742      1.0  0.75112  0.66457  0.46069  1.0000
  H   H743      1.0  0.78832  0.68493  0.46831  1.0000
  H   H744      1.0  0.80913  0.58663  0.49282  1.0000
  H   H745      1.0  0.72018  0.62129  0.48238  1.0000
  H   H746      1.0  0.88489  0.49437  0.41167  1.0000
  C   C642      1.0  0.55577  0.50558  0.46959  1.0000
  H   H747      1.0  0.56675  0.61088  0.52880  1.0000
  C   C643      1.0  0.78785  0.61146  0.49233  1.0000
  H   H748      1.0  0.82315  0.68457  0.49400  1.0000
  H   H749      1.0  0.56298  0.63670  0.54845  1.0000
  S   S172      1.0  0.60456  0.96464  0.65015  1.0000
  H   H750      1.0  0.76038  0.64460  0.53342  1.0000
  S   S173      1.0  0.62616  0.95941  0.56896  1.0000
  C   C644      1.0  0.55052  0.61632  0.53652  1.0000
  H   H751      1.0  0.58441  0.55117  0.47122  1.0000
  C   C645      1.0  0.49024  0.55324  0.63780  1.0000
  H   H752      1.0  0.64518  0.82747  0.62269  1.0000
  H   H753      1.0  0.57306  0.55576  0.52029  1.0000
  H   H754      1.0  0.95568  0.50162  0.55486  1.0000
  C   C646      1.0  0.50927  0.60341  0.56494  1.0000
  H   H755      1.0  0.62027  0.53952  0.34557  1.0000
  H   H756      1.0  0.73264  0.60240  0.50303  1.0000
  H   H757      1.0  0.96838  0.57007  0.50118  1.0000
  H   H758      1.0  0.76728  0.59205  0.49080  1.0000
  H   H759      1.0  0.54070  0.62120  0.51855  1.0000
  H   H760      1.0  0.49952  0.89901  0.61211  1.0000
  H   H761      1.0  0.74471  0.66147  0.51338  1.0000
  C   C647      1.0  0.81919  0.66288  0.49375  1.0000
  H   H762      1.0  0.85792  0.62872  0.49398  1.0000
  H   H763      1.0  0.68157  0.78860  0.65672  1.0000
  C   C648      1.0  0.76343  0.65793  0.51473  1.0000
  H   H764      1.0  0.78272  0.67922  0.51843  1.0000
  H   H765      1.0  0.61926  0.85443  0.62916  1.0000
  H   H766      1.0  0.54040  0.77508  0.63943  1.0000
  S   S174      1.0  0.58036  0.69652  0.66450  1.0000
  H   H767      1.0  0.52694  0.59480  0.64501  1.0000
  H   H768      1.0  0.84799  0.56202  0.34484  1.0000
  H   H769      1.0  0.49327  0.58833  0.57999  1.0000
  H   H770      1.0  0.85921  0.58602  0.37455  1.0000
  H   H771      1.0  0.65476  0.98378  0.41677  1.0000
  C   C649      1.0  0.83939  0.63165  0.49422  1.0000
  H   H772      1.0  0.55912  0.58259  0.57076  1.0000
  C   C650      1.0  0.97299  0.56292  0.52061  1.0000
  H   H773      1.0  0.65801  0.93592  0.49199  1.0000
  H   H774      1.0  0.68246  0.96552  0.53329  1.0000
  H   H775      1.0  0.53150  0.98562  0.53315  1.0000
  H   H776      1.0  0.98093  0.60136  0.60267  1.0000
  C   C651      1.0  0.67637  0.97151  0.46347  1.0000
  C   C652      1.0  0.68635  0.97532  0.51289  1.0000
  H   H777      1.0  0.88443  0.58992  0.34837  1.0000
  C   C653      1.0  0.48918  0.54161  0.55359  1.0000
  H   H778      1.0  0.54320  0.49069  0.38357  1.0000
  H   H779      1.0  0.69774  0.98021  0.40965  1.0000
  H   H780      1.0  0.62246  0.49331  0.40247  1.0000
  H   H781      1.0  0.74627  0.58312  0.34969  1.0000
  C   C654      1.0  0.98400  0.54416  0.57078  1.0000
  Fe  Fe87      1.0  0.60984  0.67875  0.66886  1.0000
  C   C655      1.0  0.87480  0.63375  0.34641  1.0000
  C   C656      1.0  0.76787  0.58691  0.34672  1.0000
  H   H782      1.0  0.98173  0.62495  0.36035  1.0000
  C   C657      1.0  0.48749  0.91004  0.61443  1.0000
  H   H783      1.0  0.64191  0.50805  0.34501  1.0000
  C   C658      1.0  0.94564  0.49031  0.37460  1.0000
  C   C659      1.0  0.82490  0.59772  0.33988  1.0000
  H   H784      1.0  0.52284  0.98670  0.57969  1.0000
  N   N44       1.0  0.85496  0.60429  0.33627  1.0000
  S   S175      1.0  0.63465  0.94466  0.72002  1.0000
  Fe  Fe88      1.0  0.58514  0.93191  0.88345  1.0000
  S   S176      1.0  0.55774  0.88804  0.90179  1.0000
  S   S177      1.0  0.57552  0.93752  0.83802  1.0000
  Fe  Fe89      1.0  0.61045  0.95839  0.94226  1.0000
  S   S178      1.0  0.58506  0.91604  0.96349  1.0000
  Fe  Fe90      1.0  0.59685  0.89740  0.92691  1.0000
  S   S179      1.0  0.61857  0.87018  0.92898  1.0000
  Fe  Fe91      1.0  0.54877  0.91085  0.93629  1.0000
  S   S180      1.0  0.50630  0.90104  0.95488  1.0000
  S   S181      1.0  0.62497  0.94062  0.90698  1.0000
  S   S182      1.0  0.57341  0.95391  0.91672  1.0000
  Fe  Fe92      1.0  0.61492  0.67771  0.93084  1.0000
  S   S183      1.0  0.57090  0.66510  0.94686  1.0000
  S   S184      1.0  0.64899  0.67500  0.95768  1.0000
  Fe  Fe93      1.0  0.60266  0.69638  0.87330  1.0000
  S   S185      1.0  0.55832  0.68511  0.88677  1.0000
  S   S186      1.0  0.61108  0.71578  0.82969  1.0000
  Fe  Fe94      1.0  0.57852  0.70651  0.92730  1.0000
  S   S187      1.0  0.56609  0.73608  0.94989  1.0000
  Fe  Fe95      1.0  0.55549  0.64549  0.90446  1.0000
  S   S188      1.0  0.52153  0.60151  0.88989  1.0000
  S   S189      1.0  0.62327  0.72020  0.91327  1.0000
  S   S190      1.0  0.59907  0.65563  0.88918  1.0000
  S   S191      1.0  0.62808  0.67510  0.71041  1.0000
  C   C660      1.0  0.61189  0.69991  0.79758  1.0000
  C   C661      1.0  0.62839  0.68672  0.79413  1.0000
  C   C662      1.0  0.63244  0.67855  0.76737  1.0000
  C   C663      1.0  0.61972  0.68305  0.74385  1.0000
  C   C664      1.0  0.60198  0.69489  0.74748  1.0000
  C   C665      1.0  0.59859  0.70380  0.77414  1.0000
  H   H785      1.0  0.63919  0.68410  0.81190  1.0000
  H   H786      1.0  0.64616  0.66937  0.76481  1.0000
  H   H787      1.0  0.59141  0.69779  0.72973  1.0000
  H   H788      1.0  0.58595  0.71417  0.77659  1.0000
  H   H789      1.0  0.63889  0.86491  0.69884  1.0000
  H   H790      1.0  0.71785  0.97496  0.94186  1.0000
  H   H791      1.0  0.52964  0.63145  0.69152  1.0000
  H   H792      1.0  0.60894  0.77724  0.76897  1.0000
  C   C666      1.0  0.63274  0.94462  0.77758  1.0000
  C   C667      1.0  0.57456  0.77570  0.70933  1.0000
  H   H793      1.0  0.59995  0.63600  0.99270  1.0000
  C   C668      1.0  0.59790  0.82406  0.72967  1.0000
  C   C669      1.0  0.55125  0.62689  0.72707  1.0000
  C   C670      1.0  0.60221  0.83236  0.93275  1.0000
  C   C671      1.0  0.57564  0.81602  0.94584  1.0000
  C   C672      1.0  0.56471  0.78654  0.95060  1.0000
  C   C673      1.0  0.57978  0.77284  0.94172  1.0000
  C   C674      1.0  0.60603  0.78905  0.92806  1.0000
  C   C675      1.0  0.61731  0.81866  0.92396  1.0000
  H   H794      1.0  0.56385  0.82622  0.95294  1.0000
  H   H795      1.0  0.54446  0.77428  0.96128  1.0000
  H   H796      1.0  0.61796  0.77892  0.92118  1.0000
  H   H797      1.0  0.63790  0.83104  0.91392  1.0000
  H   H798      1.0  0.49114  0.62812  0.77021  1.0000
  H   H799      1.0  0.56504  0.84474  0.74806  1.0000
  H   H800      1.0  0.64927  0.95458  0.97566  1.0000
  C   C676      1.0  0.61766  0.94187  0.75273  1.0000
  H   H801      1.0  0.61286  0.86524  0.77173  1.0000
  C   C677      1.0  0.62001  0.94253  0.80387  1.0000
  C   C678      1.0  0.59210  0.93808  0.80564  1.0000
  C   C679      1.0  0.57697  0.93512  0.78078  1.0000
  C   C680      1.0  0.58954  0.93679  0.75454  1.0000
  H   H802      1.0  0.62847  0.89507  0.74896  1.0000
  H   H803      1.0  0.57762  0.93465  0.73571  1.0000
  N   N45       1.0  0.67089  0.77466  0.69941  1.0000
  H   H804      1.0  0.63126  0.73526  0.70621  1.0000
  C   C681      1.0  0.68780  0.75979  0.69756  1.0000
  H   H805      1.0  0.67808  0.73956  0.70970  1.0000
  C   C682      1.0  0.67198  0.78540  0.72807  1.0000
  C   C683      1.0  0.67943  0.81416  0.73400  1.0000
  C   C684      1.0  0.66443  0.76658  0.75107  1.0000
  C   C685      1.0  0.67978  0.82337  0.76138  1.0000
  C   C686      1.0  0.66470  0.77596  0.77829  1.0000
  C   C687      1.0  0.67243  0.80431  0.78345  1.0000
  C   C688      1.0  0.64580  0.65591  0.98909  1.0000
  H   H806      1.0  0.67960  0.90999  0.95356  1.0000
  H   H807      1.0  0.62062  0.82686  0.76866  1.0000
  H   H808      1.0  0.56821  0.62705  0.71467  1.0000
  H   H809      1.0  0.64223  0.92113  0.96122  1.0000
  H   H810      1.0  0.68508  0.82993  0.71788  1.0000
  H   H811      1.0  0.49413  0.97320  0.86807  1.0000
  C   C689      1.0  0.48523  0.90676  0.93068  1.0000
  H   H812      1.0  0.57461  0.63942  0.81044  1.0000
  H   H813      1.0  0.50149  0.59222  0.83461  1.0000
  H   H814      1.0  0.65806  0.74431  0.74823  1.0000
  H   H815      1.0  0.61940  0.55798  0.97698  1.0000
  H   H816      1.0  0.65875  0.76107  0.79550  1.0000
  H   H817      1.0  0.67261  0.81142  0.80465  1.0000
  H   H818      1.0  0.55537  0.93158  0.78181  1.0000
  C   C690      1.0  0.65525  0.93769  0.97706  1.0000
  C   C691      1.0  0.57772  0.85544  0.72911  1.0000
  C   C692      1.0  0.53006  0.62512  0.77290  1.0000
  H   H819      1.0  0.57504  0.71648  0.00233  1.0000
  H   H820      1.0  0.64441  0.87319  0.75118  1.0000
  H   H821      1.0  0.55261  0.61804  0.83822  1.0000
  H   H822      1.0  0.57977  0.74398  0.73135  1.0000
  C   C693      1.0  0.50826  0.62772  0.75883  1.0000
  C   C694      1.0  0.52440  0.97104  0.84166  1.0000
  H   H823      1.0  0.51115  0.64952  0.81137  1.0000
  H   H824      1.0  0.49335  0.61098  0.93771  1.0000
  H   H825      1.0  0.49656  0.92402  0.77807  1.0000
  H   H826      1.0  0.71011  0.77375  0.70520  1.0000
  H   H827      1.0  0.56948  0.62349  0.76473  1.0000
  H   H828      1.0  0.69134  0.67207  0.99192  1.0000
  C   C695      1.0  0.53656  0.97555  0.81528  1.0000
  H   H829      1.0  0.68394  0.94804  0.92761  1.0000
  C   C696      1.0  0.49176  0.90884  0.90232  1.0000
  H   H830      1.0  0.64864  0.73703  0.98500  1.0000
  H   H831      1.0  0.68895  0.75322  0.67578  1.0000
  H   H832      1.0  0.63173  0.53280  0.97229  1.0000
  C   C697      1.0  0.61949  0.86700  0.70149  1.0000
  H   H833      1.0  0.61462  0.73053  0.97311  1.0000
  H   H834      1.0  0.70477  0.81405  0.68221  1.0000
  N   N46       1.0  0.60465  0.85422  0.72810  1.0000
  H   H835      1.0  0.65454  0.94867  0.77651  1.0000
  C   C698      1.0  0.52982  0.64717  0.81710  1.0000
  H   H836      1.0  0.63202  0.94507  0.82273  1.0000
  H   H837      1.0  0.62005  0.70106  0.98134  1.0000
  Fe  Fe96      1.0  0.61153  0.93506  0.67801  1.0000
  C   C699      1.0  0.60136  0.78494  0.75200  1.0000
  C   C700      1.0  0.48689  0.58172  0.90419  1.0000
  C   C701      1.0  0.68212  0.79744  0.67791  1.0000
  H   H838      1.0  0.56157  0.76103  0.69292  1.0000
  H   H839      1.0  0.51019  0.90756  0.89527  1.0000
  H   H840      1.0  0.59479  0.52085  0.98036  1.0000
  N   N47       1.0  0.68633  0.94931  0.97257  1.0000
  C   C702      1.0  0.62342  0.87250  0.75109  1.0000
  C   C703      1.0  0.60791  0.81354  0.75153  1.0000
  H   H841      1.0  0.57190  0.81043  0.69193  1.0000
  H   H842      1.0  0.55403  0.60077  0.80703  1.0000
  C   C704      1.0  0.62520  0.72286  0.98794  1.0000
  H   H843      1.0  0.62713  0.76416  0.69291  1.0000
  C   C705      1.0  0.58076  0.80413  0.70882  1.0000
  C   C706      1.0  0.64073  0.75401  0.69218  1.0000
  H   H844      1.0  0.50066  0.57660  0.80130  1.0000
  C   C707      1.0  0.52962  0.62950  0.71399  1.0000
  H   H845      1.0  0.52936  0.64539  0.84022  1.0000
  C   C708      1.0  0.50817  0.62993  0.72982  1.0000
  H   H846      1.0  0.60545  0.85686  0.68309  1.0000
  C   C709      1.0  0.70232  0.97002  0.99516  1.0000
  H   H847      1.0  0.58218  0.87798  0.72939  1.0000
  C   C710      1.0  0.69422  0.96364  0.94504  1.0000
  C   C711      1.0  0.69144  0.92469  0.97129  1.0000
  H   H848      1.0  0.62635  0.89016  0.70025  1.0000
  N   N48       1.0  0.52925  0.62211  0.80359  1.0000
  C   C712      1.0  0.55372  0.61995  0.81510  1.0000
  H   H849      1.0  0.68578  0.84544  0.76553  1.0000
  C   C713      1.0  0.55167  0.62481  0.75607  1.0000
  H   H850      1.0  0.54966  0.66744  0.81155  1.0000
  H   H851      1.0  0.56376  0.84505  0.71064  1.0000
  C   C714      1.0  0.61725  0.53760  0.98489  1.0000
  C   C715      1.0  0.58483  0.76611  0.73089  1.0000
  H   H852      1.0  0.58060  0.98411  0.00233  1.0000
  S   S192      1.0  0.56545  0.90089  0.67844  1.0000
  C   C716      1.0  0.50242  0.59587  0.81173  1.0000
  H   H853      1.0  0.68691  0.97947  0.94244  1.0000
  H   H854      1.0  0.63904  0.74547  0.67079  1.0000
  H   H855      1.0  0.64843  0.92763  0.99791  1.0000
  C   C717      1.0  0.61933  0.63828  0.00188  1.0000
  C   C718      1.0  0.67071  0.65850  0.00153  1.0000
  H   H856      1.0  0.71460  0.93198  0.96840  1.0000
  H   H857      1.0  0.66865  0.80769  0.67611  1.0000
  H   H858      1.0  0.48786  0.49904  0.98598  1.0000
  H   H859      1.0  0.55353  0.97072  0.81125  1.0000
  H   H860      1.0  0.52835  0.95041  0.00015  1.0000
  C   C719      1.0  0.50278  0.97759  0.84724  1.0000
  H   H861      1.0  0.49153  0.63220  0.71942  1.0000
  H   H862      1.0  0.53187  0.96233  0.85787  1.0000
  H   H863      1.0  0.68338  0.91117  0.99024  1.0000
  C   C720      1.0  0.52674  0.98600  0.79410  1.0000
  H   H864      1.0  0.48445  0.92440  0.72925  1.0000
