data_image0
_chemical_formula_structural       FeS2FeS2FeSFeS3FeSCS2FeSFeS2FeSFeS2Fe2S3FeS2FeS2HFeS3FeCSC6H8C2HC2HC3HC6H6CHC8H4CSC2HCSCFeH3C6H4NH3C2H2CH3CH2CHC3HNC9H15CHNC9H18CH3C3SNHCH3SHCHCH2C3NCH2FeHCHS2HCHCHNC2H2SHC2H4CHCH3CHCH6CHC2HCHCHCH2CH3CHC2HCNCHCHCHCH3FeS2FeS2FeSFeS3FeS2FeSHFeCS2FeSH2SFeSFeS2H4FeSFeS2FeSFeS3HSHC2H2C6H4FeH4C4SCH2C6H4C2HC7H4C3HCHC7H4C2H2NC6H9C2H3CH3C2SC3FeH5SHC2NHSHCH2CHSCH3FeCSHC2HCH4NC9H15CHCH2NCH4C2H2C2HC2HC5HC2HNHCH7C2H2Fe2CHCNCHSHCHC2H5CFeS2FeS2FeSFeS4FeHSHCSH2CH2CHCHCH3CHSC6H4C6H2CHC6H4C2H2CHFeHNH2NC9H3CNCNCH6NC9HCH2CH9CHCH6C2HCH6C2H3CHCHC2H3SCH7CHC2SHC2H2CH2CH2C2S2FeS2FeS2FeSFeS4C2H3C3SHCHCH2C6HCH2C6H4C9H4NHCH2SHC2SC3HCH2FeHCSCH2CH4CHC2HNCHC2H6C2HCH10SNC8H10NHC3HC2H2CH3CH5CHCH3CH2CH3C2H2FeCFeH3CHC2HFeSCFeS2FeS2FeSFeS3FeSFeSHFeSFeS2CSFeS2FeSFeS2FeS2FeS2HFeS4H2CNC2H2C6H4SC2H2CHCH3C6H4C3HC2H3C6H4C6H4C4HCHNC8H12C3HNH7CFeHCSHCH4CNC3H2CHC3HC2HNH2CHCHCH2NC9H14C4H4C2HSCH2CH2CFeCH3CH3CHCHCH2CH2C5SCHNH3CHCH2CH2CH6CSFeHC2H4CH2C2HCHCSCHFeS2FeS2FeSFeS3CSFeSHFeSFeS2FeSFeS2HFeCS2FeSFeS2FeSFeS3HCHC3H3C3H6C6H4C2H2CH3CHC6H4C6H4CHC2HC5HFeC6H4NC5H3CHCH12NCH5SCH2C4HCH2FeH4NC5H14C2HNC9H24SCHC6HC3H3CHNC3HSCH2CFeH2N2C3HC2SH3SHC2HC2HC2HCSHSCH2CNHCNCH2C2H4FeH2C3HCH2CH2CFeS2FeS2FeS2FeSFeS4C6H4C2H3C6H4CHCH6C6H4C3H3CN2C3SCHCH2NC2HSH2C4H6CH3CH2CHCH3C2HNH3C3HCHCH3CHCHCH3CH9C3HCH2NC10H3CH3C3H3FeH4CH2CH3SHFeS2FeS2FeS2FeSFeS4C3H2C6H4C6H4C2H2C6H5CH2C2NHCHC6H2SHSH2C2H6NHCHCHCH3NC6H4CHCH2CH4C2H4CSH3CHCHNH9C2NC10FeHCHCH3CHC2HCH8C2SHFeS2FeS2FeSFeS4C6H4C3H2C6H4C6H4C2H3SHCNCH3C4H6CFeH4CHCNC5HC2HC5HNH8CHCH4NH5CHNH2C3H3CHC2H2FeH6C7H2C2H5CHC4HCHCH4C2H5NHCH3SFeH2S2HC2FeS2FeS2FeSFeS4CHCSHC6H4C7H3C6SH6CHC2HC8HC3H2CH3CNH3CH2CH2NCNCH5SH2CHCH2CSCH5C2H3C2H3CH6CHCHCHC2HCHCFe2CH7C2H2CH3CHNCHSCFeS2FeS2FeSFeS3FeSFeSHFeSFeS2FeSFeSHFeSFeS2CH2FeS2FeS2Fe2S3C6H4CH4C3H2C6H4C5HC7HC7H4C6H4C3NCH3C2HCNC9H14CH2SH4C3SH4CFeSCHC4HCHC2HCH3NC2HC6HC2H3CH3CH8C2H3NHNHNHC3H5CHCHCHCH3SH6CHCH2CH2CSCH5CHCSH4FeHC3SHCHCHC2HSHFeS2FeS2FeSFeS3FeSCHSFeSFeS2CSFeSCFeSFeS2CHFeS2FeS2CFeSHSCHCHC2H2C8H4C2H4CHCHC6H4C6H4C4HC2NFeH2SC6H4NHCFeC4H3C2HC2H2C4SH12SH6NC9H11SH2C3HCFeHCH2FeH2CHC3H2NSHSHCH2NCHCHCNHCH2CHCH3CHC2H4CHCHNC2H4CHCSHSCHSC2H4C3NCHC2H2C4HCHCH2CH6CH2CH3FeCH4CHFeS2FeS2FeSFeS4HS2HCSHFeC2HNH4NC6H4C3HC3HC4H3C6H5C3H2CHCHC4HC2HCSCH5CH3C2HCNH2NCHC2SH2CH6CH7FeHCSH2C2HCH4C4HCHCHC5HCHCH6CH2C3HSH5CSFeS2FeS2FeSFeS4H2SHCHCH5CHC2H2C5NHCH2NHC6H5C3HCH2C6H4CH2C2HCNC3H3C2H2CHC3HFeH2CHC3H3C2HCNCH3CHSCH3CHNC2SCH2CH3CH11CH2C3HCH2CNH5C2HCH3C2HC2HCHCH2CFeS2FeS2FeSFeS3FeS2FeSFeHFeS2H2C4HSFeSHFeSFeS2FeS2FeS2FeSFeS2HS2CHCHC6H4CHC2H2C5H3CHC6H4C6H4C4HC3HCH2C6H4NC5H8NHC2H3C2HFeH3CH5C2H3CHC2SCSNC4HCH6C4H4CH8CHSC2FeC2H3SH2CNCNCHC4H2SH8CHCH8C6HC2HC2HSH2C4N2C3HSH2CH2CHFeCH2NH2CSCH4CHC2H3CHCHCHCH2SHNCFeS2FeS2FeSFeS3FeS2FeSFeSFeS2HNH2FeSHCSFeSFeS2FeS2FeS2CFeS3HSHC6H4C2SHCH2CH5C2H2C2H2C6H4C3HC6H4CHC2H3C6H4C2H3SCHC3H2C2SC2HSHCHC2NHCH6CHCHCH4FeH3C3HCHCHSHCHCH3CNC6H2CH9CHCH2NC9H15C2HCNHCHCSC2H2FeHFeHC4H2CHCHCH2CH4CHC3H2CH2
_chemical_formula_sum              "Fe192 S384 C1440 H1728 N96"
_cell_length_a       66.124
_cell_length_b       66.2667
_cell_length_c       52.3065
_cell_angle_alpha    88.7248
_cell_angle_beta     88.618
_cell_angle_gamma    89.1674

_space_group_name_H-M_alt    "P 1"
_space_group_IT_number       1

loop_
  _space_group_symop_operation_xyz
  'x, y, z'

loop_
  _atom_site_type_symbol
  _atom_site_label
  _atom_site_symmetry_multiplicity
  _atom_site_fract_x
  _atom_site_fract_y
  _atom_site_fract_z
  _atom_site_occupancy
  Fe  Fe1       1.0  0.11515  0.16538  0.13642  1.0000
  S   S1        1.0  0.11343  0.13251  0.12633  1.0000
  S   S2        1.0  0.14175  0.18294  0.15326  1.0000
  Fe  Fe2       1.0  0.07263  0.17446  0.11379  1.0000
  S   S3        1.0  0.06883  0.14217  0.10208  1.0000
  S   S4        1.0  0.04771  0.19588  0.09931  1.0000
  Fe  Fe3       1.0  0.08085  0.13351  0.14088  1.0000
  S   S5        1.0  0.06537  0.11241  0.17127  1.0000
  Fe  Fe4       1.0  0.10129  0.14387  0.08821  1.0000
  S   S6        1.0  0.11511  0.13288  0.05008  1.0000
  S   S7        1.0  0.08325  0.16604  0.15323  1.0000
  S   S8        1.0  0.10442  0.17646  0.09775  1.0000
  Fe  Fe5       1.0  0.46213  0.15028  0.14236  1.0000
  S   S9        1.0  0.44048  0.13988  0.11319  1.0000
  C   C1        1.0  0.44057  0.03683  0.23144  1.0000
  S   S10       1.0  0.47347  0.13242  0.17737  1.0000
  S   S11       1.0  0.43852  0.18694  0.09104  1.0000
  Fe  Fe6       1.0  0.42274  0.16842  0.12205  1.0000
  S   S12       1.0  0.38910  0.16362  0.13003  1.0000
  Fe  Fe7       1.0  0.45789  0.15929  0.08452  1.0000
  S   S13       1.0  0.47136  0.15066  0.04555  1.0000
  S   S14       1.0  0.44361  0.17795  0.15246  1.0000
  Fe  Fe8       1.0  0.30696  0.01996  0.39673  1.0000
  S   S15       1.0  0.29913  0.00898  0.43749  1.0000
  Fe  Fe9       1.0  0.30033  0.05466  0.35686  1.0000
  S   S16       1.0  0.30840  0.03486  0.32382  1.0000
  S   S17       1.0  0.28626  0.08620  0.35374  1.0000
  Fe  Fe10      1.0  0.28947  0.01095  0.34428  1.0000
  Fe  Fe11      1.0  0.33411  0.02340  0.34821  1.0000
  S   S18       1.0  0.99926  0.00783  0.25697  1.0000
  S   S19       1.0  0.27996  0.03166  0.37562  1.0000
  S   S20       1.0  0.32671  0.04472  0.38063  1.0000
  Fe  Fe12      1.0  0.29972  0.21030  0.21099  1.0000
  S   S21       1.0  0.30664  0.21217  0.25260  1.0000
  S   S22       1.0  0.32506  0.22229  0.18480  1.0000
  Fe  Fe13      1.0  0.25607  0.19451  0.22215  1.0000
  S   S23       1.0  0.26064  0.19583  0.26496  1.0000
  S   S24       1.0  0.22983  0.17689  0.20436  1.0000
  H   H1        1.0  0.03100  0.16011  0.17573  1.0000
  Fe  Fe14      1.0  0.29151  0.18195  0.25683  1.0000
  S   S25       1.0  0.31012  0.15509  0.27192  1.0000
  S   S26       1.0  0.26914  0.22559  0.21488  1.0000
  S   S27       1.0  0.28655  0.17944  0.21473  1.0000
  Fe  Fe15      1.0  0.00146  0.00686  0.21381  1.0000
  C   C2        1.0  0.38227  0.05519  0.26272  1.0000
  S   S28       1.0  0.01714  0.02873  0.18468  1.0000
  C   C3        1.0  0.29306  0.10513  0.33074  1.0000
  C   C4        1.0  0.28075  0.12252  0.32827  1.0000
  C   C5        1.0  0.28550  0.13782  0.31006  1.0000
  C   C6        1.0  0.30284  0.13600  0.29443  1.0000
  C   C7        1.0  0.31513  0.11857  0.29683  1.0000
  C   C8        1.0  0.31019  0.10312  0.31474  1.0000
  H   H2        1.0  0.26748  0.12422  0.34057  1.0000
  H   H3        1.0  0.27592  0.15114  0.30839  1.0000
  H   H4        1.0  0.32857  0.11703  0.28481  1.0000
  H   H5        1.0  0.31978  0.08981  0.31647  1.0000
  H   H6        1.0  0.04442  0.99922  0.25223  1.0000
  H   H7        1.0  0.48690  0.06896  0.22534  1.0000
  H   H8        1.0  0.03552  0.17182  0.14489  1.0000
  H   H9        1.0  0.05518  0.02356  0.25843  1.0000
  C   C9        1.0  0.22171  0.15861  0.12146  1.0000
  C   C10       1.0  0.18924  0.16592  0.10096  1.0000
  H   H10       1.0  0.44230  0.03892  0.18017  1.0000
  C   C11       1.0  0.30948  0.01671  0.46672  1.0000
  C   C12       1.0  0.32600  0.02962  0.46744  1.0000
  H   H11       1.0  0.04419  0.14658  0.15107  1.0000
  C   C13       1.0  0.45976  0.15420  0.01547  1.0000
  C   C14       1.0  0.41947  0.00879  0.29707  1.0000
  C   C15       1.0  0.43893  0.15761  0.01349  1.0000
  H   H12       1.0  0.42953  0.15865  0.03064  1.0000
  C   C16       1.0  0.37146  0.18059  0.14441  1.0000
  C   C17       1.0  0.35224  0.17341  0.15180  1.0000
  C   C18       1.0  0.33798  0.18595  0.16438  1.0000
  C   C19       1.0  0.34261  0.20603  0.16907  1.0000
  C   C20       1.0  0.36169  0.21337  0.16121  1.0000
  C   C21       1.0  0.37618  0.20064  0.14925  1.0000
  H   H13       1.0  0.34841  0.15797  0.14794  1.0000
  H   H14       1.0  0.32328  0.18018  0.17005  1.0000
  H   H15       1.0  0.12626  0.11693  0.00066  1.0000
  H   H16       1.0  0.39089  0.20637  0.14356  1.0000
  H   H17       1.0  0.99873  0.14238  0.11028  1.0000
  H   H18       1.0  0.14398  0.16910  0.06930  1.0000
  C   C22       1.0  0.38716  0.08288  0.23260  1.0000
  H   H19       1.0  0.05124  0.00000  0.19655  1.0000
  C   C23       1.0  0.43075  0.04873  0.18988  1.0000
  C   C24       1.0  0.48237  0.06331  0.18557  1.0000
  C   C25       1.0  0.05203  0.08904  0.17441  1.0000
  C   C26       1.0  0.04821  0.07690  0.15354  1.0000
  C   C27       1.0  0.03748  0.05866  0.15712  1.0000
  C   C28       1.0  0.03029  0.05221  0.18152  1.0000
  C   C29       1.0  0.03405  0.06439  0.20240  1.0000
  C   C30       1.0  0.04483  0.08260  0.19883  1.0000
  H   H20       1.0  0.05359  0.08148  0.13463  1.0000
  H   H21       1.0  0.03475  0.04943  0.14077  1.0000
  H   H22       1.0  0.02864  0.05983  0.22129  1.0000
  H   H23       1.0  0.04760  0.09182  0.21516  1.0000
  C   C31       1.0  0.10574  0.13814  0.01872  1.0000
  S   S29       1.0  0.48275  0.01113  0.26022  1.0000
  C   C32       1.0  0.09030  0.15238  0.01430  1.0000
  C   C33       1.0  0.24245  0.99487  0.41212  1.0000
  H   H24       1.0  0.08348  0.16033  0.03023  1.0000
  C   C34       1.0  0.03424  0.21645  0.11322  1.0000
  S   S30       1.0  0.48654  0.03673  0.18730  1.0000
  C   C35       1.0  0.03150  0.15735  0.15481  1.0000
  Fe  Fe16      1.0  0.46126  0.19414  0.12093  1.0000
  H   H25       1.0  0.45304  0.02800  0.22214  1.0000
  H   H26       1.0  0.41227  0.00970  0.22593  1.0000
  H   H27       1.0  0.44687  0.05168  0.23650  1.0000
  C   C36       1.0  0.16588  0.18066  0.16843  1.0000
  C   C37       1.0  0.17544  0.19827  0.17644  1.0000
  C   C38       1.0  0.19472  0.19746  0.18777  1.0000
  C   C39       1.0  0.20494  0.17896  0.19121  1.0000
  C   C40       1.0  0.19533  0.16133  0.18333  1.0000
  C   C41       1.0  0.17601  0.16212  0.17211  1.0000
  H   H28       1.0  0.16787  0.21273  0.17383  1.0000
  H   H29       1.0  0.20172  0.21120  0.19367  1.0000
  H   H30       1.0  0.20296  0.14690  0.18580  1.0000
  H   H31       1.0  0.16902  0.14839  0.16626  1.0000
  N   N1        1.0  0.01211  0.14931  0.14613  1.0000
  H   H32       1.0  0.00996  0.12977  0.17975  1.0000
  H   H33       1.0  0.10725  0.99229  0.21182  1.0000
  H   H34       1.0  0.00690  0.18759  0.12620  1.0000
  C   C42       1.0  0.07836  0.02567  0.21596  1.0000
  C   C43       1.0  0.17889  0.15019  0.06183  1.0000
  H   H35       1.0  0.29298  0.09509  0.45639  1.0000
  H   H36       1.0  0.01892  0.22382  0.07825  1.0000
  C   C44       1.0  0.41545  0.01911  0.20845  1.0000
  H   H37       1.0  0.99493  0.12217  0.15302  1.0000
  H   H38       1.0  0.47132  0.09995  0.14045  1.0000
  H   H39       1.0  0.36538  0.22891  0.16463  1.0000
  C   C45       1.0  0.08369  0.15646  0.98917  1.0000
  H   H40       1.0  0.36591  0.08340  0.26451  1.0000
  H   H41       1.0  0.20529  0.13686  0.10150  1.0000
  C   C46       1.0  0.37920  0.99577  0.30053  1.0000
  H   H42       1.0  0.43855  0.06322  0.19300  1.0000
  C   C47       1.0  0.40503  0.01884  0.31270  1.0000
  C   C48       1.0  0.37734  0.07467  0.25423  1.0000
  C   C49       1.0  0.38485  0.01233  0.31471  1.0000
  H   H43       1.0  0.45772  0.22076  0.04148  1.0000
  N   N2        1.0  0.24784  0.07456  0.29094  1.0000
  C   C50       1.0  0.23360  0.06050  0.27928  1.0000
  C   C51       1.0  0.26760  0.06372  0.29293  1.0000
  C   C52       1.0  0.24049  0.07903  0.31725  1.0000
  C   C53       1.0  0.24892  0.09366  0.27567  1.0000
  C   C54       1.0  0.26746  0.10179  0.26603  1.0000
  C   C55       1.0  0.23104  0.10513  0.27075  1.0000
  C   C56       1.0  0.26789  0.12006  0.25207  1.0000
  C   C57       1.0  0.23167  0.12336  0.25672  1.0000
  C   C58       1.0  0.25006  0.13080  0.24742  1.0000
  H   H44       1.0  0.23805  0.05767  0.25899  1.0000
  H   H45       1.0  0.23330  0.04561  0.28968  1.0000
  H   H46       1.0  0.21777  0.06631  0.27963  1.0000
  H   H47       1.0  0.27404  0.05989  0.27377  1.0000
  H   H48       1.0  0.26622  0.04926  0.30415  1.0000
  H   H49       1.0  0.27879  0.07273  0.30313  1.0000
  H   H50       1.0  0.25003  0.09063  0.32596  1.0000
  H   H51       1.0  0.22469  0.08495  0.31774  1.0000
  H   H52       1.0  0.24101  0.06540  0.33011  1.0000
  H   H53       1.0  0.28193  0.09461  0.26947  1.0000
  H   H54       1.0  0.21645  0.10025  0.27803  1.0000
  H   H55       1.0  0.28221  0.12623  0.24531  1.0000
  H   H56       1.0  0.21789  0.13199  0.25321  1.0000
  H   H57       1.0  0.25051  0.14508  0.23684  1.0000
  H   H58       1.0  0.33285  0.03528  0.44975  1.0000
  C   C59       1.0  0.47610  0.10569  0.18014  1.0000
  H   H59       1.0  0.45079  0.20326  0.00445  1.0000
  N   N3        1.0  0.36562  0.16437  0.23320  1.0000
  C   C60       1.0  0.34775  0.15541  0.22141  1.0000
  C   C61       1.0  0.36091  0.16639  0.26096  1.0000
  C   C62       1.0  0.36843  0.18506  0.22237  1.0000
  C   C63       1.0  0.38388  0.15183  0.22759  1.0000
  C   C64       1.0  0.39082  0.14931  0.20193  1.0000
  C   C65       1.0  0.39542  0.14205  0.24699  1.0000
  C   C66       1.0  0.40857  0.13850  0.19606  1.0000
  C   C67       1.0  0.41315  0.13115  0.24090  1.0000
  C   C68       1.0  0.41983  0.12957  0.21552  1.0000
  H   H60       1.0  0.34462  0.14011  0.22964  1.0000
  H   H61       1.0  0.33382  0.16479  0.22466  1.0000
  H   H62       1.0  0.34965  0.15402  0.20038  1.0000
  H   H63       1.0  0.35706  0.15160  0.27024  1.0000
  H   H64       1.0  0.34740  0.17636  0.26434  1.0000
  H   H65       1.0  0.37359  0.17324  0.27113  1.0000
  H   H66       1.0  0.37085  0.18516  0.20134  1.0000
  H   H67       1.0  0.35487  0.19492  0.22594  1.0000
  H   H68       1.0  0.38175  0.19237  0.23061  1.0000
  H   H69       1.0  0.38271  0.15592  0.18607  1.0000
  H   H70       1.0  0.39116  0.14274  0.26701  1.0000
  H   H71       1.0  0.41373  0.13734  0.17625  1.0000
  H   H72       1.0  0.42191  0.12404  0.25597  1.0000
  H   H73       1.0  0.43381  0.12152  0.21083  1.0000
  H   H74       1.0  0.28472  0.12511  0.48215  1.0000
  H   H75       1.0  0.23361  0.14795  0.12660  1.0000
  H   H76       1.0  0.40028  0.02887  0.25702  1.0000
  H   H77       1.0  0.06988  0.99715  0.28119  1.0000
  C   C69       1.0  0.48283  0.21162  0.99995  1.0000
  H   H78       1.0  0.38329  0.09806  0.22604  1.0000
  H   H79       1.0  0.42675  0.01015  0.19711  1.0000
  H   H80       1.0  0.04629  0.21272  0.15090  1.0000
  C   C70       1.0  0.20695  0.19196  0.12415  1.0000
  C   C71       1.0  0.47455  0.09330  0.15902  1.0000
  C   C72       1.0  0.05175  0.01274  0.24322  1.0000
  S   S31       1.0  0.31582  0.99773  0.36610  1.0000
  N   N4        1.0  0.07020  0.00698  0.22818  1.0000
  H   H81       1.0  0.16591  0.14547  0.05016  1.0000
  C   C73       1.0  0.01362  0.14639  0.11805  1.0000
  H   H82       1.0  0.09131  0.02260  0.20263  1.0000
  H   H83       1.0  0.14970  0.18120  0.09828  1.0000
  H   H84       1.0  0.40955  0.03165  0.32358  1.0000
  S   S32       1.0  0.47216  0.22659  0.12419  1.0000
  H   H85       1.0  0.40908  0.07902  0.20293  1.0000
  C   C74       1.0  0.40721  0.05161  0.22738  1.0000
  H   H86       1.0  0.23474  0.18288  0.14189  1.0000
  C   C75       1.0  0.40197  0.07165  0.21936  1.0000
  H   H87       1.0  0.46387  0.19404  0.04294  1.0000
  H   H88       1.0  0.04020  0.02027  0.23096  1.0000
  C   C76       1.0  0.20540  0.15244  0.10713  1.0000
  C   C77       1.0  0.39695  0.04382  0.24954  1.0000
  C   C78       1.0  0.46327  0.20662  0.99143  1.0000
  N   N5        1.0  0.17182  0.15878  0.08650  1.0000
  C   C79       1.0  0.02044  0.22753  0.09814  1.0000
  H   H89       1.0  0.17858  0.19706  0.10736  1.0000
  H   H90       1.0  0.43487  0.01401  0.29594  1.0000
  Fe  Fe17      1.0  0.27570  0.22629  0.25723  1.0000
  H   H91       1.0  0.48453  0.19760  0.19640  1.0000
  C   C80       1.0  0.48336  0.07562  0.20689  1.0000
  H   H92       1.0  0.18778  0.16143  0.05033  1.0000
  S   S33       1.0  0.48135  0.16739  0.11317  1.0000
  S   S34       1.0  0.36769  0.02522  0.33567  1.0000
  H   H93       1.0  0.43641  0.02860  0.24952  1.0000
  C   C81       1.0  0.48036  0.09671  0.20413  1.0000
  H   H94       1.0  0.40131  0.02032  0.19738  1.0000
  C   C82       1.0  0.19047  0.18593  0.11003  1.0000
  H   H95       1.0  0.43345  0.11339  0.99502  1.0000
  N   N6        1.0  0.42316  0.03941  0.21433  1.0000
  C   C83       1.0  0.15672  0.17492  0.08052  1.0000
  C   C84       1.0  0.03587  0.22119  0.13901  1.0000
  H   H96       1.0  0.02179  0.11835  0.15291  1.0000
  H   H97       1.0  0.18849  0.13646  0.06450  1.0000
  S   S35       1.0  0.26186  0.99765  0.32546  1.0000
  H   H98       1.0  0.16361  0.18748  0.06905  1.0000
  C   C85       1.0  0.16123  0.14286  0.10171  1.0000
  C   C86       1.0  0.46252  0.10001  0.00254  1.0000
  H   H99       1.0  0.15569  0.14878  0.12044  1.0000
  H   H100      1.0  0.07626  0.98990  0.19389  1.0000
  H   H101      1.0  0.17110  0.12956  0.10589  1.0000
  H   H102      1.0  0.14795  0.13715  0.09144  1.0000
  C   C87       1.0  0.22247  0.17833  0.12997  1.0000
  H   H103      1.0  0.41832  0.05138  0.17619  1.0000
  C   C88       1.0  0.47003  0.20946  0.04494  1.0000
  H   H104      1.0  0.47696  0.06293  0.14509  1.0000
  H   H105      1.0  0.08359  0.03626  0.23057  1.0000
  H   H106      1.0  0.20727  0.20708  0.13165  1.0000
  C   C89       1.0  0.11439  0.12806  0.99755  1.0000
  H   H107      1.0  0.37474  0.04884  0.27972  1.0000
  C   C90       1.0  0.00937  0.12908  0.15853  1.0000
  H   H108      1.0  0.02464  0.13415  0.11301  1.0000
  H   H109      1.0  0.48163  0.10614  0.22061  1.0000
  H   H110      1.0  0.02802  0.23021  0.01157  1.0000
  H   H111      1.0  0.41817  0.00794  0.38346  1.0000
  H   H112      1.0  0.46042  0.98819  0.30291  1.0000
  H   H113      1.0  0.46082  0.10149  0.02311  1.0000
  C   C91       1.0  0.47779  0.07229  0.16172  1.0000
  H   H114      1.0  0.45166  0.99770  0.36723  1.0000
  C   C92       1.0  0.47172  0.15279  0.99293  1.0000
  C   C93       1.0  0.08594  0.99684  0.24378  1.0000
  H   H115      1.0  0.26230  0.99170  0.45491  1.0000
  C   C94       1.0  0.02372  0.23675  0.14955  1.0000
  H   H116      1.0  0.23597  0.99008  0.46294  1.0000
  C   C95       1.0  0.41974  0.99515  0.37096  1.0000
  H   H117      1.0  0.06671  0.03381  0.20441  1.0000
  C   C96       1.0  0.43010  0.15892  0.98922  1.0000
  H   H118      1.0  0.47410  0.21074  0.06541  1.0000
  H   H119      1.0  0.48128  0.17488  0.17961  1.0000
  C   C97       1.0  0.08348  0.99305  0.27056  1.0000
  H   H120      1.0  0.01912  0.16006  0.10742  1.0000
  H   H121      1.0  0.47203  0.99780  0.33067  1.0000
  H   H122      1.0  0.25533  0.00525  0.41483  1.0000
  C   C98       1.0  0.99569  0.16396  0.15231  1.0000
  H   H123      1.0  0.22824  0.00309  0.41750  1.0000
  C   C99       1.0  0.41389  0.99202  0.28320  1.0000
  C   C100      1.0  0.99545  0.18338  0.14030  1.0000
  H   H124      1.0  0.36376  0.99058  0.30184  1.0000
  C   C101      1.0  0.06385  0.99329  0.20788  1.0000
  N   N7        1.0  0.48771  0.21284  0.02739  1.0000
  C   C102      1.0  0.29130  0.09363  0.47704  1.0000
  H   H125      1.0  0.38767  0.99017  0.37058  1.0000
  C   C103      1.0  0.10432  0.99000  0.23207  1.0000
  H   H126      1.0  0.48784  0.15014  0.99425  1.0000
  C   C104      1.0  0.43881  0.98917  0.36148  1.0000
  H   H127      1.0  0.29750  0.06171  0.47766  1.0000
  C   C105      1.0  0.48023  0.09181  0.99191  1.0000
  H   H128      1.0  0.24232  0.99221  0.39119  1.0000
  H   H129      1.0  0.48844  0.19720  0.16203  1.0000
  H   H130      1.0  0.41390  0.16103  0.98791  1.0000
  Fe  Fe18      1.0  0.08021  0.12051  0.84528  1.0000
  S   S36       1.0  0.09000  0.14621  0.81890  1.0000
  S   S37       1.0  0.07325  0.09008  0.82609  1.0000
  Fe  Fe19      1.0  0.08734  0.14627  0.89360  1.0000
  S   S38       1.0  0.09697  0.17328  0.86940  1.0000
  S   S39       1.0  0.08341  0.15274  0.93670  1.0000
  Fe  Fe20      1.0  0.07076  0.16614  0.84477  1.0000
  S   S40       1.0  0.04677  0.18729  0.82722  1.0000
  Fe  Fe21      1.0  0.11564  0.15134  0.84568  1.0000
  S   S41       1.0  0.15033  0.15488  0.83874  1.0000
  S   S42       1.0  0.05994  0.14023  0.86985  1.0000
  S   S43       1.0  0.10699  0.12451  0.87111  1.0000
  Fe  Fe22      1.0  0.43710  0.17661  0.84267  1.0000
  S   S44       1.0  0.47009  0.17256  0.83106  1.0000
  S   S45       1.0  0.41698  0.18990  0.81131  1.0000
  Fe  Fe23      1.0  0.44518  0.16225  0.89760  1.0000
  S   S46       1.0  0.42989  0.15759  0.93672  1.0000
  H   H131      1.0  0.25686  0.05948  0.69723  1.0000
  Fe  Fe24      1.0  0.46832  0.14289  0.85302  1.0000
  C   C106      1.0  0.45717  0.06144  0.82542  1.0000
  S   S47       1.0  0.44434  0.19293  0.87847  1.0000
  S   S48       1.0  0.43504  0.14611  0.86246  1.0000
  Fe  Fe25      1.0  0.33249  0.01488  0.63888  1.0000
  S   S49       1.0  0.33023  0.04481  0.61767  1.0000
  H   H132      1.0  0.44442  0.20108  0.95926  1.0000
  H   H133      1.0  0.26522  0.07054  0.58597  1.0000
  S   S50       1.0  0.28905  0.02730  0.59181  1.0000
  Fe  Fe26      1.0  0.32238  0.02659  0.58324  1.0000
  S   S51       1.0  0.33537  0.03536  0.54377  1.0000
  Fe  Fe27      1.0  0.29702  0.04371  0.62756  1.0000
  S   S52       1.0  0.27774  0.07154  0.63771  1.0000
  S   S53       1.0  0.29930  0.01476  0.65088  1.0000
  H   H134      1.0  0.27062  0.11464  0.73300  1.0000
  H   H135      1.0  0.41670  0.99402  0.71792  1.0000
  H   H136      1.0  0.42270  0.13261  0.80637  1.0000
  H   H137      1.0  0.12455  0.19395  0.90164  1.0000
  Fe  Fe28      1.0  0.28552  0.22096  0.72303  1.0000
  S   S54       1.0  0.27476  0.21968  0.76447  1.0000
  Fe  Fe29      1.0  0.29103  0.17415  0.72206  1.0000
  S   S55       1.0  0.28067  0.17043  0.76313  1.0000
  S   S56       1.0  0.30531  0.14601  0.70375  1.0000
  Fe  Fe30      1.0  0.25576  0.19293  0.75441  1.0000
  S   S57       1.0  0.22126  0.18902  0.76284  1.0000
  Fe  Fe31      1.0  0.30049  0.19709  0.77008  1.0000
  S   S58       1.0  0.32040  0.19429  0.80530  1.0000
  S   S59       1.0  0.26519  0.19524  0.71245  1.0000
  S   S60       1.0  0.31219  0.19977  0.72948  1.0000
  H   H138      1.0  0.42428  0.00830  0.63785  1.0000
  S   S61       1.0  0.00165  0.03389  0.78656  1.0000
  H   H139      1.0  0.28811  0.99944  0.48969  1.0000
  C   C107      1.0  0.32518  0.02784  0.51437  1.0000
  C   C108      1.0  0.30856  0.01506  0.51364  1.0000
  H   H140      1.0  0.23675  0.14472  0.70074  1.0000
  H   H141      1.0  0.30177  0.00932  0.53131  1.0000
  C   C109      1.0  0.28595  0.09259  0.65503  1.0000
  C   C110      1.0  0.27275  0.10923  0.65849  1.0000
  C   C111      1.0  0.27847  0.12591  0.67290  1.0000
  C   C112      1.0  0.29744  0.12604  0.68420  1.0000
  C   C113      1.0  0.31078  0.10959  0.68019  1.0000
  C   C114      1.0  0.30510  0.09297  0.66575  1.0000
  H   H142      1.0  0.25791  0.10911  0.65024  1.0000
  H   H143      1.0  0.26824  0.13861  0.67523  1.0000
  H   H144      1.0  0.32562  0.10959  0.68840  1.0000
  H   H145      1.0  0.31546  0.08035  0.66315  1.0000
  Fe  Fe32      1.0  0.46865  0.99204  0.71589  1.0000
  H   H146      1.0  0.42284  0.12492  0.76039  1.0000
  H   H147      1.0  0.01002  0.15917  0.76341  1.0000
  H   H148      1.0  0.21274  0.20277  0.87600  1.0000
  H   H149      1.0  0.04738  0.07577  0.75069  1.0000
  C   C115      1.0  0.04883  0.14844  0.77203  1.0000
  C   C116      1.0  0.01836  0.21819  0.82885  1.0000
  C   C117      1.0  0.46072  0.08140  0.83310  1.0000
  C   C118      1.0  0.47148  0.05082  0.81022  1.0000
  S   S62       1.0  0.32750  0.99682  0.60365  1.0000
  C   C119      1.0  0.39335  0.00795  0.65213  1.0000
  H   H150      1.0  0.99318  0.12720  0.76334  1.0000
  H   H151      1.0  0.44953  0.08927  0.84468  1.0000
  C   C120      1.0  0.39009  0.19103  0.81018  1.0000
  C   C121      1.0  0.37772  0.18675  0.83163  1.0000
  C   C122      1.0  0.35646  0.18804  0.82984  1.0000
  C   C123      1.0  0.34730  0.19352  0.80663  1.0000
  C   C124      1.0  0.35969  0.19783  0.78520  1.0000
  C   C125      1.0  0.38094  0.19663  0.78700  1.0000
  H   H152      1.0  0.38449  0.18253  0.84963  1.0000
  H   H153      1.0  0.34703  0.18472  0.84657  1.0000
  H   H154      1.0  0.35287  0.20229  0.76731  1.0000
  H   H155      1.0  0.39035  0.20006  0.77032  1.0000
  C   C126      1.0  0.46294  0.15450  0.96865  1.0000
  C   C127      1.0  0.44200  0.15725  0.96668  1.0000
  H   H156      1.0  0.27057  0.05771  0.55699  1.0000
  C   C128      1.0  0.45935  0.20526  0.96536  1.0000
  C   C129      1.0  0.05304  0.07435  0.81599  1.0000
  C   C130      1.0  0.03264  0.07823  0.82224  1.0000
  C   C131      1.0  0.01729  0.06570  0.81314  1.0000
  C   C132      1.0  0.02195  0.04901  0.79763  1.0000
  C   C133      1.0  0.04236  0.04495  0.79167  1.0000
  C   C134      1.0  0.05771  0.05748  0.80081  1.0000
  H   H157      1.0  0.02867  0.09078  0.83429  1.0000
  H   H158      1.0  0.00165  0.06904  0.81808  1.0000
  H   H159      1.0  0.04638  0.03221  0.77992  1.0000
  H   H160      1.0  0.07337  0.05415  0.79587  1.0000
  C   C135      1.0  0.22438  0.09640  0.71786  1.0000
  C   C136      1.0  0.04390  0.21933  0.86100  1.0000
  C   C137      1.0  0.03565  0.20961  0.84027  1.0000
  H   H161      1.0  0.47230  0.15324  0.95152  1.0000
  C   C138      1.0  0.25909  0.10464  0.72660  1.0000
  H   H162      1.0  0.05723  0.21302  0.86991  1.0000
  C   C139      1.0  0.00952  0.23632  0.83784  1.0000
  C   C140      1.0  0.16974  0.16456  0.81723  1.0000
  C   C141      1.0  0.16547  0.17464  0.79411  1.0000
  C   C142      1.0  0.18137  0.18206  0.77799  1.0000
  C   C143      1.0  0.20184  0.17968  0.78460  1.0000
  C   C144      1.0  0.20612  0.16961  0.80774  1.0000
  C   C145      1.0  0.19023  0.16211  0.82382  1.0000
  H   H163      1.0  0.14990  0.17677  0.78863  1.0000
  H   H164      1.0  0.17772  0.18981  0.76023  1.0000
  H   H165      1.0  0.22168  0.16764  0.81334  1.0000
  H   H166      1.0  0.19385  0.15443  0.84163  1.0000
  C   C146      1.0  0.10761  0.13198  0.97242  1.0000
  C   C147      1.0  0.09222  0.14632  0.96802  1.0000
  H   H167      1.0  0.07179  0.16757  0.98613  1.0000
  H   H168      1.0  0.11425  0.12387  0.95651  1.0000
  N   N8        1.0  0.28457  0.08694  0.55918  1.0000
  C   C148      1.0  0.30347  0.07823  0.56981  1.0000
  C   C149      1.0  0.28004  0.10595  0.57287  1.0000
  C   C150      1.0  0.26770  0.07291  0.56498  1.0000
  C   C151      1.0  0.28701  0.08965  0.53109  1.0000
  C   C152      1.0  0.29179  0.07282  0.51560  1.0000
  C   C153      1.0  0.28450  0.10866  0.51827  1.0000
  H   H169      1.0  0.99511  0.22202  0.93519  1.0000
  H   H170      1.0  0.37941  0.99728  0.71379  1.0000
  H   H171      1.0  0.31681  0.08754  0.56426  1.0000
  H   H172      1.0  0.30269  0.07700  0.59108  1.0000
  H   H173      1.0  0.30669  0.06276  0.56302  1.0000
  H   H174      1.0  0.26551  0.11297  0.56673  1.0000
  H   H175      1.0  0.29245  0.11700  0.56999  1.0000
  H   H176      1.0  0.27842  0.10318  0.59396  1.0000
  H   H177      1.0  0.48252  0.01715  0.65139  1.0000
  C   C154      1.0  0.47466  0.20858  0.94709  1.0000
  C   C155      1.0  0.46771  0.09825  0.94855  1.0000
  H   H178      1.0  0.29406  0.05791  0.52396  1.0000
  H   H179      1.0  0.00022  0.14931  0.79390  1.0000
  H   H180      1.0  0.48780  0.00496  0.62179  1.0000
  C   C156      1.0  0.30082  0.00950  0.48995  1.0000
  H   H181      1.0  0.15131  0.18350  0.96255  1.0000
  H   H182      1.0  0.47058  0.22103  0.83997  1.0000
  H   H183      1.0  0.39108  0.14374  0.82821  1.0000
  C   C157      1.0  0.41454  0.00594  0.65451  1.0000
  C   C158      1.0  0.23828  0.11030  0.72767  1.0000
  S   S63       1.0  0.47821  0.15719  0.88945  1.0000
  C   C159      1.0  0.01625  0.08394  0.74513  1.0000
  C   C160      1.0  0.38050  0.00478  0.67346  1.0000
  C   C161      1.0  0.29384  0.07483  0.48902  1.0000
  Fe  Fe33      1.0  0.99716  0.00695  0.75964  1.0000
  H   H184      1.0  0.45903  0.06874  0.91626  1.0000
  H   H185      1.0  0.15833  0.15769  0.95472  1.0000
  H   H186      1.0  0.04746  0.12282  0.81215  1.0000
  H   H187      1.0  0.28159  0.08266  0.71480  1.0000
  H   H188      1.0  0.02096  0.12544  0.81941  1.0000
  S   S64       1.0  0.99957  0.00858  0.71653  1.0000
  H   H189      1.0  0.18089  0.20033  0.85255  1.0000
  C   C162      1.0  0.00120  0.09857  0.74888  1.0000
  C   C163      1.0  0.99757  0.99458  0.65241  1.0000
  N   N9        1.0  0.03037  0.13894  0.78337  1.0000
  H   H190      1.0  0.99534  0.01915  0.84427  1.0000
  S   S65       1.0  0.45001  0.99809  0.68000  1.0000
  H   H191      1.0  0.45862  0.10900  0.88492  1.0000
  C   C164      1.0  0.02540  0.12055  0.76935  1.0000
  H   H192      1.0  0.04708  0.15176  0.75126  1.0000
  H   H193      1.0  0.00054  0.99970  0.86743  1.0000
  C   C165      1.0  0.25164  0.07329  0.70619  1.0000
  H   H194      1.0  0.05229  0.16289  0.78145  1.0000
  S   S66       1.0  0.35361  0.00592  0.67155  1.0000
  C   C166      1.0  0.01401  0.15457  0.78327  1.0000
  H   H195      1.0  0.12539  0.14958  0.92011  1.0000
  H   H196      1.0  0.45312  0.21175  0.81760  1.0000
  H   H197      1.0  0.21371  0.19278  0.92183  1.0000
  Fe  Fe34      1.0  0.47953  0.00581  0.76976  1.0000
  C   C167      1.0  0.03420  0.13320  0.81035  1.0000
  S   S67       1.0  0.46695  0.02504  0.80288  1.0000
  H   H198      1.0  0.06260  0.13884  0.77434  1.0000
  C   C168      1.0  0.41034  0.99790  0.69957  1.0000
  C   C169      1.0  0.23109  0.07821  0.70723  1.0000
  H   H199      1.0  0.44039  0.10063  0.90835  1.0000
  C   C170      1.0  0.23909  0.13241  0.76405  1.0000
  H   H200      1.0  0.20559  0.14881  0.74606  1.0000
  H   H201      1.0  0.23291  0.12030  0.77697  1.0000
  H   H202      1.0  0.23427  0.14719  0.77213  1.0000
  H   H203      1.0  0.25790  0.14613  0.72149  1.0000
  N   N10       1.0  0.35402  0.14037  0.75279  1.0000
  C   C171      1.0  0.35717  0.15633  0.73281  1.0000
  C   C172      1.0  0.34961  0.12108  0.74028  1.0000
  C   C173      1.0  0.33574  0.14610  0.76820  1.0000
  C   C174      1.0  0.37255  0.13803  0.76799  1.0000
  C   C175      1.0  0.39105  0.13169  0.75609  1.0000
  C   C176      1.0  0.37303  0.14220  0.79453  1.0000
  C   C177      1.0  0.40885  0.12962  0.76988  1.0000
  C   C178      1.0  0.39093  0.14003  0.80812  1.0000
  C   C179      1.0  0.40880  0.13385  0.79583  1.0000
  H   H204      1.0  0.36120  0.17086  0.74153  1.0000
  H   H205      1.0  0.36943  0.15235  0.71887  1.0000
  H   H206      1.0  0.34329  0.15917  0.72154  1.0000
  H   H207      1.0  0.36124  0.11694  0.72558  1.0000
  H   H208      1.0  0.33499  0.12191  0.73017  1.0000
  H   H209      1.0  0.34863  0.10842  0.75460  1.0000
  H   H210      1.0  0.33738  0.16112  0.77687  1.0000
  H   H211      1.0  0.32204  0.14744  0.75626  1.0000
  H   H212      1.0  0.33238  0.13478  0.78367  1.0000
  H   H213      1.0  0.39193  0.12850  0.73593  1.0000
  H   H214      1.0  0.35990  0.14758  0.80517  1.0000
  H   H215      1.0  0.43717  0.11206  0.94908  1.0000
  H   H216      1.0  0.03734  0.14659  0.82196  1.0000
  H   H217      1.0  0.25582  0.13184  0.76517  1.0000
  H   H218      1.0  0.23604  0.16162  0.72699  1.0000
  C   C180      1.0  0.28665  0.11050  0.49162  1.0000
  H   H219      1.0  0.20335  0.13360  0.71871  1.0000
  C   C181      1.0  0.20971  0.13373  0.73821  1.0000
  H   H220      1.0  0.20183  0.12235  0.75070  1.0000
  H   H221      1.0  0.48591  0.06881  0.92041  1.0000
  N   N11       1.0  0.23198  0.13025  0.73757  1.0000
  C   C182      1.0  0.24109  0.14632  0.72101  1.0000
  H   H222      1.0  0.25329  0.07878  0.55693  1.0000
  H   H223      1.0  0.38695  0.01170  0.63376  1.0000
  H   H224      1.0  0.28090  0.12232  0.52837  1.0000
  H   H225      1.0  0.01865  0.16851  0.79305  1.0000
  C   C183      1.0  0.33381  0.03512  0.49115  1.0000
  C   C184      1.0  0.19964  0.19184  0.91173  1.0000
  H   H226      1.0  0.13569  0.15923  0.89065  1.0000
  H   H227      1.0  0.18369  0.18034  0.94431  1.0000
  C   C185      1.0  0.46285  0.22476  0.82178  1.0000
  C   C186      1.0  0.14705  0.17007  0.95160  1.0000
  H   H228      1.0  0.13251  0.16467  0.96036  1.0000
  C   C187      1.0  0.18219  0.18471  0.92446  1.0000
  C   C188      1.0  0.19916  0.19753  0.88594  1.0000
  H   H229      1.0  0.01186  0.21089  0.81276  1.0000
  C   C189      1.0  0.42319  0.00091  0.67822  1.0000
  C   C190      1.0  0.16360  0.18318  0.91151  1.0000
  C   C191      1.0  0.13915  0.15645  0.91108  1.0000
  C   C192      1.0  0.18120  0.19626  0.87277  1.0000
  C   C193      1.0  0.12821  0.19022  0.92180  1.0000
  H   H230      1.0  0.11390  0.18458  0.93095  1.0000
  C   C194      1.0  0.16369  0.18925  0.88530  1.0000
  C   C195      1.0  0.47895  0.09085  0.82628  1.0000
  H   H231      1.0  0.15155  0.14492  0.91152  1.0000
  N   N12       1.0  0.14494  0.17514  0.92397  1.0000
  H   H232      1.0  0.13207  0.20458  0.93103  1.0000
  C   C196      1.0  0.45507  0.10852  0.90587  1.0000
  H   H233      1.0  0.44322  0.05416  0.83125  1.0000
  H   H234      1.0  0.47572  0.07677  0.89039  1.0000
  H   H235      1.0  0.45508  0.99459  0.85532  1.0000
  H   H236      1.0  0.34663  0.04506  0.49151  1.0000
  H   H237      1.0  0.05543  0.10653  0.77254  1.0000
  H   H238      1.0  0.15028  0.18814  0.87398  1.0000
  H   H239      1.0  0.00620  0.00702  0.64282  1.0000
  C   C197      1.0  0.04031  0.10523  0.76533  1.0000
  C   C198      1.0  0.26558  0.08636  0.71613  1.0000
  H   H240      1.0  0.22034  0.06796  0.69937  1.0000
  H   H241      1.0  0.20828  0.09931  0.71782  1.0000
  Fe  Fe35      1.0  0.29418  0.99843  0.61433  1.0000
  Fe  Fe36      1.0  0.47714  0.18710  0.86825  1.0000
  C   C199      1.0  0.03580  0.08738  0.75308  1.0000
  H   H242      1.0  0.48696  0.99005  0.82811  1.0000
  C   C200      1.0  0.44953  0.10590  0.96008  1.0000
  N   N13       1.0  0.47139  0.09825  0.92048  1.0000
  C   C201      1.0  0.38916  0.99978  0.69715  1.0000
  H   H243      1.0  0.45286  0.12442  0.91189  1.0000
  S   S68       1.0  0.48547  0.11509  0.83773  1.0000
  H   H244      1.0  0.42842  0.23335  0.79745  1.0000
  C   C202      1.0  0.47310  0.07721  0.91156  1.0000
  H   H245      1.0  0.47162  0.20714  0.92693  1.0000
  C   C203      1.0  0.00561  0.11667  0.76074  1.0000
  C   C204      1.0  0.48277  0.09074  0.96533  1.0000
  H   H246      1.0  0.01267  0.06968  0.73662  1.0000
  H   H247      1.0  0.47478  0.22571  0.80643  1.0000
  H   H248      1.0  0.01744  0.22941  0.96749  1.0000
  H   H249      1.0  0.42483  0.22981  0.84167  1.0000
  H   H250      1.0  0.99993  0.99507  0.81215  1.0000
  C   C205      1.0  0.44710  0.10673  0.98667  1.0000
  Fe  Fe37      1.0  0.34629  0.39738  0.34310  1.0000
  S   S69       1.0  0.32094  0.38905  0.31741  1.0000
  S   S70       1.0  0.37990  0.40269  0.33186  1.0000
  Fe  Fe38      1.0  0.31934  0.39050  0.39268  1.0000
  S   S71       1.0  0.29227  0.38152  0.36997  1.0000
  S   S72       1.0  0.31976  0.40123  0.43441  1.0000
  Fe  Fe39      1.0  0.31439  0.36315  0.34527  1.0000
  S   S73       1.0  0.31454  0.32954  0.33291  1.0000
  Fe  Fe40      1.0  0.30044  0.40773  0.34352  1.0000
  S   S74       1.0  0.28151  0.43513  0.33008  1.0000
  S   S75       1.0  0.34089  0.37078  0.37002  1.0000
  S   S76       1.0  0.32639  0.41743  0.36712  1.0000
  S   S77       1.0  0.26938  0.25723  0.27636  1.0000
  Fe  Fe41      1.0  0.46397  0.47860  0.25898  1.0000
  H   H251      1.0  0.01118  0.25308  0.04244  1.0000
  S   S78       1.0  0.43159  0.47273  0.27493  1.0000
  H   H252      1.0  0.26046  0.46141  0.38677  1.0000
  C   C206      1.0  0.42983  0.38244  0.24825  1.0000
  S   S79       1.0  0.19375  0.47059  0.36088  1.0000
  H   H253      1.0  0.32980  0.26378  0.22932  1.0000
  H   H254      1.0  0.00244  0.30090  0.19163  1.0000
  C   C207      1.0  0.41187  0.37606  0.26043  1.0000
  H   H255      1.0  0.46359  0.41751  0.26356  1.0000
  H   H256      1.0  0.44173  0.37123  0.24632  1.0000
  C   C208      1.0  0.39214  0.39821  0.43832  1.0000
  H   H257      1.0  0.02493  0.24012  0.16959  1.0000
  C   C209      1.0  0.19612  0.47290  0.44394  1.0000
  H   H258      1.0  0.24055  0.45060  0.40519  1.0000
  C   C210      1.0  0.46636  0.39415  0.22181  1.0000
  H   H259      1.0  0.42210  0.41180  0.44152  1.0000
  H   H260      1.0  0.30827  0.29696  0.17835  1.0000
  H   H261      1.0  0.45058  0.43814  0.24817  1.0000
  C   C211      1.0  0.25599  0.45677  0.40669  1.0000
  H   H262      1.0  0.38763  0.37969  0.37846  1.0000
  S   S80       1.0  0.99453  0.26677  0.14898  1.0000
  C   C212      1.0  0.39400  0.42279  0.31694  1.0000
  C   C213      1.0  0.41516  0.42054  0.31385  1.0000
  C   C214      1.0  0.42696  0.43565  0.30141  1.0000
  C   C215      1.0  0.41774  0.45329  0.29172  1.0000
  C   C216      1.0  0.39662  0.45564  0.29513  1.0000
  C   C217      1.0  0.38484  0.44057  0.30766  1.0000
  H   H263      1.0  0.42248  0.40688  0.32085  1.0000
  H   H264      1.0  0.44315  0.43364  0.29936  1.0000
  H   H265      1.0  0.38923  0.46919  0.28791  1.0000
  H   H266      1.0  0.36863  0.44262  0.30985  1.0000
  C   C218      1.0  0.25677  0.44441  0.33820  1.0000
  C   C219      1.0  0.24207  0.43232  0.35032  1.0000
  C   C220      1.0  0.22287  0.44056  0.35691  1.0000
  C   C221      1.0  0.21805  0.46096  0.35145  1.0000
  C   C222      1.0  0.23271  0.47303  0.33921  1.0000
  C   C223      1.0  0.25188  0.46475  0.33253  1.0000
  H   H267      1.0  0.24536  0.41653  0.35425  1.0000
  H   H268      1.0  0.21158  0.43101  0.36607  1.0000
  C   C224      1.0  0.24575  0.43238  0.45304  1.0000
  H   H269      1.0  0.26303  0.47423  0.32296  1.0000
  C   C225      1.0  0.30147  0.30964  0.31733  1.0000
  C   C226      1.0  0.31085  0.29042  0.31535  1.0000
  C   C227      1.0  0.30150  0.27436  0.30279  1.0000
  C   C228      1.0  0.28235  0.27708  0.29216  1.0000
  C   C229      1.0  0.27295  0.29627  0.29420  1.0000
  C   C230      1.0  0.28242  0.31240  0.30646  1.0000
  H   H270      1.0  0.32552  0.28791  0.32365  1.0000
  H   H271      1.0  0.30897  0.25977  0.30176  1.0000
  H   H272      1.0  0.25814  0.29870  0.28625  1.0000
  H   H273      1.0  0.27488  0.32695  0.30765  1.0000
  C   C231      1.0  0.32256  0.37067  0.47218  1.0000
  C   C232      1.0  0.32183  0.39138  0.46637  1.0000
  H   H274      1.0  0.40595  0.41054  0.37578  1.0000
  H   H275      1.0  0.32166  0.35995  0.45696  1.0000
  C   C233      1.0  0.39749  0.40948  0.25538  1.0000
  H   H276      1.0  0.38206  0.38472  0.27409  1.0000
  Fe  Fe42      1.0  0.00930  0.48419  0.25756  1.0000
  H   H277      1.0  0.41047  0.36061  0.26746  1.0000
  N   N14       1.0  0.45113  0.41031  0.22731  1.0000
  H   H278      1.0  0.35791  0.40378  0.40958  1.0000
  H   H279      1.0  0.23397  0.43103  0.43923  1.0000
  N   N15       1.0  0.02382  0.32078  0.17232  1.0000
  C   C234      1.0  0.03828  0.32041  0.19360  1.0000
  C   C235      1.0  0.00618  0.25280  0.02285  1.0000
  C   C236      1.0  0.39576  0.38956  0.26403  1.0000
  C   C237      1.0  0.02362  0.34096  0.15950  1.0000
  C   C238      1.0  0.01966  0.35857  0.17390  1.0000
  C   C239      1.0  0.02682  0.34379  0.13266  1.0000
  C   C240      1.0  0.40791  0.40962  0.39692  1.0000
  C   C241      1.0  0.02616  0.36307  0.12120  1.0000
  C   C242      1.0  0.02250  0.38002  0.13599  1.0000
  H   H280      1.0  0.03361  0.33074  0.20917  1.0000
  H   H281      1.0  0.03957  0.30509  0.20270  1.0000
  H   H282      1.0  0.05366  0.32487  0.18662  1.0000
  C   C243      1.0  0.46045  0.42472  0.24463  1.0000
  N   N16       1.0  0.39042  0.39973  0.41016  1.0000
  C   C244      1.0  0.37201  0.41166  0.40368  1.0000
  N   N17       1.0  0.27063  0.44199  0.41783  1.0000
  C   C245      1.0  0.29122  0.45023  0.41312  1.0000
  H   H283      1.0  0.29610  0.44145  0.46029  1.0000
  H   H284      1.0  0.30780  0.25135  0.21931  1.0000
  H   H285      1.0  0.02945  0.33135  0.11997  1.0000
  H   H286      1.0  0.47504  0.43044  0.23652  1.0000
  H   H287      1.0  0.02821  0.36484  0.10064  1.0000
  H   H288      1.0  0.27948  0.41094  0.41298  1.0000
  N   N18       1.0  0.30583  0.28387  0.21656  1.0000
  C   C246      1.0  0.31300  0.26491  0.22928  1.0000
  C   C247      1.0  0.28343  0.28306  0.21564  1.0000
  C   C248      1.0  0.31429  0.28414  0.19004  1.0000
  C   C249      1.0  0.31178  0.30236  0.22975  1.0000
  C   C250      1.0  0.32394  0.30191  0.25183  1.0000
  C   C251      1.0  0.30503  0.32164  0.22079  1.0000
  C   C252      1.0  0.32834  0.31961  0.26453  1.0000
  C   C253      1.0  0.30939  0.33923  0.23379  1.0000
  C   C254      1.0  0.32085  0.33817  0.25578  1.0000
  H   H289      1.0  0.30699  0.26349  0.24926  1.0000
  C   C255      1.0  0.28041  0.43821  0.46453  1.0000
  H   H290      1.0  0.46090  0.42545  0.19218  1.0000
  H   H291      1.0  0.27645  0.28448  0.23513  1.0000
  C   C256      1.0  0.40928  0.40507  0.45142  1.0000
  H   H292      1.0  0.27682  0.29522  0.20340  1.0000
  H   H293      1.0  0.33108  0.28528  0.18996  1.0000
  H   H294      1.0  0.99780  0.25147  0.09681  1.0000
  H   H295      1.0  0.42224  0.40099  0.39999  1.0000
  H   H296      1.0  0.32969  0.28803  0.26024  1.0000
  H   H297      1.0  0.29591  0.32319  0.20398  1.0000
  H   H298      1.0  0.33692  0.31886  0.28198  1.0000
  H   H299      1.0  0.30353  0.35372  0.22710  1.0000
  H   H300      1.0  0.32369  0.35169  0.26639  1.0000
  C   C257      1.0  0.38874  0.37920  0.39971  1.0000
  H   H301      1.0  0.27822  0.26858  0.20788  1.0000
  C   C258      1.0  0.24089  0.42758  0.47861  1.0000
  H   H302      1.0  0.27460  0.42454  0.38374  1.0000
  H   H303      1.0  0.43799  0.43515  0.20531  1.0000
  H   H304      1.0  0.48578  0.26728  0.12856  1.0000
  H   H305      1.0  0.31066  0.27002  0.17992  1.0000
  H   H306      1.0  0.36275  0.38409  0.44501  1.0000
  H   H307      1.0  0.38508  0.42004  0.25879  1.0000
  C   C259      1.0  0.37743  0.38807  0.48019  1.0000
  C   C260      1.0  0.26565  0.43801  0.44522  1.0000
  H   H308      1.0  0.19260  0.45943  0.43358  1.0000
  C   C261      1.0  0.26955  0.42275  0.40409  1.0000
  H   H309      1.0  0.01620  0.35761  0.19417  1.0000
  H   H310      1.0  0.40966  0.42541  0.40326  1.0000
  H   H311      1.0  0.01888  0.30246  0.13942  1.0000
  H   H312      1.0  0.02169  0.39491  0.12703  1.0000
  H   H313      1.0  0.29414  0.45371  0.39238  1.0000
  H   H314      1.0  0.25487  0.47070  0.41816  1.0000
  C   C262      1.0  0.00331  0.31637  0.18291  1.0000
  C   C263      1.0  0.41025  0.40345  0.47810  1.0000
  H   H315      1.0  0.01616  0.39100  0.17364  1.0000
  H   H316      1.0  0.41637  0.43199  0.23850  1.0000
  H   H317      1.0  0.19561  0.45775  0.48023  1.0000
  C   C264      1.0  0.41545  0.41612  0.24358  1.0000
  H   H318      1.0  0.22571  0.42287  0.48399  1.0000
  C   C265      1.0  0.01942  0.37778  0.16229  1.0000
  H   H319      1.0  0.10565  0.48645  0.31573  1.0000
  C   C266      1.0  0.43214  0.40276  0.23941  1.0000
  C   C267      1.0  0.37628  0.38961  0.45357  1.0000
  H   H320      1.0  0.40211  0.36962  0.40462  1.0000
  H   H321      1.0  0.25395  0.41670  0.40413  1.0000
  H   H322      1.0  0.43820  0.41109  0.18992  1.0000
  S   S81       1.0  0.03874  0.47635  0.27853  1.0000
  C   C268      1.0  0.44677  0.42091  0.20267  1.0000
  H   H323      1.0  0.29331  0.46440  0.42368  1.0000
  H   H324      1.0  0.04521  0.30651  0.14628  1.0000
  H   H325      1.0  0.37095  0.41454  0.38271  1.0000
  H   H326      1.0  0.07998  0.46770  0.29199  1.0000
  H   H327      1.0  0.30323  0.43912  0.41852  1.0000
  H   H328      1.0  0.37176  0.42654  0.41312  1.0000
  H   H329      1.0  0.37505  0.37126  0.40715  1.0000
  C   C269      1.0  0.02988  0.30416  0.15498  1.0000
  H   H330      1.0  0.03022  0.28921  0.16520  1.0000
  C   C270      1.0  0.00993  0.24781  0.13445  1.0000
  C   C271      1.0  0.99030  0.26535  0.01508  1.0000
  S   S82       1.0  0.46564  0.47738  0.21625  1.0000
  H   H331      1.0  0.48019  0.40032  0.21198  1.0000
  C   C272      1.0  0.19779  0.47216  0.47059  1.0000
  C   C273      1.0  0.07607  0.48229  0.29971  1.0000
  H   H332      1.0  0.32292  0.42104  0.48240  1.0000
  H   H333      1.0  0.48476  0.24521  0.02715  1.0000
  C   C274      1.0  0.01565  0.23995  0.00538  1.0000
  H   H334      1.0  0.99824  0.32727  0.19767  1.0000
  H   H335      1.0  0.99188  0.31728  0.16769  1.0000
  C   C275      1.0  0.00842  0.24319  0.10862  1.0000
  H   H336      1.0  0.46024  0.38262  0.20905  1.0000
  H   H337      1.0  0.47177  0.38663  0.23967  1.0000
  C   C276      1.0  0.32308  0.40500  0.48658  1.0000
  C   C277      1.0  0.32820  0.26549  0.63833  1.0000
  S   S83       1.0  0.46634  0.47753  0.76585  1.0000
  S   S84       1.0  0.43577  0.47725  0.70116  1.0000
  Fe  Fe43      1.0  0.35484  0.40029  0.63253  1.0000
  S   S85       1.0  0.33041  0.39397  0.66216  1.0000
  S   S86       1.0  0.38756  0.40885  0.64261  1.0000
  Fe  Fe44      1.0  0.32874  0.38223  0.58960  1.0000
  S   S87       1.0  0.30276  0.37532  0.61729  1.0000
  S   S88       1.0  0.32848  0.36766  0.54993  1.0000
  Fe  Fe45      1.0  0.30875  0.40624  0.63249  1.0000
  S   S89       1.0  0.28444  0.42812  0.64788  1.0000
  Fe  Fe46      1.0  0.32626  0.36350  0.64461  1.0000
  S   S90       1.0  0.32888  0.33364  0.66843  1.0000
  S   S91       1.0  0.33350  0.41398  0.60334  1.0000
  S   S92       1.0  0.35192  0.36914  0.61643  1.0000
  S   S93       1.0  0.28393  0.24981  0.69695  1.0000
  C   C278      1.0  0.46487  0.26062  0.82740  1.0000
  C   C279      1.0  0.20687  0.42772  0.64278  1.0000
  H   H338      1.0  0.25205  0.42395  0.51684  1.0000
  H   H339      1.0  0.35501  0.30838  0.59078  1.0000
  H   H340      1.0  0.36506  0.38152  0.49140  1.0000
  C   C280      1.0  0.17238  0.45393  0.63954  1.0000
  C   C281      1.0  0.01812  0.24633  0.85811  1.0000
  C   C282      1.0  0.18265  0.46573  0.68007  1.0000
  S   S94       1.0  0.99428  0.45905  0.71397  1.0000
  H   H341      1.0  0.28701  0.43318  0.50438  1.0000
  C   C283      1.0  0.32550  0.37739  0.51806  1.0000
  H   H342      1.0  0.99136  0.45877  0.63226  1.0000
  C   C284      1.0  0.32480  0.39810  0.51222  1.0000
  H   H343      1.0  0.34352  0.32357  0.61575  1.0000
  H   H344      1.0  0.32584  0.40880  0.52745  1.0000
  C   C285      1.0  0.26586  0.44288  0.63162  1.0000
  C   C286      1.0  0.25378  0.45665  0.64561  1.0000
  C   C287      1.0  0.23818  0.46797  0.63385  1.0000
  C   C288      1.0  0.23437  0.46553  0.60793  1.0000
  C   C289      1.0  0.24652  0.45187  0.59388  1.0000
  C   C290      1.0  0.26222  0.44068  0.60559  1.0000
  H   H345      1.0  0.25642  0.45841  0.66576  1.0000
  C   C291      1.0  0.30656  0.32497  0.59764  1.0000
  H   H346      1.0  0.24372  0.44983  0.57384  1.0000
  H   H347      1.0  0.27133  0.43011  0.59463  1.0000
  C   C292      1.0  0.31550  0.31091  0.67714  1.0000
  C   C293      1.0  0.29630  0.30662  0.66803  1.0000
  C   C294      1.0  0.28686  0.28810  0.67467  1.0000
  C   C295      1.0  0.29621  0.27357  0.69081  1.0000
  C   C296      1.0  0.31523  0.27803  0.70033  1.0000
  C   C297      1.0  0.32478  0.29645  0.69344  1.0000
  H   H348      1.0  0.28865  0.31751  0.65587  1.0000
  H   H349      1.0  0.27217  0.28495  0.66716  1.0000
  H   H350      1.0  0.32272  0.26713  0.71270  1.0000
  H   H351      1.0  0.33956  0.29948  0.70077  1.0000
  C   C298      1.0  0.00935  0.23962  0.98001  1.0000
  C   C299      1.0  0.43597  0.24196  0.84486  1.0000
  C   C300      1.0  0.45758  0.48217  0.57557  1.0000
  C   C301      1.0  0.42258  0.45765  0.68564  1.0000
  C   C302      1.0  0.40219  0.46096  0.67919  1.0000
  C   C303      1.0  0.39121  0.44628  0.66625  1.0000
  C   C304      1.0  0.40056  0.42810  0.65910  1.0000
  C   C305      1.0  0.42101  0.42487  0.66534  1.0000
  C   C306      1.0  0.43190  0.43941  0.67864  1.0000
  H   H352      1.0  0.39478  0.47502  0.68430  1.0000
  H   H353      1.0  0.37556  0.44915  0.66160  1.0000
  H   H354      1.0  0.42851  0.41093  0.65994  1.0000
  H   H355      1.0  0.44755  0.43655  0.68329  1.0000
  N   N19       1.0  0.17850  0.44731  0.66557  1.0000
  H   H356      1.0  0.99959  0.48656  0.60247  1.0000
  C   C307      1.0  0.29691  0.26206  0.61629  1.0000
  H   H357      1.0  0.33832  0.26029  0.65319  1.0000
  H   H358      1.0  0.34471  0.33295  0.58358  1.0000
  S   S95       1.0  0.01822  0.48167  0.75811  1.0000
  H   H359      1.0  0.42737  0.25635  0.84750  1.0000
  C   C308      1.0  0.48494  0.48641  0.65696  1.0000
  C   C309      1.0  0.99312  0.25220  0.97149  1.0000
  S   S96       1.0  0.00573  0.42320  0.77117  1.0000
  C   C310      1.0  0.39434  0.39500  0.49244  1.0000
  C   C311      1.0  0.22206  0.41442  0.68969  1.0000
  C   C312      1.0  0.31878  0.29090  0.60562  1.0000
  H   H360      1.0  0.34583  0.29109  0.62932  1.0000
  C   C313      1.0  0.39232  0.37903  0.70183  1.0000
  H   H361      1.0  0.28962  0.28489  0.58876  1.0000
  H   H362      1.0  0.16962  0.47660  0.67965  1.0000
  Fe  Fe47      1.0  0.46536  0.48158  0.72297  1.0000
  H   H363      1.0  0.32518  0.32002  0.55130  1.0000
  C   C314      1.0  0.32441  0.36376  0.49782  1.0000
  S   S97       1.0  0.00856  0.26995  0.86921  1.0000
  C   C315      1.0  0.27539  0.43338  0.49006  1.0000
  H   H364      1.0  0.46184  0.27625  0.79014  1.0000
  H   H365      1.0  0.24589  0.40016  0.66749  1.0000
  C   C316      1.0  0.23195  0.40901  0.66701  1.0000
  H   H366      1.0  0.40075  0.38811  0.68706  1.0000
  H   H367      1.0  0.29105  0.31964  0.59413  1.0000
  H   H368      1.0  0.99116  0.23851  0.90814  1.0000
  H   H369      1.0  0.36363  0.37041  0.73785  1.0000
  C   C317      1.0  0.31055  0.25493  0.63434  1.0000
  H   H370      1.0  0.18458  0.46266  0.62948  1.0000
  C   C318      1.0  0.43558  0.47048  0.61006  1.0000
  C   C319      1.0  0.33231  0.28328  0.62438  1.0000
  H   H371      1.0  0.40237  0.36626  0.70765  1.0000
  N   N20       1.0  0.32239  0.30986  0.59076  1.0000
  C   C320      1.0  0.99129  0.40653  0.79130  1.0000
  H   H372      1.0  0.18142  0.46542  0.51915  1.0000
  C   C321      1.0  0.25569  0.42811  0.49710  1.0000
  C   C322      1.0  0.20455  0.42651  0.68908  1.0000
  H   H373      1.0  0.15777  0.42259  0.66803  1.0000
  H   H374      1.0  0.00172  0.47221  0.65800  1.0000
  H   H375      1.0  0.21769  0.45850  0.51363  1.0000
  H   H376      1.0  0.22906  0.47845  0.64489  1.0000
  H   H377      1.0  0.30848  0.33928  0.58633  1.0000
  H   H378      1.0  0.01332  0.24130  0.92606  1.0000
  C   C323      1.0  0.46912  0.27575  0.80837  1.0000
  C   C324      1.0  0.32150  0.30615  0.56292  1.0000
  H   H379      1.0  0.44932  0.24549  0.78205  1.0000
  C   C325      1.0  0.44075  0.47128  0.58411  1.0000
  H   H380      1.0  0.04217  0.24529  0.88525  1.0000
  H   H381      1.0  0.18596  0.48045  0.54621  1.0000
  H   H382      1.0  0.30720  0.32867  0.61827  1.0000
  H   H383      1.0  0.16839  0.44092  0.62767  1.0000
  H   H384      1.0  0.30621  0.30167  0.55704  1.0000
  H   H385      1.0  0.10190  0.47238  0.70035  1.0000
  H   H386      1.0  0.15876  0.46402  0.64019  1.0000
  H   H387      1.0  0.01287  0.38205  0.78720  1.0000
  H   H388      1.0  0.23222  0.41144  0.62609  1.0000
  H   H389      1.0  0.22822  0.40942  0.70782  1.0000
  S   S98       1.0  0.21431  0.47859  0.59225  1.0000
  N   N21       1.0  0.38584  0.39172  0.72367  1.0000
  C   C326      1.0  0.37722  0.37849  0.74431  1.0000
  C   C327      1.0  0.36930  0.40538  0.71478  1.0000
  C   C328      1.0  0.40350  0.40254  0.73329  1.0000
  C   C329      1.0  0.42070  0.39155  0.74205  1.0000
  C   C330      1.0  0.40429  0.42396  0.73430  1.0000
  C   C331      1.0  0.43757  0.40137  0.75124  1.0000
  C   C332      1.0  0.42120  0.43359  0.74370  1.0000
  C   C333      1.0  0.43781  0.42235  0.75206  1.0000
  H   H390      1.0  0.37259  0.38744  0.76131  1.0000
  H   H391      1.0  0.46154  0.48274  0.55533  1.0000
  H   H392      1.0  0.38813  0.36666  0.75080  1.0000
  H   H393      1.0  0.36328  0.41508  0.73037  1.0000
  H   H394      1.0  0.35624  0.39679  0.70783  1.0000
  H   H395      1.0  0.37442  0.41516  0.69840  1.0000
  H   H396      1.0  0.39224  0.43372  0.72755  1.0000
  H   H397      1.0  0.45061  0.39273  0.75773  1.0000
  H   H398      1.0  0.42158  0.44996  0.74406  1.0000
  H   H399      1.0  0.45097  0.42994  0.75905  1.0000
  N   N22       1.0  0.45090  0.24378  0.82327  1.0000
  H   H400      1.0  0.18548  0.46241  0.70058  1.0000
  C   C334      1.0  0.48351  0.29061  0.81227  1.0000
  C   C335      1.0  0.22421  0.41542  0.64364  1.0000
  C   C336      1.0  0.30091  0.27974  0.60208  1.0000
  H   H401      1.0  0.00508  0.27707  0.93258  1.0000
  C   C337      1.0  0.16101  0.43685  0.67793  1.0000
  C   C338      1.0  0.19655  0.43379  0.66560  1.0000
  H   H402      1.0  0.14701  0.44649  0.67749  1.0000
  H   H403      1.0  0.06491  0.47553  0.70943  1.0000
  C   C339      1.0  0.34232  0.31897  0.59547  1.0000
  H   H404      1.0  0.33243  0.29404  0.55721  1.0000
  H   H405      1.0  0.16358  0.43297  0.69837  1.0000
  H   H406      1.0  0.37920  0.37233  0.69221  1.0000
  C   C340      1.0  0.43925  0.24598  0.79939  1.0000
  H   H407      1.0  0.47278  0.47854  0.66818  1.0000
  H   H408      1.0  0.19751  0.43038  0.70720  1.0000
  H   H409      1.0  0.43015  0.26024  0.79908  1.0000
  H   H410      1.0  0.42125  0.37526  0.74174  1.0000
  H   H411      1.0  0.20226  0.43272  0.62398  1.0000
  C   C341      1.0  0.07182  0.48428  0.69394  1.0000
  H   H412      1.0  0.47405  0.25003  0.86537  1.0000
  C   C342      1.0  0.44722  0.48058  0.62752  1.0000
  H   H413      1.0  0.43167  0.46340  0.57063  1.0000
  H   H414      1.0  0.99639  0.24281  0.82865  1.0000
  H   H415      1.0  0.32500  0.34771  0.50199  1.0000
  C   C343      1.0  0.18509  0.48092  0.52493  1.0000
  H   H416      1.0  0.22369  0.47362  0.53996  1.0000
  H   H417      1.0  0.19617  0.47363  0.67189  1.0000
  C   C344      1.0  0.22088  0.47421  0.51904  1.0000
  H   H418      1.0  0.42252  0.46193  0.61682  1.0000
  H   H419      1.0  0.30703  0.24165  0.64604  1.0000
  H   H420      1.0  0.39507  0.39382  0.51312  1.0000
  C   C345      1.0  0.47576  0.26147  0.85042  1.0000
  C   C346      1.0  0.99859  0.38673  0.79587  1.0000
  H   H421      1.0  0.99358  0.35786  0.81507  1.0000
  H   H422      1.0  0.28289  0.25410  0.61390  1.0000
  Fe  Fe48      1.0  0.99737  0.45497  0.75643  1.0000
  C   C347      1.0  0.09282  0.48247  0.68867  1.0000
  Fe  Fe49      1.0  0.01257  0.48712  0.71629  1.0000
  H   H423      1.0  0.44258  0.47953  0.64740  1.0000
  H   H424      1.0  0.23525  0.47882  0.50918  1.0000
  H   H425      1.0  0.48689  0.30179  0.79739  1.0000
  C   C348      1.0  0.98884  0.27283  0.93320  1.0000
  H   H426      1.0  0.44314  0.23788  0.86328  1.0000
  C   C349      1.0  0.99690  0.23784  0.92804  1.0000
  C   C350      1.0  0.03529  0.23765  0.86968  1.0000
  H   H427      1.0  0.42340  0.40880  0.48777  1.0000
  Fe  Fe50      1.0  0.47882  0.50846  0.21615  1.0000
  S   S99       1.0  0.46277  0.52862  0.18596  1.0000
  C   C351      1.0  0.00336  0.58603  0.18876  1.0000
  Fe  Fe51      1.0  0.40934  0.63816  0.14109  1.0000
  S   S100      1.0  0.39201  0.66499  0.15697  1.0000
  S   S101      1.0  0.42888  0.61933  0.16923  1.0000
  Fe  Fe52      1.0  0.39882  0.65050  0.08519  1.0000
  S   S102      1.0  0.38076  0.67785  0.09763  1.0000
  S   S103      1.0  0.40977  0.64139  0.04469  1.0000
  Fe  Fe53      1.0  0.40635  0.68315  0.12445  1.0000
  S   S104      1.0  0.41790  0.71508  0.13072  1.0000
  Fe  Fe54      1.0  0.36751  0.65793  0.12952  1.0000
  S   S105      1.0  0.33317  0.65574  0.13938  1.0000
  S   S106      1.0  0.42511  0.65707  0.11051  1.0000
  S   S107      1.0  0.38412  0.62984  0.11522  1.0000
  Fe  Fe55      1.0  0.00437  0.68230  0.11246  1.0000
  S   S108      1.0  0.03304  0.69810  0.10080  1.0000
  Fe  Fe56      1.0  0.02560  0.64037  0.11280  1.0000
  S   S109      1.0  0.05582  0.65335  0.10021  1.0000
  H   H428      1.0  0.43661  0.72904  0.19452  1.0000
  Fe  Fe57      1.0  0.04881  0.67735  0.12914  1.0000
  S   S110      1.0  0.06896  0.68864  0.16089  1.0000
  Fe  Fe58      1.0  0.03789  0.67294  0.07259  1.0000
  S   S111      1.0  0.04604  0.68336  0.03157  1.0000
  S   S112      1.0  0.01946  0.66326  0.14304  1.0000
  C   C352      1.0  0.00974  0.59877  0.16822  1.0000
  S   S113      1.0  0.19500  0.53098  0.36333  1.0000
  Fe  Fe59      1.0  0.13780  0.52352  0.34759  1.0000
  S   S114      1.0  0.15107  0.55380  0.35627  1.0000
  S   S115      1.0  0.10352  0.52599  0.34080  1.0000
  Fe  Fe60      1.0  0.17718  0.54482  0.33083  1.0000
  S   S116      1.0  0.18984  0.56521  0.29841  1.0000
  Fe  Fe61      1.0  0.16752  0.53772  0.38821  1.0000
  S   S117      1.0  0.17141  0.55256  0.42682  1.0000
  S   S118      1.0  0.16330  0.51516  0.32031  1.0000
  Fe  Fe62      1.0  0.22981  0.69834  0.22093  1.0000
  S   S119      1.0  0.22011  0.70755  0.26099  1.0000
  S   S120      1.0  0.26450  0.69598  0.21319  1.0000
  Fe  Fe63      1.0  0.18493  0.69668  0.20510  1.0000
  S   S121      1.0  0.17278  0.70534  0.24377  1.0000
  S   S122      1.0  0.16516  0.68939  0.17139  1.0000
  H   H429      1.0  0.42689  0.63343  0.99475  1.0000
  Fe  Fe64      1.0  0.19650  0.68339  0.25837  1.0000
  S   S123      1.0  0.18865  0.66173  0.29153  1.0000
  S   S124      1.0  0.20836  0.72115  0.20321  1.0000
  S   S125      1.0  0.20719  0.67320  0.21970  1.0000
  S   S126      1.0  0.00841  0.65824  0.08290  1.0000
  H   H430      1.0  0.45967  0.62689  0.09392  1.0000
  H   H431      1.0  0.43844  0.53542  0.23521  1.0000
  C   C353      1.0  0.08591  0.51183  0.32329  1.0000
  N   N23       1.0  0.05425  0.54145  0.23284  1.0000
  C   C354      1.0  0.05163  0.50913  0.30655  1.0000
  C   C355      1.0  0.06623  0.51976  0.31999  1.0000
  H   H432      1.0  0.03647  0.51523  0.30478  1.0000
  H   H433      1.0  0.06221  0.53422  0.32801  1.0000
  C   C356      1.0  0.18867  0.59205  0.29651  1.0000
  C   C357      1.0  0.18196  0.60361  0.31717  1.0000
  C   C358      1.0  0.18200  0.62487  0.31520  1.0000
  C   C359      1.0  0.18854  0.63487  0.29255  1.0000
  C   C360      1.0  0.19480  0.62333  0.27164  1.0000
  C   C361      1.0  0.19498  0.60205  0.27369  1.0000
  H   H434      1.0  0.17708  0.59617  0.33483  1.0000
  H   H435      1.0  0.17708  0.63364  0.33148  1.0000
  H   H436      1.0  0.19982  0.63074  0.25407  1.0000
  H   H437      1.0  0.20017  0.59324  0.25759  1.0000
  S   S127      1.0  0.99292  0.55001  0.21228  1.0000
  C   C362      1.0  0.16555  0.54300  0.45810  1.0000
  C   C363      1.0  0.15464  0.52526  0.46235  1.0000
  H   H438      1.0  0.05356  0.51536  0.20850  1.0000
  H   H439      1.0  0.15026  0.51650  0.44627  1.0000
  C   C364      1.0  0.01429  0.59071  0.14424  1.0000
  H   H440      1.0  0.46098  0.66805  0.16875  1.0000
  C   C365      1.0  0.10475  0.51441  0.41492  1.0000
  H   H441      1.0  0.42186  0.49592  0.22577  1.0000
  H   H442      1.0  0.12997  0.54542  0.41217  1.0000
  H   H443      1.0  0.25961  0.57108  0.26515  1.0000
  C   C366      1.0  0.09572  0.68760  0.16383  1.0000
  C   C367      1.0  0.10424  0.69460  0.18636  1.0000
  C   C368      1.0  0.12540  0.69500  0.18918  1.0000
  C   C369      1.0  0.13835  0.68852  0.16937  1.0000
  C   C370      1.0  0.12984  0.68134  0.14697  1.0000
  C   C371      1.0  0.10866  0.68080  0.14422  1.0000
  H   H444      1.0  0.09435  0.70003  0.20156  1.0000
  H   H445      1.0  0.13160  0.70051  0.20658  1.0000
  H   H446      1.0  0.13969  0.67630  0.13149  1.0000
  H   H447      1.0  0.10237  0.67545  0.12674  1.0000
  C   C372      1.0  0.45237  0.72474  0.19256  1.0000
  C   C373      1.0  0.04312  0.67059  0.00235  1.0000
  C   C374      1.0  0.03879  0.65001  0.00164  1.0000
  H   H448      1.0  0.06499  0.53744  0.19406  1.0000
  C   C375      1.0  0.38073  0.65374  0.00921  1.0000
  C   C376      1.0  0.40002  0.64551  0.01334  1.0000
  H   H449      1.0  0.09322  0.50363  0.42235  1.0000
  H   H450      1.0  0.37129  0.65812  0.02540  1.0000
  H   H451      1.0  0.08491  0.72782  0.13259  1.0000
  C   C377      1.0  0.31435  0.66741  0.15995  1.0000
  C   C378      1.0  0.29382  0.66228  0.15761  1.0000
  C   C379      1.0  0.27839  0.67092  0.17338  1.0000
  C   C380      1.0  0.28320  0.68480  0.19205  1.0000
  C   C381      1.0  0.30374  0.68975  0.19460  1.0000
  C   C382      1.0  0.31914  0.68126  0.17868  1.0000
  H   H452      1.0  0.28980  0.65165  0.14325  1.0000
  H   H453      1.0  0.26278  0.66690  0.17092  1.0000
  H   H454      1.0  0.30778  0.70044  0.20890  1.0000
  H   H455      1.0  0.33474  0.68545  0.18089  1.0000
  C   C383      1.0  0.45239  0.55365  0.18310  1.0000
  C   C384      1.0  0.43842  0.55801  0.16372  1.0000
  C   C385      1.0  0.43073  0.57781  0.15951  1.0000
  C   C386      1.0  0.43720  0.59371  0.17433  1.0000
  C   C387      1.0  0.45081  0.58927  0.19410  1.0000
  C   C388      1.0  0.45828  0.56941  0.19856  1.0000
  H   H456      1.0  0.43367  0.54600  0.15165  1.0000
  H   H457      1.0  0.41985  0.58071  0.14477  1.0000
  H   H458      1.0  0.45584  0.60133  0.20590  1.0000
  H   H459      1.0  0.46904  0.56642  0.21348  1.0000
  C   C389      1.0  0.45953  0.71310  0.12059  1.0000
  C   C390      1.0  0.44257  0.72521  0.12630  1.0000
  C   C391      1.0  0.44571  0.67450  0.17296  1.0000
  C   C392      1.0  0.38068  0.53936  0.20683  1.0000
  H   H460      1.0  0.45774  0.69714  0.11766  1.0000
  C   C393      1.0  0.01308  0.56967  0.14140  1.0000
  H   H461      1.0  0.03718  0.64135  0.01934  1.0000
  N   N24       1.0  0.25713  0.64141  0.25623  1.0000
  C   C394      1.0  0.27926  0.64465  0.25441  1.0000
  C   C395      1.0  0.24930  0.64021  0.22994  1.0000
  C   C396      1.0  0.24770  0.65949  0.26818  1.0000
  C   C397      1.0  0.25288  0.62238  0.27066  1.0000
  C   C398      1.0  0.24177  0.62179  0.29432  1.0000
  C   C399      1.0  0.25965  0.60357  0.26085  1.0000
  C   C400      1.0  0.23729  0.60344  0.30679  1.0000
  C   C401      1.0  0.24353  0.58525  0.29615  1.0000
  H   H462      1.0  0.28736  0.63248  0.24386  1.0000
  H   H463      1.0  0.28289  0.65908  0.24392  1.0000
  H   H464      1.0  0.28585  0.64535  0.27374  1.0000
  H   H465      1.0  0.25763  0.62891  0.21820  1.0000
  H   H466      1.0  0.25083  0.65483  0.21917  1.0000
  H   H467      1.0  0.25361  0.66200  0.28757  1.0000
  H   H468      1.0  0.25101  0.67352  0.25684  1.0000
  H   H469      1.0  0.23093  0.65827  0.26964  1.0000
  H   H470      1.0  0.23574  0.63519  0.30329  1.0000
  H   H471      1.0  0.22816  0.60327  0.32431  1.0000
  H   H472      1.0  0.23921  0.57108  0.30540  1.0000
  H   H473      1.0  0.46492  0.60594  0.12675  1.0000
  C   C402      1.0  0.39663  0.57802  0.20891  1.0000
  C   C403      1.0  0.40615  0.56191  0.22176  1.0000
  C   C404      1.0  0.10472  0.54833  0.26577  1.0000
  H   H474      1.0  0.99940  0.59253  0.20703  1.0000
  N   N25       1.0  0.09953  0.53569  0.42086  1.0000
  H   H475      1.0  0.07444  0.55622  0.41556  1.0000
  H   H476      1.0  0.35801  0.55315  0.18280  1.0000
  H   H477      1.0  0.47309  0.61627  0.06695  1.0000
  H   H478      1.0  0.01091  0.61483  0.17084  1.0000
  H   H479      1.0  0.44105  0.68351  0.15587  1.0000
  H   H480      1.0  0.07728  0.51540  0.45798  1.0000
  H   H481      1.0  0.45648  0.58761  0.04341  1.0000
  C   C405      1.0  0.17143  0.55400  0.47932  1.0000
  Fe  Fe65      1.0  0.17935  0.50205  0.35487  1.0000
  H   H482      1.0  0.26839  0.60285  0.24317  1.0000
  C   C406      1.0  0.25485  0.58531  0.27335  1.0000
  S   S128      1.0  0.47626  0.51032  0.25908  1.0000
  H   H483      1.0  0.10594  0.51204  0.39389  1.0000
  C   C407      1.0  0.20286  0.50853  0.44347  1.0000
  H   H484      1.0  0.45940  0.55844  0.07125  1.0000
  H   H485      1.0  0.40032  0.50214  0.20718  1.0000
  H   H486      1.0  0.42196  0.70267  0.21818  1.0000
  H   H487      1.0  0.11316  0.56013  0.27454  1.0000
  C   C408      1.0  0.05274  0.53211  0.20740  1.0000
  N   N26       1.0  0.44508  0.68705  0.19608  1.0000
  C   C409      1.0  0.42367  0.69335  0.20081  1.0000
  C   C410      1.0  0.46490  0.56469  0.08860  1.0000
  C   C411      1.0  0.41198  0.63989  0.99188  1.0000
  H   H488      1.0  0.40006  0.50332  0.26526  1.0000
  H   H489      1.0  0.44072  0.66167  0.22216  1.0000
  C   C412      1.0  0.47993  0.57806  0.13463  1.0000
  H   H490      1.0  0.04066  0.51592  0.25263  1.0000
  C   C413      1.0  0.48010  0.70065  0.18828  1.0000
  C   C414      1.0  0.00706  0.55686  0.16208  1.0000
  C   C415      1.0  0.10095  0.51316  0.25654  1.0000
  H   H491      1.0  0.41361  0.68012  0.20378  1.0000
  C   C416      1.0  0.37142  0.55556  0.19382  1.0000
  C   C417      1.0  0.03873  0.53256  0.25037  1.0000
  H   H492      1.0  0.43530  0.66150  0.17503  1.0000
  N   N27       1.0  0.40781  0.52459  0.23484  1.0000
  H   H493      1.0  0.03939  0.53911  0.26971  1.0000
  H   H494      1.0  0.40291  0.59305  0.20938  1.0000
  C   C418      1.0  0.19867  0.49105  0.43043  1.0000
  H   H495      1.0  0.00598  0.54077  0.15944  1.0000
  C   C419      1.0  0.11205  0.52854  0.26690  1.0000
  H   H496      1.0  0.04806  0.57104  0.24805  1.0000
  C   C420      1.0  0.20441  0.50803  0.47012  1.0000
  H   H497      1.0  0.45194  0.68344  0.23592  1.0000
  H   H498      1.0  0.41976  0.56544  0.23166  1.0000
  N   N28       1.0  0.13800  0.64184  0.23537  1.0000
  C   C421      1.0  0.11909  0.64699  0.22175  1.0000
  C   C422      1.0  0.13632  0.65085  0.26112  1.0000
  C   C423      1.0  0.15528  0.65147  0.22153  1.0000
  C   C424      1.0  0.14123  0.61967  0.23615  1.0000
  C   C425      1.0  0.14418  0.60840  0.25928  1.0000
  C   C426      1.0  0.14190  0.60870  0.21311  1.0000
  C   C427      1.0  0.14741  0.58750  0.25916  1.0000
  C   C428      1.0  0.14519  0.58779  0.21324  1.0000
  C   C429      1.0  0.14798  0.57722  0.23623  1.0000
  H   H499      1.0  0.12034  0.64409  0.20089  1.0000
  H   H500      1.0  0.10608  0.63824  0.22980  1.0000
  H   H501      1.0  0.11502  0.66328  0.22318  1.0000
  H   H502      1.0  0.15052  0.64863  0.27192  1.0000
  H   H503      1.0  0.12353  0.64435  0.27263  1.0000
  H   H504      1.0  0.13376  0.66750  0.25993  1.0000
  H   H505      1.0  0.15671  0.64684  0.20124  1.0000
  H   H506      1.0  0.15368  0.66820  0.22095  1.0000
  H   H507      1.0  0.16980  0.64757  0.23090  1.0000
  H   H508      1.0  0.14456  0.61537  0.27774  1.0000
  H   H509      1.0  0.14014  0.61630  0.19477  1.0000
  H   H510      1.0  0.15007  0.57924  0.27697  1.0000
  H   H511      1.0  0.14583  0.57977  0.19538  1.0000
  H   H512      1.0  0.15091  0.56107  0.23633  1.0000
  C   C430      1.0  0.09971  0.53849  0.44888  1.0000
  C   C431      1.0  0.11221  0.55280  0.46056  1.0000
  C   C432      1.0  0.08628  0.55287  0.25420  1.0000
  C   C433      1.0  0.04932  0.56329  0.22943  1.0000
  H   H513      1.0  0.12252  0.56239  0.44973  1.0000
  H   H514      1.0  0.43278  0.51644  0.25899  1.0000
  H   H515      1.0  0.23303  0.63615  0.23040  1.0000
  H   H516      1.0  0.02320  0.53530  0.24335  1.0000
  C   C434      1.0  0.11413  0.54873  0.40646  1.0000
  C   C435      1.0  0.07909  0.54045  0.41111  1.0000
  H   H517      1.0  0.06739  0.53023  0.41945  1.0000
  S   S129      1.0  0.15258  0.50825  0.38156  1.0000
  C   C436      1.0  0.44259  0.59099  0.05505  1.0000
  H   H518      1.0  0.17988  0.56774  0.47625  1.0000
  H   H519      1.0  0.41755  0.70207  0.18416  1.0000
  C   C437      1.0  0.08230  0.51742  0.24546  1.0000
  H   H520      1.0  0.07864  0.53882  0.38992  1.0000
  H   H521      1.0  0.11951  0.50985  0.42321  1.0000
  C   C438      1.0  0.08727  0.52647  0.46546  1.0000
  Fe  Fe66      1.0  0.19718  0.72891  0.24323  1.0000
  C   C439      1.0  0.41359  0.50873  0.21635  1.0000
  H   H522      1.0  0.12605  0.52501  0.27654  1.0000
  H   H523      1.0  0.06073  0.57099  0.21679  1.0000
  H   H524      1.0  0.10638  0.49766  0.25819  1.0000
  C   C440      1.0  0.48372  0.55830  0.12721  1.0000
  H   H525      1.0  0.41796  0.61247  0.08388  1.0000
  H   H526      1.0  0.44896  0.62878  0.06330  1.0000
  H   H527      1.0  0.11078  0.56505  0.40919  1.0000
  C   C441      1.0  0.46057  0.58492  0.09576  1.0000
  H   H528      1.0  0.43317  0.57722  0.05680  1.0000
  C   C442      1.0  0.05651  0.49041  0.29600  1.0000
  H   H529      1.0  0.37960  0.50988  0.24503  1.0000
  C   C443      1.0  0.45904  0.70423  0.19237  1.0000
  H   H530      1.0  0.38799  0.52769  0.26777  1.0000
  H   H531      1.0  0.07371  0.50472  0.23927  1.0000
  C   C444      1.0  0.00184  0.56504  0.18580  1.0000
  H   H532      1.0  0.01662  0.56325  0.12295  1.0000
  H   H533      1.0  0.42313  0.54134  0.26342  1.0000
  C   C445      1.0  0.45136  0.67434  0.21831  1.0000
  C   C446      1.0  0.39838  0.54202  0.22118  1.0000
  C   C447      1.0  0.45785  0.61846  0.07603  1.0000
  C   C448      1.0  0.47896  0.72161  0.11910  1.0000
  C   C449      1.0  0.46837  0.59115  0.11935  1.0000
  S   S130      1.0  0.02064  0.60621  0.11703  1.0000
  C   C450      1.0  0.42632  0.52983  0.24865  1.0000
  H   H534      1.0  0.03436  0.56570  0.22042  1.0000
  N   N29       1.0  0.44764  0.59882  0.08050  1.0000
  H   H535      1.0  0.43343  0.60218  0.04378  1.0000
  H   H536      1.0  0.42032  0.58798  0.09883  1.0000
  H   H537      1.0  0.42370  0.51491  0.20082  1.0000
  C   C451      1.0  0.42837  0.60237  0.09482  1.0000
  H   H538      1.0  0.43075  0.60956  0.11350  1.0000
  C   C452      1.0  0.07447  0.53745  0.24364  1.0000
  H   H539      1.0  0.03797  0.53580  0.19841  1.0000
  H   H540      1.0  0.37392  0.52469  0.20549  1.0000
  C   C453      1.0  0.39319  0.51604  0.25398  1.0000
  H   H541      1.0  0.08142  0.56846  0.25433  1.0000
  H   H542      1.0  0.11359  0.54633  0.38552  1.0000
  C   C454      1.0  0.37940  0.57485  0.19484  1.0000
  H   H543      1.0  0.46651  0.66722  0.21522  1.0000
  H   H544      1.0  0.99411  0.73331  0.11787  1.0000
  H   H545      1.0  0.20443  0.52272  0.43287  1.0000
  H   H546      1.0  0.37233  0.58739  0.18459  1.0000
  H   H547      1.0  0.12020  0.72565  0.11623  1.0000
  H   H548      1.0  0.48525  0.58299  0.15290  1.0000
  C   C455      1.0  0.11685  0.73330  0.13398  1.0000
  S   S131      1.0  0.01340  0.49118  0.21535  1.0000
  Fe  Fe67      1.0  0.99038  0.51604  0.22172  1.0000
  H   H549      1.0  0.99881  0.68024  0.02468  1.0000
  C   C456      1.0  0.09070  0.49292  0.31317  1.0000
  C   C457      1.0  0.11243  0.55453  0.48714  1.0000
  H   H550      1.0  0.15315  0.72918  0.20198  1.0000
  H   H551      1.0  0.19714  0.49165  0.40980  1.0000
  H   H552      1.0  0.22924  0.48870  0.33476  1.0000
  H   H553      1.0  0.16787  0.73613  0.17419  1.0000
  C   C458      1.0  0.47628  0.55165  0.10423  1.0000
  H   H554      1.0  0.20712  0.52230  0.47892  1.0000
  H   H555      1.0  0.48268  0.73235  0.03788  1.0000
  C   C459      1.0  0.20200  0.48973  0.48454  1.0000
  C   C460      1.0  0.09695  0.73454  0.14314  1.0000
  H   H556      1.0  0.47907  0.53615  0.09878  1.0000
  C   C461      1.0  0.48661  0.73648  0.18542  1.0000
  H   H557      1.0  0.48626  0.68550  0.18739  1.0000
  C   C462      1.0  0.14879  0.51924  0.48746  1.0000
  S   S132      1.0  0.00958  0.61767  0.80030  1.0000
  C   C463      1.0  0.05980  0.49707  0.67881  1.0000
  H   H558      1.0  0.44488  0.62149  0.82170  1.0000
  Fe  Fe68      1.0  0.39865  0.62994  0.83909  1.0000
  S   S133      1.0  0.39760  0.65943  0.81653  1.0000
  S   S134      1.0  0.40603  0.60241  0.81392  1.0000
  Fe  Fe69      1.0  0.38623  0.65132  0.88953  1.0000
  S   S135      1.0  0.38496  0.68167  0.86938  1.0000
  S   S136      1.0  0.37495  0.65317  0.93151  1.0000
  Fe  Fe70      1.0  0.36832  0.66631  0.83794  1.0000
  S   S137      1.0  0.33972  0.68358  0.82384  1.0000
  Fe  Fe71      1.0  0.41393  0.67227  0.84964  1.0000
  S   S138      1.0  0.44427  0.68819  0.84517  1.0000
  S   S139      1.0  0.36831  0.63626  0.85898  1.0000
  S   S140      1.0  0.41631  0.64254  0.87137  1.0000
  C   C464      1.0  0.47933  0.61862  0.75501  1.0000
  S   S141      1.0  0.03032  0.68495  0.87557  1.0000
  Fe  Fe72      1.0  0.01635  0.64044  0.83152  1.0000
  S   S142      1.0  0.04687  0.64253  0.84963  1.0000
  H   H559      1.0  0.03978  0.52164  0.79053  1.0000
  Fe  Fe73      1.0  0.02957  0.65194  0.88542  1.0000
  S   S143      1.0  0.03553  0.63892  0.92542  1.0000
  Fe  Fe74      1.0  0.04531  0.67546  0.83842  1.0000
  S   S144      1.0  0.07067  0.69488  0.82105  1.0000
  S   S145      1.0  0.01558  0.67332  0.81849  1.0000
  Fe  Fe75      1.0  0.15788  0.52582  0.57901  1.0000
  S   S146      1.0  0.14406  0.52394  0.53942  1.0000
  Fe  Fe76      1.0  0.17670  0.54368  0.62640  1.0000
  S   S147      1.0  0.18035  0.51275  0.64493  1.0000
  S   S148      1.0  0.18730  0.56700  0.65483  1.0000
  H   H560      1.0  0.13009  0.67630  0.70442  1.0000
  Fe  Fe77      1.0  0.14843  0.50763  0.63288  1.0000
  C   C465      1.0  0.03374  0.53314  0.74223  1.0000
  S   S149      1.0  0.19001  0.53311  0.58844  1.0000
  S   S150      1.0  0.14423  0.53874  0.61567  1.0000
  Fe  Fe78      1.0  0.19952  0.72375  0.72523  1.0000
  S   S151      1.0  0.20739  0.71139  0.76495  1.0000
  Fe  Fe79      1.0  0.19690  0.68079  0.70415  1.0000
  S   S152      1.0  0.20467  0.66636  0.74164  1.0000
  S   S153      1.0  0.18879  0.66267  0.66908  1.0000
  Fe  Fe80      1.0  0.18278  0.68879  0.75896  1.0000
  S   S154      1.0  0.16179  0.67337  0.78857  1.0000
  Fe  Fe81      1.0  0.22892  0.68975  0.74493  1.0000
  S   S155      1.0  0.25989  0.67526  0.75603  1.0000
  S   S156      1.0  0.17365  0.70226  0.72102  1.0000
  S   S157      1.0  0.22241  0.70313  0.70556  1.0000
  H   H561      1.0  0.14232  0.57612  0.73336  1.0000
  C   C466      1.0  0.14027  0.58823  0.71935  1.0000
  H   H562      1.0  0.13514  0.63068  0.66778  1.0000
  C   C467      1.0  0.15425  0.53053  0.50865  1.0000
  C   C468      1.0  0.16599  0.54773  0.50447  1.0000
  C   C469      1.0  0.40971  0.71110  0.91953  1.0000
  H   H563      1.0  0.17009  0.55672  0.52052  1.0000
  H   H564      1.0  0.04483  0.56939  0.75601  1.0000
  H   H565      1.0  0.33766  0.63669  0.91195  1.0000
  C   C470      1.0  0.09012  0.50656  0.65353  1.0000
  C   C471      1.0  0.00468  0.57906  0.82225  1.0000
  C   C472      1.0  0.99586  0.54937  0.79763  1.0000
  H   H566      1.0  0.15607  0.64098  0.74816  1.0000
  H   H567      1.0  0.34503  0.67454  0.90395  1.0000
  H   H568      1.0  0.09700  0.51521  0.63793  1.0000
  H   H569      1.0  0.05998  0.51817  0.64682  1.0000
  H   H570      1.0  0.11731  0.65781  0.68654  1.0000
  H   H571      1.0  0.06675  0.52389  0.78976  1.0000
  C   C473      1.0  0.18651  0.59366  0.65845  1.0000
  C   C474      1.0  0.19171  0.60156  0.68215  1.0000
  C   C475      1.0  0.19199  0.62257  0.68590  1.0000
  C   C476      1.0  0.18743  0.63602  0.66582  1.0000
  C   C477      1.0  0.18198  0.62815  0.64220  1.0000
  C   C478      1.0  0.18142  0.60710  0.63853  1.0000
  H   H572      1.0  0.19561  0.59131  0.69771  1.0000
  H   H573      1.0  0.19593  0.62832  0.70423  1.0000
  H   H574      1.0  0.17838  0.63841  0.62652  1.0000
  H   H575      1.0  0.17743  0.60130  0.62019  1.0000
  C   C479      1.0  0.03874  0.65154  0.95470  1.0000
  C   C480      1.0  0.04298  0.67213  0.95542  1.0000
  H   H576      1.0  0.14452  0.66080  0.68329  1.0000
  H   H577      1.0  0.04435  0.68083  0.93777  1.0000
  C   C481      1.0  0.00057  0.55824  0.82095  1.0000
  H   H578      1.0  0.13832  0.61089  0.74751  1.0000
  H   H579      1.0  0.46072  0.66911  0.79235  1.0000
  H   H580      1.0  0.44337  0.63960  0.75392  1.0000
  C   C482      1.0  0.27844  0.66268  0.84967  1.0000
  H   H581      1.0  0.47528  0.63027  0.74123  1.0000
  C   C483      1.0  0.09511  0.68750  0.80950  1.0000
  C   C484      1.0  0.10668  0.70157  0.79515  1.0000
  C   C485      1.0  0.12680  0.69710  0.78743  1.0000
  C   C486      1.0  0.13572  0.67862  0.79452  1.0000
  C   C487      1.0  0.12400  0.66432  0.80829  1.0000
  C   C488      1.0  0.10373  0.66864  0.81554  1.0000
  H   H582      1.0  0.10016  0.71622  0.79042  1.0000
  H   H583      1.0  0.13566  0.70829  0.77699  1.0000
  H   H584      1.0  0.13079  0.65003  0.81399  1.0000
  H   H585      1.0  0.09504  0.65763  0.82649  1.0000
  C   C489      1.0  0.31768  0.68084  0.80474  1.0000
  C   C490      1.0  0.31417  0.66359  0.79056  1.0000
  C   C491      1.0  0.29652  0.66225  0.77586  1.0000
  C   C492      1.0  0.28191  0.67800  0.77516  1.0000
  C   C493      1.0  0.28530  0.69514  0.78957  1.0000
  C   C494      1.0  0.30303  0.69654  0.80411  1.0000
  H   H586      1.0  0.32515  0.65133  0.79072  1.0000
  H   H587      1.0  0.29419  0.64886  0.76492  1.0000
  H   H588      1.0  0.27436  0.70744  0.78936  1.0000
  H   H589      1.0  0.30543  0.70998  0.81495  1.0000
  C   C495      1.0  0.38529  0.65012  0.96268  1.0000
  H   H590      1.0  0.08741  0.56383  0.68583  1.0000
  C   C496      1.0  0.40474  0.64225  0.96673  1.0000
  C   C497      1.0  0.04530  0.68155  0.97908  1.0000
  H   H591      1.0  0.41405  0.63757  0.95058  1.0000
  C   C498      1.0  0.05347  0.52153  0.77757  1.0000
  C   C499      1.0  0.47050  0.71964  0.85046  1.0000
  C   C500      1.0  0.45009  0.71395  0.85011  1.0000
  C   C501      1.0  0.20856  0.50806  0.52439  1.0000
  C   C502      1.0  0.41923  0.69528  0.95918  1.0000
  H   H592      1.0  0.39522  0.70269  0.92009  1.0000
  Fe  Fe82      1.0  0.48084  0.50830  0.76554  1.0000
  C   C503      1.0  0.42488  0.58289  0.80954  1.0000
  C   C504      1.0  0.43944  0.57810  0.82780  1.0000
  C   C505      1.0  0.45400  0.56260  0.82328  1.0000
  C   C506      1.0  0.45438  0.55163  0.80044  1.0000
  C   C507      1.0  0.43976  0.55636  0.78224  1.0000
  C   C508      1.0  0.42514  0.57180  0.78681  1.0000
  H   H593      1.0  0.43940  0.58617  0.84554  1.0000
  H   H594      1.0  0.46511  0.55908  0.83761  1.0000
  H   H595      1.0  0.43972  0.54816  0.76460  1.0000
  H   H596      1.0  0.41392  0.57517  0.77256  1.0000
  N   N30       1.0  0.09374  0.68369  0.89803  1.0000
  C   C509      1.0  0.08019  0.70168  0.89540  1.0000
  C   C510      1.0  0.08265  0.66602  0.88907  1.0000
  C   C511      1.0  0.09782  0.68070  0.92568  1.0000
  C   C512      1.0  0.11303  0.68557  0.88320  1.0000
  C   C513      1.0  0.12820  0.67024  0.88508  1.0000
  H   H597      1.0  0.10623  0.71399  0.86233  1.0000
  H   H598      1.0  0.48226  0.50031  0.58508  1.0000
  H   H599      1.0  0.02018  0.53100  0.75493  1.0000
  C   C514      1.0  0.03681  0.64053  0.97793  1.0000
  H   H600      1.0  0.07514  0.70393  0.87533  1.0000
  C   C515      1.0  0.00411  0.59137  0.80018  1.0000
  H   H601      1.0  0.08771  0.71562  0.90149  1.0000
  H   H602      1.0  0.09125  0.65163  0.89170  1.0000
  H   H603      1.0  0.07945  0.66778  0.86832  1.0000
  H   H604      1.0  0.06795  0.66405  0.89962  1.0000
  H   H605      1.0  0.08358  0.68037  0.93751  1.0000
  H   H606      1.0  0.10566  0.66611  0.92992  1.0000
  H   H607      1.0  0.10729  0.69305  0.93278  1.0000
  H   H608      1.0  0.12589  0.65693  0.89703  1.0000
  H   H609      1.0  0.41355  0.71401  0.89893  1.0000
  H   H610      1.0  0.06356  0.56163  0.77877  1.0000
  H   H611      1.0  0.13895  0.59590  0.65514  1.0000
  H   H612      1.0  0.05438  0.50610  0.76962  1.0000
  N   N31       1.0  0.45949  0.63666  0.78949  1.0000
  C   C516      1.0  0.06910  0.50822  0.65865  1.0000
  H   H613      1.0  0.04860  0.69748  0.97944  1.0000
  H   H614      1.0  0.12263  0.56499  0.49570  1.0000
  H   H615      1.0  0.21014  0.50647  0.54553  1.0000
  H   H616      1.0  0.42940  0.68448  0.96936  1.0000
  H   H617      1.0  0.46697  0.63585  0.82950  1.0000
  S   S158      1.0  0.03309  0.49930  0.68365  1.0000
  C   C517      1.0  0.44844  0.72956  0.92059  1.0000
  H   H618      1.0  0.17201  0.49091  0.51999  1.0000
  H   H619      1.0  0.00246  0.66890  0.98089  1.0000
  C   C518      1.0  0.42864  0.68007  0.91903  1.0000
  C   C519      1.0  0.48390  0.72921  0.93116  1.0000
  C   C520      1.0  0.08712  0.55273  0.70138  1.0000
  C   C521      1.0  0.44061  0.63690  0.77471  1.0000
  H   H620      1.0  0.06610  0.70009  0.90731  1.0000
  C   C522      1.0  0.14643  0.67152  0.87104  1.0000
  H   H621      1.0  0.41928  0.72476  0.85260  1.0000
  H   H622      1.0  0.03585  0.51912  0.73109  1.0000
  Fe  Fe83      1.0  0.00062  0.68024  0.85653  1.0000
  H   H623      1.0  0.35838  0.66207  0.98132  1.0000
  H   H624      1.0  0.24678  0.67035  0.85141  1.0000
  H   H625      1.0  0.24609  0.67503  0.89826  1.0000
  H   H626      1.0  0.47309  0.65940  0.76441  1.0000
  N   N32       1.0  0.31573  0.66034  0.90401  1.0000
  C   C523      1.0  0.32313  0.63918  0.90189  1.0000
  C   C524      1.0  0.31392  0.66488  0.93167  1.0000
  C   C525      1.0  0.29655  0.66286  0.89016  1.0000
  C   C526      1.0  0.29623  0.66007  0.86333  1.0000
  C   C527      1.0  0.27787  0.66819  0.90249  1.0000
  H   H627      1.0  0.16397  0.68871  0.84329  1.0000
  H   H628      1.0  0.41404  0.67201  0.91791  1.0000
  H   H629      1.0  0.11395  0.51229  0.72346  1.0000
  H   H630      1.0  0.32604  0.63488  0.88170  1.0000
  H   H631      1.0  0.31192  0.62839  0.91028  1.0000
  H   H632      1.0  0.30325  0.65451  0.94195  1.0000
  H   H633      1.0  0.30892  0.68079  0.93463  1.0000
  H   H634      1.0  0.30985  0.65612  0.85258  1.0000
  H   H635      1.0  0.27656  0.67060  0.92280  1.0000
  H   H636      1.0  0.10140  0.54298  0.52348  1.0000
  H   H637      1.0  0.03361  0.62456  0.97764  1.0000
  H   H638      1.0  0.42993  0.64900  0.78107  1.0000
  H   H639      1.0  0.08634  0.51134  0.75478  1.0000
  H   H640      1.0  0.14307  0.56849  0.68724  1.0000
  C   C528      1.0  0.46454  0.49170  0.61962  1.0000
  C   C529      1.0  0.13796  0.60819  0.72723  1.0000
  H   H641      1.0  0.33633  0.66915  0.87321  1.0000
  N   N33       1.0  0.25293  0.63279  0.69910  1.0000
  C   C530      1.0  0.24460  0.65306  0.69209  1.0000
  C   C531      1.0  0.24391  0.62681  0.72437  1.0000
  C   C532      1.0  0.27509  0.63480  0.70173  1.0000
  C   C533      1.0  0.24873  0.61720  0.68014  1.0000
  C   C534      1.0  0.25468  0.59679  0.68479  1.0000
  C   C535      1.0  0.23844  0.62154  0.65702  1.0000
  C   C536      1.0  0.24989  0.58158  0.66792  1.0000
  C   C537      1.0  0.23395  0.60623  0.64017  1.0000
  C   C538      1.0  0.23939  0.58628  0.64577  1.0000
  H   H642      1.0  0.22787  0.65279  0.69046  1.0000
  H   H643      1.0  0.24789  0.66441  0.70673  1.0000
  H   H644      1.0  0.25133  0.65899  0.67378  1.0000
  H   H645      1.0  0.25121  0.61310  0.73277  1.0000
  H   H646      1.0  0.22750  0.62379  0.72289  1.0000
  H   H647      1.0  0.24550  0.63881  0.73871  1.0000
  H   H648      1.0  0.27871  0.64676  0.71557  1.0000
  H   H649      1.0  0.28237  0.62063  0.70890  1.0000
  H   H650      1.0  0.28250  0.63893  0.68305  1.0000
  H   H651      1.0  0.26276  0.59237  0.70178  1.0000
  H   H652      1.0  0.23308  0.63652  0.65181  1.0000
  H   H653      1.0  0.25400  0.56599  0.67222  1.0000
  H   H654      1.0  0.22548  0.60976  0.62310  1.0000
  H   H655      1.0  0.23508  0.57438  0.63316  1.0000
  H   H656      1.0  0.00106  0.54892  0.83818  1.0000
  H   H657      1.0  0.11941  0.63888  0.75468  1.0000
  H   H658      1.0  0.27868  0.66075  0.82911  1.0000
  H   H659      1.0  0.40396  0.68836  0.96008  1.0000
  H   H660      1.0  0.10270  0.64298  0.72834  1.0000
  H   H661      1.0  0.13812  0.71566  0.83880  1.0000
  H   H662      1.0  0.41832  0.70939  0.97032  1.0000
  H   H663      1.0  0.03730  0.55664  0.78472  1.0000
  H   H664      1.0  0.45192  0.50872  0.66515  1.0000
  H   H665      1.0  0.43461  0.68258  0.89912  1.0000
  S   S159      1.0  0.15947  0.49440  0.59589  1.0000
  C   C539      1.0  0.47271  0.61972  0.78100  1.0000
  H   H666      1.0  0.00553  0.68050  0.93937  1.0000
  C   C540      1.0  0.46287  0.70087  0.94355  1.0000
  C   C541      1.0  0.45358  0.63539  0.81706  1.0000
  C   C542      1.0  0.15008  0.68803  0.85475  1.0000
  C   C543      1.0  0.10260  0.53833  0.70309  1.0000
  C   C544      1.0  0.44569  0.71011  0.93214  1.0000
  C   C545      1.0  0.10210  0.52378  0.72269  1.0000
  H   H667      1.0  0.19610  0.51928  0.52131  1.0000
  C   C546      1.0  0.11714  0.70207  0.86607  1.0000
  C   C547      1.0  0.08599  0.52337  0.74055  1.0000
  C   C548      1.0  0.13137  0.66065  0.69707  1.0000
  H   H668      1.0  0.11513  0.66373  0.74279  1.0000
  H   H669      1.0  0.15275  0.66642  0.73756  1.0000
  H   H670      1.0  0.16656  0.64907  0.71767  1.0000
  C   C549      1.0  0.33115  0.67403  0.89242  1.0000
  H   H671      1.0  0.32874  0.66290  0.94129  1.0000
  N   N34       1.0  0.13434  0.64551  0.71810  1.0000
  C   C550      1.0  0.15324  0.65062  0.73091  1.0000
  C   C551      1.0  0.99934  0.58250  0.77686  1.0000
  C   C552      1.0  0.13584  0.62444  0.70926  1.0000
  H   H672      1.0  0.32514  0.68975  0.89023  1.0000
  S   S160      1.0  0.47854  0.51300  0.72288  1.0000
  C   C553      1.0  0.11715  0.64778  0.73668  1.0000
  H   H673      1.0  0.22302  0.51444  0.51677  1.0000
  H   H674      1.0  0.15763  0.65946  0.87234  1.0000
  C   C554      1.0  0.26046  0.66811  0.86223  1.0000
  Fe  Fe84      1.0  0.19108  0.50195  0.60655  1.0000
  H   H675      1.0  0.00828  0.58559  0.84033  1.0000
  H   H676      1.0  0.02997  0.54553  0.72843  1.0000
  N   N35       1.0  0.05204  0.53728  0.75698  1.0000
  N   N36       1.0  0.42611  0.69949  0.93239  1.0000
  C   C555      1.0  0.14052  0.58386  0.69342  1.0000
  C   C556      1.0  0.13603  0.61941  0.68294  1.0000
  C   C557      1.0  0.13820  0.59938  0.67532  1.0000
  H   H677      1.0  0.45627  0.52729  0.64018  1.0000
  C   C558      1.0  0.26015  0.67078  0.88859  1.0000
  C   C559      1.0  0.13549  0.70324  0.85228  1.0000
  S   S161      1.0  0.12869  0.49082  0.66280  1.0000
  H   H678      1.0  0.43922  0.66946  0.92881  1.0000
  H   H679      1.0  0.46192  0.68612  0.95268  1.0000
  H   H680      1.0  0.43260  0.62225  0.77706  1.0000
  S   S162      1.0  0.99146  0.52285  0.79718  1.0000
  H   H681      1.0  0.11478  0.53805  0.68881  1.0000
  C   C560      1.0  0.10047  0.54210  0.50285  1.0000
  C   C561      1.0  0.07096  0.55250  0.71915  1.0000
  H   H682      1.0  0.44359  0.64828  0.82270  1.0000
  C   C562      1.0  0.06984  0.53776  0.73924  1.0000
  C   C563      1.0  0.48168  0.71030  0.94294  1.0000
  H   H683      1.0  0.05903  0.56364  0.71669  1.0000
  C   C564      1.0  0.46391  0.51632  0.65330  1.0000
  C   C565      1.0  0.04940  0.55707  0.76953  1.0000
  H   H684      1.0  0.48229  0.70832  0.84792  1.0000
  C   C566      1.0  0.99515  0.56170  0.77557  1.0000
  S   S163      1.0  0.99915  0.64722  0.86815  1.0000
  H   H685      1.0  0.47465  0.60309  0.81774  1.0000
  S   S164      1.0  0.47397  0.53294  0.79539  1.0000
  C   C567      1.0  0.10211  0.49358  0.66845  1.0000
  H   H686      1.0  0.40658  0.72576  0.92891  1.0000
  H   H687      1.0  0.99868  0.59188  0.75970  1.0000
  C   C568      1.0  0.46996  0.65613  0.78502  1.0000
  N   N37       1.0  0.20410  0.48843  0.51269  1.0000
  H   H688      1.0  0.00974  0.50099  0.62725  1.0000
  C   C569      1.0  0.37343  0.65593  0.98409  1.0000
  N   N38       1.0  0.47679  0.50178  0.63881  1.0000
  C   C570      1.0  0.43504  0.72879  0.85333  1.0000
  H   H689      1.0  0.99363  0.67710  0.90981  1.0000
  H   H690      1.0  0.07861  0.51849  0.50441  1.0000
  C   C571      1.0  0.47894  0.60371  0.79771  1.0000
  C   C572      1.0  0.99088  0.68213  0.92972  1.0000
  H   H691      1.0  0.99118  0.55529  0.75757  1.0000
  H   H692      1.0  0.98982  0.51159  0.60800  1.0000
  H   H693      1.0  0.47288  0.52503  0.66691  1.0000
  H   H694      1.0  0.99547  0.64572  0.95174  1.0000
  Fe  Fe85      1.0  0.98972  0.50011  0.76482  1.0000
  H   H695      1.0  0.48463  0.65618  0.79504  1.0000
  H   H696      1.0  0.99264  0.50665  0.66618  1.0000
  C   C573      1.0  0.99538  0.49747  0.61755  1.0000
  C   C574      1.0  0.46940  0.49225  0.59297  1.0000
  C   C575      1.0  0.08780  0.52820  0.49205  1.0000
  H   H697      1.0  0.13954  0.50602  0.49043  1.0000
  C   C576      1.0  0.46150  0.94918  0.31767  1.0000
  H   H698      1.0  0.16268  0.76901  0.15314  1.0000
  H   H699      1.0  0.48279  0.90587  0.06077  1.0000
  C   C577      1.0  0.12843  0.81224  0.41529  1.0000
  H   H700      1.0  0.19708  0.94235  0.38012  1.0000
  H   H701      1.0  0.16627  0.84510  0.44685  1.0000
  C   C578      1.0  0.11605  0.97592  0.27225  1.0000
  Fe  Fe86      1.0  0.00968  0.97509  0.25621  1.0000
  S   S165      1.0  0.03275  0.96426  0.28621  1.0000
  S   S166      1.0  0.01305  0.97459  0.21337  1.0000
  Fe  Fe87      1.0  0.18411  0.90452  0.34307  1.0000
  S   S167      1.0  0.15601  0.92151  0.35613  1.0000
  S   S168      1.0  0.21764  0.91294  0.34266  1.0000
  Fe  Fe88      1.0  0.16179  0.86395  0.33813  1.0000
  S   S169      1.0  0.13209  0.87811  0.35138  1.0000
  S   S170      1.0  0.16694  0.82938  0.33413  1.0000
  Fe  Fe89      1.0  0.13980  0.90477  0.32546  1.0000
  S   S171      1.0  0.11910  0.91834  0.29420  1.0000
  Fe  Fe90      1.0  0.14981  0.89402  0.38134  1.0000
  S   S172      1.0  0.13621  0.89590  0.42214  1.0000
  S   S173      1.0  0.16868  0.88961  0.31055  1.0000
  S   S174      1.0  0.17862  0.87806  0.37008  1.0000
  S   S175      1.0  0.19092  0.76320  0.24901  1.0000
  C   C579      1.0  0.17311  0.81127  0.30984  1.0000
  C   C580      1.0  0.17690  0.81674  0.28414  1.0000
  C   C581      1.0  0.18216  0.80186  0.26598  1.0000
  C   C582      1.0  0.18371  0.78121  0.27300  1.0000
  C   C583      1.0  0.17974  0.77571  0.29864  1.0000
  C   C584      1.0  0.17454  0.79060  0.31683  1.0000
  H   H702      1.0  0.17578  0.83244  0.27821  1.0000
  H   H703      1.0  0.18519  0.80645  0.24630  1.0000
  H   H704      1.0  0.18082  0.75999  0.30454  1.0000
  H   H705      1.0  0.17167  0.78603  0.33654  1.0000
  C   C585      1.0  0.16649  0.89283  0.45869  1.0000
  C   C586      1.0  0.14580  0.89447  0.45383  1.0000
  H   H706      1.0  0.46012  0.78230  0.00857  1.0000
  H   H707      1.0  0.17733  0.89254  0.44289  1.0000
  H   H708      1.0  0.20675  0.84657  0.34303  1.0000
  C   C587      1.0  0.05623  0.95038  0.28784  1.0000
  C   C588      1.0  0.06708  0.94407  0.26604  1.0000
  C   C589      1.0  0.08605  0.93407  0.26845  1.0000
  C   C590      1.0  0.09446  0.93002  0.29261  1.0000
  C   C591      1.0  0.08344  0.93604  0.31441  1.0000
  C   C592      1.0  0.06456  0.94619  0.31199  1.0000
  H   H709      1.0  0.06102  0.94711  0.24732  1.0000
  H   H710      1.0  0.09439  0.92960  0.25141  1.0000
  H   H711      1.0  0.08959  0.93316  0.33313  1.0000
  H   H712      1.0  0.05640  0.95096  0.32903  1.0000
  C   C593      1.0  0.44117  0.97285  0.34444  1.0000
  H   H713      1.0  0.24406  0.80901  0.24624  1.0000
  C   C594      1.0  0.47774  0.90002  0.11217  1.0000
  H   H714      1.0  0.07711  0.74392  0.17372  1.0000
  H   H715      1.0  0.14772  0.73945  0.14031  1.0000
  H   H716      1.0  0.15240  0.77278  0.22210  1.0000
  H   H717      1.0  0.22016  0.95810  0.46677  1.0000
  H   H718      1.0  0.27674  0.97348  0.41889  1.0000
  H   H719      1.0  0.13270  0.97395  0.23671  1.0000
  C   C595      1.0  0.13251  0.74117  0.14805  1.0000
  C   C596      1.0  0.21899  0.95386  0.32897  1.0000
  C   C597      1.0  0.22922  0.93698  0.33908  1.0000
  C   C598      1.0  0.24953  0.93900  0.34605  1.0000
  C   C599      1.0  0.25955  0.95760  0.34282  1.0000
  C   C600      1.0  0.20224  0.94611  0.39894  1.0000
  H   H720      1.0  0.20342  0.95257  0.32341  1.0000
  H   H721      1.0  0.25762  0.92605  0.35384  1.0000
  H   H722      1.0  0.27525  0.95881  0.34787  1.0000
  H   H723      1.0  0.11364  0.86135  0.41906  1.0000
  C   C601      1.0  0.99149  0.88289  0.18898  1.0000
  C   C602      1.0  0.22647  0.96332  0.42563  1.0000
  C   C603      1.0  0.44528  0.74602  0.12957  1.0000
  H   H724      1.0  0.14572  0.84003  0.38380  1.0000
  H   H725      1.0  0.16265  0.83190  0.40787  1.0000
  H   H726      1.0  0.46826  0.76569  0.07415  1.0000
  C   C604      1.0  0.13923  0.76711  0.21153  1.0000
  N   N39       1.0  0.46154  0.96701  0.33443  1.0000
  N   N40       1.0  0.24473  0.97589  0.42755  1.0000
  C   C605      1.0  0.48216  0.89008  0.06845  1.0000
  C   C606      1.0  0.12866  0.75051  0.17190  1.0000
  C   C607      1.0  0.19197  0.93868  0.42064  1.0000
  S   S176      1.0  0.43146  0.97831  0.26366  1.0000
  C   C608      1.0  0.46469  0.75460  0.12769  1.0000
  H   H727      1.0  0.26113  0.96088  0.39704  1.0000
  C   C609      1.0  0.39366  0.98567  0.28494  1.0000
  H   H728      1.0  0.19885  0.85725  0.29917  1.0000
  H   H729      1.0  0.16844  0.78133  0.18200  1.0000
  N   N41       1.0  0.14559  0.75852  0.18652  1.0000
  C   C610      1.0  0.16049  0.74212  0.19182  1.0000
  C   C611      1.0  0.48169  0.74236  0.12284  1.0000
  H   H730      1.0  0.17877  0.92932  0.41871  1.0000
  S   S177      1.0  0.47124  0.98565  0.20902  1.0000
  H   H731      1.0  0.47777  0.97529  0.36804  1.0000
  H   H732      1.0  0.22122  0.98514  0.31683  1.0000
  C   C612      1.0  0.09843  0.98284  0.28446  1.0000
  C   C613      1.0  0.11905  0.97958  0.24613  1.0000
  C   C614      1.0  0.10814  0.75155  0.18070  1.0000
  C   C615      1.0  0.26261  0.96458  0.41753  1.0000
  H   H733      1.0  0.11169  0.84608  0.39142  1.0000
  H   H734      1.0  0.38913  0.97274  0.27429  1.0000
  H   H735      1.0  0.25377  0.86609  0.29100  1.0000
  H   H736      1.0  0.22206  0.78229  0.31653  1.0000
  H   H737      1.0  0.45519  0.93569  0.32791  1.0000
  H   H738      1.0  0.45261  0.95226  0.30013  1.0000
  C   C616      1.0  0.24948  0.97435  0.33212  1.0000
  H   H739      1.0  0.99259  0.82738  0.15847  1.0000
  H   H740      1.0  0.46063  0.75606  0.18897  1.0000
  H   H741      1.0  0.13202  0.75550  0.22433  1.0000
  C   C617      1.0  0.17321  0.89146  0.48416  1.0000
  H   H742      1.0  0.14503  0.78710  0.16625  1.0000
  H   H743      1.0  0.22681  0.96334  0.38391  1.0000
  C   C618      1.0  0.47024  0.98406  0.31923  1.0000
  H   H744      1.0  0.47497  0.87771  0.20155  1.0000
  C   C619      1.0  0.21575  0.95531  0.44745  1.0000
  H   H745      1.0  0.39067  0.96174  0.34100  1.0000
  H   H746      1.0  0.23285  0.84437  0.35270  1.0000
  H   H747      1.0  0.12650  0.80988  0.39444  1.0000
  C   C620      1.0  0.47513  0.96207  0.35593  1.0000
  C   C621      1.0  0.21925  0.95818  0.40133  1.0000
  H   H748      1.0  0.19074  0.93725  0.46167  1.0000
  N   N42       1.0  0.13132  0.83384  0.42073  1.0000
  H   H749      1.0  0.10364  0.82751  0.46013  1.0000
  H   H750      1.0  0.42328  0.95099  0.32379  1.0000
  H   H751      1.0  0.21920  0.81505  0.33588  1.0000
  C   C622      1.0  0.13202  0.89483  0.47482  1.0000
  C   C623      1.0  0.14868  0.84106  0.40462  1.0000
  C   C624      1.0  0.13434  0.83610  0.44852  1.0000
  H   H752      1.0  0.43227  0.75554  0.13397  1.0000
  C   C625      1.0  0.40425  0.96904  0.34715  1.0000
  H   H753      1.0  0.11599  0.89614  0.47137  1.0000
  C   C626      1.0  0.46867  0.76907  0.05316  1.0000
  H   H754      1.0  0.47706  0.94498  0.31084  1.0000
  H   H755      1.0  0.23399  0.77884  0.27177  1.0000
  H   H756      1.0  0.25272  0.96828  0.46648  1.0000
  C   C627      1.0  0.19875  0.94322  0.44483  1.0000
  H   H757      1.0  0.14173  0.80299  0.42139  1.0000
  C   C628      1.0  0.11309  0.84548  0.41261  1.0000
  H   H758      1.0  0.11485  0.80605  0.42546  1.0000
  C   C629      1.0  0.22914  0.97235  0.32528  1.0000
  H   H759      1.0  0.24200  0.84255  0.26473  1.0000
  H   H760      1.0  0.24763  0.87856  0.31994  1.0000
  H   H761      1.0  0.46652  0.77057  0.13068  1.0000
  C   C630      1.0  0.42322  0.96300  0.33739  1.0000
  H   H762      1.0  0.47628  0.91617  0.10610  1.0000
  H   H763      1.0  0.21830  0.86657  0.27773  1.0000
  H   H764      1.0  0.48553  0.98021  0.31120  1.0000
  H   H765      1.0  0.12713  0.96722  0.28299  1.0000
  H   H766      1.0  0.09878  0.83898  0.42035  1.0000
  H   H767      1.0  0.46870  0.94984  0.36847  1.0000
  H   H768      1.0  0.46212  0.89395  0.11333  1.0000
  H   H769      1.0  0.26060  0.85445  0.32102  1.0000
  H   H770      1.0  0.22116  0.86860  0.34780  1.0000
  C   C631      1.0  0.11826  0.83218  0.46637  1.0000
  C   C632      1.0  0.48764  0.88529  0.19225  1.0000
  C   C633      1.0  0.15545  0.84358  0.48509  1.0000
  H   H771      1.0  0.21185  0.88027  0.30574  1.0000
  C   C634      1.0  0.15585  0.77468  0.17128  1.0000
  H   H772      1.0  0.15184  0.85716  0.40834  1.0000
  H   H773      1.0  0.26485  0.95010  0.42836  1.0000
  N   N43       1.0  0.22891  0.85288  0.31304  1.0000
  C   C635      1.0  0.21385  0.86473  0.29824  1.0000
  C   C636      1.0  0.22216  0.85297  0.34034  1.0000
  C   C637      1.0  0.24860  0.86336  0.31111  1.0000
  C   C638      1.0  0.23088  0.83237  0.30244  1.0000
  C   C639      1.0  0.23787  0.82976  0.27681  1.0000
  C   C640      1.0  0.22534  0.81463  0.31659  1.0000
  C   C641      1.0  0.23913  0.81064  0.26602  1.0000
  C   C642      1.0  0.22685  0.79558  0.30565  1.0000
  C   C643      1.0  0.23358  0.79359  0.28040  1.0000
  C   C644      1.0  0.46606  0.74054  0.18934  1.0000
  H   H774      1.0  0.48043  0.91419  0.20917  1.0000
  H   H775      1.0  0.10368  0.75813  0.19869  1.0000
  H   H776      1.0  0.45640  0.76019  0.04478  1.0000
  C   C645      1.0  0.09261  0.74360  0.16644  1.0000
  H   H777      1.0  0.48356  0.89919  0.13201  1.0000
  H   H778      1.0  0.05856  0.97865  0.21633  1.0000
  H   H779      1.0  0.09594  0.97949  0.30468  1.0000
  C   C646      1.0  0.47404  0.77722  0.99946  1.0000
  C   C647      1.0  0.15317  0.84164  0.45875  1.0000
  C   C648      1.0  0.40250  0.98507  0.36384  1.0000
  H   H780      1.0  0.00307  0.89250  0.18043  1.0000
  H   H781      1.0  0.47507  0.86143  0.10631  1.0000
  H   H782      1.0  0.17289  0.74739  0.20393  1.0000
  Fe  Fe91      1.0  0.46438  0.98404  0.25130  1.0000
  H   H783      1.0  0.46608  0.88530  0.06881  1.0000
  H   H784      1.0  0.12865  0.78018  0.20908  1.0000
  H   H785      1.0  0.46505  0.78548  0.05105  1.0000
  H   H786      1.0  0.99246  0.86257  0.15816  1.0000
  C   C649      1.0  0.24897  0.98167  0.45418  1.0000
  H   H787      1.0  0.32346  0.97763  0.65449  1.0000
  H   H788      1.0  0.22177  0.79517  0.65088  1.0000
  C   C650      1.0  0.47058  0.94526  0.85402  1.0000
  H   H789      1.0  0.44065  0.96182  0.82290  1.0000
  H   H790      1.0  0.24119  0.78616  0.68930  1.0000
  H   H791      1.0  0.10803  0.83201  0.50590  1.0000
  S   S178      1.0  0.46670  0.78040  0.86288  1.0000
  H   H792      1.0  0.24753  0.84833  0.70622  1.0000
  Fe  Fe92      1.0  0.01300  0.97684  0.71885  1.0000
  S   S179      1.0  0.01213  0.97618  0.76202  1.0000
  S   S180      1.0  0.04225  0.97068  0.69480  1.0000
  Fe  Fe93      1.0  0.16114  0.86032  0.62774  1.0000
  S   S181      1.0  0.13600  0.86938  0.60109  1.0000
  S   S182      1.0  0.16591  0.82634  0.63804  1.0000
  Fe  Fe94      1.0  0.17580  0.90442  0.62908  1.0000
  S   S183      1.0  0.15133  0.91641  0.60319  1.0000
  S   S184      1.0  0.19904  0.92310  0.64980  1.0000
  Fe  Fe95      1.0  0.13015  0.89626  0.62672  1.0000
  S   S185      1.0  0.09733  0.90072  0.64267  1.0000
  Fe  Fe96      1.0  0.15858  0.88889  0.57935  1.0000
  S   S186      1.0  0.16889  0.88840  0.53679  1.0000
  S   S187      1.0  0.15420  0.88598  0.65414  1.0000
  S   S188      1.0  0.18410  0.87811  0.60451  1.0000
  S   S189      1.0  0.19669  0.75859  0.71962  1.0000
  C   C651      1.0  0.15941  0.89161  0.50517  1.0000
  C   C652      1.0  0.23870  0.80193  0.68405  1.0000
  C   C653      1.0  0.02365  0.96866  0.57541  1.0000
  H   H793      1.0  0.14096  0.84262  0.52226  1.0000
  H   H794      1.0  0.12790  0.89353  0.51610  1.0000
  C   C654      1.0  0.17435  0.80778  0.66123  1.0000
  C   C655      1.0  0.18049  0.81282  0.68572  1.0000
  C   C656      1.0  0.18715  0.79761  0.70317  1.0000
  C   C657      1.0  0.18766  0.77703  0.69669  1.0000
  C   C658      1.0  0.18120  0.77197  0.67236  1.0000
  C   C659      1.0  0.17465  0.78720  0.65485  1.0000
  H   H795      1.0  0.18022  0.82842  0.69125  1.0000
  H   H796      1.0  0.19205  0.80182  0.72188  1.0000
  H   H797      1.0  0.18142  0.75631  0.66692  1.0000
  H   H798      1.0  0.16985  0.78296  0.63610  1.0000
  C   C660      1.0  0.05761  0.95069  0.68148  1.0000
  C   C661      1.0  0.07691  0.95523  0.67097  1.0000
  C   C662      1.0  0.08937  0.94022  0.65945  1.0000
  C   C663      1.0  0.08263  0.92036  0.65784  1.0000
  C   C664      1.0  0.06324  0.91584  0.66816  1.0000
  C   C665      1.0  0.05091  0.93078  0.68003  1.0000
  H   H799      1.0  0.08232  0.97053  0.67176  1.0000
  H   H800      1.0  0.10412  0.94413  0.65158  1.0000
  H   H801      1.0  0.05766  0.90066  0.66691  1.0000
  H   H802      1.0  0.03611  0.92695  0.68777  1.0000
  C   C666      1.0  0.46084  0.75476  0.85728  1.0000
  C   C667      1.0  0.47587  0.73990  0.85406  1.0000
  H   H803      1.0  0.42867  0.76045  0.85927  1.0000
  H   H804      1.0  0.21419  0.83028  0.63985  1.0000
  C   C668      1.0  0.25440  0.95812  0.61754  1.0000
  C   C669      1.0  0.24510  0.94355  0.60272  1.0000
  C   C670      1.0  0.22780  0.93318  0.61193  1.0000
  C   C671      1.0  0.21981  0.93693  0.63640  1.0000
  C   C672      1.0  0.22923  0.95135  0.65135  1.0000
  C   C673      1.0  0.24628  0.96204  0.64191  1.0000
  H   H805      1.0  0.25127  0.94033  0.58388  1.0000
  H   H806      1.0  0.22080  0.92214  0.60018  1.0000
  H   H807      1.0  0.22321  0.95435  0.67033  1.0000
  H   H808      1.0  0.09815  0.83109  0.64407  1.0000
  H   H809      1.0  0.25412  0.81296  0.71639  1.0000
  C   C674      1.0  0.38680  0.95647  0.65870  1.0000
  H   H810      1.0  0.32985  0.96688  0.68467  1.0000
  H   H811      1.0  0.44230  0.97258  0.86800  1.0000
  C   C675      1.0  0.48411  0.89175  0.79408  1.0000
  C   C676      1.0  0.47695  0.90548  0.87388  1.0000
  N   N44       1.0  0.10261  0.84467  0.68051  1.0000
  H   H812      1.0  0.22896  0.87735  0.70244  1.0000
  C   C677      1.0  0.08172  0.85308  0.68318  1.0000
  H   H813      1.0  0.11442  0.87478  0.68272  1.0000
  C   C678      1.0  0.10542  0.82475  0.69346  1.0000
  C   C679      1.0  0.08981  0.81501  0.70807  1.0000
  C   C680      1.0  0.12442  0.81457  0.69189  1.0000
  C   C681      1.0  0.09319  0.79623  0.72015  1.0000
  C   C682      1.0  0.12764  0.79581  0.70396  1.0000
  C   C683      1.0  0.11206  0.78666  0.71809  1.0000
  H   H814      1.0  0.40863  0.96215  0.62844  1.0000
  H   H815      1.0  0.99004  0.95536  0.66044  1.0000
  S   S190      1.0  0.27687  0.96976  0.60532  1.0000
  H   H816      1.0  0.13267  0.85515  0.68812  1.0000
  S   S191      1.0  0.45734  0.98329  0.75523  1.0000
  H   H817      1.0  0.07048  0.84298  0.67477  1.0000
  H   H818      1.0  0.19408  0.85688  0.65557  1.0000
  C   C684      1.0  0.03944  0.95806  0.58703  1.0000
  C   C685      1.0  0.24582  0.81708  0.69937  1.0000
  H   H819      1.0  0.33684  0.91476  0.66190  1.0000
  H   H820      1.0  0.13698  0.82110  0.68124  1.0000
  H   H821      1.0  0.08113  0.78901  0.73122  1.0000
  H   H822      1.0  0.14233  0.78834  0.70234  1.0000
  H   H823      1.0  0.11466  0.77212  0.72746  1.0000
  H   H824      1.0  0.46601  0.97994  0.88071  1.0000
  N   N45       1.0  0.46810  0.96613  0.84366  1.0000
  H   H825      1.0  0.00794  0.98683  0.66599  1.0000
  C   C686      1.0  0.13919  0.84032  0.50196  1.0000
  H   H826      1.0  0.22638  0.88587  0.63386  1.0000
  C   C687      1.0  0.00633  0.97288  0.61711  1.0000
  H   H827      1.0  0.07487  0.82157  0.71050  1.0000
  C   C688      1.0  0.45743  0.97883  0.86282  1.0000
  H   H828      1.0  0.05131  0.94658  0.62249  1.0000
  H   H829      1.0  0.19722  0.88233  0.66521  1.0000
  H   H830      1.0  0.00200  0.87692  0.77426  1.0000
  N   N46       1.0  0.33058  0.94605  0.65327  1.0000
  C   C689      1.0  0.32195  0.96378  0.66667  1.0000
  C   C690      1.0  0.31761  0.94217  0.63113  1.0000
  C   C691      1.0  0.32932  0.92813  0.67074  1.0000
  C   C692      1.0  0.35198  0.94999  0.64594  1.0000
  C   C693      1.0  0.35890  0.95199  0.62004  1.0000
  C   C694      1.0  0.36656  0.95257  0.66507  1.0000
  H   H831      1.0  0.02304  0.95902  0.64861  1.0000
  H   H832      1.0  0.33659  0.93064  0.68930  1.0000
  H   H833      1.0  0.45832  0.89594  0.84352  1.0000
  H   H834      1.0  0.45274  0.92947  0.82580  1.0000
  C   C695      1.0  0.45634  0.96736  0.81982  1.0000
  H   H835      1.0  0.46386  0.95854  0.80432  1.0000
  C   C696      1.0  0.12065  0.83450  0.49265  1.0000
  H   H836      1.0  0.30162  0.93919  0.63715  1.0000
  H   H837      1.0  0.32317  0.92895  0.62013  1.0000
  C   C697      1.0  0.44041  0.74906  0.85692  1.0000
  H   H838      1.0  0.31332  0.92418  0.67547  1.0000
  H   H839      1.0  0.00229  0.97345  0.83326  1.0000
  H   H840      1.0  0.48852  0.86316  0.81426  1.0000
  H   H841      1.0  0.05218  0.95250  0.57564  1.0000
  C   C698      1.0  0.37915  0.95619  0.61391  1.0000
  C   C699      1.0  0.46475  0.90875  0.85283  1.0000
  H   H842      1.0  0.45486  0.98320  0.81241  1.0000
  H   H843      1.0  0.25079  0.87838  0.68071  1.0000
  H   H844      1.0  0.36230  0.95235  0.68514  1.0000
  H   H845      1.0  0.08019  0.86797  0.67298  1.0000
  C   C700      1.0  0.11651  0.85940  0.69144  1.0000
  S   S192      1.0  0.47711  0.92805  0.76905  1.0000
  H   H846      1.0  0.16977  0.84836  0.49251  1.0000
  H   H847      1.0  0.22955  0.89511  0.67646  1.0000
  H   H848      1.0  0.34891  0.95087  0.60413  1.0000
  C   C701      1.0  0.46164  0.92827  0.84283  1.0000
  H   H849      1.0  0.38399  0.95818  0.59407  1.0000
  C   C702      1.0  0.48248  0.94143  0.87591  1.0000
  H   H850      1.0  0.31674  0.95551  0.61790  1.0000
  N   N47       1.0  0.98949  0.98063  0.63349  1.0000
  H   H851      1.0  0.19733  0.86216  0.68864  1.0000
  H   H852      1.0  0.11391  0.86065  0.71244  1.0000
  H   H853      1.0  0.12353  0.83921  0.64870  1.0000
  H   H854      1.0  0.47222  0.88617  0.78237  1.0000
  H   H855      1.0  0.10428  0.85743  0.64214  1.0000
  H   H856      1.0  0.22238  0.86069  0.62452  1.0000
  H   H857      1.0  0.07749  0.85586  0.70353  1.0000
  H   H858      1.0  0.24687  0.86768  0.63507  1.0000
  H   H859      1.0  0.30557  0.96202  0.67154  1.0000
  C   C703      1.0  0.10734  0.84298  0.65274  1.0000
  C   C704      1.0  0.48574  0.92180  0.88547  1.0000
  N   N48       1.0  0.22457  0.86433  0.66549  1.0000
  C   C705      1.0  0.23399  0.87931  0.68209  1.0000
  C   C706      1.0  0.23033  0.86980  0.63862  1.0000
  C   C707      1.0  0.20235  0.86649  0.66884  1.0000
  C   C708      1.0  0.23048  0.84313  0.67146  1.0000
  C   C709      1.0  0.22363  0.82727  0.65615  1.0000
  C   C710      1.0  0.24186  0.83742  0.69327  1.0000
  C   C711      1.0  0.22780  0.80703  0.66235  1.0000
  C   C712      1.0  0.13873  0.89342  0.50028  1.0000
  C   C713      1.0  0.02264  0.96191  0.62822  1.0000
  C   C714      1.0  0.99121  0.98348  0.82332  1.0000
  Fe  Fe97      1.0  0.48323  0.96072  0.75623  1.0000
  H   H860      1.0  0.99566  0.98422  0.57992  1.0000
  C   C715      1.0  0.03892  0.95469  0.61339  1.0000
  H   H861      1.0  0.25327  0.97310  0.65363  1.0000
  C   C716      1.0  0.46729  0.73889  0.92026  1.0000
  H   H862      1.0  0.02419  0.97130  0.55487  1.0000
  H   H863      1.0  0.48004  0.89020  0.88077  1.0000
  H   H864      1.0  0.46914  0.75357  0.91090  1.0000
  C   C717      1.0  0.47609  0.78120  0.97312  1.0000
  H   H865      1.0  0.39755  0.95892  0.67364  1.0000
  C   C718      1.0  0.39306  0.95839  0.63319  1.0000
  C   C719      1.0  0.00728  0.97603  0.59011  1.0000
  H   H866      1.0  0.46413  0.78907  0.96294  1.0000
  C   C720      1.0  0.48825  0.97490  0.83774  1.0000
  H   H867      1.0  0.43644  0.73780  0.91118  1.0000
  H   H868      1.0  0.18923  0.89006  0.48765  1.0000
  H   H869      1.0  0.53275  0.02273  0.38412  1.0000
  H   H870      1.0  0.79816  0.01267  0.42850  1.0000
  H   H871      1.0  0.55379  0.18352  0.18789  1.0000
  H   H872      1.0  0.76825  0.11730  0.28033  1.0000
  H   H873      1.0  0.79706  0.02598  0.39865  1.0000
  H   H874      1.0  0.76592  0.06862  0.41820  1.0000
  C   C721      1.0  0.79764  0.02806  0.41970  1.0000
  C   C722      1.0  0.59621  0.00245  0.42405  1.0000
  S   S193      1.0  0.93905  0.00257  0.27902  1.0000
  H   H875      1.0  0.58428  0.99100  0.42769  1.0000
  Fe  Fe98      1.0  0.79807  0.07443  0.34483  1.0000
  S   S194      1.0  0.82586  0.05780  0.35850  1.0000
  S   S195      1.0  0.76544  0.06444  0.33948  1.0000
  Fe  Fe99      1.0  0.81839  0.11598  0.34452  1.0000
  S   S196      1.0  0.84757  0.10236  0.35942  1.0000
  S   S197      1.0  0.81146  0.15024  0.34019  1.0000
  Fe  Fe100     1.0  0.84370  0.07771  0.33081  1.0000
  S   S198      1.0  0.87154  0.07067  0.30473  1.0000
  Fe  Fe101     1.0  0.82846  0.08316  0.38646  1.0000
  S   S199      1.0  0.83697  0.07080  0.42627  1.0000
  S   S200      1.0  0.81548  0.09246  0.31458  1.0000
  S   S201      1.0  0.79975  0.09863  0.37414  1.0000
  S   S202      1.0  0.78920  0.21868  0.25530  1.0000
  C   C723      1.0  0.80617  0.16912  0.31594  1.0000
  C   C724      1.0  0.80474  0.16466  0.28998  1.0000
  C   C725      1.0  0.79973  0.18002  0.27186  1.0000
  C   C726      1.0  0.79618  0.20014  0.27921  1.0000
  C   C727      1.0  0.79801  0.20471  0.30506  1.0000
  C   C728      1.0  0.80288  0.18931  0.32322  1.0000
  H   H876      1.0  0.80747  0.14939  0.28381  1.0000
  H   H877      1.0  0.79841  0.17621  0.25198  1.0000
  H   H878      1.0  0.79538  0.22002  0.31118  1.0000
  H   H879      1.0  0.80398  0.19307  0.34316  1.0000
  C   C729      1.0  0.53365  0.23364  0.12039  1.0000
  C   C730      1.0  0.83307  0.07944  0.45821  1.0000
  C   C731      1.0  0.51391  0.17108  0.20778  1.0000
  H   H880      1.0  0.82187  0.10909  0.44792  1.0000
  H   H881      1.0  0.63152  0.01284  0.40605  1.0000
  C   C732      1.0  0.88969  0.05115  0.29731  1.0000
  C   C733      1.0  0.90533  0.05531  0.27922  1.0000
  C   C734      1.0  0.92034  0.04065  0.27302  1.0000
  C   C735      1.0  0.92002  0.02154  0.28497  1.0000
  C   C736      1.0  0.90423  0.01727  0.30281  1.0000
  C   C737      1.0  0.88918  0.03190  0.30893  1.0000
  H   H882      1.0  0.90592  0.07007  0.27000  1.0000
  H   H883      1.0  0.93232  0.04428  0.25931  1.0000
  H   H884      1.0  0.90380  0.00260  0.31227  1.0000
  H   H885      1.0  0.87726  0.02826  0.32269  1.0000
  C   C738      1.0  0.73465  0.00279  0.35393  1.0000
  C   C739      1.0  0.75579  0.00446  0.35578  1.0000
  C   C740      1.0  0.76548  0.02315  0.35155  1.0000
  C   C741      1.0  0.75409  0.04048  0.34541  1.0000
  C   C742      1.0  0.73295  0.03886  0.34376  1.0000
  C   C743      1.0  0.72327  0.02017  0.34803  1.0000
  H   H886      1.0  0.51791  0.20001  0.02341  1.0000
  H   H887      1.0  0.78175  0.02404  0.35256  1.0000
  H   H888      1.0  0.72397  0.05210  0.33893  1.0000
  H   H889      1.0  0.70703  0.01916  0.34645  1.0000
  C   C744      1.0  0.78492  0.02799  0.47475  1.0000
  C   C745      1.0  0.83792  0.06640  0.47890  1.0000
  H   H890      1.0  0.72105  0.12284  0.31972  1.0000
  H   H891      1.0  0.95375  0.17123  0.19134  1.0000
  H   H892      1.0  0.84351  0.20891  0.20288  1.0000
  S   S203      1.0  0.96885  0.99732  0.21021  1.0000
  H   H893      1.0  0.49868  0.23477  0.05357  1.0000
  C   C746      1.0  0.91776  0.03038  0.37645  1.0000
  N   N49       1.0  0.89941  0.06380  0.38002  1.0000
  C   C747      1.0  0.93193  0.01749  0.36470  1.0000
  H   H894      1.0  0.73159  0.11416  0.28985  1.0000
  H   H895      1.0  0.77179  0.13204  0.34783  1.0000
  H   H896      1.0  0.75805  0.16326  0.34174  1.0000
  C   C748      1.0  0.49077  0.18857  0.18029  1.0000
  C   C749      1.0  0.56401  0.01533  0.39151  1.0000
  C   C750      1.0  0.77035  0.11729  0.30132  1.0000
  C   C751      1.0  0.98017  0.15993  0.17096  1.0000
  H   H897      1.0  0.74414  0.14055  0.26679  1.0000
  H   H898      1.0  0.74124  0.17539  0.25086  1.0000
  H   H899      1.0  0.93385  0.00206  0.37167  1.0000
  H   H900      1.0  0.85812  0.20553  0.23129  1.0000
  H   H901      1.0  0.77244  0.10121  0.30750  1.0000
  H   H902      1.0  0.50652  0.19686  0.05458  1.0000
  C   C752      1.0  0.51889  0.17036  0.16200  1.0000
  Fe  Fe102     1.0  0.96741  0.99627  0.25343  1.0000
  H   H903      1.0  0.78469  0.12530  0.30478  1.0000
  H   H904      1.0  0.77806  0.05563  0.39252  1.0000
  H   H905      1.0  0.53894  0.03069  0.33816  1.0000
  H   H906      1.0  0.75859  0.10879  0.34937  1.0000
  C   C753      1.0  0.75163  0.18475  0.31255  1.0000
  H   H907      1.0  0.98118  0.21276  0.13737  1.0000
  C   C754      1.0  0.55143  0.02638  0.35028  1.0000
  N   N50       1.0  0.78025  0.04036  0.42937  1.0000
  C   C755      1.0  0.74607  0.15250  0.28020  1.0000
  C   C756      1.0  0.76131  0.02915  0.42574  1.0000
  C   C757      1.0  0.77932  0.05903  0.41319  1.0000
  C   C758      1.0  0.91376  0.99901  0.21218  1.0000
  C   C759      1.0  0.58700  0.01860  0.35496  1.0000
  H   H908      1.0  0.90096  0.00977  0.20915  1.0000
  C   C760      1.0  0.90342  0.06504  0.40776  1.0000
  C   C761      1.0  0.78260  0.04430  0.45693  1.0000
  H   H909      1.0  0.95445  0.20490  0.16978  1.0000
  C   C762      1.0  0.96541  0.17455  0.17700  1.0000
  C   C763      1.0  0.58407  0.01345  0.38126  1.0000
  C   C764      1.0  0.73453  0.11549  0.31056  1.0000
  C   C765      1.0  0.75080  0.14814  0.30612  1.0000
  C   C766      1.0  0.61896  0.01832  0.39372  1.0000
  H   H910      1.0  0.50857  0.15736  0.15987  1.0000
  N   N51       1.0  0.51244  0.18320  0.18370  1.0000
  H   H911      1.0  0.81224  0.03545  0.42366  1.0000
  H   H912      1.0  0.84371  0.05138  0.47516  1.0000
  H   H913      1.0  0.50953  0.18029  0.22463  1.0000
  H   H914      1.0  0.94927  0.04880  0.31727  1.0000
  H   H915      1.0  0.89253  0.07554  0.41754  1.0000
  H   H916      1.0  0.97920  0.14568  0.18128  1.0000
  H   H917      1.0  0.90173  0.05030  0.41804  1.0000
  H   H918      1.0  0.95402  0.01408  0.33410  1.0000
  C   C767      1.0  0.98075  0.19791  0.14658  1.0000
  H   H919      1.0  0.51902  0.17920  0.14366  1.0000
  C   C768      1.0  0.54693  0.19840  0.18679  1.0000
  H   H920      1.0  0.78491  0.01253  0.46861  1.0000
  H   H921      1.0  0.85695  0.23321  0.26414  1.0000
  H   H922      1.0  0.57351  0.02820  0.31957  1.0000
  H   H923      1.0  0.50376  0.15775  0.20776  1.0000
  N   N52       1.0  0.75316  0.12694  0.31530  1.0000
  H   H924      1.0  0.91411  0.09196  0.37058  1.0000
  H   H925      1.0  0.92309  0.99875  0.19416  1.0000
  H   H926      1.0  0.88191  0.99114  0.24212  1.0000
  H   H927      1.0  0.76156  0.01403  0.43534  1.0000
  H   H928      1.0  0.75861  0.02656  0.40512  1.0000
  C   C769      1.0  0.75364  0.16494  0.32206  1.0000
  H   H929      1.0  0.91900  0.07049  0.41091  1.0000
  N   N53       1.0  0.60106  0.00506  0.39629  1.0000
  H   H930      1.0  0.53424  0.16367  0.16437  1.0000
  H   H931      1.0  0.59138  0.01699  0.43267  1.0000
  C   C770      1.0  0.94342  0.02424  0.34364  1.0000
  C   C771      1.0  0.84480  0.21355  0.22304  1.0000
  C   C772      1.0  0.57092  0.02501  0.33982  1.0000
  H   H932      1.0  0.90898  0.02431  0.39244  1.0000
  H   H933      1.0  0.87751  0.04008  0.38605  1.0000
  H   H934      1.0  0.76476  0.99109  0.36016  1.0000
  C   C773      1.0  0.91470  0.05054  0.36740  1.0000
  H   H935      1.0  0.74635  0.20385  0.27952  1.0000
  C   C774      1.0  0.75721  0.12493  0.34307  1.0000
  C   C775      1.0  0.94074  0.04388  0.33420  1.0000
  H   H936      1.0  0.54702  0.22412  0.11863  1.0000
  H   H937      1.0  0.59849  0.00311  0.27470  1.0000
  Fe  Fe103     1.0  0.49089  0.01191  0.21800  1.0000
  H   H938      1.0  0.88806  0.09457  0.37988  1.0000
  H   H939      1.0  0.86707  0.06501  0.38602  1.0000
  H   H940      1.0  0.73563  0.09968  0.31831  1.0000
  H   H941      1.0  0.56137  0.00245  0.26823  1.0000
  H   H942      1.0  0.50224  0.22488  0.18150  1.0000
  H   H943      1.0  0.79329  0.06804  0.41501  1.0000
  C   C776      1.0  0.52567  0.20101  0.18474  1.0000
  C   C777      1.0  0.74432  0.17237  0.27086  1.0000
  C   C778      1.0  0.49572  0.23309  0.03280  1.0000
  C   C779      1.0  0.74709  0.18846  0.28701  1.0000
  C   C780      1.0  0.78258  0.06411  0.46694  1.0000
  C   C781      1.0  0.55194  0.23451  0.18539  1.0000
  C   C782      1.0  0.56787  0.99406  0.28407  1.0000
  H   H944      1.0  0.51290  0.20890  0.11689  1.0000
  H   H945      1.0  0.57607  0.21265  0.18768  1.0000
  C   C783      1.0  0.49692  0.23692  0.12293  1.0000
  C   C784      1.0  0.92650  0.05686  0.34564  1.0000
  H   H946      1.0  0.61499  0.03407  0.39908  1.0000
  H   H947      1.0  0.92471  0.07157  0.33662  1.0000
  H   H948      1.0  0.89437  0.08522  0.34898  1.0000
  H   H949      1.0  0.74483  0.13182  0.35485  1.0000
  H   H950      1.0  0.74795  0.03766  0.43347  1.0000
  C   C785      1.0  0.55983  0.21494  0.18690  1.0000
  H   H951      1.0  0.83097  0.20772  0.23323  1.0000
  C   C786      1.0  0.89908  0.08477  0.36933  1.0000
  C   C787      1.0  0.87902  0.05532  0.37701  1.0000
  C   C788      1.0  0.51809  0.22122  0.18363  1.0000
  C   C789      1.0  0.51432  0.22492  0.11960  1.0000
  H   H952      1.0  0.87543  0.05405  0.35644  1.0000
  C   C790      1.0  0.54800  0.02173  0.37612  1.0000
  H   H953      1.0  0.62555  0.01875  0.37394  1.0000
  C   C791      1.0  0.82559  0.09880  0.46350  1.0000
  H   H954      1.0  0.75441  0.19734  0.32482  1.0000
  H   H955      1.0  0.52945  0.16504  0.21079  1.0000
  H   H956      1.0  0.60163  0.01688  0.34550  1.0000
  H   H957      1.0  0.92319  0.00552  0.22726  1.0000
  C   C792      1.0  0.96574  0.19351  0.16489  1.0000
  C   C793      1.0  0.50330  0.19732  0.03376  1.0000
  H   H958      1.0  0.56022  0.01158  0.41120  1.0000
  H   H959      1.0  0.60959  0.99672  0.43481  1.0000
  H   H960      1.0  0.78125  0.07754  0.45501  1.0000
  H   H961      1.0  0.51027  0.23615  0.02249  1.0000
  H   H962      1.0  0.49820  0.18200  0.02866  1.0000
  N   N54       1.0  0.84653  0.23575  0.22541  1.0000
  H   H963      1.0  0.49218  0.08662  0.00438  1.0000
  C   C794      1.0  0.58897  0.99442  0.28782  1.0000
  H   H964      1.0  0.83004  0.23437  0.26163  1.0000
  H   H965      1.0  0.87034  0.99280  0.20209  1.0000
  H   H966      1.0  0.86038  0.22990  0.17607  1.0000
  S   S204      1.0  0.51865  0.99190  0.22266  1.0000
  Fe  Fe104     1.0  0.50905  0.98883  0.26414  1.0000
  H   H967      1.0  0.79053  0.05357  0.52988  1.0000
  H   H968      1.0  0.82107  0.17398  0.73028  1.0000
  S   S205      1.0  0.69471  0.00320  0.63137  1.0000
  S   S206      1.0  0.49897  0.21133  0.88082  1.0000
  H   H969      1.0  0.50071  0.05254  0.79144  1.0000
  C   C795      1.0  0.85168  0.11641  0.67906  1.0000
  C   C796      1.0  0.49058  0.10878  0.91393  1.0000
  Fe  Fe105     1.0  0.82537  0.08795  0.58297  1.0000
  S   S207      1.0  0.79497  0.08788  0.60365  1.0000
  S   S208      1.0  0.82475  0.10101  0.54168  1.0000
  Fe  Fe106     1.0  0.84779  0.07281  0.63193  1.0000
  S   S209      1.0  0.81834  0.07172  0.65462  1.0000
  S   S210      1.0  0.87713  0.06821  0.65528  1.0000
  Fe  Fe107     1.0  0.80499  0.05782  0.61998  1.0000
  S   S211      1.0  0.78781  0.02797  0.61962  1.0000
  Fe  Fe108     1.0  0.81074  0.10221  0.63656  1.0000
  S   S212      1.0  0.79529  0.12643  0.66231  1.0000
  S   S213      1.0  0.83492  0.05714  0.59799  1.0000
  S   S214      1.0  0.84059  0.10401  0.61509  1.0000
  S   S215      1.0  0.80166  0.21855  0.69928  1.0000
  C   C797      1.0  0.82816  0.09205  0.50982  1.0000
  H   H970      1.0  0.50743  0.08725  0.80583  1.0000
  C   C798      1.0  0.83541  0.07260  0.50452  1.0000
  S   S216      1.0  0.96555  0.99382  0.75953  1.0000
  H   H971      1.0  0.83924  0.06239  0.52015  1.0000
  C   C799      1.0  0.79689  0.15249  0.67104  1.0000
  C   C800      1.0  0.78216  0.16053  0.68808  1.0000
  C   C801      1.0  0.78318  0.18063  0.69668  1.0000
  C   C802      1.0  0.79912  0.19310  0.68857  1.0000
  C   C803      1.0  0.81388  0.18506  0.67153  1.0000
  C   C804      1.0  0.81276  0.16502  0.66274  1.0000
  H   H972      1.0  0.76984  0.15109  0.69483  1.0000
  H   H973      1.0  0.77170  0.18637  0.70980  1.0000
  H   H974      1.0  0.82636  0.19441  0.66511  1.0000
  H   H975      1.0  0.82432  0.15922  0.64978  1.0000
  C   C805      1.0  0.92515  0.01926  0.67897  1.0000
  C   C806      1.0  0.91065  0.01512  0.66047  1.0000
  C   C807      1.0  0.89574  0.02963  0.65326  1.0000
  C   C808      1.0  0.89516  0.04877  0.66417  1.0000
  C   C809      1.0  0.90969  0.05292  0.68264  1.0000
  C   C810      1.0  0.92445  0.03832  0.69010  1.0000
  C   C811      1.0  0.75226  0.01526  0.68749  1.0000
  H   H976      1.0  0.88481  0.02606  0.63904  1.0000
  H   H977      1.0  0.90960  0.06761  0.69123  1.0000
  H   H978      1.0  0.93543  0.04192  0.70422  1.0000
  C   C812      1.0  0.72071  0.00980  0.62775  1.0000
  C   C813      1.0  0.79183  0.22793  0.62799  1.0000
  C   C814      1.0  0.75629  0.00145  0.61992  1.0000
  C   C815      1.0  0.76177  0.02170  0.62271  1.0000
  C   C816      1.0  0.74659  0.03602  0.62809  1.0000
  C   C817      1.0  0.72619  0.03007  0.63059  1.0000
  S   S217      1.0  0.54635  0.99591  0.72094  1.0000
  H   H979      1.0  0.50581  0.21594  0.94030  1.0000
  H   H980      1.0  0.75057  0.05165  0.63037  1.0000
  H   H981      1.0  0.71460  0.04128  0.63477  1.0000
  H   H982      1.0  0.68302  0.00983  0.53538  1.0000
  H   H983      1.0  0.80411  0.19974  0.57621  1.0000
  H   H984      1.0  0.50942  0.22008  0.82657  1.0000
  C   C818      1.0  0.51536  0.22893  0.86496  1.0000
  H   H985      1.0  0.55565  0.01545  0.63714  1.0000
  C   C819      1.0  0.74711  0.04439  0.56571  1.0000
  C   C820      1.0  0.71384  0.03043  0.56034  1.0000
  H   H986      1.0  0.49009  0.99138  0.65211  1.0000
  C   C821      1.0  0.83424  0.14525  0.71990  1.0000
  C   C822      1.0  0.97358  0.99184  0.61917  1.0000
  C   C823      1.0  0.51743  0.23038  0.83829  1.0000
  C   C824      1.0  0.85153  0.13231  0.71994  1.0000
  C   C825      1.0  0.77122  0.00658  0.68260  1.0000
  C   C826      1.0  0.78504  0.06721  0.49304  1.0000
  C   C827      1.0  0.72613  0.04661  0.56632  1.0000
  C   C828      1.0  0.86873  0.09923  0.71337  1.0000
  H   H987      1.0  0.86998  0.09685  0.73439  1.0000
  C   C829      1.0  0.80087  0.23215  0.57581  1.0000
  C   C830      1.0  0.51946  0.01313  0.67031  1.0000
  C   C831      1.0  0.75594  0.02601  0.55899  1.0000
  H   H988      1.0  0.49076  0.12392  0.92273  1.0000
  H   H989      1.0  0.78553  0.08245  0.50022  1.0000
  C   C832      1.0  0.78770  0.03131  0.50075  1.0000
  H   H990      1.0  0.98594  0.09566  0.74292  1.0000
  H   H991      1.0  0.50468  0.04326  0.63964  1.0000
  H   H992      1.0  0.85200  0.18596  0.75029  1.0000
  C   C833      1.0  0.54963  0.00228  0.62837  1.0000
  N   N55       1.0  0.51437  0.01207  0.64297  1.0000
  H   H993      1.0  0.82048  0.14095  0.71092  1.0000
  H   H994      1.0  0.96118  0.99735  0.63225  1.0000
  H   H995      1.0  0.77224  0.02411  0.55986  1.0000
  C   C834      1.0  0.73595  0.99550  0.62245  1.0000
  H   H996      1.0  0.49681  0.08437  0.95800  1.0000
  H   H997      1.0  0.69773  0.03304  0.56204  1.0000
  C   C835      1.0  0.79616  0.21090  0.61343  1.0000
  H   H998      1.0  0.91089  0.00051  0.65165  1.0000
  H   H999      1.0  0.51822  0.99802  0.67992  1.0000
  N   N56       1.0  0.70993  0.99378  0.54746  1.0000
  C   C836      1.0  0.49323  0.08020  0.81115  1.0000
  N   N57       1.0  0.85123  0.11263  0.70705  1.0000
  C   C837      1.0  0.49805  0.21501  0.98075  1.0000
  H   H1000     1.0  0.94983  0.01153  0.84051  1.0000
  H   H1001     1.0  0.83298  0.08576  0.70679  1.0000
  H   H1002     1.0  0.79605  0.19599  0.62247  1.0000
  H   H1003     1.0  0.49286  0.11098  0.89284  1.0000
  H   H1004     1.0  0.75058  0.03157  0.68701  1.0000
  S   S218      1.0  0.48953  0.01581  0.73009  1.0000
  H   H1005     1.0  0.86548  0.12471  0.67268  1.0000
  H   H1006     1.0  0.75146  0.99583  0.54789  1.0000
  C   C838      1.0  0.83252  0.10142  0.71416  1.0000
  H   H1007     1.0  0.53514  0.01833  0.67320  1.0000
  C   C839      1.0  0.73533  0.00310  0.69172  1.0000
  H   H1008     1.0  0.75656  0.05668  0.57143  1.0000
  H   H1009     1.0  0.88323  0.10517  0.70524  1.0000
  C   C840      1.0  0.51599  0.03256  0.63113  1.0000
  S   S219      1.0  0.94404  0.00030  0.68662  1.0000
  C   C841      1.0  0.86919  0.13979  0.73129  1.0000
  H   H1010     1.0  0.83836  0.12550  0.67272  1.0000
  H   H1011     1.0  0.71935  0.06077  0.57234  1.0000
  H   H1012     1.0  0.50415  0.10028  0.92050  1.0000
  H   H1013     1.0  0.85162  0.10203  0.66854  1.0000
  H   H1014     1.0  0.67038  0.22197  0.77254  1.0000
  C   C842      1.0  0.52864  0.99798  0.62999  1.0000
  C   C843      1.0  0.83445  0.16429  0.73086  1.0000
  H   H1015     1.0  0.86738  0.08403  0.70486  1.0000
  H   H1016     1.0  0.71227  0.99932  0.50684  1.0000
  H   H1017     1.0  0.78861  0.22547  0.64817  1.0000
  C   C844      1.0  0.85189  0.17109  0.74206  1.0000
  C   C845      1.0  0.86922  0.15887  0.74230  1.0000
  H   H1018     1.0  0.51343  0.03218  0.61019  1.0000
  H   H1019     1.0  0.50920  0.02371  0.68079  1.0000
  H   H1020     1.0  0.81871  0.10840  0.70575  1.0000
  C   C846      1.0  0.74385  0.00984  0.55257  1.0000
  H   H1021     1.0  0.88322  0.13128  0.73167  1.0000
  H   H1022     1.0  0.78414  0.01612  0.67834  1.0000
  H   H1023     1.0  0.69578  0.98948  0.68517  1.0000
  H   H1024     1.0  0.88283  0.16434  0.75082  1.0000
  H   H1025     1.0  0.83022  0.10042  0.73528  1.0000
  H   H1026     1.0  0.51332  0.21864  0.98571  1.0000
  C   C847      1.0  0.56342  0.98927  0.61623  1.0000
  H   H1027     1.0  0.72104  0.01092  0.69442  1.0000
  C   C848      1.0  0.49285  0.00604  0.64183  1.0000
  H   H1028     1.0  0.53104  0.03932  0.63397  1.0000
  C   C849      1.0  0.82330  0.10506  0.48909  1.0000
  H   H1029     1.0  0.60282  0.23301  0.78536  1.0000
  C   C850      1.0  0.72238  0.01146  0.55328  1.0000
  C   C851      1.0  0.80068  0.21300  0.58739  1.0000
  H   H1030     1.0  0.68297  0.00229  0.56896  1.0000
  C   C852      1.0  0.68777  0.99783  0.54926  1.0000
  H   H1031     1.0  0.97977  0.00547  0.60913  1.0000
  C   C853      1.0  0.78785  0.05090  0.50985  1.0000
  Fe  Fe109     1.0  0.96894  0.99388  0.71645  1.0000
  Fe  Fe110     1.0  0.51309  0.99069  0.73239  1.0000
  C   C854      1.0  0.48945  0.06047  0.80289  1.0000
  H   H1032     1.0  0.63647  0.22877  0.79020  1.0000
  H   H1033     1.0  0.70128  0.98831  0.71896  1.0000
  H   H1034     1.0  0.79008  0.01867  0.51390  1.0000
  H   H1035     1.0  0.81773  0.12016  0.49289  1.0000
  H   H1036     1.0  0.76793  0.99023  0.61598  1.0000
  H   H1037     1.0  0.58802  0.00099  0.70567  1.0000
  H   H1038     1.0  0.96116  0.23289  0.95463  1.0000
  C   C855      1.0  0.49396  0.21349  0.95474  1.0000
  C   C856      1.0  0.58232  0.98878  0.69462  1.0000
  H   H1039     1.0  0.97799  0.01552  0.87060  1.0000
  H   H1040     1.0  0.96817  0.01683  0.81537  1.0000
  C   C857      1.0  0.96121  0.00452  0.82732  1.0000
  H   H1041     1.0  0.57948  0.99247  0.61599  1.0000
  H   H1042     1.0  0.98522  0.00156  0.66424  1.0000
  H   H1043     1.0  0.80447  0.23369  0.55553  1.0000
  C   C858      1.0  0.66302  0.23640  0.76863  1.0000
  H   H1044     1.0  0.95288  0.99502  0.81399  1.0000
  N   N58       1.0  0.97666  0.99280  0.84172  1.0000
  C   C859      1.0  0.98807  0.00734  0.85686  1.0000
  H   H1045     1.0  0.57943  0.36163  0.99590  1.0000
  S   S220      1.0  0.50191  0.43679  0.19340  1.0000
  C   C860      1.0  0.90143  0.25745  0.18841  1.0000
  Fe  Fe111     1.0  0.61580  0.31505  0.12930  1.0000
  S   S221      1.0  0.60363  0.34518  0.11541  1.0000
  S   S222      1.0  0.65069  0.31157  0.13237  1.0000
  Fe  Fe112     1.0  0.57335  0.29630  0.12536  1.0000
  S   S223      1.0  0.55850  0.32539  0.11174  1.0000
  S   S224      1.0  0.56062  0.26420  0.12781  1.0000
  Fe  Fe113     1.0  0.58626  0.32875  0.08601  1.0000
  S   S225      1.0  0.58439  0.34430  0.04640  1.0000
  Fe  Fe114     1.0  0.57665  0.34044  0.14189  1.0000
  S   S226      1.0  0.56880  0.36825  0.16652  1.0000
  S   S227      1.0  0.60009  0.29898  0.09782  1.0000
  S   S228      1.0  0.58982  0.31091  0.15763  1.0000
  Fe  Fe115     1.0  0.79293  0.47432  0.35774  1.0000
  S   S229      1.0  0.77509  0.44737  0.37066  1.0000
  Fe  Fe116     1.0  0.83319  0.45018  0.35641  1.0000
  S   S230      1.0  0.81802  0.42154  0.37063  1.0000
  H   H1046     1.0  0.73489  0.36849  0.34267  1.0000
  Fe  Fe117     1.0  0.79408  0.42970  0.34231  1.0000
  S   S231      1.0  0.78215  0.40946  0.31141  1.0000
  Fe  Fe118     1.0  0.80042  0.44145  0.39815  1.0000
  S   S232      1.0  0.78929  0.43438  0.43905  1.0000
  S   S233      1.0  0.81006  0.45746  0.32680  1.0000
  Fe  Fe119     1.0  0.97235  0.28871  0.12964  1.0000
  S   S234      1.0  0.95009  0.28428  0.09850  1.0000
  Fe  Fe120     1.0  0.95748  0.33252  0.13966  1.0000
  S   S235      1.0  0.93398  0.33150  0.10894  1.0000
  H   H1047     1.0  0.91839  0.29071  0.99070  1.0000
  Fe  Fe121     1.0  0.92724  0.30013  0.12435  1.0000
  S   S236      1.0  0.89607  0.28586  0.12881  1.0000
  Fe  Fe122     1.0  0.95815  0.31569  0.08494  1.0000
  S   S237      1.0  0.96818  0.32420  0.04394  1.0000
  S   S238      1.0  0.94889  0.30206  0.15638  1.0000
  C   C861      1.0  0.89722  0.26212  0.21382  1.0000
  H   H1048     1.0  0.93653  0.41062  0.18842  1.0000
  H   H1049     1.0  0.72402  0.39853  0.27096  1.0000
  Fe  Fe123     1.0  0.75095  0.28369  0.22695  1.0000
  S   S239      1.0  0.75391  0.26964  0.26661  1.0000
  S   S240      1.0  0.71707  0.28723  0.21687  1.0000
  Fe  Fe124     1.0  0.79746  0.29105  0.22353  1.0000
  S   S241      1.0  0.80233  0.27762  0.26276  1.0000
  S   S242      1.0  0.82571  0.30792  0.20963  1.0000
  Fe  Fe125     1.0  0.78151  0.25287  0.25178  1.0000
  Fe  Fe126     1.0  0.77455  0.29553  0.27403  1.0000
  S   S243      1.0  0.77340  0.31368  0.31051  1.0000
  S   S244      1.0  0.77771  0.26545  0.21136  1.0000
  S   S245      1.0  0.77054  0.31022  0.23562  1.0000
  C   C862      1.0  0.87669  0.29227  0.15140  1.0000
  C   C863      1.0  0.85824  0.28193  0.15124  1.0000
  C   C864      1.0  0.84256  0.28629  0.16911  1.0000
  C   C865      1.0  0.84515  0.30115  0.18726  1.0000
  C   C866      1.0  0.86356  0.31154  0.18736  1.0000
  C   C867      1.0  0.87931  0.30706  0.16964  1.0000
  H   H1050     1.0  0.85606  0.27055  0.13710  1.0000
  H   H1051     1.0  0.82833  0.27852  0.16837  1.0000
  H   H1052     1.0  0.86567  0.32318  0.20111  1.0000
  H   H1053     1.0  0.89342  0.31510  0.16995  1.0000
  C   C868      1.0  0.89115  0.47908  0.28636  1.0000
  H   H1054     1.0  0.63122  0.45155  0.26823  1.0000
  H   H1055     1.0  0.93108  0.43716  0.24715  1.0000
  H   H1056     1.0  0.73567  0.39938  0.31540  1.0000
  H   H1057     1.0  0.90746  0.27171  0.22373  1.0000
  C   C869      1.0  0.66105  0.30191  0.00663  1.0000
  C   C870      1.0  0.94032  0.30458  0.01442  1.0000
  C   C871      1.0  0.95816  0.31564  0.01493  1.0000
  H   H1058     1.0  0.59033  0.40487  0.09139  1.0000
  H   H1059     1.0  0.93250  0.30057  0.03218  1.0000
  C   C872      1.0  0.77585  0.34030  0.31057  1.0000
  C   C873      1.0  0.77380  0.35209  0.28825  1.0000
  C   C874      1.0  0.77579  0.37320  0.28897  1.0000
  C   C875      1.0  0.78016  0.38278  0.31186  1.0000
  C   C876      1.0  0.78244  0.37101  0.33417  1.0000
  C   C877      1.0  0.78007  0.34989  0.33355  1.0000
  H   H1060     1.0  0.77038  0.34502  0.27049  1.0000
  H   H1061     1.0  0.77379  0.38219  0.27168  1.0000
  H   H1062     1.0  0.78575  0.37818  0.35194  1.0000
  H   H1063     1.0  0.78168  0.34091  0.35094  1.0000
  C   C878      1.0  0.64113  0.33281  0.00907  1.0000
  C   C879      1.0  0.96945  0.38088  0.17235  1.0000
  C   C880      1.0  0.87726  0.47027  0.30406  1.0000
  C   C881      1.0  0.88425  0.45911  0.32516  1.0000
  C   C882      1.0  0.54858  0.37584  0.09291  1.0000
  H   H1064     1.0  0.98257  0.41625  0.21580  1.0000
  C   C883      1.0  0.97874  0.42256  0.17566  1.0000
  C   C884      1.0  0.80075  0.44106  0.46806  1.0000
  C   C885      1.0  0.81811  0.45284  0.46835  1.0000
  C   C886      1.0  0.73571  0.46491  0.41743  1.0000
  C   C887      1.0  0.59389  0.31373  0.01189  1.0000
  C   C888      1.0  0.58755  0.33374  0.01537  1.0000
  C   C889      1.0  0.65147  0.31679  0.02207  1.0000
  H   H1065     1.0  0.59639  0.30395  0.02836  1.0000
  C   C890      1.0  0.96807  0.32076  0.99160  1.0000
  C   C891      1.0  0.66880  0.30492  0.15640  1.0000
  C   C892      1.0  0.66318  0.29876  0.18134  1.0000
  C   C893      1.0  0.67812  0.29342  0.19938  1.0000
  C   C894      1.0  0.69896  0.29417  0.19296  1.0000
  C   C895      1.0  0.70458  0.30047  0.16808  1.0000
  C   C896      1.0  0.68965  0.30573  0.15001  1.0000
  H   H1066     1.0  0.64730  0.29795  0.18669  1.0000
  H   H1067     1.0  0.67343  0.28849  0.21843  1.0000
  H   H1068     1.0  0.72045  0.30118  0.16267  1.0000
  H   H1069     1.0  0.69432  0.31044  0.13088  1.0000
  C   C897      1.0  0.52051  0.41742  0.18720  1.0000
  C   C898      1.0  0.51599  0.40209  0.17003  1.0000
  C   C899      1.0  0.53033  0.38681  0.16372  1.0000
  C   C900      1.0  0.54957  0.38665  0.17439  1.0000
  C   C901      1.0  0.55399  0.40187  0.19177  1.0000
  C   C902      1.0  0.53960  0.41708  0.19821  1.0000
  H   H1070     1.0  0.50134  0.40214  0.16127  1.0000
  H   H1071     1.0  0.52647  0.37520  0.15058  1.0000
  H   H1072     1.0  0.56874  0.40194  0.20027  1.0000
  H   H1073     1.0  0.54341  0.42867  0.21144  1.0000
  C   C903      1.0  0.55932  0.42068  0.12322  1.0000
  C   C904      1.0  0.58432  0.34613  0.99355  1.0000
  C   C905      1.0  0.53588  0.25450  0.12406  1.0000
  N   N59       1.0  0.74124  0.47978  0.43675  1.0000
  C   C906      1.0  0.51845  0.26659  0.12649  1.0000
  H   H1074     1.0  0.86121  0.47244  0.30164  1.0000
  H   H1075     1.0  0.51987  0.28261  0.12946  1.0000
  H   H1076     1.0  0.74854  0.47889  0.47677  1.0000
  C   C907      1.0  0.54986  0.41128  0.10252  1.0000
  C   C908      1.0  0.52988  0.41788  0.09692  1.0000
  H   H1077     1.0  0.98184  0.32937  0.99179  1.0000
  C   C909      1.0  0.72910  0.36816  0.32345  1.0000
  N   N60       1.0  0.83799  0.35094  0.27137  1.0000
  C   C910      1.0  0.82784  0.34163  0.29424  1.0000
  C   C911      1.0  0.82258  0.35548  0.25182  1.0000
  C   C912      1.0  0.85218  0.33556  0.26062  1.0000
  C   C913      1.0  0.84792  0.36983  0.27864  1.0000
  C   C914      1.0  0.86914  0.37284  0.27579  1.0000
  C   C915      1.0  0.83631  0.38584  0.28949  1.0000
  C   C916      1.0  0.87803  0.39059  0.28393  1.0000
  C   C917      1.0  0.84535  0.40343  0.29766  1.0000
  C   C918      1.0  0.86619  0.40577  0.29504  1.0000
  H   H1078     1.0  0.81626  0.35181  0.30292  1.0000
  H   H1079     1.0  0.81979  0.32755  0.28956  1.0000
  H   H1080     1.0  0.83887  0.33783  0.30941  1.0000
  H   H1081     1.0  0.82956  0.36254  0.23429  1.0000
  H   H1082     1.0  0.81048  0.36587  0.25886  1.0000
  H   H1083     1.0  0.81485  0.34154  0.24585  1.0000
  H   H1084     1.0  0.85970  0.34113  0.24261  1.0000
  H   H1085     1.0  0.86388  0.33087  0.27457  1.0000
  H   H1086     1.0  0.84413  0.32157  0.25560  1.0000
  H   H1087     1.0  0.87925  0.36166  0.26760  1.0000
  H   H1088     1.0  0.82010  0.38481  0.29217  1.0000
  H   H1089     1.0  0.89427  0.39250  0.28198  1.0000
  H   H1090     1.0  0.83613  0.41520  0.30647  1.0000
  H   H1091     1.0  0.87315  0.41930  0.30192  1.0000
  C   C919      1.0  0.87967  0.25496  0.22626  1.0000
  H   H1092     1.0  0.73506  0.47179  0.39784  1.0000
  H   H1093     1.0  0.73775  0.31930  0.27026  1.0000
  S   S246      1.0  0.86762  0.44964  0.34979  1.0000
  H   H1094     1.0  0.50476  0.43767  0.10659  1.0000
  H   H1095     1.0  0.87722  0.25944  0.24579  1.0000
  H   H1096     1.0  0.65370  0.28240  0.05281  1.0000
  H   H1097     1.0  0.67765  0.33464  0.29470  1.0000
  C   C920      1.0  0.90420  0.45942  0.22011  1.0000
  C   C921      1.0  0.72310  0.38502  0.28299  1.0000
  C   C922      1.0  0.87055  0.23837  0.18745  1.0000
  S   S247      1.0  0.98211  0.31916  0.11460  1.0000
  H   H1098     1.0  0.57409  0.41612  0.12977  1.0000
  H   H1099     1.0  0.82513  0.45792  0.45050  1.0000
  H   H1100     1.0  0.71384  0.33462  0.23840  1.0000
  H   H1101     1.0  0.58824  0.37909  0.08240  1.0000
  C   C923      1.0  0.54948  0.43599  0.13692  1.0000
  Fe  Fe127     1.0  0.98710  0.47019  0.21034  1.0000
  S   S248      1.0  0.81747  0.46923  0.38641  1.0000
  C   C924      1.0  0.91914  0.46431  0.30935  1.0000
  H   H1102     1.0  0.64608  0.34644  0.05876  1.0000
  C   C925      1.0  0.90524  0.45589  0.32740  1.0000
  C   C926      1.0  0.58114  0.39107  0.09441  1.0000
  C   C927      1.0  0.97413  0.38939  0.19591  1.0000
  C   C928      1.0  0.68996  0.32300  0.29476  1.0000
  H   H1103     1.0  0.89063  0.46078  0.20800  1.0000
  C   C929      1.0  0.95982  0.38017  0.99450  1.0000
  H   H1104     1.0  0.54369  0.40001  0.05244  1.0000
  C   C930      1.0  0.72205  0.35012  0.31382  1.0000
  C   C931      1.0  0.72374  0.31407  0.28033  1.0000
  H   H1105     1.0  0.96615  0.38704  0.13212  1.0000
  C   C932      1.0  0.67356  0.31663  0.05846  1.0000
  H   H1106     1.0  0.94606  0.36712  0.02864  1.0000
  H   H1107     1.0  0.54917  0.37132  0.11353  1.0000
  H   H1108     1.0  0.92273  0.37708  0.18440  1.0000
  N   N61       1.0  0.91884  0.44411  0.21014  1.0000
  C   C933      1.0  0.86573  0.24282  0.21335  1.0000
  C   C934      1.0  0.92641  0.45170  0.18477  1.0000
  H   H1109     1.0  0.75688  0.45718  0.45964  1.0000
  C   C935      1.0  0.91009  0.42378  0.20790  1.0000
  C   C936      1.0  0.89060  0.41870  0.21804  1.0000
  C   C937      1.0  0.92144  0.40809  0.19601  1.0000
  C   C938      1.0  0.88289  0.39928  0.21556  1.0000
  C   C939      1.0  0.91366  0.38874  0.19372  1.0000
  C   C940      1.0  0.89436  0.38436  0.20334  1.0000
  H   H1110     1.0  0.62866  0.29319  0.05245  1.0000
  C   C941      1.0  0.91217  0.47634  0.28900  1.0000
  C   C942      1.0  0.93599  0.44286  0.22783  1.0000
  H   H1111     1.0  0.93935  0.44261  0.17712  1.0000
  H   H1112     1.0  0.93232  0.46732  0.18575  1.0000
  H   H1113     1.0  0.91430  0.45170  0.17039  1.0000
  C   C943      1.0  0.62438  0.46624  0.27168  1.0000
  H   H1114     1.0  0.94832  0.43277  0.22070  1.0000
  H   H1115     1.0  0.89940  0.45589  0.24025  1.0000
  H   H1116     1.0  0.88101  0.42944  0.22794  1.0000
  C   C944      1.0  0.97887  0.41003  0.19757  1.0000
  H   H1117     1.0  0.86791  0.39580  0.22316  1.0000
  H   H1118     1.0  0.91104  0.47469  0.22057  1.0000
  H   H1119     1.0  0.88836  0.36936  0.20127  1.0000
  H   H1120     1.0  0.72253  0.33690  0.32629  1.0000
  H   H1121     1.0  0.67459  0.31583  0.07975  1.0000
  H   H1122     1.0  0.71147  0.36765  0.25343  1.0000
  H   H1123     1.0  0.64104  0.32934  0.08474  1.0000
  H   H1124     1.0  0.71921  0.29973  0.27145  1.0000
  C   C945      1.0  0.70098  0.33103  0.25182  1.0000
  C   C946      1.0  0.71595  0.36706  0.27314  1.0000
  H   H1125     1.0  0.65247  0.47937  0.27972  1.0000
  H   H1126     1.0  0.56632  0.41446  0.05544  1.0000
  H   H1127     1.0  0.91466  0.26359  0.17850  1.0000
  N   N62       1.0  0.70755  0.32974  0.27880  1.0000
  H   H1128     1.0  0.72794  0.31017  0.30031  1.0000
  N   N63       1.0  0.65231  0.31514  0.05033  1.0000
  H   H1129     1.0  0.68363  0.30872  0.28764  1.0000
  N   N64       1.0  0.55967  0.39483  0.08780  1.0000
  H   H1130     1.0  0.91084  0.44716  0.34354  1.0000
  C   C947      1.0  0.55926  0.39962  0.05993  1.0000
  C   C948      1.0  0.52014  0.43311  0.11086  1.0000
  C   C949      1.0  0.52994  0.44217  0.13079  1.0000
  H   H1131     1.0  0.55520  0.36320  0.08163  1.0000
  H   H1132     1.0  0.53240  0.37713  0.08786  1.0000
  H   H1133     1.0  0.97417  0.42349  0.13497  1.0000
  H   H1134     1.0  0.58254  0.38566  0.11464  1.0000
  H   H1135     1.0  0.56760  0.38796  0.04855  1.0000
  C   C950      1.0  0.71510  0.34903  0.28841  1.0000
  H   H1136     1.0  0.68327  0.30417  0.05097  1.0000
  C   C951      1.0  0.93221  0.35683  0.99464  1.0000
  H   H1137     1.0  0.52216  0.45354  0.14211  1.0000
  C   C952      1.0  0.49912  0.25782  0.12606  1.0000
  H   H1138     1.0  0.68859  0.34236  0.24915  1.0000
  C   C953      1.0  0.72957  0.38558  0.30810  1.0000
  H   H1139     1.0  0.69495  0.31640  0.24544  1.0000
  H   H1140     1.0  0.69402  0.31992  0.31498  1.0000
  H   H1141     1.0  0.52148  0.41100  0.08204  1.0000
  S   S249      1.0  0.96315  0.35484  0.17176  1.0000
  H   H1142     1.0  0.84403  0.25683  0.25628  1.0000
  H   H1143     1.0  0.56198  0.24734  0.18453  1.0000
  H   H1144     1.0  0.52515  0.25291  0.18219  1.0000
  H   H1145     1.0  0.77343  0.47739  0.42872  1.0000
  H   H1146     1.0  0.64372  0.29406  0.08067  1.0000
  H   H1147     1.0  0.93523  0.46204  0.31168  1.0000
  C   C954      1.0  0.96965  0.39332  0.15039  1.0000
  H   H1148     1.0  0.92173  0.34712  0.00520  1.0000
  C   C955      1.0  0.98379  0.26501  0.98987  1.0000
  H   H1149     1.0  0.72063  0.45830  0.42202  1.0000
  H   H1150     1.0  0.68030  0.33114  0.05169  1.0000
  C   C956      1.0  0.97424  0.41401  0.15208  1.0000
  H   H1151     1.0  0.62407  0.33047  0.05876  1.0000
  H   H1152     1.0  0.55673  0.44257  0.15307  1.0000
  C   C957      1.0  0.64427  0.29536  0.05936  1.0000
  S   S250      1.0  0.49489  0.46400  0.26251  1.0000
  C   C958      1.0  0.64034  0.33110  0.06358  1.0000
  H   H1153     1.0  0.82989  0.26241  0.21397  1.0000
  H   H1154     1.0  0.94282  0.45790  0.23034  1.0000
  H   H1155     1.0  0.66940  0.28943  0.01509  1.0000
  H   H1156     1.0  0.97410  0.37992  0.21303  1.0000
  H   H1157     1.0  0.73077  0.45990  0.46747  1.0000
  C   C959      1.0  0.74439  0.46858  0.46132  1.0000
  H   H1158     1.0  0.63309  0.34470  0.01900  1.0000
  C   C960      1.0  0.94593  0.36811  0.00791  1.0000
  S   S251      1.0  0.98336  0.44899  0.17669  1.0000
  H   H1159     1.0  0.74695  0.45220  0.41645  1.0000
  H   H1160     1.0  0.98299  0.27549  0.02863  1.0000
  H   H1161     1.0  0.97050  0.38885  0.00497  1.0000
  H   H1162     1.0  0.82923  0.24241  0.19154  1.0000
  Fe  Fe128     1.0  0.49721  0.46444  0.21935  1.0000
  H   H1163     1.0  0.59415  0.45622  0.26490  1.0000
  C   C961      1.0  0.93233  0.29907  0.99083  1.0000
  C   C962      1.0  0.60350  0.46880  0.26979  1.0000
  C   C963      1.0  0.82934  0.24571  0.21228  1.0000
  S   S252      1.0  0.98433  0.46143  0.25197  1.0000
  H   H1164     1.0  0.74466  0.48411  0.34487  1.0000
  C   C964      1.0  0.63646  0.48245  0.27822  1.0000
  H   H1165     1.0  0.89118  0.24267  0.15519  1.0000
  C   C965      1.0  0.84445  0.24028  0.25307  1.0000
  H   H1166     1.0  0.81457  0.24063  0.22052  1.0000
  C   C966      1.0  0.88817  0.24552  0.17530  1.0000
  C   C967      1.0  0.53113  0.23763  0.18408  1.0000
  H   H1167     1.0  0.93627  0.35464  0.89236  1.0000
  S   S253      1.0  0.50771  0.43218  0.77241  1.0000
  H   H1168     1.0  0.55144  0.48170  0.74066  1.0000
  Fe  Fe129     1.0  0.58113  0.34738  0.84848  1.0000
  S   S254      1.0  0.58897  0.32446  0.81869  1.0000
  S   S255      1.0  0.57187  0.38062  0.83930  1.0000
  Fe  Fe130     1.0  0.59488  0.31857  0.89231  1.0000
  S   S256      1.0  0.60371  0.29381  0.86480  1.0000
  S   S257      1.0  0.60064  0.30910  0.93428  1.0000
  Fe  Fe131     1.0  0.61793  0.31782  0.83948  1.0000
  S   S258      1.0  0.64722  0.31607  0.81406  1.0000
  Fe  Fe132     1.0  0.57444  0.30150  0.84563  1.0000
  S   S259      1.0  0.55599  0.27743  0.82612  1.0000
  S   S260      1.0  0.61114  0.34226  0.86813  1.0000
  S   S261      1.0  0.56452  0.32483  0.87436  1.0000
  Fe  Fe133     1.0  0.83060  0.46597  0.63977  1.0000
  S   S262      1.0  0.84051  0.43948  0.61655  1.0000
  C   C968      1.0  0.74571  0.29645  0.84420  1.0000
  H   H1169     1.0  0.78357  0.26612  0.86932  1.0000
  S   S263      1.0  0.79306  0.43405  0.60107  1.0000
  Fe  Fe134     1.0  0.81291  0.42404  0.63383  1.0000
  S   S264      1.0  0.82036  0.39469  0.65597  1.0000
  Fe  Fe135     1.0  0.81974  0.45171  0.58597  1.0000
  S   S265      1.0  0.82945  0.45799  0.54423  1.0000
  S   S266      1.0  0.80361  0.45045  0.65803  1.0000
  C   C969      1.0  0.72345  0.32133  0.82299  1.0000
  S   S267      1.0  0.94929  0.27226  0.87430  1.0000
  Fe  Fe136     1.0  0.95790  0.32856  0.85322  1.0000
  S   S268      1.0  0.92745  0.31637  0.86575  1.0000
  C   C970      1.0  0.57422  0.39983  0.76133  1.0000
  Fe  Fe137     1.0  0.94397  0.30017  0.89752  1.0000
  S   S269      1.0  0.93123  0.29718  0.93838  1.0000
  Fe  Fe138     1.0  0.93540  0.28987  0.84150  1.0000
  S   S270      1.0  0.91526  0.27696  0.81101  1.0000
  S   S271      1.0  0.96533  0.30259  0.82739  1.0000
  C   C971      1.0  0.96071  0.48590  0.62295  1.0000
  H   H1170     1.0  0.51394  0.38949  0.78090  1.0000
  Fe  Fe139     1.0  0.80008  0.27641  0.76268  1.0000
  S   S272      1.0  0.80732  0.27289  0.72075  1.0000
  S   S273      1.0  0.81984  0.28699  0.79505  1.0000
  Fe  Fe140     1.0  0.75490  0.26716  0.75671  1.0000
  S   S274      1.0  0.75914  0.26230  0.71423  1.0000
  S   S275      1.0  0.72583  0.26265  0.78175  1.0000
  C   C972      1.0  0.52623  0.24229  0.87984  1.0000
  Fe  Fe141     1.0  0.77838  0.29025  0.71413  1.0000
  S   S276      1.0  0.77266  0.31321  0.68179  1.0000
  H   H1171     1.0  0.78135  0.31176  0.85484  1.0000
  S   S277      1.0  0.77237  0.29600  0.75579  1.0000
  C   C973      1.0  0.94212  0.30436  0.96752  1.0000
  H   H1172     1.0  0.94398  0.38984  0.89362  1.0000
  C   C974      1.0  0.96012  0.31516  0.96804  1.0000
  H   H1173     1.0  0.69960  0.30144  0.87554  1.0000
  C   C975      1.0  0.59735  0.30640  0.98696  1.0000
  C   C976      1.0  0.80250  0.26686  0.65282  1.0000
  H   H1174     1.0  0.67245  0.28136  0.73890  1.0000
  H   H1175     1.0  0.60008  0.26561  0.82394  1.0000
  C   C977      1.0  0.94233  0.46935  0.58907  1.0000
  C   C978      1.0  0.64896  0.31820  0.96792  1.0000
  C   C979      1.0  0.88866  0.27987  0.80715  1.0000
  C   C980      1.0  0.87967  0.27092  0.78614  1.0000
  C   C981      1.0  0.85872  0.27307  0.78197  1.0000
  C   C982      1.0  0.84645  0.28417  0.79888  1.0000
  C   C983      1.0  0.85548  0.29325  0.81979  1.0000
  C   C984      1.0  0.87646  0.29119  0.82387  1.0000
  H   H1176     1.0  0.61488  0.29623  0.78622  1.0000
  H   H1177     1.0  0.85203  0.26597  0.76584  1.0000
  H   H1178     1.0  0.84618  0.30187  0.83300  1.0000
  H   H1179     1.0  0.88312  0.29819  0.84008  1.0000
  C   C985      1.0  0.81803  0.45102  0.51529  1.0000
  C   C986      1.0  0.80050  0.43946  0.51502  1.0000
  H   H1180     1.0  0.62591  0.27399  0.82123  1.0000
  H   H1181     1.0  0.79377  0.43396  0.53286  1.0000
  H   H1182     1.0  0.73126  0.28264  0.87847  1.0000
  H   H1183     1.0  0.91520  0.44082  0.73779  1.0000
  C   C987      1.0  0.94226  0.31676  0.76582  1.0000
  H   H1184     1.0  0.96785  0.31932  0.95034  1.0000
  C   C988      1.0  0.90879  0.46250  0.66727  1.0000
  H   H1185     1.0  0.94581  0.31420  0.74523  1.0000
  C   C989      1.0  0.80621  0.37264  0.66360  1.0000
  C   C990      1.0  0.78784  0.36859  0.65216  1.0000
  C   C991      1.0  0.77769  0.35042  0.65812  1.0000
  C   C992      1.0  0.78557  0.33627  0.67587  1.0000
  C   C993      1.0  0.80378  0.34047  0.68759  1.0000
  C   C994      1.0  0.81409  0.35847  0.68133  1.0000
  H   H1186     1.0  0.78161  0.37930  0.63845  1.0000
  H   H1187     1.0  0.76362  0.34733  0.64892  1.0000
  H   H1188     1.0  0.81009  0.32969  0.70115  1.0000
  H   H1189     1.0  0.82834  0.36136  0.69017  1.0000
  C   C995      1.0  0.66907  0.30093  0.80571  1.0000
  C   C996      1.0  0.67335  0.28221  0.81752  1.0000
  C   C997      1.0  0.69080  0.27092  0.81010  1.0000
  C   C998      1.0  0.70440  0.27810  0.79088  1.0000
  C   C999      1.0  0.70016  0.29684  0.77914  1.0000
  C   C1000     1.0  0.68266  0.30810  0.78649  1.0000
  H   H1190     1.0  0.66324  0.27641  0.83238  1.0000
  H   H1191     1.0  0.69376  0.25643  0.81928  1.0000
  H   H1192     1.0  0.71029  0.30263  0.76427  1.0000
  H   H1193     1.0  0.67964  0.32253  0.77716  1.0000
  C   C1001     1.0  0.59427  0.31881  0.96511  1.0000
  C   C1002     1.0  0.96193  0.39864  0.81856  1.0000
  C   C1003     1.0  0.58750  0.33870  0.96860  1.0000
  C   C1004     1.0  0.64484  0.27414  0.75969  1.0000
  H   H1194     1.0  0.58515  0.34849  0.95207  1.0000
  C   C1005     1.0  0.53881  0.25710  0.86830  1.0000
  C   C1006     1.0  0.54065  0.25876  0.84165  1.0000
  N   N65       1.0  0.78708  0.26540  0.63285  1.0000
  Fe  Fe142     1.0  0.78600  0.46188  0.62419  1.0000
  H   H1195     1.0  0.54696  0.26731  0.88005  1.0000
  H   H1196     1.0  0.97068  0.36221  0.89548  1.0000
  S   S278      1.0  0.97366  0.31410  0.88689  1.0000
  C   C1007     1.0  0.52542  0.41828  0.79178  1.0000
  C   C1008     1.0  0.53989  0.42763  0.80646  1.0000
  C   C1009     1.0  0.55371  0.41586  0.82099  1.0000
  C   C1010     1.0  0.55338  0.39456  0.82120  1.0000
  C   C1011     1.0  0.53883  0.38522  0.80664  1.0000
  C   C1012     1.0  0.52503  0.39698  0.79206  1.0000
  H   H1197     1.0  0.54041  0.44391  0.80677  1.0000
  H   H1198     1.0  0.56484  0.42333  0.83213  1.0000
  H   H1199     1.0  0.53828  0.36892  0.80651  1.0000
  H   H1200     1.0  0.59685  0.39070  0.78825  1.0000
  N   N66       1.0  0.56534  0.45285  0.73273  1.0000
  H   H1201     1.0  0.78337  0.30584  0.82141  1.0000
  C   C1013     1.0  0.79176  0.24767  0.61686  1.0000
  Fe  Fe143     1.0  0.96672  0.47811  0.72314  1.0000
  C   C1014     1.0  0.57409  0.43545  0.74716  1.0000
  C   C1015     1.0  0.59124  0.43805  0.76256  1.0000
  C   C1016     1.0  0.59943  0.42203  0.77697  1.0000
  C   C1017     1.0  0.59092  0.40296  0.77637  1.0000
  H   H1202     1.0  0.78614  0.46821  0.55536  1.0000
  H   H1203     1.0  0.92206  0.34730  0.95902  1.0000
  H   H1204     1.0  0.79995  0.28050  0.66464  1.0000
  C   C1018     1.0  0.94699  0.36881  0.95357  1.0000
  C   C1019     1.0  0.48991  0.27651  0.85419  1.0000
  H   H1205     1.0  0.80232  0.25367  0.66631  1.0000
  C   C1020     1.0  0.79649  0.24931  0.59022  1.0000
  C   C1021     1.0  0.96027  0.38070  0.96773  1.0000
  H   H1206     1.0  0.49405  0.47468  0.64680  1.0000
  H   H1207     1.0  0.61219  0.42442  0.78913  1.0000
  C   C1022     1.0  0.49396  0.29091  0.83507  1.0000
  C   C1023     1.0  0.96930  0.37889  0.82323  1.0000
  C   C1024     1.0  0.74169  0.31045  0.82393  1.0000
  C   C1025     1.0  0.92421  0.47822  0.59749  1.0000
  S   S279      1.0  0.75310  0.47293  0.62266  1.0000
  H   H1208     1.0  0.91851  0.35799  0.91798  1.0000
  H   H1209     1.0  0.96696  0.42751  0.79929  1.0000
  H   H1210     1.0  0.76397  0.27811  0.80488  1.0000
  H   H1211     1.0  0.90970  0.34641  0.80002  1.0000
  H   H1212     1.0  0.75500  0.26074  0.63117  1.0000
  H   H1213     1.0  0.58768  0.45063  0.70229  1.0000
  H   H1214     1.0  0.93545  0.33956  0.80626  1.0000
  H   H1215     1.0  0.97393  0.46559  0.59461  1.0000
  H   H1216     1.0  0.49835  0.27657  0.87172  1.0000
  H   H1217     1.0  0.95453  0.25930  0.95410  1.0000
  H   H1218     1.0  0.68857  0.24811  0.74708  1.0000
  H   H1219     1.0  0.94235  0.45935  0.57294  1.0000
  S   S280      1.0  0.95500  0.36245  0.84384  1.0000
  H   H1220     1.0  0.90365  0.30697  0.76955  1.0000
  H   H1221     1.0  0.63914  0.28929  0.75629  1.0000
  H   H1222     1.0  0.94775  0.40343  0.82739  1.0000
  H   H1223     1.0  0.79696  0.26365  0.58005  1.0000
  H   H1224     1.0  0.58994  0.28642  0.78799  1.0000
  H   H1225     1.0  0.75725  0.26132  0.87189  1.0000
  N   N67       1.0  0.84968  0.42647  0.71285  1.0000
  C   C1026     1.0  0.84208  0.44724  0.71784  1.0000
  C   C1027     1.0  0.85521  0.42501  0.68533  1.0000
  C   C1028     1.0  0.83265  0.41247  0.71815  1.0000
  C   C1029     1.0  0.86776  0.42210  0.72836  1.0000
  C   C1030     1.0  0.88504  0.43454  0.72572  1.0000
  C   C1031     1.0  0.86887  0.40571  0.74633  1.0000
  C   C1032     1.0  0.90222  0.43101  0.74028  1.0000
  C   C1033     1.0  0.88613  0.40236  0.76095  1.0000
  C   C1034     1.0  0.90271  0.41504  0.75803  1.0000
  H   H1226     1.0  0.82827  0.45099  0.70680  1.0000
  H   H1227     1.0  0.83834  0.44921  0.73848  1.0000
  H   H1228     1.0  0.85322  0.45896  0.71202  1.0000
  H   H1229     1.0  0.86732  0.43553  0.67930  1.0000
  H   H1230     1.0  0.84214  0.42882  0.67307  1.0000
  H   H1231     1.0  0.86038  0.40946  0.68046  1.0000
  H   H1232     1.0  0.82721  0.41307  0.73841  1.0000
  H   H1233     1.0  0.81939  0.41632  0.70606  1.0000
  H   H1234     1.0  0.83687  0.39664  0.71339  1.0000
  H   H1235     1.0  0.88537  0.44721  0.71237  1.0000
  H   H1236     1.0  0.85658  0.39534  0.74951  1.0000
  S   S281      1.0  0.78243  0.24755  0.76577  1.0000
  H   H1237     1.0  0.88667  0.38989  0.77468  1.0000
  H   H1238     1.0  0.93801  0.33862  0.92019  1.0000
  C   C1035     1.0  0.55795  0.46828  0.75091  1.0000
  C   C1036     1.0  0.93011  0.35062  0.75579  1.0000
  C   C1037     1.0  0.67326  0.25105  0.75412  1.0000
  H   H1239     1.0  0.80187  0.28832  0.60942  1.0000
  C   C1038     1.0  0.66414  0.26980  0.74954  1.0000
  Fe  Fe144     1.0  0.97857  0.28673  0.86210  1.0000
  H   H1240     1.0  0.95630  0.32202  0.77467  1.0000
  C   C1039     1.0  0.93265  0.35706  0.96789  1.0000
  H   H1241     1.0  0.90523  0.35177  0.72859  1.0000
  H   H1242     1.0  0.54204  0.46080  0.70586  1.0000
  Fe  Fe145     1.0  0.49796  0.46450  0.75975  1.0000
  H   H1243     1.0  0.94528  0.40150  0.72096  1.0000
  H   H1244     1.0  0.77519  0.28508  0.60321  1.0000
  C   C1040     1.0  0.90677  0.32156  0.75930  1.0000
  H   H1245     1.0  0.59819  0.45262  0.76402  1.0000
  C   C1041     1.0  0.96940  0.36364  0.91666  1.0000
  C   C1042     1.0  0.97278  0.41236  0.80261  1.0000
  C   C1043     1.0  0.94103  0.38744  0.73055  1.0000
  H   H1246     1.0  0.75342  0.25941  0.82589  1.0000
  H   H1247     1.0  0.91605  0.41243  0.76941  1.0000
  N   N68       1.0  0.61370  0.26369  0.78625  1.0000
  S   S282      1.0  0.85064  0.48435  0.66542  1.0000
  H   H1248     1.0  0.92771  0.39402  0.92120  1.0000
  S   S283      1.0  0.94264  0.46779  0.69553  1.0000
  H   H1249     1.0  0.69402  0.32617  0.84039  1.0000
  C   C1044     1.0  0.72995  0.29343  0.86286  1.0000
  H   H1250     1.0  0.93887  0.30180  0.77504  1.0000
  H   H1251     1.0  0.97446  0.34904  0.92542  1.0000
  N   N69       1.0  0.98601  0.25244  0.94482  1.0000
  C   C1045     1.0  0.56574  0.41578  0.74706  1.0000
  H   H1252     1.0  0.76644  0.25000  0.65925  1.0000
  C   C1046     1.0  0.76839  0.27366  0.86911  1.0000
  H   H1253     1.0  0.75242  0.31273  0.80826  1.0000
  C   C1047     1.0  0.64007  0.33345  0.98240  1.0000
  N   N70       1.0  0.92511  0.33126  0.76903  1.0000
  H   H1254     1.0  0.91798  0.45140  0.65728  1.0000
  C   C1048     1.0  0.77108  0.47504  0.55098  1.0000
  H   H1255     1.0  0.55228  0.41239  0.73680  1.0000
  H   H1256     1.0  0.56729  0.38509  0.76164  1.0000
  C   C1049     1.0  0.91720  0.47325  0.68725  1.0000
  H   H1257     1.0  0.97138  0.27498  0.98487  1.0000
  C   C1050     1.0  0.64363  0.24049  0.77867  1.0000
  H   H1258     1.0  0.78057  0.26208  0.82280  1.0000
  H   H1259     1.0  0.76242  0.27653  0.65672  1.0000
  H   H1260     1.0  0.91020  0.47511  0.58804  1.0000
  C   C1051     1.0  0.87653  0.48020  0.67277  1.0000
  H   H1261     1.0  0.53131  0.24637  0.80611  1.0000
  C   C1052     1.0  0.95256  0.37975  0.75054  1.0000
  C   C1053     1.0  0.92159  0.33466  0.79673  1.0000
  H   H1262     1.0  0.81802  0.26774  0.64421  1.0000
  H   H1263     1.0  0.79731  0.29137  0.84363  1.0000
  H   H1264     1.0  0.53513  0.44161  0.72872  1.0000
  H   H1265     1.0  0.64715  0.31832  0.94734  1.0000
  C   C1054     1.0  0.98765  0.47006  0.64708  1.0000
  H   H1266     1.0  0.95667  0.35638  0.77848  1.0000
  C   C1055     1.0  0.96033  0.47308  0.60157  1.0000
  H   H1267     1.0  0.76442  0.46613  0.53559  1.0000
  N   N71       1.0  0.76521  0.28514  0.84477  1.0000
  C   C1056     1.0  0.94327  0.38934  0.91498  1.0000
  C   C1057     1.0  0.94721  0.36168  0.76306  1.0000
  H   H1268     1.0  0.66637  0.29066  0.96858  1.0000
  H   H1269     1.0  0.54600  0.46196  0.76408  1.0000
  H   H1270     1.0  0.90859  0.31787  0.73872  1.0000
  H   H1271     1.0  0.91669  0.32062  0.80710  1.0000
  C   C1058     1.0  0.78242  0.29919  0.84111  1.0000
  H   H1272     1.0  0.60376  0.28581  0.75817  1.0000
  C   C1059     1.0  0.78679  0.28492  0.61827  1.0000
  S   S284      1.0  0.49595  0.46710  0.71684  1.0000
  H   H1273     1.0  0.59350  0.46872  0.72602  1.0000
  S   S285      1.0  0.81205  0.47969  0.60808  1.0000
  C   C1060     1.0  0.59899  0.24847  0.77826  1.0000
  H   H1274     1.0  0.72060  0.33170  0.80710  1.0000
  S   S286      1.0  0.96913  0.47279  0.76582  1.0000
  C   C1061     1.0  0.71162  0.30419  0.86148  1.0000
  C   C1062     1.0  0.63393  0.25951  0.77456  1.0000
  H   H1275     1.0  0.91504  0.38326  0.70757  1.0000
  H   H1276     1.0  0.98054  0.37523  0.92156  1.0000
  H   H1277     1.0  0.52481  0.24130  0.90047  1.0000
  H   H1278     1.0  0.89301  0.33118  0.76219  1.0000
  C   C1063     1.0  0.76688  0.26302  0.64548  1.0000
  C   C1064     1.0  0.58096  0.46204  0.71542  1.0000
  C   C1065     1.0  0.92403  0.37711  0.72306  1.0000
  N   N72       1.0  0.94844  0.36893  0.92524  1.0000
  C   C1066     1.0  0.70843  0.31819  0.84170  1.0000
  H   H1279     1.0  0.63146  0.34536  0.97289  1.0000
  C   C1067     1.0  0.91853  0.35897  0.73543  1.0000
  C   C1068     1.0  0.52995  0.24526  0.82674  1.0000
  H   H1280     1.0  0.88250  0.45778  0.64435  1.0000
  H   H1281     1.0  0.84023  0.46672  0.49181  1.0000
  C   C1069     1.0  0.88866  0.46607  0.65989  1.0000
  C   C1070     1.0  0.65959  0.30255  0.97998  1.0000
  C   C1071     1.0  0.93468  0.35439  0.91358  1.0000
  C   C1072     1.0  0.76587  0.27052  0.82378  1.0000
  H   H1282     1.0  0.78297  0.29784  0.63093  1.0000
  C   C1073     1.0  0.60529  0.28391  0.77922  1.0000
  H   H1283     1.0  0.57453  0.47462  0.70344  1.0000
  C   C1074     1.0  0.98765  0.37295  0.81164  1.0000
  H   H1284     1.0  0.76168  0.47257  0.56864  1.0000
  H   H1285     1.0  0.97622  0.46315  0.66047  1.0000
  C   C1075     1.0  0.54804  0.44744  0.71675  1.0000
  H   H1286     1.0  0.76740  0.28379  0.88580  1.0000
  H   H1287     1.0  0.55251  0.43590  0.70248  1.0000
  H   H1288     1.0  0.88895  0.26215  0.77304  1.0000
  H   H1289     1.0  0.96580  0.38783  0.75632  1.0000
  H   H1290     1.0  0.98024  0.28462  0.94366  1.0000
  H   H1291     1.0  0.95384  0.40098  0.92142  1.0000
  C   C1076     1.0  0.82666  0.45779  0.49183  1.0000
  H   H1292     1.0  0.77852  0.42535  0.49156  1.0000
  H   H1293     1.0  0.50551  0.30209  0.83778  1.0000
  C   C1077     1.0  0.61508  0.26263  0.81447  1.0000
  H   H1294     1.0  0.57014  0.47393  0.76297  1.0000
  H   H1295     1.0  0.98344  0.27361  0.91324  1.0000
  H   H1296     1.0  0.62025  0.24759  0.82167  1.0000
  Fe  Fe146     1.0  0.78788  0.24488  0.72306  1.0000
  C   C1078     1.0  0.79189  0.43458  0.49154  1.0000
  H   H1297     1.0  0.95852  0.24671  0.92482  1.0000
  H   H1298     1.0  0.59820  0.24812  0.75704  1.0000
  H   H1299     1.0  0.97133  0.39027  0.95821  1.0000
  H   H1300     1.0  0.58344  0.25184  0.78602  1.0000
  C   C1079     1.0  0.96416  0.24759  0.94466  1.0000
  H   H1301     1.0  0.60268  0.29103  0.98455  1.0000
  Fe  Fe147     1.0  0.66172  0.60805  0.33546  1.0000
  S   S287      1.0  0.63209  0.60663  0.35758  1.0000
  S   S288      1.0  0.66691  0.63620  0.30898  1.0000
  Fe  Fe148     1.0  0.67134  0.56319  0.35068  1.0000
  S   S289      1.0  0.64224  0.55987  0.37393  1.0000
  S   S290      1.0  0.68817  0.53313  0.34438  1.0000
  Fe  Fe149     1.0  0.62716  0.57597  0.34075  1.0000
  S   S291      1.0  0.59927  0.56837  0.31670  1.0000
  Fe  Fe150     1.0  0.64968  0.59059  0.38888  1.0000
  S   S292      1.0  0.64748  0.60403  0.42923  1.0000
  S   S293      1.0  0.65601  0.57819  0.31716  1.0000
  S   S294      1.0  0.67967  0.59310  0.36725  1.0000
  S   S295      1.0  0.70748  0.72407  0.29518  1.0000
  H   H1302     1.0  0.92364  0.52190  0.31628  1.0000
  S   S296      1.0  0.51088  0.49554  0.21597  1.0000
  S   S297      1.0  0.53255  0.50269  0.28823  1.0000
  H   H1303     1.0  0.70318  0.53296  0.40131  1.0000
  C   C1080     1.0  0.66586  0.69731  0.38736  1.0000
  S   S298      1.0  0.97206  0.69515  0.11725  1.0000
  H   H1304     1.0  0.64521  0.55016  0.27797  1.0000
  Fe  Fe151     1.0  0.50757  0.49583  0.25933  1.0000
  C   C1081     1.0  0.63205  0.65450  0.39275  1.0000
  C   C1082     1.0  0.84063  0.51956  0.37097  1.0000
  H   H1305     1.0  0.93758  0.69906  0.01122  1.0000
  N   N73       1.0  0.84419  0.52043  0.34281  1.0000
  H   H1306     1.0  0.64857  0.62352  0.47778  1.0000
  H   H1307     1.0  0.65606  0.64848  0.43130  1.0000
  H   H1308     1.0  0.62962  0.64069  0.40498  1.0000
  H   H1309     1.0  0.91091  0.49697  0.34833  1.0000
  N   N74       1.0  0.65338  0.66122  0.39309  1.0000
  C   C1083     1.0  0.58005  0.55040  0.31002  1.0000
  C   C1084     1.0  0.56857  0.55314  0.28778  1.0000
  C   C1085     1.0  0.55389  0.53898  0.28093  1.0000
  C   C1086     1.0  0.55034  0.52172  0.29626  1.0000
  C   C1087     1.0  0.56173  0.51904  0.31860  1.0000
  C   C1088     1.0  0.57636  0.53324  0.32551  1.0000
  H   H1310     1.0  0.57116  0.56630  0.27559  1.0000
  H   H1311     1.0  0.54539  0.54138  0.26369  1.0000
  H   H1312     1.0  0.55919  0.50583  0.33072  1.0000
  H   H1313     1.0  0.58477  0.53085  0.34282  1.0000
  C   C1089     1.0  0.64852  0.59398  0.46128  1.0000
  C   C1090     1.0  0.64874  0.57323  0.46694  1.0000
  C   C1091     1.0  0.74036  0.49977  0.34741  1.0000
  H   H1314     1.0  0.64837  0.56264  0.45153  1.0000
  C   C1092     1.0  0.88008  0.50790  0.34723  1.0000
  C   C1093     1.0  0.71409  0.52632  0.34779  1.0000
  C   C1094     1.0  0.72001  0.50599  0.34479  1.0000
  H   H1315     1.0  0.87518  0.49587  0.36015  1.0000
  C   C1095     1.0  0.75509  0.51386  0.35292  1.0000
  C   C1096     1.0  0.74918  0.53417  0.35601  1.0000
  C   C1097     1.0  0.72880  0.54038  0.35354  1.0000
  C   C1098     1.0  0.94411  0.59182  0.19046  1.0000
  H   H1316     1.0  0.63808  0.51036  0.33027  1.0000
  H   H1317     1.0  0.76044  0.54522  0.36027  1.0000
  H   H1318     1.0  0.72449  0.55606  0.35589  1.0000
  C   C1099     1.0  0.67895  0.66031  0.30516  1.0000
  C   C1100     1.0  0.69327  0.66715  0.32217  1.0000
  C   C1101     1.0  0.70187  0.68652  0.31864  1.0000
  C   C1102     1.0  0.69638  0.69947  0.29809  1.0000
  C   C1103     1.0  0.68220  0.69256  0.28094  1.0000
  C   C1104     1.0  0.67365  0.67316  0.28444  1.0000
  H   H1319     1.0  0.69785  0.65751  0.33797  1.0000
  H   H1320     1.0  0.71284  0.69155  0.33201  1.0000
  H   H1321     1.0  0.67776  0.70218  0.26501  1.0000
  H   H1322     1.0  0.66267  0.66814  0.27104  1.0000
  H   H1323     1.0  0.93749  0.58954  0.20945  1.0000
  C   C1105     1.0  0.72132  0.50859  0.41713  1.0000
  C   C1106     1.0  0.95989  0.57799  0.15259  1.0000
  C   C1107     1.0  0.96858  0.63659  0.12000  1.0000
  H   H1324     1.0  0.92962  0.64714  0.16105  1.0000
  H   H1325     1.0  0.84734  0.53278  0.38020  1.0000
  C   C1108     1.0  0.87398  0.53634  0.31840  1.0000
  H   H1326     1.0  0.72996  0.50729  0.39947  1.0000
  C   C1109     1.0  0.95540  0.61476  0.15555  1.0000
  H   H1327     1.0  0.57827  0.48953  0.27331  1.0000
  C   C1110     1.0  0.86608  0.52199  0.33652  1.0000
  C   C1111     1.0  0.96420  0.72096  0.11844  1.0000
  C   C1112     1.0  0.89456  0.53636  0.31146  1.0000
  C   C1113     1.0  0.96221  0.59742  0.14206  1.0000
  H   H1328     1.0  0.82007  0.50007  0.33540  1.0000
  C   C1114     1.0  0.93795  0.64565  0.14248  1.0000
  C   C1115     1.0  0.98608  0.68179  0.01196  1.0000
  H   H1329     1.0  0.82414  0.51934  0.37608  1.0000
  C   C1116     1.0  0.69399  0.52558  0.44000  1.0000
  S   S299      1.0  0.96453  0.49588  0.21313  1.0000
  C   C1117     1.0  0.83183  0.53755  0.33254  1.0000
  H   H1330     1.0  0.93948  0.66129  0.13427  1.0000
  H   H1331     1.0  0.94052  0.62373  0.19133  1.0000
  H   H1332     1.0  0.86454  0.54745  0.30892  1.0000
  H   H1333     1.0  0.90026  0.54706  0.29715  1.0000
  H   H1334     1.0  0.76075  0.49530  0.40891  1.0000
  C   C1118     1.0  0.90783  0.52229  0.32234  1.0000
  H   H1335     1.0  0.67528  0.66586  0.42233  1.0000
  H   H1336     1.0  0.97000  0.59840  0.12368  1.0000
  H   H1337     1.0  0.62731  0.65032  0.37336  1.0000
  C   C1119     1.0  0.66904  0.71455  0.37190  1.0000
  C   C1120     1.0  0.64921  0.68161  0.35233  1.0000
  H   H1338     1.0  0.81555  0.53621  0.33847  1.0000
  C   C1121     1.0  0.59459  0.48756  0.27442  1.0000
  N   N75       1.0  0.95799  0.63563  0.14535  1.0000
  H   H1339     1.0  0.83935  0.50149  0.31077  1.0000
  H   H1340     1.0  0.64249  0.66890  0.34327  1.0000
  N   N76       1.0  0.63997  0.51926  0.29044  1.0000
  C   C1122     1.0  0.66219  0.51568  0.28812  1.0000
  H   H1341     1.0  0.49198  0.54798  0.13968  1.0000
  C   C1123     1.0  0.63507  0.52369  0.31754  1.0000
  C   C1124     1.0  0.62784  0.50187  0.28279  1.0000
  S   S300      1.0  0.98718  0.50985  0.26427  1.0000
  H   H1342     1.0  0.63640  0.53395  0.25362  1.0000
  H   H1343     1.0  0.67721  0.72723  0.37909  1.0000
  C   C1125     1.0  0.60653  0.50384  0.28081  1.0000
  H   H1344     1.0  0.97314  0.66286  0.15561  1.0000
  H   H1345     1.0  0.83712  0.55226  0.33955  1.0000
  H   H1346     1.0  0.70876  0.49499  0.34037  1.0000
  H   H1347     1.0  0.68767  0.51471  0.47825  1.0000
  H   H1348     1.0  0.96216  0.64936  0.18208  1.0000
  H   H1349     1.0  0.50956  0.71356  0.18106  1.0000
  C   C1126     1.0  0.71256  0.49818  0.46062  1.0000
  H   H1350     1.0  0.97019  0.65242  0.11279  1.0000
  H   H1351     1.0  0.64425  0.53629  0.32445  1.0000
  H   H1352     1.0  0.61895  0.52818  0.32049  1.0000
  H   H1353     1.0  0.61955  0.54341  0.27822  1.0000
  H   H1354     1.0  0.96020  0.62853  0.10523  1.0000
  H   H1355     1.0  0.83200  0.53797  0.31125  1.0000
  H   H1356     1.0  0.92829  0.63706  0.12954  1.0000
  Fe  Fe152     1.0  0.96255  0.48793  0.25520  1.0000
  H   H1357     1.0  0.84708  0.50566  0.38004  1.0000
  C   C1127     1.0  0.65583  0.68023  0.37795  1.0000
  S   S301      1.0  0.78094  0.50680  0.35631  1.0000
  H   H1358     1.0  0.66541  0.72845  0.33463  1.0000
  H   H1359     1.0  0.66231  0.64220  0.36174  1.0000
  C   C1128     1.0  0.66657  0.64543  0.38162  1.0000
  C   C1129     1.0  0.65889  0.66287  0.42035  1.0000
  H   H1360     1.0  0.64751  0.69948  0.31750  1.0000
  C   C1130     1.0  0.66228  0.71538  0.34688  1.0000
  H   H1361     1.0  0.66568  0.63094  0.39269  1.0000
  H   H1362     1.0  0.68268  0.65007  0.38085  1.0000
  H   H1363     1.0  0.64981  0.67488  0.42999  1.0000
  H   H1364     1.0  0.67080  0.52940  0.29293  1.0000
  C   C1131     1.0  0.97805  0.73672  0.11866  1.0000
  C   C1132     1.0  0.65219  0.69903  0.33724  1.0000
  C   C1133     1.0  0.95169  0.69242  0.00428  1.0000
  C   C1134     1.0  0.83661  0.50168  0.33184  1.0000
  H   H1365     1.0  0.67179  0.69759  0.40637  1.0000
  C   C1135     1.0  0.72520  0.49561  0.43845  1.0000
  H   H1366     1.0  0.93249  0.71372  0.11935  1.0000
  C   C1136     1.0  0.96999  0.64736  0.16329  1.0000
  H   H1367     1.0  0.62150  0.66649  0.39975  1.0000
  C   C1137     1.0  0.94605  0.61132  0.17997  1.0000
  C   C1138     1.0  0.64879  0.60745  0.48178  1.0000
  C   C1139     1.0  0.70597  0.52334  0.41798  1.0000
  C   C1140     1.0  0.69723  0.51300  0.46124  1.0000
  C   C1141     1.0  0.95109  0.57520  0.17683  1.0000
  H   H1368     1.0  0.68205  0.53700  0.44050  1.0000
  C   C1142     1.0  0.63506  0.53735  0.27432  1.0000
  H   H1369     1.0  0.96574  0.56503  0.14231  1.0000
  C   C1143     1.0  0.94337  0.72575  0.11949  1.0000
  H   H1370     1.0  0.98417  0.63008  0.12100  1.0000
  H   H1371     1.0  0.66686  0.51158  0.26832  1.0000
  H   H1372     1.0  0.95018  0.56014  0.18532  1.0000
  H   H1373     1.0  0.66746  0.50378  0.30188  1.0000
  H   H1374     1.0  0.96645  0.69517  0.04039  1.0000
  H   H1375     1.0  0.59883  0.51797  0.28448  1.0000
  C   C1144     1.0  0.96790  0.69026  0.02076  1.0000
  H   H1376     1.0  0.98481  0.63980  0.16687  1.0000
  H   H1377     1.0  0.76502  0.50112  0.44171  1.0000
  C   C1145     1.0  0.49360  0.71658  0.18479  1.0000
  C   C1146     1.0  0.76088  0.48885  0.42874  1.0000
  C   C1147     1.0  0.90063  0.50825  0.34039  1.0000
  H   H1378     1.0  0.49202  0.71202  0.11530  1.0000
  S   S302      1.0  0.92879  0.48909  0.26697  1.0000
  H   H1379     1.0  0.67519  0.73117  0.15247  1.0000
  H   H1380     1.0  0.88556  0.48833  0.27068  1.0000
  H   H1381     1.0  0.71407  0.48891  0.47772  1.0000
  H   H1382     1.0  0.84410  0.48798  0.34017  1.0000
  H   H1383     1.0  0.94039  0.50385  0.64784  1.0000
  C   C1148     1.0  0.74451  0.61065  0.65692  1.0000
  S   S303      1.0  0.53459  0.50479  0.68951  1.0000
  Fe  Fe153     1.0  0.63405  0.57388  0.64206  1.0000
  S   S304      1.0  0.66176  0.58762  0.65915  1.0000
  S   S305      1.0  0.60786  0.56748  0.67144  1.0000
  Fe  Fe154     1.0  0.65142  0.58037  0.58680  1.0000
  S   S306      1.0  0.67928  0.59532  0.60066  1.0000
  S   S307      1.0  0.64867  0.56957  0.54531  1.0000
  Fe  Fe155     1.0  0.68039  0.57021  0.63022  1.0000
  S   S308      1.0  0.71266  0.56000  0.63954  1.0000
  Fe  Fe156     1.0  0.65931  0.61205  0.62906  1.0000
  S   S309      1.0  0.66385  0.64609  0.63719  1.0000
  S   S310      1.0  0.65320  0.55432  0.61570  1.0000
  S   S311      1.0  0.63085  0.59919  0.61255  1.0000
  S   S312      1.0  0.69060  0.71018  0.72138  1.0000
  H   H1384     1.0  0.58234  0.63462  0.70246  1.0000
  H   H1385     1.0  0.71778  0.69386  0.76130  1.0000
  S   S313      1.0  0.98490  0.50678  0.72302  1.0000
  H   H1386     1.0  0.79735  0.50360  0.56793  1.0000
  C   C1149     1.0  0.62819  0.67573  0.73146  1.0000
  H   H1387     1.0  0.80238  0.49092  0.52653  1.0000
  C   C1150     1.0  0.73563  0.66879  0.69074  1.0000
  H   H1388     1.0  0.78054  0.52440  0.56131  1.0000
  H   H1389     1.0  0.64497  0.62139  0.68930  1.0000
  H   H1390     1.0  0.73842  0.63253  0.76363  1.0000
  H   H1391     1.0  0.70596  0.62618  0.61954  1.0000
  H   H1392     1.0  0.71573  0.65777  0.62359  1.0000
  C   C1151     1.0  0.97191  0.67724  0.96943  1.0000
  H   H1393     1.0  0.76990  0.51169  0.63755  1.0000
  C   C1152     1.0  0.71458  0.52491  0.52974  1.0000
  C   C1153     1.0  0.61019  0.62805  0.66461  1.0000
  H   H1394     1.0  0.75961  0.51790  0.49919  1.0000
  H   H1395     1.0  0.49469  0.70279  0.95131  1.0000
  C   C1154     1.0  0.71805  0.51419  0.55244  1.0000
  C   C1155     1.0  0.64891  0.56614  0.49267  1.0000
  C   C1156     1.0  0.72367  0.53573  0.63443  1.0000
  C   C1157     1.0  0.74455  0.53281  0.63805  1.0000
  C   C1158     1.0  0.75385  0.51371  0.63465  1.0000
  N   N77       1.0  0.72557  0.62223  0.65178  1.0000
  H   H1396     1.0  0.74051  0.67230  0.70971  1.0000
  C   C1159     1.0  0.71216  0.51933  0.62730  1.0000
  H   H1397     1.0  0.75359  0.54536  0.64366  1.0000
  H   H1398     1.0  0.94339  0.66393  0.93552  1.0000
  N   N78       1.0  0.97465  0.67034  0.94280  1.0000
  H   H1399     1.0  0.69608  0.52131  0.62455  1.0000
  C   C1160     1.0  0.67117  0.66360  0.66113  1.0000
  C   C1161     1.0  0.67614  0.65758  0.68612  1.0000
  C   C1162     1.0  0.68191  0.67201  0.70408  1.0000
  C   C1163     1.0  0.68269  0.69280  0.69767  1.0000
  C   C1164     1.0  0.67755  0.69886  0.67278  1.0000
  C   C1165     1.0  0.67191  0.68440  0.65474  1.0000
  H   H1400     1.0  0.67550  0.64185  0.69177  1.0000
  H   H1401     1.0  0.68572  0.66703  0.72320  1.0000
  H   H1402     1.0  0.67804  0.71469  0.66733  1.0000
  H   H1403     1.0  0.66809  0.68942  0.63561  1.0000
  H   H1404     1.0  0.49533  0.60142  0.72615  1.0000
  C   C1166     1.0  0.64905  0.57961  0.51319  1.0000
  C   C1167     1.0  0.64914  0.60036  0.50750  1.0000
  C   C1168     1.0  0.72973  0.52587  0.51076  1.0000
  H   H1405     1.0  0.64919  0.61094  0.52293  1.0000
  C   C1169     1.0  0.96169  0.72168  0.85665  1.0000
  H   H1406     1.0  0.64871  0.55007  0.49674  1.0000
  H   H1407     1.0  0.71126  0.61427  0.68815  1.0000
  C   C1170     1.0  0.55498  0.52232  0.68514  1.0000
  C   C1171     1.0  0.55885  0.53741  0.70264  1.0000
  C   C1172     1.0  0.57504  0.55093  0.69810  1.0000
  C   C1173     1.0  0.58774  0.54965  0.67608  1.0000
  C   C1174     1.0  0.58391  0.53448  0.65865  1.0000
  C   C1175     1.0  0.56770  0.52099  0.66316  1.0000
  H   H1408     1.0  0.54935  0.53874  0.71966  1.0000
  H   H1409     1.0  0.57776  0.56249  0.71183  1.0000
  H   H1410     1.0  0.59341  0.53318  0.64162  1.0000
  H   H1411     1.0  0.56499  0.50945  0.64940  1.0000
  C   C1176     1.0  0.62151  0.66725  0.68029  1.0000
  H   H1412     1.0  0.72038  0.60331  0.61949  1.0000
  H   H1413     1.0  0.94052  0.68832  0.96715  1.0000
  C   C1177     1.0  0.59522  0.62411  0.70648  1.0000
  C   C1178     1.0  0.73003  0.68442  0.67403  1.0000
  H   H1414     1.0  0.59750  0.63786  0.65791  1.0000
  C   C1179     1.0  0.74609  0.72191  0.73960  1.0000
  N   N79       1.0  0.75470  0.71224  0.76286  1.0000
  C   C1180     1.0  0.73671  0.50457  0.55635  1.0000
  C   C1181     1.0  0.49622  0.58651  0.76295  1.0000
  C   C1182     1.0  0.74227  0.49726  0.62785  1.0000
  H   H1415     1.0  0.87576  0.50212  0.70266  1.0000
  H   H1416     1.0  0.61987  0.66494  0.66007  1.0000
  H   H1417     1.0  0.97217  0.51896  0.65014  1.0000
  C   C1183     1.0  0.49084  0.60220  0.74618  1.0000
  C   C1184     1.0  0.98057  0.64863  0.94289  1.0000
  H   H1418     1.0  0.77395  0.64360  0.76509  1.0000
  H   H1419     1.0  0.70021  0.53274  0.52708  1.0000
  C   C1185     1.0  0.61896  0.65147  0.69894  1.0000
  H   H1420     1.0  0.62761  0.60090  0.69417  1.0000
  C   C1186     1.0  0.76629  0.67536  0.76397  1.0000
  C   C1187     1.0  0.78123  0.50779  0.56489  1.0000
  C   C1188     1.0  0.62715  0.68660  0.68725  1.0000
  H   H1421     1.0  0.59066  0.60864  0.70101  1.0000
  Fe  Fe157     1.0  0.50947  0.49809  0.72003  1.0000
  H   H1422     1.0  0.95895  0.66728  0.90732  1.0000
  H   H1423     1.0  0.72702  0.53451  0.49328  1.0000
  C   C1189     1.0  0.74846  0.51622  0.51445  1.0000
  H   H1424     1.0  0.63569  0.70565  0.71784  1.0000
  C   C1190     1.0  0.62238  0.65637  0.72478  1.0000
  C   C1191     1.0  0.72190  0.66000  0.64222  1.0000
  C   C1192     1.0  0.72325  0.68002  0.64983  1.0000
  H   H1425     1.0  0.75775  0.61780  0.64702  1.0000
  H   H1426     1.0  0.71059  0.65795  0.76161  1.0000
  H   H1427     1.0  0.73276  0.62660  0.61159  1.0000
  C   C1193     1.0  0.96651  0.72906  0.83201  1.0000
  C   C1194     1.0  0.49427  0.51306  0.62761  1.0000
  H   H1428     1.0  0.63113  0.67907  0.75122  1.0000
  C   C1195     1.0  0.72102  0.61959  0.62438  1.0000
  N   N80       1.0  0.61380  0.63057  0.69228  1.0000
  C   C1196     1.0  0.72618  0.66277  0.76228  1.0000
  H   H1429     1.0  0.75183  0.71449  0.72194  1.0000
  H   H1430     1.0  0.70710  0.59694  0.66322  1.0000
  H   H1431     1.0  0.63347  0.61648  0.72020  1.0000
  C   C1197     1.0  0.63065  0.69079  0.71271  1.0000
  H   H1432     1.0  0.62953  0.69826  0.67265  1.0000
  S   S314      1.0  0.97375  0.69989  0.87031  1.0000
  C   C1198     1.0  0.63069  0.61677  0.69936  1.0000
  H   H1433     1.0  0.78392  0.71123  0.78057  1.0000
  H   H1434     1.0  0.49856  0.73636  0.93020  1.0000
  H   H1435     1.0  0.73884  0.49694  0.57457  1.0000
  C   C1199     1.0  0.74181  0.64849  0.76331  1.0000
  H   H1436     1.0  0.69422  0.62087  0.66301  1.0000
  N   N81       1.0  0.97996  0.48940  0.63602  1.0000
  C   C1200     1.0  0.95624  0.67271  0.92719  1.0000
  C   C1201     1.0  0.78751  0.49795  0.52152  1.0000
  S   S315      1.0  0.51275  0.49488  0.76273  1.0000
  C   C1202     1.0  0.72761  0.64365  0.65876  1.0000
  H   H1437     1.0  0.95162  0.68888  0.92484  1.0000
  H   H1438     1.0  0.49490  0.49333  0.67110  1.0000
  C   C1203     1.0  0.70886  0.61321  0.66729  1.0000
  H   H1439     1.0  0.60616  0.61220  0.66030  1.0000
  H   H1440     1.0  0.98219  0.64276  0.92314  1.0000
  H   H1441     1.0  0.73029  0.69996  0.68010  1.0000
  C   C1204     1.0  0.72140  0.50020  0.62421  1.0000
  H   H1442     1.0  0.73819  0.63713  0.69735  1.0000
  H   H1443     1.0  0.62397  0.63148  0.65273  1.0000
  H   H1444     1.0  0.50512  0.50285  0.61741  1.0000
  H   H1445     1.0  0.59722  0.62340  0.72749  1.0000
  H   H1446     1.0  0.49440  0.57491  0.80151  1.0000
  H   H1447     1.0  0.74767  0.60919  0.67762  1.0000
  H   H1448     1.0  0.62098  0.64513  0.73997  1.0000
  H   H1449     1.0  0.77295  0.50459  0.58332  1.0000
  H   H1450     1.0  0.50319  0.52029  0.64271  1.0000
  H   H1451     1.0  0.71827  0.69222  0.63719  1.0000
  H   H1452     1.0  0.78208  0.67916  0.76476  1.0000
  C   C1205     1.0  0.73435  0.64870  0.68337  1.0000
  H   H1453     1.0  0.74363  0.59479  0.65020  1.0000
  H   H1454     1.0  0.75097  0.71427  0.80373  1.0000
  C   C1206     1.0  0.75256  0.50539  0.53761  1.0000
  C   C1207     1.0  0.73047  0.68336  0.76214  1.0000
  C   C1208     1.0  0.76181  0.65477  0.76413  1.0000
  H   H1455     1.0  0.94259  0.72615  0.89012  1.0000
  C   C1209     1.0  0.77655  0.71721  0.76300  1.0000
  H   H1456     1.0  0.98688  0.69851  0.92864  1.0000
  H   H1457     1.0  0.78477  0.71144  0.74579  1.0000
  C   C1210     1.0  0.75066  0.69032  0.76298  1.0000
  N   N82       1.0  0.77275  0.49669  0.54338  1.0000
  H   H1458     1.0  0.96921  0.63929  0.95355  1.0000
  H   H1459     1.0  0.97806  0.72149  0.82063  1.0000
  H   H1460     1.0  0.90978  0.49730  0.62537  1.0000
  H   H1461     1.0  0.79083  0.51386  0.51590  1.0000
  H   H1462     1.0  0.70639  0.51373  0.56743  1.0000
  C   C1211     1.0  0.49047  0.58738  0.78866  1.0000
  C   C1212     1.0  0.97788  0.50400  0.65708  1.0000
  H   H1463     1.0  0.50464  0.57348  0.75604  1.0000
  C   C1213     1.0  0.74499  0.72127  0.78586  1.0000
  H   H1464     1.0  0.96754  0.49829  0.67261  1.0000
  H   H1465     1.0  0.72931  0.72147  0.73965  1.0000
  H   H1466     1.0  0.72832  0.71946  0.78647  1.0000
  C   C1214     1.0  0.94651  0.73171  0.87108  1.0000
  C   C1215     1.0  0.94189  0.49456  0.63118  1.0000
  H   H1467     1.0  0.78219  0.48967  0.50473  1.0000
  C   C1216     1.0  0.95358  0.68610  0.97893  1.0000
  C   C1217     1.0  0.92401  0.49083  0.61844  1.0000
  H   H1468     1.0  0.91144  0.49606  0.71524  1.0000
  C   C1218     1.0  0.88498  0.49108  0.69263  1.0000
  H   H1469     1.0  0.77887  0.73388  0.76283  1.0000
  C   C1219     1.0  0.90521  0.48766  0.69984  1.0000
  H   H1470     1.0  0.48926  0.52536  0.61428  1.0000
  H   H1471     1.0  0.71230  0.48757  0.61895  1.0000
  C   C1220     1.0  0.98806  0.67534  0.98676  1.0000
  Fe  Fe158     1.0  0.89762  0.84571  0.14128  1.0000
  S   S316      1.0  0.89627  0.81454  0.15912  1.0000
  S   S317      1.0  0.90649  0.87006  0.16992  1.0000
  Fe  Fe159     1.0  0.88376  0.82907  0.08934  1.0000
  S   S318      1.0  0.88176  0.79691  0.10456  1.0000
  S   S319      1.0  0.87916  0.84113  0.04813  1.0000
  Fe  Fe160     1.0  0.86638  0.81074  0.13968  1.0000
  S   S320      1.0  0.84154  0.79757  0.16718  1.0000
  Fe  Fe161     1.0  0.91146  0.80321  0.12328  1.0000
  S   S321      1.0  0.94266  0.78750  0.12345  1.0000
  S   S322      1.0  0.86695  0.84262  0.12352  1.0000
  S   S323      1.0  0.91418  0.83462  0.10618  1.0000
  Fe  Fe162     1.0  0.66582  0.92947  0.35287  1.0000
  S   S324      1.0  0.67409  0.95497  0.32570  1.0000
  S   S325      1.0  0.65994  0.89692  0.34150  1.0000
  Fe  Fe163     1.0  0.65596  0.95874  0.39709  1.0000
  S   S326      1.0  0.64253  0.96409  0.43722  1.0000
  Fe  Fe164     1.0  0.64593  0.97056  0.34133  1.0000
  H   H1472     1.0  0.75002  0.85354  0.19670  1.0000
  Fe  Fe165     1.0  0.69035  0.96827  0.35892  1.0000
  S   S327      1.0  0.63706  0.94463  0.36712  1.0000
  S   S328      1.0  0.68391  0.94135  0.38531  1.0000
  H   H1473     1.0  0.68907  0.89544  0.37871  1.0000
  H   H1474     1.0  0.66341  0.86799  0.38045  1.0000
  C   C1221     1.0  0.55982  0.87446  0.20951  1.0000
  C   C1222     1.0  0.81115  0.83924  0.19387  1.0000
  C   C1223     1.0  0.69935  0.88535  0.38972  1.0000
  C   C1224     1.0  0.89472  0.97038  0.19874  1.0000
  H   H1475     1.0  0.68057  0.94368  0.45093  1.0000
  S   S329      1.0  0.54238  0.79312  0.09514  1.0000
  Fe  Fe166     1.0  0.51354  0.82820  0.14280  1.0000
  S   S330      1.0  0.53801  0.83929  0.11600  1.0000
  H   H1476     1.0  0.95694  0.80652  0.07670  1.0000
  Fe  Fe167     1.0  0.52355  0.82067  0.08609  1.0000
  S   S331      1.0  0.51459  0.83349  0.04709  1.0000
  Fe  Fe168     1.0  0.55485  0.81077  0.12752  1.0000
  S   S332      1.0  0.58825  0.81595  0.13518  1.0000
  S   S333      1.0  0.53093  0.80047  0.15603  1.0000
  Fe  Fe169     1.0  0.72381  0.77694  0.22203  1.0000
  S   S334      1.0  0.72938  0.77529  0.26432  1.0000
  S   S335      1.0  0.74593  0.78280  0.18760  1.0000
  Fe  Fe170     1.0  0.67729  0.77634  0.23181  1.0000
  S   S336      1.0  0.68032  0.77576  0.27478  1.0000
  S   S337      1.0  0.64593  0.77147  0.21547  1.0000
  Fe  Fe171     1.0  0.70458  0.79902  0.26791  1.0000
  S   S338      1.0  0.71358  0.82779  0.28832  1.0000
  Fe  Fe172     1.0  0.70451  0.75196  0.26789  1.0000
  S   S339      1.0  0.69968  0.80129  0.22548  1.0000
  S   S340      1.0  0.70081  0.75183  0.22519  1.0000
  H   H1477     1.0  0.50129  0.79286  0.04895  1.0000
  S   S341      1.0  0.97768  0.96351  0.25586  1.0000
  S   S342      1.0  0.97019  0.94146  0.18403  1.0000
  C   C1225     1.0  0.52273  0.82321  0.01739  1.0000
  H   H1478     1.0  0.58314  0.84424  0.22763  1.0000
  C   C1226     1.0  0.53800  0.80843  0.01593  1.0000
  H   H1479     1.0  0.54523  0.80305  0.03316  1.0000
  C   C1227     1.0  0.60344  0.80443  0.15913  1.0000
  C   C1228     1.0  0.62291  0.81194  0.16305  1.0000
  C   C1229     1.0  0.63596  0.80250  0.18079  1.0000
  C   C1230     1.0  0.62971  0.78526  0.19458  1.0000
  C   C1231     1.0  0.61009  0.77803  0.19099  1.0000
  C   C1232     1.0  0.59695  0.78763  0.17354  1.0000
  H   H1480     1.0  0.62810  0.82490  0.15194  1.0000
  H   H1481     1.0  0.65093  0.80832  0.18339  1.0000
  H   H1482     1.0  0.60510  0.76472  0.20157  1.0000
  H   H1483     1.0  0.58206  0.78164  0.17071  1.0000
  C   C1233     1.0  0.98269  0.88796  0.21244  1.0000
  H   H1484     1.0  0.55089  0.83341  0.20876  1.0000
  C   C1234     1.0  0.51705  0.88438  0.16399  1.0000
  C   C1235     1.0  0.52029  0.90492  0.16873  1.0000
  H   H1485     1.0  0.52722  0.87630  0.15127  1.0000
  H   H1486     1.0  0.53317  0.91241  0.15987  1.0000
  C   C1236     1.0  0.67216  0.94710  0.46833  1.0000
  C   C1237     1.0  0.65346  0.95716  0.46694  1.0000
  C   C1238     1.0  0.57603  0.86600  0.16899  1.0000
  C   C1239     1.0  0.62854  0.76710  0.12683  1.0000
  C   C1240     1.0  0.83175  0.83175  0.99847  1.0000
  H   H1487     1.0  0.70911  0.87760  0.37520  1.0000
  H   H1488     1.0  0.53453  0.92002  0.24548  1.0000
  H   H1489     1.0  0.53019  0.86054  0.21726  1.0000
  C   C1241     1.0  0.51213  0.89568  0.09279  1.0000
  H   H1490     1.0  0.59922  0.86148  0.21010  1.0000
  C   C1242     1.0  0.67503  0.87850  0.32535  1.0000
  C   C1243     1.0  0.66596  0.86042  0.31832  1.0000
  C   C1244     1.0  0.67739  0.84492  0.30651  1.0000
  C   C1245     1.0  0.69817  0.84719  0.30197  1.0000
  C   C1246     1.0  0.70728  0.86523  0.30916  1.0000
  C   C1247     1.0  0.69577  0.88088  0.32059  1.0000
  H   H1491     1.0  0.64994  0.85838  0.32199  1.0000
  H   H1492     1.0  0.67018  0.83111  0.30123  1.0000
  H   H1493     1.0  0.72335  0.86715  0.30580  1.0000
  H   H1494     1.0  0.70298  0.89468  0.32587  1.0000
  C   C1248     1.0  0.92446  0.88980  0.17328  1.0000
  C   C1249     1.0  0.93715  0.89652  0.15313  1.0000
  C   C1250     1.0  0.95098  0.91224  0.15686  1.0000
  C   C1251     1.0  0.95246  0.92150  0.18074  1.0000
  C   C1252     1.0  0.93991  0.91464  0.20096  1.0000
  C   C1253     1.0  0.92592  0.89908  0.19716  1.0000
  H   H1495     1.0  0.93616  0.88983  0.13455  1.0000
  H   H1496     1.0  0.96057  0.91735  0.14103  1.0000
  H   H1497     1.0  0.94113  0.92116  0.21960  1.0000
  H   H1498     1.0  0.91630  0.89401  0.21298  1.0000
  C   C1254     1.0  0.88110  0.83121  0.01662  1.0000
  C   C1255     1.0  0.53090  0.88963  0.23283  1.0000
  C   C1256     1.0  0.88254  0.81049  0.01215  1.0000
  C   C1257     1.0  0.93363  0.82038  0.00803  1.0000
  H   H1499     1.0  0.88214  0.79989  0.02812  1.0000
  C   C1258     1.0  0.95031  0.76168  0.12156  1.0000
  C   C1259     1.0  0.97113  0.75691  0.12028  1.0000
  C   C1260     1.0  0.96928  0.85357  0.18649  1.0000
  H   H1500     1.0  0.58607  0.89416  0.20725  1.0000
  C   C1261     1.0  0.68075  0.74387  0.16382  1.0000
  H   H1501     1.0  0.84976  0.97922  0.16849  1.0000
  H   H1502     1.0  0.89433  0.93286  0.15437  1.0000
  C   C1262     1.0  0.81484  0.79360  0.17226  1.0000
  C   C1263     1.0  0.80047  0.79843  0.15373  1.0000
  C   C1264     1.0  0.77962  0.79503  0.15882  1.0000
  C   C1265     1.0  0.77263  0.78693  0.18256  1.0000
  C   C1266     1.0  0.78698  0.78226  0.20115  1.0000
  C   C1267     1.0  0.80784  0.78553  0.19600  1.0000
  H   H1503     1.0  0.80545  0.80465  0.13539  1.0000
  H   H1504     1.0  0.76882  0.79866  0.14416  1.0000
  H   H1505     1.0  0.78212  0.77575  0.21938  1.0000
  H   H1506     1.0  0.81868  0.78173  0.21056  1.0000
  N   N83       1.0  0.76025  0.83727  0.23030  1.0000
  C   C1268     1.0  0.74746  0.83906  0.20736  1.0000
  C   C1269     1.0  0.75517  0.81798  0.24364  1.0000
  C   C1270     1.0  0.75453  0.85414  0.24734  1.0000
  C   C1271     1.0  0.78224  0.83765  0.22426  1.0000
  C   C1272     1.0  0.79641  0.83573  0.24418  1.0000
  H   H1507     1.0  0.73103  0.83858  0.21261  1.0000
  H   H1508     1.0  0.76034  0.80484  0.23227  1.0000
  H   H1509     1.0  0.73860  0.81657  0.24685  1.0000
  H   H1510     1.0  0.76193  0.81644  0.26283  1.0000
  H   H1511     1.0  0.75875  0.86895  0.23847  1.0000
  H   H1512     1.0  0.73792  0.85451  0.25171  1.0000
  H   H1513     1.0  0.76186  0.85278  0.26620  1.0000
  H   H1514     1.0  0.79142  0.83412  0.26393  1.0000
  N   N84       1.0  0.96264  0.83575  0.17244  1.0000
  H   H1515     1.0  0.52314  0.87242  0.06676  1.0000
  C   C1273     1.0  0.55289  0.90868  0.08933  1.0000
  C   C1274     1.0  0.96059  0.85921  0.21049  1.0000
  H   H1516     1.0  0.92213  0.79046  0.07573  1.0000
  H   H1517     1.0  0.56846  0.91357  0.08809  1.0000
  H   H1518     1.0  0.92887  0.83148  0.02187  1.0000
  C   C1275     1.0  0.88914  0.94595  0.16498  1.0000
  C   C1276     1.0  0.69994  0.75806  0.12862  1.0000
  H   H1519     1.0  0.66996  0.74651  0.18016  1.0000
  Fe  Fe173     1.0  0.49823  0.96554  0.21637  1.0000
  H   H1520     1.0  0.55800  0.88362  0.06440  1.0000
  H   H1521     1.0  0.64357  0.74816  0.15346  1.0000
  H   H1522     1.0  0.93186  0.83508  0.18711  1.0000
  C   C1277     1.0  0.69035  0.77861  0.16449  1.0000
  H   H1523     1.0  0.94333  0.85314  0.14767  1.0000
  H   H1524     1.0  0.83479  0.79986  0.00542  1.0000
  H   H1525     1.0  0.86140  0.94919  0.14460  1.0000
  H   H1526     1.0  0.50346  0.77465  0.07471  1.0000
  H   H1527     1.0  0.67849  0.78228  0.17919  1.0000
  C   C1278     1.0  0.53870  0.91924  0.10415  1.0000
  C   C1279     1.0  0.51369  0.83017  0.99470  1.0000
  H   H1528     1.0  0.96771  0.77496  0.03928  1.0000
  H   H1529     1.0  0.49031  0.88028  0.05442  1.0000
  H   H1530     1.0  0.95091  0.82897  0.13560  1.0000
  C   C1280     1.0  0.52694  0.88548  0.07759  1.0000
  H   H1531     1.0  0.58803  0.87745  0.17009  1.0000
  C   C1281     1.0  0.50396  0.77658  0.05353  1.0000
  C   C1282     1.0  0.64810  0.79273  0.10467  1.0000
  S   S343      1.0  0.49637  0.84837  0.17100  1.0000
  C   C1283     1.0  0.59780  0.98402  0.30861  1.0000
  S   S344      1.0  0.49748  0.81165  0.11215  1.0000
  N   N85       1.0  0.68816  0.87077  0.40650  1.0000
  C   C1284     1.0  0.67485  0.85861  0.39058  1.0000
  C   C1285     1.0  0.70334  0.85672  0.41792  1.0000
  C   C1286     1.0  0.67575  0.88190  0.42567  1.0000
  C   C1287     1.0  0.95226  0.77562  0.04820  1.0000
  H   H1532     1.0  0.64877  0.80565  0.09162  1.0000
  C   C1288     1.0  0.89429  0.97969  0.24347  1.0000
  H   H1533     1.0  0.93590  0.96533  0.20897  1.0000
  H   H1534     1.0  0.56990  0.92230  0.22960  1.0000
  H   H1535     1.0  0.68357  0.85051  0.37534  1.0000
  H   H1536     1.0  0.69596  0.84496  0.43034  1.0000
  H   H1537     1.0  0.71222  0.84854  0.40289  1.0000
  H   H1538     1.0  0.71446  0.86494  0.42931  1.0000
  C   C1289     1.0  0.50076  0.87440  0.17588  1.0000
  C   C1290     1.0  0.97967  0.82107  0.16985  1.0000
  C   C1291     1.0  0.95415  0.81096  0.05641  1.0000
  C   C1292     1.0  0.96738  0.87608  0.22324  1.0000
  H   H1539     1.0  0.54330  0.93233  0.11457  1.0000
  H   H1540     1.0  0.75038  0.82626  0.19423  1.0000
  H   H1541     1.0  0.96836  0.84914  0.13476  1.0000
  H   H1542     1.0  0.59470  0.83714  0.19762  1.0000
  C   C1293     1.0  0.64876  0.90671  0.43526  1.0000
  H   H1543     1.0  0.51535  0.88878  0.23975  1.0000
  H   H1544     1.0  0.70434  0.77409  0.17469  1.0000
  H   H1545     1.0  0.56311  0.87309  0.15872  1.0000
  H   H1546     1.0  0.82781  0.83334  0.25437  1.0000
  H   H1547     1.0  0.69504  0.74672  0.11474  1.0000
  H   H1548     1.0  0.70905  0.89524  0.40104  1.0000
  H   H1549     1.0  0.58245  0.85387  0.15672  1.0000
  H   H1550     1.0  0.94618  0.82582  0.05723  1.0000
  C   C1294     1.0  0.81726  0.83531  0.23894  1.0000
  H   H1551     1.0  0.83554  0.83554  0.01785  1.0000
  S   S345      1.0  0.66298  0.98608  0.37221  1.0000
  C   C1295     1.0  0.55518  0.98372  0.30154  1.0000
  C   C1296     1.0  0.64580  0.76020  0.13947  1.0000
  Fe  Fe174     1.0  0.51686  0.78489  0.12284  1.0000
  C   C1297     1.0  0.58739  0.84993  0.20806  1.0000
  C   C1298     1.0  0.79026  0.83947  0.19883  1.0000
  H   H1552     1.0  0.91219  0.78372  0.04552  1.0000
  H   H1553     1.0  0.78081  0.84049  0.18232  1.0000
  H   H1554     1.0  0.51967  0.77283  0.04705  1.0000
  S   S346      1.0  0.51172  0.94194  0.18912  1.0000
  H   H1555     1.0  0.68960  0.86942  0.46058  1.0000
  H   H1556     1.0  0.50891  0.73789  0.04251  1.0000
  C   C1299     1.0  0.66550  0.78588  0.11706  1.0000
  N   N86       1.0  0.94229  0.79554  0.04331  1.0000
  C   C1300     1.0  0.82460  0.83695  0.21381  1.0000
  N   N87       1.0  0.56943  0.85801  0.19455  1.0000
  C   C1301     1.0  0.56157  0.90854  0.22693  1.0000
  H   H1557     1.0  0.87943  0.86072  0.99850  1.0000
  C   C1302     1.0  0.94544  0.82499  0.18515  1.0000
  C   C1303     1.0  0.94068  0.80090  0.01578  1.0000
  C   C1304     1.0  0.55578  0.84083  0.19038  1.0000
  C   C1305     1.0  0.51860  0.91296  0.10589  1.0000
  H   H1558     1.0  0.97499  0.80717  0.15997  1.0000
  H   H1559     1.0  0.56340  0.82885  0.17888  1.0000
  S   S347      1.0  0.50666  0.75203  0.12176  1.0000
  H   H1560     1.0  0.81701  0.83993  0.17431  1.0000
  H   H1561     1.0  0.91372  0.80975  0.05382  1.0000
  H   H1562     1.0  0.96911  0.81323  0.04663  1.0000
  H   H1563     1.0  0.65783  0.89875  0.39756  1.0000
  H   H1564     1.0  0.84073  0.83601  0.20961  1.0000
  H   H1565     1.0  0.92038  0.74935  0.12188  1.0000
  H   H1566     1.0  0.67933  0.79397  0.11310  1.0000
  H   H1567     1.0  0.54209  0.84574  0.17977  1.0000
  C   C1306     1.0  0.53971  0.87343  0.21972  1.0000
  H   H1568     1.0  0.95400  0.77245  0.06906  1.0000
  C   C1307     1.0  0.62968  0.78331  0.10950  1.0000
  H   H1569     1.0  0.94945  0.81891  0.20438  1.0000
  H   H1570     1.0  0.66637  0.84727  0.40243  1.0000
  H   H1571     1.0  0.61608  0.78900  0.10045  1.0000
  H   H1572     1.0  0.61400  0.76033  0.13123  1.0000
  H   H1573     1.0  0.94069  0.81183  0.17391  1.0000
  H   H1574     1.0  0.71386  0.75205  0.13796  1.0000
  H   H1575     1.0  0.49889  0.86488  0.12104  1.0000
  H   H1576     1.0  0.59168  0.96430  0.34101  1.0000
  C   C1308     1.0  0.98509  0.86586  0.17627  1.0000
  C   C1309     1.0  0.57061  0.89238  0.21400  1.0000
  C   C1310     1.0  0.66058  0.89590  0.41763  1.0000
  C   C1311     1.0  0.66495  0.76925  0.13467  1.0000
  C   C1312     1.0  0.50710  0.91589  0.18492  1.0000
  C   C1313     1.0  0.54429  0.80088  0.99200  1.0000
  H   H1577     1.0  0.93348  0.97204  0.24164  1.0000
  C   C1314     1.0  0.54169  0.90724  0.23611  1.0000
  C   C1315     1.0  0.49072  0.86701  0.10288  1.0000
  H   H1578     1.0  0.63757  0.91765  0.42864  1.0000
  C   C1316     1.0  0.87063  0.95512  0.15948  1.0000
  C   C1317     1.0  0.86409  0.97199  0.17300  1.0000
  H   H1579     1.0  0.59351  0.97467  0.38686  1.0000
  S   S348      1.0  0.72339  0.97868  0.35912  1.0000
  H   H1580     1.0  0.91544  0.94588  0.18693  1.0000
  H   H1581     1.0  0.55444  0.96495  0.33573  1.0000
  C   C1318     1.0  0.92171  0.79487  0.05510  1.0000
  C   C1319     1.0  0.83131  0.81164  0.99142  1.0000
  C   C1320     1.0  0.58521  0.97281  0.32531  1.0000
  C   C1321     1.0  0.92497  0.96591  0.22550  1.0000
  N   N88       1.0  0.90682  0.97848  0.21957  1.0000
  N   N89       1.0  0.68356  0.76243  0.14772  1.0000
  C   C1322     1.0  0.60666  0.98498  0.38631  1.0000
  C   C1323     1.0  0.56403  0.97304  0.32210  1.0000
  C   C1324     1.0  0.88077  0.84467  0.99537  1.0000
  H   H1582     1.0  0.61239  0.98596  0.36621  1.0000
  S   S349      1.0  0.48983  0.96156  0.25801  1.0000
  H   H1583     1.0  0.69388  0.79280  0.15371  1.0000
  H   H1584     1.0  0.94822  0.85114  0.21959  1.0000
  C   C1325     1.0  0.90115  0.95351  0.18410  1.0000
  H   H1585     1.0  0.98738  0.90146  0.22191  1.0000
  H   H1586     1.0  0.92075  0.95025  0.23125  1.0000
  C   C1326     1.0  0.67837  0.87949  0.45252  1.0000
  H   H1587     1.0  0.98204  0.76890  0.12067  1.0000
  Fe  Fe175     1.0  0.98029  0.96507  0.21293  1.0000
  C   C1327     1.0  0.54700  0.89184  0.07603  1.0000
  H   H1588     1.0  0.95019  0.77166  0.00000  1.0000
  H   H1589     1.0  0.96029  0.88038  0.24125  1.0000
  N   N90       1.0  0.49102  0.88847  0.09421  1.0000
  H   H1590     1.0  0.70483  0.77174  0.11765  1.0000
  H   H1591     1.0  0.94317  0.76298  0.04116  1.0000
  C   C1328     1.0  0.95611  0.84206  0.14652  1.0000
  S   S350      1.0  0.52823  0.98548  0.30008  1.0000
  C   C1329     1.0  0.49071  0.90596  0.19668  1.0000
  H   H1592     1.0  0.50854  0.92178  0.11797  1.0000
  H   H1593     1.0  0.50186  0.84159  0.99559  1.0000
  H   H1594     1.0  0.61885  0.97763  0.39753  1.0000
  H   H1595     1.0  0.98539  0.81634  0.18895  1.0000
  C   C1330     1.0  0.93644  0.74597  0.12093  1.0000
  H   H1596     1.0  0.52059  0.75542  0.00840  1.0000
  C   C1331     1.0  0.65157  0.90386  0.46139  1.0000
  C   C1332     1.0  0.66640  0.89039  0.46999  1.0000
  H   H1597     1.0  0.90341  0.98421  0.25999  1.0000
  H   H1598     1.0  0.64257  0.91251  0.47500  1.0000
  H   H1599     1.0  0.88746  0.96484  0.24856  1.0000
  C   C1333     1.0  0.50758  0.76204  0.99913  1.0000
  H   H1600     1.0  0.49158  0.73922  0.06871  1.0000
  C   C1334     1.0  0.87594  0.97959  0.19229  1.0000
  H   H1601     1.0  0.49791  0.85676  0.08871  1.0000
  C   C1335     1.0  0.94515  0.78694  0.99606  1.0000
  H   H1602     1.0  0.55625  0.78959  0.99103  1.0000
  C   C1336     1.0  0.49315  0.74243  0.04775  1.0000
  H   H1603     1.0  0.49706  0.74878  0.18201  1.0000
  H   H1604     1.0  0.49039  0.95698  0.34891  1.0000
  S   S351      1.0  0.62416  0.98722  0.31415  1.0000
  H   H1605     1.0  0.69517  0.73862  0.17251  1.0000
  N   N91       1.0  0.48873  0.76398  0.04139  1.0000
  C   C1337     1.0  0.48984  0.76752  0.01331  1.0000
  Fe  Fe176     1.0  0.88721  0.81631  0.89144  1.0000
  S   S352      1.0  0.87762  0.79015  0.86764  1.0000
  S   S353      1.0  0.88717  0.80692  0.93426  1.0000
  Fe  Fe177     1.0  0.89567  0.84328  0.84285  1.0000
  S   S354      1.0  0.88583  0.81861  0.81700  1.0000
  S   S355      1.0  0.90396  0.87339  0.82174  1.0000
  Fe  Fe178     1.0  0.85959  0.81286  0.84436  1.0000
  S   S356      1.0  0.82504  0.80993  0.83769  1.0000
  Fe  Fe179     1.0  0.90450  0.79779  0.84226  1.0000
  S   S357      1.0  0.92795  0.77730  0.82242  1.0000
  S   S358      1.0  0.86816  0.83891  0.86920  1.0000
  S   S359      1.0  0.91528  0.82260  0.86706  1.0000
  Fe  Fe180     1.0  0.63708  0.95271  0.62829  1.0000
  S   S360      1.0  0.65039  0.92323  0.61391  1.0000
  S   S361      1.0  0.60279  0.95263  0.63656  1.0000
  Fe  Fe181     1.0  0.67887  0.97311  0.62594  1.0000
  S   S362      1.0  0.69452  0.94497  0.61259  1.0000
  Fe  Fe182     1.0  0.66846  0.94257  0.58573  1.0000
  S   S363      1.0  0.67857  0.93559  0.54458  1.0000
  Fe  Fe183     1.0  0.67514  0.92821  0.64170  1.0000
  S   S364      1.0  0.68906  0.90692  0.67171  1.0000
  S   S365      1.0  0.66110  0.95681  0.65728  1.0000
  H   H1606     1.0  0.57849  0.89241  0.71309  1.0000
  N   N92       1.0  0.55482  0.84376  0.77334  1.0000
  H   H1607     1.0  0.53508  0.81822  0.77866  1.0000
  H   H1608     1.0  0.93368  0.81563  0.94341  1.0000
  Fe  Fe184     1.0  0.51902  0.83613  0.85884  1.0000
  S   S366      1.0  0.54919  0.82244  0.86963  1.0000
  H   H1609     1.0  0.58029  0.85918  0.73347  1.0000
  C   C1338     1.0  0.93609  0.81169  0.96337  1.0000
  S   S367      1.0  0.52666  0.77857  0.87404  1.0000
  Fe  Fe185     1.0  0.53165  0.80480  0.89993  1.0000
  S   S368      1.0  0.54372  0.79754  0.93972  1.0000
  Fe  Fe186     1.0  0.54186  0.79765  0.84306  1.0000
  S   S369      1.0  0.56235  0.78551  0.81084  1.0000
  S   S370      1.0  0.51254  0.81225  0.83049  1.0000
  Fe  Fe187     1.0  0.72559  0.77405  0.75101  1.0000
  S   S371      1.0  0.71830  0.76463  0.71076  1.0000
  S   S372      1.0  0.75970  0.77377  0.76118  1.0000
  Fe  Fe188     1.0  0.67978  0.77856  0.76476  1.0000
  S   S373      1.0  0.66992  0.76922  0.72609  1.0000
  S   S374      1.0  0.65854  0.79027  0.79648  1.0000
  C   C1339     1.0  0.95609  0.74610  0.82189  1.0000
  Fe  Fe189     1.0  0.69482  0.78979  0.71144  1.0000
  S   S375      1.0  0.68663  0.81053  0.67764  1.0000
  S   S376      1.0  0.70235  0.75282  0.76850  1.0000
  S   S377      1.0  0.70359  0.80036  0.75006  1.0000
  H   H1610     1.0  0.96371  0.83409  0.82167  1.0000
  S   S378      1.0  0.97407  0.93598  0.78705  1.0000
  H   H1611     1.0  0.49722  0.97714  0.85508  1.0000
  C   C1340     1.0  0.58918  0.78644  0.80780  1.0000
  C   C1341     1.0  0.60092  0.79664  0.82512  1.0000
  C   C1342     1.0  0.62212  0.79735  0.82155  1.0000
  C   C1343     1.0  0.63187  0.78794  0.80066  1.0000
  C   C1344     1.0  0.62011  0.77782  0.78327  1.0000
  C   C1345     1.0  0.59890  0.77716  0.78680  1.0000
  H   H1612     1.0  0.59368  0.80387  0.84135  1.0000
  H   H1613     1.0  0.63105  0.80523  0.83512  1.0000
  H   H1614     1.0  0.62735  0.77048  0.76713  1.0000
  H   H1615     1.0  0.58997  0.76922  0.77329  1.0000
  C   C1346     1.0  0.51989  0.82250  0.97076  1.0000
  C   C1347     1.0  0.53534  0.80789  0.96927  1.0000
  S   S379      1.0  0.65352  0.97158  0.59791  1.0000
  H   H1616     1.0  0.92452  0.75628  0.87234  1.0000
  C   C1348     1.0  0.97819  0.85512  0.77934  1.0000
  H   H1617     1.0  0.53148  0.95257  0.59944  1.0000
  H   H1618     1.0  0.97380  0.95240  0.63383  1.0000
  C   C1349     1.0  0.50843  0.88580  0.82772  1.0000
  H   H1619     1.0  0.82741  0.79087  0.96163  1.0000
  H   H1620     1.0  0.73223  0.97983  0.62044  1.0000
  H   H1621     1.0  0.94025  0.93304  0.89685  1.0000
  H   H1622     1.0  0.51283  0.82798  0.95345  1.0000
  H   H1623     1.0  0.68735  0.96873  0.70457  1.0000
  C   C1350     1.0  0.51442  0.90603  0.82470  1.0000
  C   C1351     1.0  0.58798  0.96369  0.66172  1.0000
  H   H1624     1.0  0.71016  0.98143  0.58557  1.0000
  H   H1625     1.0  0.48969  0.95357  0.88550  1.0000
  C   C1352     1.0  0.55496  0.96695  0.68404  1.0000
  C   C1353     1.0  0.56783  0.95748  0.66584  1.0000
  H   H1626     1.0  0.53949  0.96212  0.68669  1.0000
  H   H1627     1.0  0.56203  0.94549  0.65452  1.0000
  C   C1354     1.0  0.68881  0.88010  0.67240  1.0000
  C   C1355     1.0  0.67937  0.86910  0.65365  1.0000
  C   C1356     1.0  0.67934  0.84781  0.65519  1.0000
  C   C1357     1.0  0.68861  0.83727  0.67554  1.0000
  C   C1358     1.0  0.69819  0.84828  0.69417  1.0000
  C   C1359     1.0  0.69822  0.86955  0.69262  1.0000
  H   H1628     1.0  0.67212  0.87699  0.63794  1.0000
  H   H1629     1.0  0.67193  0.83946  0.64064  1.0000
  H   H1630     1.0  0.70562  0.84041  0.70975  1.0000
  H   H1631     1.0  0.70569  0.87789  0.70713  1.0000
  C   C1360     1.0  0.66874  0.94470  0.51511  1.0000
  C   C1361     1.0  0.97495  0.88674  0.75566  1.0000
  C   C1362     1.0  0.65035  0.95532  0.51379  1.0000
  H   H1632     1.0  0.64176  0.95839  0.53117  1.0000
  C   C1363     1.0  0.92369  0.89081  0.81282  1.0000
  C   C1364     1.0  0.91952  0.90665  0.79515  1.0000
  C   C1365     1.0  0.93454  0.92064  0.78715  1.0000
  C   C1366     1.0  0.95411  0.91910  0.79677  1.0000
  C   C1367     1.0  0.95821  0.90346  0.81475  1.0000
  C   C1368     1.0  0.94321  0.88944  0.82267  1.0000
  H   H1633     1.0  0.90452  0.90805  0.78742  1.0000
  H   H1634     1.0  0.93098  0.93252  0.77341  1.0000
  H   H1635     1.0  0.97320  0.90208  0.82248  1.0000
  H   H1636     1.0  0.94677  0.87767  0.83654  1.0000
  C   C1369     1.0  0.94085  0.75608  0.83629  1.0000
  H   H1637     1.0  0.95508  0.79899  0.78413  1.0000
  C   C1370     1.0  0.55826  0.84601  0.80105  1.0000
  C   C1371     1.0  0.56860  0.86936  0.74032  1.0000
  H   H1638     1.0  0.88558  0.78739  0.98372  1.0000
  H   H1639     1.0  0.70327  0.94638  0.67450  1.0000
  H   H1640     1.0  0.70503  0.97405  0.51597  1.0000
  C   C1372     1.0  0.80725  0.79992  0.81581  1.0000
  C   C1373     1.0  0.78638  0.80392  0.81977  1.0000
  C   C1374     1.0  0.77168  0.79631  0.80330  1.0000
  C   C1375     1.0  0.77755  0.78437  0.78253  1.0000
  C   C1376     1.0  0.79840  0.78025  0.77867  1.0000
  C   C1377     1.0  0.81311  0.78798  0.79503  1.0000
  H   H1641     1.0  0.78150  0.81311  0.83564  1.0000
  H   H1642     1.0  0.75581  0.79969  0.80672  1.0000
  H   H1643     1.0  0.80329  0.77114  0.76272  1.0000
  H   H1644     1.0  0.82899  0.78469  0.79154  1.0000
  C   C1378     1.0  0.88215  0.83760  0.97005  1.0000
  C   C1379     1.0  0.88409  0.81690  0.96562  1.0000
  H   H1645     1.0  0.56872  0.82700  0.74251  1.0000
  H   H1646     1.0  0.88200  0.84818  0.95401  1.0000
  H   H1647     1.0  0.52611  0.91169  0.83664  1.0000
  S   S380      1.0  0.50208  0.82018  0.89124  1.0000
  C   C1380     1.0  0.56779  0.88848  0.72839  1.0000
  H   H1648     1.0  0.52896  0.87564  0.78257  1.0000
  C   C1381     1.0  0.72320  0.95391  0.71718  1.0000
  C   C1382     1.0  0.94605  0.94610  0.85948  1.0000
  C   C1383     1.0  0.94278  0.79236  0.97028  1.0000
  H   H1649     1.0  0.92588  0.84055  0.97676  1.0000
  H   H1650     1.0  0.53114  0.83297  0.74982  1.0000
  C   C1384     1.0  0.93621  0.74884  0.86104  1.0000
  C   C1385     1.0  0.92829  0.82741  0.77688  1.0000
  S   S381      1.0  0.98260  0.96215  0.71620  1.0000
  C   C1386     1.0  0.75662  0.97335  0.68647  1.0000
  C   C1387     1.0  0.96191  0.81357  0.77749  1.0000
  H   H1651     1.0  0.95977  0.75148  0.80270  1.0000
  S   S382      1.0  0.50461  0.98240  0.77338  1.0000
  H   H1652     1.0  0.49164  0.74401  0.85436  1.0000
  C   C1388     1.0  0.48993  0.91205  0.79127  1.0000
  H   H1653     1.0  0.98127  0.90103  0.74912  1.0000
  C   C1389     1.0  0.50532  0.91907  0.80650  1.0000
  C   C1390     1.0  0.71443  0.97705  0.56578  1.0000
  N   N93       1.0  0.71946  0.96826  0.69556  1.0000
  H   H1654     1.0  0.66878  0.88865  0.49040  1.0000
  C   C1391     1.0  0.49375  0.77567  0.95987  1.0000
  H   H1655     1.0  0.72964  0.94677  0.66715  1.0000
  H   H1656     1.0  0.73062  0.98146  0.51896  1.0000
  H   H1657     1.0  0.96375  0.81314  0.75631  1.0000
  H   H1658     1.0  0.58616  0.83579  0.76613  1.0000
  H   H1659     1.0  0.91743  0.83916  0.78399  1.0000
  H   H1660     1.0  0.96630  0.98209  0.60510  1.0000
  C   C1392     1.0  0.94855  0.83189  0.81360  1.0000
  H   H1661     1.0  0.73613  0.94345  0.71319  1.0000
  C   C1393     1.0  0.54002  0.87870  0.76754  1.0000
  H   H1662     1.0  0.54580  0.85454  0.81081  1.0000
  C   C1394     1.0  0.53926  0.89770  0.75540  1.0000
  H   H1663     1.0  0.55247  0.91739  0.72654  1.0000
  H   H1664     1.0  0.93777  0.93463  0.84971  1.0000
  H   H1665     1.0  0.70992  0.94405  0.72121  1.0000
  H   H1666     1.0  0.97717  0.81365  0.78586  1.0000
  Fe  Fe190     1.0  0.49796  0.79486  0.86356  1.0000
  H   H1667     1.0  0.56780  0.96110  0.59724  1.0000
  H   H1668     1.0  0.93041  0.86261  0.75674  1.0000
  H   H1669     1.0  0.82150  0.85484  0.94206  1.0000
  C   C1395     1.0  0.82807  0.84701  0.98037  1.0000
  C   C1396     1.0  0.73704  0.98168  0.69147  1.0000
  C   C1397     1.0  0.53641  0.96667  0.60716  1.0000
  H   H1670     1.0  0.94566  0.89346  0.74063  1.0000
  C   C1398     1.0  0.55463  0.86388  0.76035  1.0000
  H   H1671     1.0  0.57032  0.81485  0.77303  1.0000
  C   C1399     1.0  0.53503  0.83389  0.77034  1.0000
  H   H1672     1.0  0.52242  0.84205  0.78033  1.0000
  S   S383      1.0  0.52008  0.87032  0.85147  1.0000
  H   H1673     1.0  0.92255  0.81266  0.78450  1.0000
  C   C1400     1.0  0.95486  0.88243  0.75087  1.0000
  H   H1674     1.0  0.57251  0.85411  0.80437  1.0000
  C   C1401     1.0  0.82386  0.84224  0.95512  1.0000
  H   H1675     1.0  0.61057  0.98435  0.67345  1.0000
  H   H1676     1.0  0.55925  0.83107  0.81124  1.0000
  H   H1677     1.0  0.49544  0.91909  0.90164  1.0000
  C   C1402     1.0  0.55314  0.90261  0.73590  1.0000
  N   N94       1.0  0.81910  0.81613  0.92070  1.0000
  C   C1403     1.0  0.81506  0.83370  0.90329  1.0000
  C   C1404     1.0  0.83682  0.80498  0.90998  1.0000
  C   C1405     1.0  0.80122  0.80288  0.92033  1.0000
  C   C1406     1.0  0.82320  0.82183  0.94731  1.0000
  C   C1407     1.0  0.96779  0.97538  0.88445  1.0000
  C   C1408     1.0  0.70020  0.97927  0.70139  1.0000
  H   H1678     1.0  0.72647  0.96209  0.73494  1.0000
  H   H1679     1.0  0.94260  0.81763  0.82232  1.0000
  C   C1409     1.0  0.57077  0.82989  0.76315  1.0000
  H   H1680     1.0  0.82838  0.84376  0.90142  1.0000
  H   H1681     1.0  0.81194  0.82888  0.88350  1.0000
  H   H1682     1.0  0.80161  0.84262  0.90984  1.0000
  H   H1683     1.0  0.85057  0.81436  0.91038  1.0000
  H   H1684     1.0  0.83456  0.80074  0.88978  1.0000
  H   H1685     1.0  0.84031  0.79079  0.92077  1.0000
  H   H1686     1.0  0.79741  0.79896  0.90037  1.0000
  H   H1687     1.0  0.80378  0.78831  0.93073  1.0000
  H   H1688     1.0  0.78770  0.81040  0.92918  1.0000
  C   C1410     1.0  0.82711  0.80668  0.96627  1.0000
  H   H1689     1.0  0.51013  0.93454  0.80438  1.0000
  C   C1411     1.0  0.95829  0.95978  0.89845  1.0000
  H   H1690     1.0  0.49729  0.96495  0.82483  1.0000
  H   H1691     1.0  0.94579  0.78142  0.95548  1.0000
  N   N95       1.0  0.64237  0.83773  0.73393  1.0000
  C   C1412     1.0  0.66376  0.83546  0.74133  1.0000
  C   C1413     1.0  0.63341  0.81732  0.73325  1.0000
  C   C1414     1.0  0.64206  0.84639  0.70748  1.0000
  C   C1415     1.0  0.63142  0.85027  0.75298  1.0000
  C   C1416     1.0  0.62880  0.84315  0.77862  1.0000
  C   C1417     1.0  0.62375  0.86997  0.74712  1.0000
  C   C1418     1.0  0.61862  0.85468  0.79705  1.0000
  C   C1419     1.0  0.61364  0.88144  0.76575  1.0000
  C   C1420     1.0  0.61101  0.87379  0.79062  1.0000
  H   H1692     1.0  0.66536  0.82791  0.76044  1.0000
  H   H1693     1.0  0.67246  0.82603  0.72747  1.0000
  H   H1694     1.0  0.67129  0.85036  0.74197  1.0000
  H   H1695     1.0  0.63576  0.80848  0.75123  1.0000
  H   H1696     1.0  0.64061  0.80801  0.71793  1.0000
  H   H1697     1.0  0.61689  0.81822  0.72985  1.0000
  H   H1698     1.0  0.65073  0.86068  0.70565  1.0000
  H   H1699     1.0  0.64933  0.83597  0.69346  1.0000
  H   H1700     1.0  0.62636  0.84915  0.70099  1.0000
  H   H1701     1.0  0.63500  0.82871  0.78476  1.0000
  H   H1702     1.0  0.62564  0.87700  0.72839  1.0000
  H   H1703     1.0  0.61691  0.84879  0.81652  1.0000
  H   H1704     1.0  0.60798  0.89648  0.76094  1.0000
  H   H1705     1.0  0.60331  0.88280  0.80503  1.0000
  H   H1706     1.0  0.93855  0.84446  0.82029  1.0000
  C   C1421     1.0  0.71643  0.95656  0.67220  1.0000
  C   C1422     1.0  0.64273  0.96142  0.48981  1.0000
  H   H1707     1.0  0.73063  0.97246  0.56560  1.0000
  C   C1423     1.0  0.95780  0.85015  0.77467  1.0000
  N   N96       1.0  0.94918  0.83115  0.78531  1.0000
  H   H1708     1.0  0.92758  0.82694  0.75568  1.0000
  C   C1424     1.0  0.56210  0.98277  0.69847  1.0000
  H   H1709     1.0  0.98361  0.97418  0.80911  1.0000
  C   C1425     1.0  0.94627  0.86452  0.76032  1.0000
  S   S384      1.0  0.49302  0.96775  0.71542  1.0000
  C   C1426     1.0  0.55685  0.97149  0.60570  1.0000
  C   C1427     1.0  0.50934  0.76588  0.97280  1.0000
  H   H1710     1.0  0.75906  0.95723  0.68544  1.0000
  H   H1711     1.0  0.70584  0.96328  0.56153  1.0000
  Fe  Fe191     1.0  0.98072  0.96306  0.75933  1.0000
  H   H1712     1.0  0.52775  0.90868  0.76105  1.0000
  Fe  Fe192     1.0  0.69398  0.74465  0.72817  1.0000
  H   H1713     1.0  0.69386  0.93251  0.49307  1.0000
  C   C1428     1.0  0.59520  0.97930  0.67644  1.0000
  C   C1429     1.0  0.94749  0.94517  0.88599  1.0000
  C   C1430     1.0  0.67965  0.94077  0.49228  1.0000
  C   C1431     1.0  0.95542  0.96163  0.84534  1.0000
  H   H1714     1.0  0.71349  0.96682  0.65559  1.0000
  H   H1715     1.0  0.78814  0.97905  0.67768  1.0000
  C   C1432     1.0  0.97958  0.96354  0.64738  1.0000
  H   H1716     1.0  0.67894  0.98411  0.54504  1.0000
  C   C1433     1.0  0.96665  0.97672  0.85734  1.0000
  H   H1717     1.0  0.62825  0.96919  0.48898  1.0000
  C   C1434     1.0  0.98657  0.87315  0.76994  1.0000
  H   H1718     1.0  0.95394  0.96155  0.82479  1.0000
  H   H1719     1.0  0.98767  0.84530  0.79084  1.0000
  C   C1435     1.0  0.52242  0.97965  0.61911  1.0000
  H   H1720     1.0  0.95939  0.95896  0.91910  1.0000
  H   H1721     1.0  0.75002  0.73815  0.73776  1.0000
  H   H1722     1.0  0.52333  0.76221  0.96251  1.0000
  H   H1723     1.0  0.96653  0.96878  0.65955  1.0000
  C   C1436     1.0  0.49333  0.87865  0.81213  1.0000
  H   H1724     1.0  0.50689  0.97482  0.61995  1.0000
  C   C1437     1.0  0.77340  0.98567  0.68207  1.0000
  C   C1438     1.0  0.93169  0.82572  0.98220  1.0000
  C   C1439     1.0  0.88418  0.80343  0.98687  1.0000
  H   H1725     1.0  0.82894  0.86264  0.98588  1.0000
  H   H1726     1.0  0.74770  0.73781  0.78658  1.0000
  C   C1440     1.0  0.71473  0.98692  0.52117  1.0000
  H   H1727     1.0  0.49563  0.77942  0.93965  1.0000
  H   H1728     1.0  0.97600  0.98612  0.89527  1.0000
