data_image0
_chemical_formula_structural       SHSFeS3C2HCHS2FeS2H3CHSCH2SH2CNHC4HC2H4FeC6H4C6H4C6H4NC9H15CHFe2SCHCNFeSHCHCH2FeHC2H2NSCH2CHC4HCH6CHC3HC2H3C4H6CHSCHCH3CHNCH2FeH4CFeS2FeS2NCHSFeHSHCHCSCFeS2FeS2H2FeCSHCH2SCHFeH2C6H5CHCH4CHC2HSHC6H4C6H4C2H6C5H3SH2NC2H2C2H2CH2CNCHCH3C3HCH3CH2C2H3CHFeCHCHSH2SH3CHCNH4C2H4C3NHC2HCHFeSCH2NCHC3HC2HS2C4H2FeCFeS2FeSFeS3H2SFeS2FeSHFeSFeS2FeS2FeS2H2SC2HCHCHSHFeSC6H4NH4C6H4C6H4CH2C2H2C6H4C6H4CSC5H8SC4HCH3CHCNH2NHCNC6H2SH11FeC3H2CH3C2HSHSH2C2NC7HCH8CHNSH2C2H2C2HFeH2C2HSHC3HCHCH2SCHC2H2CHCHCH3CH4Fe2CSCHC2HSHSH2FeCH3SCHCSH2FeCHCHCSH2CS2FeS2HCHFeNSFeS2FeCHS2H2SFeS2FeS2H2FeSH2C6H4C7H3C3FeH2CH2SC6H4C6H4C6H5NCH2CHCSH2C2H3CHFeHS2HCH6FeH2SCH2CNCHFeC2HC2HCSC4HSCHCH5NC6HC2H13CHSH7CNH2CHSHCNC2H2CHCHC2HC2H5C2HCH2C2FeCSHFeHC2HCH3CHNC2H2C3NCHC2H2C3H3SH3C5HSC2H2FeHCFeS2FeS3HCFeS2CHFeSHSHCHCHSFeCSH2CSH3SHC3HC2H2CNCH2C8H4SCH2C6H2CHC6H5CFeNHCH5C2H2NC7HCH11CHCNC9H13CH2CH7C2HC3SFeH5C2HCHSH4CFeCHSHCHNH2C2HCH3S2HSHCH3CS2FeSFeNSCFeSCSNSC2SC2H8C6H5SCHCH2C6H3C7H8C2HCHCH2C2SH3CN2H2C4FeH2CHFeH8CH7NCHCH4FeCHSCHCHC2NH3C2H3C3H3CH3C2H4CHCFeH2C2H3CSCSHFeS2FeSCS2FeCSCS2CFeS2FeSFeSFeHS3C2HCSCSHSHFeSC6H6CHC4HCHC6H4C6H4C6H4C6H7SHCH3CH3C2HCH5NHSCHCSCHFeCNC9H3SHFeH4FeH3CNSC3H2CHCHNC2HCH4C4H2CH2S2HCSC2H2CHCH6CH2CH5FeCH2FeHSH2NC9H14CH2NHC2H2SCFe2HCH2C2H3CFeHCSHCSH2SCHS2CFeS2H3CSFeS2FeS2CFeSFeS2FeSFeS2FeS2FeSHFeSHSC7H5C3H3C6H2FeHC2HSCSHCHC6H4C6H4C7H3C3FeC2HCH3FeH4CS2H3C2H5CH3NCHC3SHSH2SHCHCHCHCHCH4C2HCHCHFeNC2HSHC2FeH3C3H2CNC7H13CHNHCHCHCHCHC2HCHCHCSHFeHC2HC2HCHNHCH2CSH2CH2C2HFeHC2H2CH2CHCHSHSCS2CSH2SFeS2CH3FeS2HCHFeS2FeS2FeSFeS2FeS2FeS2HC6H4CH2SHCH2C6H4C6H5C3H2C6H4C6H6CHCHC2H2FeHC2HC2HC2HFeCH3CH3C2FeSC3NC6NC2H10CSHSHC2H4SH3CHSNH2NCSC2HCHNC4HC3H3C2H2CH3SH5C2HC3HSFeH2CFeHCHCHCHC2HC2HCH2CH8FeSHFeS2CFeSHSFeS2HSH2CHFeS2FeSFe2S4CS2FeS2HFeSC6H5C2HCH3C2H3C6H4C6H4C6H4C6H5C2HCHCNC3NH5NC9H5CH5FeH3SCH2C2NC7HCH8FeHCHNHCSCH3S2H2FeNC7H12CHCHCH2SH2SC2FeHFeH3FeH3CHC5H2SH3C3HCHCS2FeHNHFeHC4H3C2HSCHCH3CH3CH2CHNH5C2H3CHCH2CHCH3CH2SCHC6HCNHCHCHCHFeCSH2C2H3C2S2FeSH4CSFeHSC3SCSH4CFeS2FeS4HC4H2C6H4CH5CHFeNH2C6HNH2C6H4C3H3CH3C2HCH4CH2NCHSC3H3CH2C3H2CSCHC4HSHC2FeHNHCHCHFeH2CH2SHC2HCH2SCH3FeHC2HC2H6CH2C3H9CHNH2CHCH4SC2Fe2HC3HS2FeS2FeS3FeS2HFeS2H2CHCH2NHCSH3FeHC2HC3HC3HC2H4C6H6C6H4C6H2C2H6C3HC3HNH3C2H4SCHCHC4SCHC3HCH2C3HNCH2C3HCH3CHNH4CH2SCFeH3C2NH5CS2HSC2SHS2FeSCSFeS2FeS2HFeS3FeS2CSH4FeS2FeSFeSFeHS2CHCHC4HC6H4C6H4C6H4C3H2C6H4C6H7CHCH3SHCH3CFeH4C3FeHFeHCSH4FeHC2HFeHFeC2HFeH2CHCN2C9H14CH3CHNC9H15C6HCHCHCNSH2C2FeSHSCHSC4H2C2H2FeC2H2CHSNHSCHC2H4SHCH3CH2CHCNHCFeHC2H2C7HCH5CHFeS2C3HCFeHSHC2FeS2FeS2FeSFeHS2FeS2FeS3H2SCS2HCSC6H4C6H5C6H3CH2C2HFeHSFeC6H4C6H4CHC3H3SNH5C2H2CHCH2CH2CH2FeH2CH2S2C3SCH6C2HCH2C2H3C3HCHCHNC9H14C2HCH5CNH5CHCHNC7HSHC2HSHCHCH5C4HC2HCH4C2NSHFeCHCH2CH3CFeS2CS2H6CSHCSNSH4FeS2FeS2CHC4HCH2SC6H4C2H2NCH3C8H4C6H7CHCH2NHCH3C2NH2CHC2H2NC3H2CNHCHCH3CHFeH3C3HSC2H2C2NSH7SC2H3CH4CH3CHCH5C4HCH3FeHC2HCH2CHC2HCSHC2HNHFeHCH6CSCHS2CFeS2FeSHS2FeH3S2FeHSCSH3SCH3C2H8CH4C6H4CHCSHC6H4C6H6N2C2HFeNH2CHC2SCHFeHCH3CHC2HC2HC2HFeSH5NC3H6C2HSHCH2CFeCH2C2Fe2H3C2HCHCHCSH2CNC9H3NS2H6C3HCSC2HFeC2
_chemical_formula_sum              "S384 H1728 Fe192 C1440 N96"
_cell_length_a       113.594
_cell_length_b       33.0697
_cell_length_c       58.1412
_cell_angle_alpha    87.1756
_cell_angle_beta     87.0224
_cell_angle_gamma    87.6578

_space_group_name_H-M_alt    "P 1"
_space_group_IT_number       1

loop_
  _space_group_symop_operation_xyz
  'x, y, z'

loop_
  _atom_site_type_symbol
  _atom_site_label
  _atom_site_symmetry_multiplicity
  _atom_site_fract_x
  _atom_site_fract_y
  _atom_site_fract_z
  _atom_site_occupancy
  S   S1        1.0  0.15187  0.99755  0.46806  1.0000
  H   H1        1.0  0.17212  0.16986  0.21122  1.0000
  S   S2        1.0  0.20810  0.32174  0.09091  1.0000
  Fe  Fe1       1.0  0.16821  0.01611  0.21602  1.0000
  S   S3        1.0  0.22026  0.16930  0.17225  1.0000
  S   S4        1.0  0.22081  0.20331  0.10459  1.0000
  S   S5        1.0  0.22605  0.27784  0.13815  1.0000
  C   C1        1.0  0.19409  0.16125  0.24956  1.0000
  C   C2        1.0  0.22175  0.01322  0.13828  1.0000
  H   H2        1.0  0.21098  0.18857  0.24327  1.0000
  C   C3        1.0  0.17901  0.08718  0.25574  1.0000
  H   H3        1.0  0.99314  0.37292  0.06660  1.0000
  S   S6        1.0  0.99597  0.28861  0.14373  1.0000
  S   S7        1.0  0.00091  0.17348  0.15709  1.0000
  Fe  Fe2       1.0  0.99778  0.30175  0.10544  1.0000
  S   S8        1.0  0.01328  0.32838  0.08404  1.0000
  S   S9        1.0  0.99473  0.23732  0.09714  1.0000
  H   H4        1.0  0.10075  0.99558  0.23664  1.0000
  H   H5        1.0  0.98988  0.41466  0.04731  1.0000
  H   H6        1.0  0.13726  0.32356  0.03165  1.0000
  C   C4        1.0  0.22017  0.41021  0.12366  1.0000
  H   H7        1.0  0.14095  0.41037  0.06762  1.0000
  S   S10       1.0  0.17384  0.06693  0.19001  1.0000
  C   C5        1.0  0.18023  0.17425  0.21953  1.0000
  H   H8        1.0  0.18774  0.08384  0.26352  1.0000
  H   H9        1.0  0.18221  0.29125  0.04937  1.0000
  S   S11       1.0  0.15392  0.02746  0.24349  1.0000
  H   H10       1.0  0.16583  0.12540  0.28908  1.0000
  H   H11       1.0  0.03599  0.44243  0.05059  1.0000
  C   C6        1.0  0.16645  0.32811  0.04362  1.0000
  N   N1        1.0  0.17429  0.12960  0.25491  1.0000
  H   H12       1.0  0.22831  0.22162  0.48027  1.0000
  C   C7        1.0  0.22911  0.47151  0.10802  1.0000
  C   C8        1.0  0.01790  0.37919  0.08336  1.0000
  C   C9        1.0  0.01447  0.40545  0.10082  1.0000
  C   C10       1.0  0.01903  0.44455  0.10045  1.0000
  H   H13       1.0  0.22242  0.41588  0.14157  1.0000
  C   C11       1.0  0.02993  0.43245  0.06450  1.0000
  C   C12       1.0  0.02560  0.39299  0.06515  1.0000
  H   H14       1.0  0.00860  0.39528  0.11498  1.0000
  H   H15       1.0  0.01661  0.46420  0.11441  1.0000
  H   H16       1.0  0.20047  0.07200  0.47094  1.0000
  H   H17       1.0  0.02838  0.37288  0.05162  1.0000
  Fe  Fe3       1.0  0.17395  0.45277  0.99175  1.0000
  C   C13       1.0  0.02060  0.04949  0.14539  1.0000
  C   C14       1.0  0.01489  0.07061  0.12718  1.0000
  C   C15       1.0  0.00882  0.10832  0.13036  1.0000
  C   C16       1.0  0.00835  0.12567  0.15189  1.0000
  C   C17       1.0  0.01405  0.10456  0.17011  1.0000
  C   C18       1.0  0.02012  0.06683  0.16694  1.0000
  H   H18       1.0  0.01518  0.05766  0.11042  1.0000
  H   H19       1.0  0.00444  0.12380  0.11617  1.0000
  H   H20       1.0  0.01378  0.11752  0.18686  1.0000
  H   H21       1.0  0.02450  0.05134  0.18111  1.0000
  C   C19       1.0  0.20248  0.34293  0.06471  1.0000
  C   C20       1.0  0.20520  0.32612  0.04338  1.0000
  C   C21       1.0  0.19995  0.34280  0.02335  1.0000
  C   C22       1.0  0.19209  0.37682  0.02428  1.0000
  C   C23       1.0  0.18962  0.39426  0.04552  1.0000
  C   C24       1.0  0.19473  0.37725  0.06560  1.0000
  H   H22       1.0  0.21111  0.29972  0.04237  1.0000
  H   H23       1.0  0.20191  0.32897  0.00704  1.0000
  H   H24       1.0  0.18355  0.42025  0.04660  1.0000
  H   H25       1.0  0.19252  0.39045  0.08200  1.0000
  C   C25       1.0  0.18731  0.09222  0.18432  1.0000
  C   C26       1.0  0.19697  0.08592  0.19825  1.0000
  C   C27       1.0  0.20707  0.10915  0.19399  1.0000
  C   C28       1.0  0.20779  0.13822  0.17548  1.0000
  C   C29       1.0  0.19833  0.14331  0.16101  1.0000
  C   C30       1.0  0.18813  0.12069  0.16555  1.0000
  H   H26       1.0  0.19663  0.06366  0.21247  1.0000
  H   H27       1.0  0.21434  0.10494  0.20528  1.0000
  H   H28       1.0  0.19872  0.16557  0.14675  1.0000
  H   H29       1.0  0.18074  0.12569  0.15459  1.0000
  N   N2        1.0  0.03348  0.22079  0.12782  1.0000
  C   C31       1.0  0.02388  0.21768  0.11170  1.0000
  C   C32       1.0  0.02804  0.23563  0.14975  1.0000
  C   C33       1.0  0.04161  0.25151  0.11753  1.0000
  C   C34       1.0  0.04008  0.18190  0.13247  1.0000
  C   C35       1.0  0.03740  0.14520  0.12243  1.0000
  C   C36       1.0  0.04947  0.17985  0.14775  1.0000
  C   C37       1.0  0.04366  0.10889  0.12765  1.0000
  C   C38       1.0  0.05565  0.14331  0.15290  1.0000
  C   C39       1.0  0.05271  0.10787  0.14293  1.0000
  H   H30       1.0  0.01711  0.19637  0.11881  1.0000
  H   H31       1.0  0.01917  0.24749  0.10850  1.0000
  H   H32       1.0  0.02731  0.20766  0.09455  1.0000
  H   H33       1.0  0.02243  0.21223  0.15868  1.0000
  H   H34       1.0  0.02231  0.26337  0.14682  1.0000
  H   H35       1.0  0.03469  0.24345  0.16197  1.0000
  H   H36       1.0  0.04617  0.24077  0.10141  1.0000
  H   H37       1.0  0.03679  0.28072  0.11301  1.0000
  H   H38       1.0  0.04849  0.25876  0.12942  1.0000
  H   H39       1.0  0.03033  0.14337  0.11085  1.0000
  H   H40       1.0  0.05200  0.20644  0.15607  1.0000
  H   H41       1.0  0.04131  0.08103  0.12019  1.0000
  H   H42       1.0  0.06269  0.14230  0.16484  1.0000
  H   H43       1.0  0.05736  0.07938  0.14717  1.0000
  H   H44       1.0  0.15853  0.16136  0.24336  1.0000
  C   C40       1.0  0.16132  0.31479  0.09083  1.0000
  H   H45       1.0  0.16079  0.39565  0.01481  1.0000
  Fe  Fe4       1.0  0.99179  0.22472  0.13522  1.0000
  Fe  Fe5       1.0  0.22613  0.20943  0.14086  1.0000
  S   S12       1.0  0.16942  0.00903  0.30309  1.0000
  C   C41       1.0  0.16245  0.13005  0.24512  1.0000
  H   H46       1.0  0.18004  0.07540  0.23813  1.0000
  C   C42       1.0  0.15210  0.38113  0.01562  1.0000
  N   N3        1.0  0.14776  0.37298  0.03989  1.0000
  Fe  Fe6       1.0  0.16898  0.00570  0.48563  1.0000
  S   S13       1.0  0.18500  0.39440  0.99880  1.0000
  H   H47       1.0  0.98888  0.42960  0.00835  1.0000
  C   C43       1.0  0.15594  0.34647  0.05347  1.0000
  H   H48       1.0  0.21645  0.42397  0.07955  1.0000
  C   C44       1.0  0.20293  0.99198  0.15466  1.0000
  H   H49       1.0  0.17564  0.03661  0.34693  1.0000
  H   H50       1.0  0.20591  0.22138  0.20585  1.0000
  Fe  Fe7       1.0  0.22186  0.27182  0.10088  1.0000
  H   H51       1.0  0.00821  0.34579  0.03670  1.0000
  C   C45       1.0  0.22570  0.41440  0.08328  1.0000
  C   C46       1.0  0.15351  0.33840  0.07744  1.0000
  H   H52       1.0  0.21119  0.42390  0.12100  1.0000
  H   H53       1.0  0.13197  0.34907  0.05691  1.0000
  N   N4        1.0  0.98954  0.35595  0.03234  1.0000
  S   S14       1.0  0.02857  0.00271  0.13985  1.0000
  C   C47       1.0  0.14591  0.41269  0.05068  1.0000
  H   H54       1.0  0.15451  0.42618  0.05352  1.0000
  H   H55       1.0  0.15306  0.35295  0.00589  1.0000
  C   C48       1.0  0.17412  0.30421  0.05714  1.0000
  H   H56       1.0  0.00465  0.38959  0.01919  1.0000
  C   C49       1.0  0.18274  0.15543  0.24136  1.0000
  C   C50       1.0  0.17261  0.14318  0.27888  1.0000
  C   C51       1.0  0.00202  0.35803  0.02359  1.0000
  C   C52       1.0  0.18845  0.19835  0.20720  1.0000
  H   H57       1.0  0.18075  0.13890  0.28864  1.0000
  C   C53       1.0  0.19942  0.20389  0.21592  1.0000
  H   H58       1.0  0.19684  0.14658  0.26550  1.0000
  H   H59       1.0  0.00366  0.34016  0.00794  1.0000
  H   H60       1.0  0.15612  0.11193  0.25624  1.0000
  H   H61       1.0  0.10467  0.45568  0.00211  1.0000
  H   H62       1.0  0.15943  0.30971  0.10919  1.0000
  H   H63       1.0  0.12990  0.37279  0.02903  1.0000
  C   C54       1.0  0.20227  0.18520  0.23699  1.0000
  H   H64       1.0  0.16975  0.17577  0.27900  1.0000
  C   C55       1.0  0.98161  0.36953  0.01380  1.0000
  C   C56       1.0  0.16595  0.99050  0.33203  1.0000
  C   C57       1.0  0.16816  0.99622  0.37366  1.0000
  H   H65       1.0  0.17302  0.06688  0.26618  1.0000
  C   C58       1.0  0.17167  0.29803  0.08072  1.0000
  C   C59       1.0  0.98759  0.38287  0.05198  1.0000
  H   H66       1.0  0.16281  0.11632  0.22793  1.0000
  H   H67       1.0  0.18650  0.21150  0.19030  1.0000
  H   H68       1.0  0.14073  0.43488  0.03975  1.0000
  C   C60       1.0  0.02683  0.45826  0.08238  1.0000
  C   C61       1.0  0.17040  0.01025  0.35051  1.0000
  C   C62       1.0  0.13622  0.35373  0.03939  1.0000
  C   C63       1.0  0.98768  0.31371  0.04137  1.0000
  H   H69       1.0  0.19843  0.14488  0.46016  1.0000
  H   H70       1.0  0.14561  0.35072  0.08606  1.0000
  H   H71       1.0  0.17787  0.28046  0.09115  1.0000
  H   H72       1.0  0.14595  0.40205  0.00600  1.0000
  H   H73       1.0  0.17169  0.01170  0.38759  1.0000
  H   H74       1.0  0.20864  0.05326  0.15415  1.0000
  C   C64       1.0  0.20500  0.13435  0.47219  1.0000
  H   H75       1.0  0.99384  0.30434  0.05513  1.0000
  S   S15       1.0  0.12934  0.47280  0.99559  1.0000
  C   C65       1.0  0.21089  0.02242  0.14947  1.0000
  H   H76       1.0  0.19449  0.99937  0.16344  1.0000
  C   C66       1.0  0.20617  0.09317  0.47815  1.0000
  H   H77       1.0  0.21958  0.37675  0.12261  1.0000
  H   H78       1.0  0.16916  0.33242  0.02559  1.0000
  H   H79       1.0  0.21053  0.19366  0.47735  1.0000
  C   C67       1.0  0.21193  0.16198  0.48226  1.0000
  H   H80       1.0  0.98920  0.29151  0.02765  1.0000
  N   N5        1.0  0.22892  0.42691  0.10629  1.0000
  C   C68       1.0  0.98245  0.40902  0.00319  1.0000
  H   H81       1.0  0.22789  0.03720  0.13439  1.0000
  H   H82       1.0  0.22614  0.38080  0.08217  1.0000
  Fe  Fe8       1.0  0.16473  0.98768  0.26764  1.0000
  H   H83       1.0  0.98370  0.34912  0.48843  1.0000
  H   H84       1.0  0.21769  0.99042  0.06218  1.0000
  H   H85       1.0  0.98319  0.41658  0.19222  1.0000
  H   H86       1.0  0.99684  0.00199  0.22909  1.0000
  C   C69       1.0  0.99171  0.98091  0.23997  1.0000
  Fe  Fe9       1.0  0.21470  0.24740  0.61716  1.0000
  S   S16       1.0  0.21598  0.23897  0.57879  1.0000
  S   S17       1.0  0.20060  0.29635  0.62706  1.0000
  Fe  Fe10      1.0  0.21715  0.17180  0.58677  1.0000
  S   S18       1.0  0.21061  0.11587  0.56983  1.0000
  S   S19       1.0  0.21432  0.17997  0.62488  1.0000
  N   N6        1.0  0.99274  0.26598  0.55372  1.0000
  C   C70       1.0  0.10088  0.00500  0.51727  1.0000
  H   H87       1.0  0.05895  0.34628  0.69449  1.0000
  S   S20       1.0  0.15997  0.45306  0.96538  1.0000
  Fe  Fe11      1.0  0.17024  0.42927  0.73096  1.0000
  H   H88       1.0  0.08399  0.31715  0.65346  1.0000
  S   S21       1.0  0.18231  0.37472  0.72155  1.0000
  H   H89       1.0  0.18973  0.01976  0.52606  1.0000
  C   C71       1.0  0.06294  0.00709  0.51738  1.0000
  H   H90       1.0  0.08288  0.35808  0.67231  1.0000
  C   C72       1.0  0.08898  0.99682  0.52185  1.0000
  S   S22       1.0  0.15548  0.42222  0.75792  1.0000
  C   C73       1.0  0.06503  0.27992  0.63675  1.0000
  Fe  Fe12      1.0  0.99652  0.08611  0.61488  1.0000
  S   S23       1.0  0.99758  0.13904  0.58915  1.0000
  S   S24       1.0  0.00754  0.02683  0.61751  1.0000
  Fe  Fe13      1.0  0.99629  0.17947  0.61967  1.0000
  S   S25       1.0  0.00814  0.23528  0.61604  1.0000
  S   S26       1.0  0.99652  0.12610  0.64535  1.0000
  H   H91       1.0  0.06588  0.01922  0.53351  1.0000
  H   H92       1.0  0.98752  0.25316  0.58948  1.0000
  Fe  Fe14      1.0  0.03586  0.43986  0.67282  1.0000
  C   C74       1.0  0.20774  0.42163  0.65153  1.0000
  S   S27       1.0  0.02570  0.38015  0.67500  1.0000
  H   H93       1.0  0.12294  0.46283  0.68509  1.0000
  C   C75       1.0  0.01498  0.01716  0.57162  1.0000
  H   H94       1.0  0.04347  0.21158  0.63533  1.0000
  H   H95       1.0  0.07137  0.39884  0.64256  1.0000
  S   S28       1.0  0.16216  0.46403  0.81449  1.0000
  C   C76       1.0  0.12555  0.45780  0.92798  1.0000
  H   H96       1.0  0.01086  0.04666  0.56791  1.0000
  Fe  Fe15      1.0  0.14460  0.46586  0.73593  1.0000
  H   H97       1.0  0.07342  0.28610  0.62794  1.0000
  H   H98       1.0  0.22399  0.23059  0.53097  1.0000
  C   C77       1.0  0.01267  0.27576  0.63276  1.0000
  C   C78       1.0  0.00926  0.27930  0.65610  1.0000
  C   C79       1.0  0.01324  0.31151  0.66852  1.0000
  C   C80       1.0  0.02062  0.34107  0.65790  1.0000
  C   C81       1.0  0.02399  0.33766  0.63452  1.0000
  C   C82       1.0  0.02009  0.30524  0.62214  1.0000
  H   H99       1.0  0.00359  0.25712  0.66466  1.0000
  H   H100      1.0  0.01056  0.31356  0.68657  1.0000
  H   H101      1.0  0.02971  0.35974  0.62603  1.0000
  H   H102      1.0  0.02291  0.30293  0.60419  1.0000
  H   H103      1.0  0.05118  0.37692  0.67311  1.0000
  C   C83       1.0  0.98702  0.27532  0.53165  1.0000
  H   H104      1.0  0.98281  0.99731  0.65947  1.0000
  C   C84       1.0  0.20855  0.40759  0.62918  1.0000
  H   H105      1.0  0.22818  0.47429  0.60478  1.0000
  H   H106      1.0  0.98577  0.08194  0.69791  1.0000
  H   H107      1.0  0.11579  0.00085  0.49298  1.0000
  H   H108      1.0  0.20553  0.46136  0.71498  1.0000
  C   C85       1.0  0.16223  0.28463  0.65476  1.0000
  H   H109      1.0  0.99481  0.32727  0.56370  1.0000
  C   C86       1.0  0.20661  0.44857  0.69758  1.0000
  C   C87       1.0  0.21905  0.20722  0.52271  1.0000
  H   H110      1.0  0.21160  0.37657  0.62633  1.0000
  S   S29       1.0  0.12500  0.44984  0.73548  1.0000
  H   H111      1.0  0.10594  0.01768  0.53029  1.0000
  C   C88       1.0  0.19993  0.10376  0.55000  1.0000
  C   C89       1.0  0.19315  0.13335  0.53806  1.0000
  C   C90       1.0  0.18530  0.12200  0.52164  1.0000
  C   C91       1.0  0.18399  0.08099  0.51709  1.0000
  C   C92       1.0  0.19059  0.05137  0.52939  1.0000
  C   C93       1.0  0.19854  0.06274  0.54562  1.0000
  H   H112      1.0  0.19397  0.16496  0.54134  1.0000
  H   H113      1.0  0.00707  0.23208  0.53707  1.0000
  H   H114      1.0  0.00436  0.29061  0.57734  1.0000
  H   H115      1.0  0.20372  0.03956  0.55469  1.0000
  C   C94       1.0  0.19590  0.31839  0.65350  1.0000
  C   C95       1.0  0.20067  0.30592  0.67451  1.0000
  C   C96       1.0  0.19642  0.32371  0.69506  1.0000
  C   C97       1.0  0.18745  0.35436  0.69490  1.0000
  C   C98       1.0  0.18283  0.36742  0.67384  1.0000
  C   C99       1.0  0.18700  0.34934  0.65333  1.0000
  H   H116      1.0  0.20752  0.28221  0.67495  1.0000
  H   H117      1.0  0.20007  0.31339  0.71124  1.0000
  H   H118      1.0  0.17596  0.39097  0.67334  1.0000
  H   H119      1.0  0.18326  0.35929  0.63717  1.0000
  C   C100      1.0  0.14923  0.37306  0.70250  1.0000
  C   C101      1.0  0.15463  0.30609  0.66992  1.0000
  H   H120      1.0  0.14622  0.38025  0.68484  1.0000
  H   H121      1.0  0.14364  0.39250  0.71421  1.0000
  H   H122      1.0  0.15850  0.38265  0.70281  1.0000
  H   H123      1.0  0.14746  0.32398  0.66260  1.0000
  H   H124      1.0  0.16087  0.28635  0.63640  1.0000
  H   H125      1.0  0.05336  0.00126  0.52068  1.0000
  C   C102      1.0  0.06004  0.36518  0.67820  1.0000
  C   C103      1.0  0.13286  0.47049  0.85545  1.0000
  C   C104      1.0  0.11276  0.45662  0.71720  1.0000
  C   C105      1.0  0.11417  0.46124  0.69315  1.0000
  C   C106      1.0  0.06008  0.30565  0.65387  1.0000
  H   H126      1.0  0.06499  0.39206  0.68238  1.0000
  H   H127      1.0  0.16881  0.28074  0.71949  1.0000
  H   H128      1.0  0.18429  0.46057  0.68504  1.0000
  S   S30       1.0  0.15902  0.46907  0.70776  1.0000
  H   H129      1.0  0.14516  0.34272  0.74537  1.0000
  H   H130      1.0  0.16035  0.33566  0.73687  1.0000
  N   N7        1.0  0.06624  0.34224  0.65956  1.0000
  C   C107      1.0  0.06729  0.36995  0.63877  1.0000
  C   C108      1.0  0.00015  0.29885  0.56076  1.0000
  H   H131      1.0  0.00537  0.22198  0.56769  1.0000
  H   H132      1.0  0.03448  0.25479  0.66542  1.0000
  C   C109      1.0  0.20505  0.43260  0.61061  1.0000
  C   C110      1.0  0.04891  0.29529  0.66423  1.0000
  H   H133      1.0  0.13281  0.43483  0.92463  1.0000
  H   H134      1.0  0.02121  0.00898  0.53637  1.0000
  C   C111      1.0  0.15646  0.30542  0.69393  1.0000
  H   H135      1.0  0.07287  0.35660  0.62462  1.0000
  H   H136      1.0  0.21604  0.04768  0.60160  1.0000
  C   C112      1.0  0.17385  0.26038  0.68644  1.0000
  N   N8        1.0  0.14850  0.32952  0.70948  1.0000
  C   C113      1.0  0.15140  0.32466  0.73412  1.0000
  H   H137      1.0  0.16363  0.45558  0.89933  1.0000
  C   C114      1.0  0.04311  0.26154  0.65763  1.0000
  H   H138      1.0  0.08513  0.00383  0.53862  1.0000
  H   H139      1.0  0.21385  0.19036  0.53655  1.0000
  H   H140      1.0  0.05845  0.37782  0.63198  1.0000
  C   C115      1.0  0.22020  0.14909  0.49887  1.0000
  C   C116      1.0  0.98822  0.31281  0.51880  1.0000
  C   C117      1.0  0.98525  0.02566  0.66722  1.0000
  H   H141      1.0  0.04429  0.31320  0.67715  1.0000
  C   C118      1.0  0.20345  0.46170  0.65587  1.0000
  H   H142      1.0  0.09995  0.45055  0.74573  1.0000
  H   H143      1.0  0.10547  0.46540  0.66084  1.0000
  H   H144      1.0  0.22685  0.09410  0.51761  1.0000
  C   C119      1.0  0.07825  0.33096  0.66721  1.0000
  H   H145      1.0  0.15099  0.29253  0.74063  1.0000
  H   H146      1.0  0.07785  0.30906  0.68238  1.0000
  C   C120      1.0  0.02087  0.99571  0.55376  1.0000
  C   C121      1.0  0.01454  0.00055  0.59423  1.0000
  H   H147      1.0  0.13270  0.44409  0.84512  1.0000
  H   H148      1.0  0.06302  0.22726  0.61698  1.0000
  H   H149      1.0  0.08246  0.45490  0.72157  1.0000
  C   C122      1.0  0.21970  0.01935  0.60896  1.0000
  H   H150      1.0  0.16100  0.42888  0.86077  1.0000
  Fe  Fe16      1.0  0.06057  0.47549  0.67553  1.0000
  C   C123      1.0  0.05914  0.24623  0.63028  1.0000
  H   H151      1.0  0.12387  0.45721  0.94708  1.0000
  C   C124      1.0  0.13612  0.31759  0.70791  1.0000
  H   H152      1.0  0.20546  0.42105  0.59344  1.0000
  S   S31       1.0  0.04726  0.45197  0.70260  1.0000
  H   H153      1.0  0.99230  0.03870  0.65553  1.0000
  H   H154      1.0  0.21613  0.44015  0.69454  1.0000
  S   S32       1.0  0.04958  0.46031  0.64581  1.0000
  H   H155      1.0  0.20151  0.42050  0.69882  1.0000
  H   H156      1.0  0.06373  0.03131  0.50347  1.0000
  H   H157      1.0  0.18025  0.14517  0.51226  1.0000
  C   C125      1.0  0.16454  0.47544  0.88407  1.0000
  H   H158      1.0  0.00748  0.30508  0.54778  1.0000
  C   C126      1.0  0.17182  0.26183  0.66301  1.0000
  N   N9        1.0  0.98920  0.01881  0.69102  1.0000
  H   H159      1.0  0.13527  0.28462  0.71220  1.0000
  H   H160      1.0  0.99538  0.20150  0.54921  1.0000
  H   H161      1.0  0.13278  0.32419  0.69046  1.0000
  H   H162      1.0  0.00046  0.07015  0.68741  1.0000
  C   C127      1.0  0.10120  0.45437  0.72719  1.0000
  C   C128      1.0  0.16638  0.28195  0.70176  1.0000
  H   H163      1.0  0.13000  0.33459  0.71996  1.0000
  H   H164      1.0  0.12825  0.43743  0.88637  1.0000
  H   H165      1.0  0.17792  0.24630  0.65111  1.0000
  H   H166      1.0  0.21028  0.40005  0.66512  1.0000
  C   C129      1.0  0.04816  0.23722  0.64062  1.0000
  C   C130      1.0  0.99303  0.05822  0.69868  1.0000
  C   C131      1.0  0.09123  0.45689  0.71349  1.0000
  N   N10       1.0  0.20231  0.47763  0.67928  1.0000
  H   H167      1.0  0.18157  0.24364  0.69263  1.0000
  C   C132      1.0  0.00046  0.22885  0.55177  1.0000
  C   C133      1.0  0.16312  0.46025  0.86207  1.0000
  H   H168      1.0  0.99616  0.05533  0.71653  1.0000
  C   C134      1.0  0.10646  0.99567  0.49620  1.0000
  H   H169      1.0  0.21267  0.22387  0.51154  1.0000
  Fe  Fe17      1.0  0.16220  0.47613  0.77482  1.0000
  S   S33       1.0  0.17453  0.06864  0.49507  1.0000
  C   C135      1.0  0.22115  0.10678  0.50461  1.0000
  H   H170      1.0  0.00723  0.00360  0.67998  1.0000
  H   H171      1.0  0.21482  0.04746  0.49935  1.0000
  N   N11       1.0  0.22715  0.17918  0.50982  1.0000
  C   C136      1.0  0.99969  0.99050  0.69050  1.0000
  H   H172      1.0  0.20949  0.98349  0.58883  1.0000
  C   C137      1.0  0.09265  0.46063  0.68943  1.0000
  C   C138      1.0  0.20088  0.47210  0.61423  1.0000
  C   C139      1.0  0.13041  0.46713  0.87930  1.0000
  H   H173      1.0  0.11734  0.44800  0.92061  1.0000
  C   C140      1.0  0.21426  0.07942  0.49422  1.0000
  C   C141      1.0  0.22794  0.02017  0.62584  1.0000
  H   H174      1.0  0.99342  0.33676  0.52440  1.0000
  S   S34       1.0  0.17787  0.48012  0.74908  1.0000
  S   S35       1.0  0.08048  0.45908  0.67105  1.0000
  C   C142      1.0  0.10421  0.46267  0.67941  1.0000
  C   C143      1.0  0.98357  0.25884  0.57242  1.0000
  C   C144      1.0  0.98266  0.32040  0.49801  1.0000
  C   C145      1.0  0.21604  0.98235  0.60172  1.0000
  H   H175      1.0  0.00266  0.98300  0.70821  1.0000
  H   H176      1.0  0.23067  0.04904  0.63152  1.0000
  Fe  Fe18      1.0  0.03824  0.95200  0.16119  1.0000
  C   C146      1.0  0.99712  0.94585  0.24942  1.0000
  Fe  Fe19      1.0  0.04521  0.86055  0.15864  1.0000
  S   S36       1.0  0.05478  0.86186  0.19159  1.0000
  S   S37       1.0  0.04716  0.79609  0.14495  1.0000
  Fe  Fe20      1.0  0.03948  0.89965  0.20564  1.0000
  S   S38       1.0  0.03401  0.88878  0.24391  1.0000
  Fe  Fe21      1.0  0.06259  0.91981  0.17758  1.0000
  S   S39       1.0  0.08289  0.91953  0.17662  1.0000
  S   S40       1.0  0.02915  0.89452  0.17395  1.0000
  S   S41       1.0  0.05365  0.91712  0.14391  1.0000
  H   H177      1.0  0.00316  0.62467  0.99322  1.0000
  H   H178      1.0  0.08029  0.62081  0.06636  1.0000
  S   S42       1.0  0.98715  0.72324  0.35518  1.0000
  Fe  Fe22      1.0  0.04337  0.63757  0.04372  1.0000
  S   S43       1.0  0.05219  0.62733  0.00864  1.0000
  S   S44       1.0  0.03852  0.70303  0.05338  1.0000
  Fe  Fe23      1.0  0.04153  0.54574  0.05452  1.0000
  S   S45       1.0  0.05067  0.52918  0.02071  1.0000
  H   H179      1.0  0.09475  0.75814  0.12279  1.0000
  Fe  Fe24      1.0  0.06332  0.57836  0.02671  1.0000
  S   S46       1.0  0.08343  0.58505  0.02109  1.0000
  Fe  Fe25      1.0  0.03899  0.57935  0.00501  1.0000
  S   S47       1.0  0.05501  0.59138  0.06194  1.0000
  S   S48       1.0  0.02936  0.59317  0.03863  1.0000
  Fe  Fe26      1.0  0.22439  0.69508  0.08444  1.0000
  S   S49       1.0  0.21613  0.68462  0.11998  1.0000
  S   S50       1.0  0.22172  0.65507  0.05431  1.0000
  Fe  Fe27      1.0  0.21517  0.75262  0.12201  1.0000
  S   S51       1.0  0.19910  0.79341  0.13146  1.0000
  S   S52       1.0  0.22205  0.76307  0.08511  1.0000
  H   H180      1.0  0.07016  0.84173  0.23459  1.0000
  H   H181      1.0  0.98575  0.87030  0.30281  1.0000
  S   S53       1.0  0.15896  0.90033  0.46954  1.0000
  C   C147      1.0  0.10321  0.87753  0.24360  1.0000
  C   C148      1.0  0.16149  0.96190  0.37871  1.0000
  H   H182      1.0  0.08417  0.95388  0.47090  1.0000
  C   C149      1.0  0.00766  0.67544  0.02915  1.0000
  H   H183      1.0  0.98450  0.88320  0.44949  1.0000
  C   C150      1.0  0.06326  0.90206  0.27913  1.0000
  H   H184      1.0  0.10799  0.90453  0.17198  1.0000
  S   S54       1.0  0.15600  0.93118  0.25872  1.0000
  H   H185      1.0  0.00465  0.75486  0.01740  1.0000
  Fe  Fe28      1.0  0.17023  0.92644  0.23011  1.0000
  S   S55       1.0  0.18188  0.86883  0.22710  1.0000
  C   C151      1.0  0.02322  0.77315  0.45479  1.0000
  C   C152      1.0  0.01356  0.79593  0.46379  1.0000
  C   C153      1.0  0.00302  0.79984  0.45190  1.0000
  C   C154      1.0  0.00203  0.78161  0.43073  1.0000
  C   C155      1.0  0.01173  0.75918  0.42160  1.0000
  C   C156      1.0  0.02222  0.75476  0.43367  1.0000
  H   H186      1.0  0.03055  0.76618  0.28608  1.0000
  H   H187      1.0  0.99555  0.81686  0.45929  1.0000
  H   H188      1.0  0.01111  0.74487  0.40540  1.0000
  H   H189      1.0  0.02962  0.73702  0.42655  1.0000
  N   N12       1.0  0.01144  0.69635  0.00695  1.0000
  H   H190      1.0  0.12597  0.55965  0.00409  1.0000
  H   H191      1.0  0.98697  0.92418  0.42807  1.0000
  H   H192      1.0  0.06553  0.88140  0.29407  1.0000
  H   H193      1.0  0.05689  0.84863  0.25158  1.0000
  C   C157      1.0  0.19453  0.81361  0.15836  1.0000
  C   C158      1.0  0.19963  0.80059  0.17897  1.0000
  C   C159      1.0  0.19571  0.81791  0.19986  1.0000
  C   C160      1.0  0.18680  0.84879  0.20032  1.0000
  C   C161      1.0  0.18189  0.86234  0.17963  1.0000
  C   C162      1.0  0.18565  0.84454  0.15884  1.0000
  H   H194      1.0  0.20645  0.77678  0.17886  1.0000
  H   H195      1.0  0.19954  0.80711  0.21577  1.0000
  H   H196      1.0  0.17498  0.88584  0.17972  1.0000
  H   H197      1.0  0.18159  0.85469  0.14303  1.0000
  C   C163      1.0  0.18654  0.60806  0.03247  1.0000
  C   C164      1.0  0.18661  0.63738  0.04918  1.0000
  C   C165      1.0  0.19730  0.65089  0.05675  1.0000
  C   C166      1.0  0.20807  0.63569  0.04735  1.0000
  C   C167      1.0  0.20802  0.60582  0.03092  1.0000
  C   C168      1.0  0.19732  0.59178  0.02364  1.0000
  H   H198      1.0  0.10899  0.86769  0.22935  1.0000
  H   H199      1.0  0.19720  0.67390  0.06937  1.0000
  H   H200      1.0  0.21630  0.59400  0.02349  1.0000
  H   H201      1.0  0.19741  0.56931  0.01075  1.0000
  C   C169      1.0  0.10544  0.48765  0.00458  1.0000
  H   H202      1.0  0.12381  0.89482  0.47423  1.0000
  H   H203      1.0  0.17679  0.82013  0.37706  1.0000
  C   C170      1.0  0.09598  0.55299  0.01360  1.0000
  C   C171      1.0  0.01975  0.71941  0.27558  1.0000
  H   H204      1.0  0.05250  0.69736  0.48340  1.0000
  H   H205      1.0  0.07118  0.91285  0.22218  1.0000
  C   C172      1.0  0.04450  0.77102  0.11933  1.0000
  C   C173      1.0  0.04777  0.72958  0.11809  1.0000
  C   C174      1.0  0.04597  0.70824  0.09818  1.0000
  C   C175      1.0  0.04083  0.72811  0.07918  1.0000
  C   C176      1.0  0.03754  0.76953  0.08041  1.0000
  C   C177      1.0  0.03934  0.79088  0.10033  1.0000
  H   H206      1.0  0.05183  0.71388  0.13259  1.0000
  H   H207      1.0  0.04854  0.67644  0.09757  1.0000
  H   H208      1.0  0.03359  0.78533  0.06583  1.0000
  H   H209      1.0  0.03679  0.82270  0.10094  1.0000
  C   C178      1.0  0.02215  0.86109  0.25704  1.0000
  C   C179      1.0  0.01399  0.84294  0.24405  1.0000
  C   C180      1.0  0.00535  0.81827  0.25505  1.0000
  C   C181      1.0  0.00438  0.81306  0.27924  1.0000
  C   C182      1.0  0.01214  0.83297  0.29234  1.0000
  C   C183      1.0  0.02106  0.85646  0.28125  1.0000
  H   H210      1.0  0.01433  0.84793  0.22554  1.0000
  H   H211      1.0  0.99932  0.80333  0.24476  1.0000
  H   H212      1.0  0.01149  0.82931  0.31096  1.0000
  H   H213      1.0  0.02722  0.87082  0.29152  1.0000
  C   C184      1.0  0.09469  0.93795  0.19190  1.0000
  S   S56       1.0  0.98839  0.78727  0.41686  1.0000
  C   C185      1.0  0.10238  0.97588  0.22242  1.0000
  C   C186      1.0  0.98200  0.89627  0.43233  1.0000
  C   C187      1.0  0.11597  0.93662  0.19830  1.0000
  C   C188      1.0  0.10636  0.92464  0.18602  1.0000
  C   C189      1.0  0.01617  0.69837  0.25716  1.0000
  H   H214      1.0  0.18944  0.93736  0.32678  1.0000
  H   H215      1.0  0.12483  0.92559  0.19373  1.0000
  H   H216      1.0  0.18875  0.94111  0.36824  1.0000
  H   H217      1.0  0.06488  0.75260  0.06397  1.0000
  H   H218      1.0  0.21262  0.85596  0.10880  1.0000
  H   H219      1.0  0.15184  0.91575  0.36382  1.0000
  H   H220      1.0  0.22979  0.58927  0.11413  1.0000
  H   H221      1.0  0.22092  0.83982  0.14765  1.0000
  S   S57       1.0  0.17286  0.59551  0.02176  1.0000
  C   C190      1.0  0.07945  0.78649  0.10781  1.0000
  C   C191      1.0  0.08834  0.75643  0.10972  1.0000
  C   C192      1.0  0.20578  0.95219  0.14862  1.0000
  C   C193      1.0  0.08895  0.72412  0.09498  1.0000
  H   H222      1.0  0.19272  0.70471  0.01509  1.0000
  C   C194      1.0  0.07122  0.78459  0.09101  1.0000
  H   H223      1.0  0.07886  0.81126  0.11944  1.0000
  H   H224      1.0  0.11752  0.89570  0.26305  1.0000
  H   H225      1.0  0.01415  0.81002  0.48007  1.0000
  C   C195      1.0  0.07171  0.75238  0.07622  1.0000
  H   H226      1.0  0.07163  0.64823  0.08769  1.0000
  C   C196      1.0  0.08061  0.72094  0.07783  1.0000
  N   N13       1.0  0.08132  0.68590  0.06280  1.0000
  H   H227      1.0  0.02988  0.68225  0.01148  1.0000
  H   H228      1.0  0.10040  0.67906  0.06112  1.0000
  N   N14       1.0  0.21949  0.89934  0.13077  1.0000
  H   H229      1.0  0.18079  0.93411  0.29173  1.0000
  C   C197      1.0  0.09289  0.68432  0.04972  1.0000
  N   N15       1.0  0.03386  0.74927  0.20669  1.0000
  C   C198      1.0  0.04696  0.74890  0.20581  1.0000
  C   C199      1.0  0.03035  0.72225  0.18874  1.0000
  C   C200      1.0  0.02928  0.79077  0.20055  1.0000
  C   C201      1.0  0.02925  0.73747  0.23027  1.0000
  C   C202      1.0  0.03267  0.75839  0.24946  1.0000
  C   C203      1.0  0.02084  0.70700  0.23478  1.0000
  H   H230      1.0  0.06462  0.93391  0.28344  1.0000
  H   H231      1.0  0.08320  0.91895  0.29369  1.0000
  S   S58       1.0  0.15950  0.96141  0.20365  1.0000
  H   H232      1.0  0.05069  0.71896  0.21206  1.0000
  H   H233      1.0  0.05070  0.75508  0.18794  1.0000
  H   H234      1.0  0.05042  0.77261  0.21620  1.0000
  H   H235      1.0  0.03336  0.69028  0.19253  1.0000
  H   H236      1.0  0.03429  0.73135  0.17135  1.0000
  H   H237      1.0  0.02064  0.72372  0.18688  1.0000
  H   H238      1.0  0.03255  0.81365  0.21182  1.0000
  H   H239      1.0  0.03197  0.80054  0.18258  1.0000
  H   H240      1.0  0.01947  0.79255  0.20193  1.0000
  H   H241      1.0  0.03858  0.78324  0.24728  1.0000
  H   H242      1.0  0.01754  0.68992  0.22132  1.0000
  Fe  Fe29      1.0  0.14586  0.97042  0.23290  1.0000
  C   C204      1.0  0.09517  0.51161  0.01014  1.0000
  C   C205      1.0  0.06692  0.92061  0.23913  1.0000
  C   C206      1.0  0.11402  0.96190  0.21684  1.0000
  H   H243      1.0  0.03322  0.67662  0.47995  1.0000
  H   H244      1.0  0.00952  0.67584  0.26025  1.0000
  C   C207      1.0  0.08837  0.90667  0.27940  1.0000
  H   H245      1.0  0.06425  0.80793  0.08976  1.0000
  H   H246      1.0  0.06961  0.95159  0.24268  1.0000
  H   H247      1.0  0.07246  0.71474  0.03398  1.0000
  C   C208      1.0  0.06666  0.85017  0.25198  1.0000
  C   C209      1.0  0.08012  0.64780  0.07717  1.0000
  H   H248      1.0  0.01937  0.74223  0.02570  1.0000
  S   S59       1.0  0.03650  0.76513  0.46967  1.0000
  H   H249      1.0  0.09350  0.65908  0.03760  1.0000
  S   S60       1.0  0.98159  0.82126  0.35452  1.0000
  H   H250      1.0  0.99870  0.68649  0.03518  1.0000
  H   H251      1.0  0.05358  0.90025  0.27704  1.0000
  C   C210      1.0  0.15917  0.95648  0.33707  1.0000
  C   C211      1.0  0.21042  0.88655  0.11546  1.0000
  N   N16       1.0  0.18364  0.87079  0.30125  1.0000
  C   C212      1.0  0.19202  0.83768  0.29404  1.0000
  C   C213      1.0  0.17164  0.86121  0.29472  1.0000
  C   C214      1.0  0.18703  0.90826  0.28781  1.0000
  C   C215      1.0  0.18370  0.87453  0.32654  1.0000
  C   C216      1.0  0.18027  0.84172  0.34178  1.0000
  C   C217      1.0  0.18695  0.91038  0.33679  1.0000
  C   C218      1.0  0.17978  0.84505  0.36572  1.0000
  H   H252      1.0  0.01703  0.75646  0.99638  1.0000
  C   C219      1.0  0.18286  0.88078  0.37516  1.0000
  H   H253      1.0  0.20110  0.84326  0.29913  1.0000
  H   H254      1.0  0.18952  0.80769  0.30179  1.0000
  H   H255      1.0  0.19236  0.83489  0.27493  1.0000
  H   H256      1.0  0.16880  0.83139  0.30211  1.0000
  H   H257      1.0  0.17116  0.85988  0.27565  1.0000
  H   H258      1.0  0.16500  0.88459  0.30074  1.0000
  H   H259      1.0  0.19613  0.91679  0.29120  1.0000
  H   H260      1.0  0.18690  0.90452  0.26891  1.0000
  C   C220      1.0  0.11716  0.89170  0.48814  1.0000
  H   H261      1.0  0.17772  0.81348  0.33529  1.0000
  N   N17       1.0  0.07023  0.89098  0.25785  1.0000
  S   S61       1.0  0.03302  0.50658  0.08380  1.0000
  H   H262      1.0  0.02266  0.64564  0.99623  1.0000
  H   H263      1.0  0.18209  0.88389  0.39369  1.0000
  C   C221      1.0  0.22451  0.93435  0.04863  1.0000
  C   C222      1.0  0.18660  0.91309  0.36075  1.0000
  H   H264      1.0  0.06981  0.82655  0.26476  1.0000
  H   H265      1.0  0.10797  0.60186  0.01384  1.0000
  C   C223      1.0  0.20946  0.69737  0.99666  1.0000
  C   C224      1.0  0.01312  0.73945  0.01171  1.0000
  H   H266      1.0  0.10448  0.92091  0.29493  1.0000
  Fe  Fe30      1.0  0.16948  0.54196  0.00022  1.0000
  H   H267      1.0  0.15559  0.94109  0.32320  1.0000
  H   H268      1.0  0.08737  0.64240  0.08914  1.0000
  C   C225      1.0  0.10064  0.90783  0.28045  1.0000
  C   C226      1.0  0.09280  0.96436  0.20993  1.0000
  H   H269      1.0  0.20160  0.88413  0.12453  1.0000
  S   S62       1.0  0.12554  0.97483  0.23462  1.0000
  H   H270      1.0  0.21812  0.91601  0.05838  1.0000
  C   C227      1.0  0.07200  0.68726  0.04576  1.0000
  C   C228      1.0  0.22957  0.55673  0.11244  1.0000
  C   C229      1.0  0.11665  0.50461  0.00240  1.0000
  H   H271      1.0  0.22217  0.56231  0.07917  1.0000
  C   C230      1.0  0.21677  0.94167  0.13716  1.0000
  H   H272      1.0  0.22148  0.48978  0.07484  1.0000
  C   C231      1.0  0.10719  0.56995  0.01124  1.0000
  H   H273      1.0  0.22627  0.88011  0.16363  1.0000
  H   H274      1.0  0.10487  0.86321  0.46750  1.0000
  S   S63       1.0  0.99351  0.78066  0.29192  1.0000
  C   C232      1.0  0.19736  0.69274  0.99996  1.0000
  H   H275      1.0  0.05723  0.92217  0.23705  1.0000
  C   C233      1.0  0.08316  0.89104  0.26011  1.0000
  C   C234      1.0  0.09098  0.87686  0.24214  1.0000
  H   H276      1.0  0.00747  0.64207  0.02796  1.0000
  H   H277      1.0  0.09432  0.71306  0.03935  1.0000
  C   C235      1.0  0.10803  0.89334  0.26259  1.0000
  H   H278      1.0  0.17833  0.65019  0.05610  1.0000
  C   C236      1.0  0.02301  0.67865  0.99890  1.0000
  H   H279      1.0  0.01383  0.68035  0.04297  1.0000
  C   C237      1.0  0.11745  0.54603  0.00566  1.0000
  H   H280      1.0  0.19928  0.92966  0.15303  1.0000
  H   H281      1.0  0.06305  0.68638  0.05446  1.0000
  H   H282      1.0  0.08774  0.86679  0.22631  1.0000
  C   C238      1.0  0.21938  0.87221  0.15187  1.0000
  H   H283      1.0  0.20946  0.90822  0.10039  1.0000
  H   H284      1.0  0.09597  0.70144  0.09723  1.0000
  H   H285      1.0  0.21079  0.87381  0.16187  1.0000
  H   H286      1.0  0.07282  0.66075  0.03462  1.0000
  Fe  Fe31      1.0  0.17538  0.91565  0.48682  1.0000
  Fe  Fe32      1.0  0.98243  0.77027  0.38156  1.0000
  C   C239      1.0  0.15701  0.94229  0.36020  1.0000
  S   S64       1.0  0.04786  0.95864  0.19376  1.0000
  C   C240      1.0  0.22471  0.97350  0.13216  1.0000
  H   H287      1.0  0.01580  0.71356  0.29276  1.0000
  C   C241      1.0  0.02806  0.74909  0.27177  1.0000
  C   C242      1.0  0.10637  0.87384  0.48437  1.0000
  H   H288      1.0  0.21417  0.71269  0.00925  1.0000
  S   S65       1.0  0.17967  0.96649  0.46084  1.0000
  H   H289      1.0  0.06799  0.92330  0.48656  1.0000
  S   S66       1.0  0.15884  0.94115  0.40747  1.0000
  H   H290      1.0  0.08665  0.49800  0.01188  1.0000
  H   H291      1.0  0.98525  0.87375  0.41957  1.0000
  Fe  Fe33      1.0  0.16245  0.95448  0.44511  1.0000
  C   C243      1.0  0.08830  0.96921  0.48413  1.0000
  H   H292      1.0  0.00649  0.93968  0.24588  1.0000
  H   H293      1.0  0.98091  0.94734  0.46379  1.0000
  H   H294      1.0  0.10470  0.96930  0.46365  1.0000
  S   S67       1.0  0.17963  0.98066  0.24069  1.0000
  C   C244      1.0  0.22530  0.54136  0.09274  1.0000
  H   H295      1.0  0.99511  0.89175  0.27013  1.0000
  C   C245      1.0  0.22500  0.49942  0.09047  1.0000
  S   S68       1.0  0.16207  0.48543  0.01748  1.0000
  H   H296      1.0  0.03792  0.62427  0.48214  1.0000
  H   H297      1.0  0.08400  0.97596  0.21426  1.0000
  Fe  Fe34      1.0  0.98468  0.77407  0.32817  1.0000
  C   C246      1.0  0.10018  0.97787  0.47968  1.0000
  H   H298      1.0  0.05859  0.64647  0.48705  1.0000
  C   C247      1.0  0.99052  0.91851  0.26332  1.0000
  H   H299      1.0  0.06411  0.97426  0.47589  1.0000
  C   C248      1.0  0.22428  0.97620  0.05068  1.0000
  S   S69       1.0  0.15517  0.54947  0.97469  1.0000
  H   H300      1.0  0.13833  0.50637  0.94904  1.0000
  H   H301      1.0  0.20524  0.54078  0.66956  1.0000
  C   C249      1.0  0.20358  0.90351  0.60942  1.0000
  S   S70       1.0  0.00111  0.66674  0.89581  1.0000
  S   S71       1.0  0.15064  0.51985  0.75390  1.0000
  Fe  Fe35      1.0  0.16593  0.52004  0.72707  1.0000
  S   S72       1.0  0.17118  0.57321  0.70255  1.0000
  S   S73       1.0  0.16563  0.95538  0.51221  1.0000
  H   H302      1.0  0.00679  0.52827  0.84834  1.0000
  C   C250      1.0  0.02958  0.57311  0.87091  1.0000
  H   H303      1.0  0.21919  0.84117  0.60768  1.0000
  Fe  Fe36      1.0  0.04204  0.86809  0.53328  1.0000
  N   N18       1.0  0.21639  0.90610  0.60341  1.0000
  S   S74       1.0  0.03388  0.93238  0.53502  1.0000
  Fe  Fe37      1.0  0.05070  0.78348  0.55021  1.0000
  S   S75       1.0  0.05947  0.77057  0.51560  1.0000
  S   S76       1.0  0.05357  0.73940  0.58148  1.0000
  Fe  Fe38      1.0  0.06616  0.83374  0.51467  1.0000
  C   C251      1.0  0.22060  0.94481  0.61113  1.0000
  H   H304      1.0  0.21464  0.64781  0.94747  1.0000
  S   S77       1.0  0.05859  0.84550  0.55039  1.0000
  S   S78       1.0  0.03353  0.80706  0.53550  1.0000
  H   H305      1.0  0.00020  0.75471  0.97753  1.0000
  H   H306      1.0  0.03118  0.77604  0.61603  1.0000
  S   S79       1.0  0.22042  0.65651  0.67865  1.0000
  Fe  Fe39      1.0  0.21918  0.75337  0.60480  1.0000
  S   S80       1.0  0.20257  0.78670  0.59218  1.0000
  S   S81       1.0  0.21963  0.76265  0.64278  1.0000
  Fe  Fe40      1.0  0.04130  0.52328  0.64852  1.0000
  S   S82       1.0  0.05310  0.53959  0.67604  1.0000
  S   S83       1.0  0.03589  0.56469  0.61767  1.0000
  H   H307      1.0  0.21294  0.92729  0.56837  1.0000
  H   H308      1.0  0.22966  0.54599  0.61446  1.0000
  Fe  Fe41      1.0  0.03895  0.51521  0.70119  1.0000
  S   S84       1.0  0.03402  0.55759  0.73052  1.0000
  H   H309      1.0  0.22496  0.70195  0.71964  1.0000
  H   H310      1.0  0.22073  0.86758  0.63316  1.0000
  C   C252      1.0  0.04835  0.69112  0.59152  1.0000
  C   C253      1.0  0.03817  0.67525  0.58354  1.0000
  C   C254      1.0  0.03444  0.63678  0.59188  1.0000
  C   C255      1.0  0.04073  0.61382  0.60857  1.0000
  C   C256      1.0  0.05076  0.63003  0.61695  1.0000
  C   C257      1.0  0.05451  0.66845  0.60852  1.0000
  H   H311      1.0  0.03300  0.69306  0.57144  1.0000
  H   H312      1.0  0.02663  0.62471  0.58536  1.0000
  H   H313      1.0  0.05580  0.61261  0.62954  1.0000
  H   H314      1.0  0.06234  0.68050  0.61502  1.0000
  C   C258      1.0  0.19407  0.84908  0.52227  1.0000
  C   C259      1.0  0.20374  0.82127  0.52380  1.0000
  C   C260      1.0  0.20683  0.80317  0.54523  1.0000
  C   C261      1.0  0.20004  0.81193  0.56523  1.0000
  C   C262      1.0  0.19055  0.84048  0.56378  1.0000
  C   C263      1.0  0.18774  0.85963  0.54250  1.0000
  C   C264      1.0  0.20915  0.51483  0.67987  1.0000
  H   H315      1.0  0.21414  0.78122  0.54609  1.0000
  H   H316      1.0  0.18521  0.84733  0.57914  1.0000
  H   H317      1.0  0.18049  0.88172  0.54168  1.0000
  C   C265      1.0  0.11916  0.90636  0.50970  1.0000
  C   C266      1.0  0.11035  0.90200  0.52752  1.0000
  C   C267      1.0  0.09959  0.88392  0.52379  1.0000
  Fe  Fe42      1.0  0.14929  0.94389  0.49301  1.0000
  H   H318      1.0  0.17457  0.79066  0.51321  1.0000
  H   H319      1.0  0.02442  0.57831  0.88743  1.0000
  C   C268      1.0  0.05087  0.56304  0.56002  1.0000
  H   H320      1.0  0.09295  0.88088  0.53770  1.0000
  H   H321      1.0  0.19824  0.92733  0.60010  1.0000
  S   S85       1.0  0.08386  0.84881  0.49575  1.0000
  C   C269      1.0  0.18503  0.59545  0.69624  1.0000
  C   C270      1.0  0.18661  0.61964  0.67580  1.0000
  C   C271      1.0  0.19738  0.63836  0.67009  1.0000
  C   C272      1.0  0.20668  0.63342  0.68494  1.0000
  C   C273      1.0  0.20511  0.60929  0.70542  1.0000
  C   C274      1.0  0.19436  0.59024  0.71102  1.0000
  H   H322      1.0  0.17941  0.62415  0.66434  1.0000
  H   H323      1.0  0.19843  0.65696  0.65434  1.0000
  H   H324      1.0  0.21223  0.60541  0.71708  1.0000
  H   H325      1.0  0.19323  0.57214  0.72693  1.0000
  C   C275      1.0  0.00273  0.55468  0.78446  1.0000
  C   C276      1.0  0.00968  0.58870  0.78131  1.0000
  C   C277      1.0  0.01909  0.58933  0.76446  1.0000
  C   C278      1.0  0.02154  0.55636  0.75030  1.0000
  C   C279      1.0  0.01440  0.52284  0.75303  1.0000
  C   C280      1.0  0.00512  0.52193  0.77013  1.0000
  H   H326      1.0  0.00792  0.61430  0.79199  1.0000
  H   H327      1.0  0.02460  0.61529  0.76262  1.0000
  H   H328      1.0  0.18204  0.66706  0.98899  1.0000
  H   H329      1.0  0.14729  0.77195  0.50536  1.0000
  C   C281      1.0  0.02082  0.59330  0.95252  1.0000
  C   C282      1.0  0.01193  0.57556  0.94088  1.0000
  C   C283      1.0  0.00592  0.59742  0.92332  1.0000
  C   C284      1.0  0.00876  0.63739  0.91715  1.0000
  C   C285      1.0  0.01787  0.65480  0.92833  1.0000
  C   C286      1.0  0.02393  0.63279  0.94579  1.0000
  H   H330      1.0  0.00952  0.54487  0.94577  1.0000
  H   H331      1.0  0.99892  0.58360  0.91495  1.0000
  H   H332      1.0  0.02023  0.68553  0.92349  1.0000
  H   H333      1.0  0.03110  0.64616  0.95382  1.0000
  H   H334      1.0  0.17812  0.60494  0.97364  1.0000
  N   N19       1.0  0.12880  0.49870  0.91859  1.0000
  C   C287      1.0  0.04255  0.53719  0.78995  1.0000
  H   H335      1.0  0.00905  0.54050  0.87721  1.0000
  H   H336      1.0  0.98702  0.74233  0.94734  1.0000
  C   C288      1.0  0.01379  0.53284  0.86063  1.0000
  H   H337      1.0  0.07268  0.95027  0.54627  1.0000
  C   C289      1.0  0.99942  0.65138  0.98442  1.0000
  S   S86       1.0  0.99132  0.55046  0.80653  1.0000
  H   H338      1.0  0.15155  0.87944  0.51887  1.0000
  H   H339      1.0  0.15854  0.80496  0.49356  1.0000
  C   C290      1.0  0.18013  0.75249  0.54132  1.0000
  C   C291      1.0  0.04221  0.55849  0.54433  1.0000
  H   H340      1.0  0.04235  0.78104  0.65104  1.0000
  H   H341      1.0  0.16814  0.54533  0.82850  1.0000
  H   H342      1.0  0.02596  0.64404  0.50084  1.0000
  C   C292      1.0  0.19728  0.65307  0.96532  1.0000
  H   H343      1.0  0.20052  0.65384  0.91869  1.0000
  Fe  Fe43      1.0  0.98314  0.59444  0.83258  1.0000
  H   H344      1.0  0.01941  0.71618  0.61130  1.0000
  S   S87       1.0  0.98580  0.66072  0.83664  1.0000
  S   S88       1.0  0.22344  0.68583  0.60930  1.0000
  H   H345      1.0  0.03162  0.48621  0.78814  1.0000
  C   C293      1.0  0.03716  0.75469  0.64914  1.0000
  H   H346      1.0  0.05437  0.94749  0.49589  1.0000
  H   H347      1.0  0.04462  0.70473  0.53503  1.0000
  H   H348      1.0  0.05970  0.65659  0.54316  1.0000
  H   H349      1.0  0.13446  0.84142  0.53119  1.0000
  H   H350      1.0  0.01966  0.50056  0.82263  1.0000
  H   H351      1.0  0.04753  0.53095  0.77400  1.0000
  Fe  Fe44      1.0  0.04274  0.79728  0.50071  1.0000
  H   H352      1.0  0.20642  0.59039  0.93849  1.0000
  H   H353      1.0  0.22497  0.68477  0.97521  1.0000
  S   S89       1.0  0.02774  0.56450  0.97508  1.0000
  C   C294      1.0  0.20009  0.48655  0.63650  1.0000
  H   H354      1.0  0.19262  0.56754  0.93694  1.0000
  H   H355      1.0  0.19809  0.49147  0.59977  1.0000
  C   C295      1.0  0.00278  0.69087  0.98927  1.0000
  N   N20       1.0  0.15231  0.81598  0.52872  1.0000
  C   C296      1.0  0.03476  0.65039  0.49244  1.0000
  H   H356      1.0  0.18682  0.63194  0.91349  1.0000
  Fe  Fe45      1.0  0.22517  0.69711  0.64679  1.0000
  C   C297      1.0  0.16057  0.78699  0.54045  1.0000
  C   C298      1.0  0.15811  0.76984  0.56303  1.0000
  H   H357      1.0  0.11085  0.52145  0.91648  1.0000
  C   C299      1.0  0.16653  0.74520  0.57434  1.0000
  C   C300      1.0  0.03801  0.58031  0.82192  1.0000
  H   H358      1.0  0.15929  0.86681  0.54444  1.0000
  C   C301      1.0  0.98714  0.67800  0.95400  1.0000
  S   S90       1.0  0.18206  0.50926  0.97574  1.0000
  C   C302      1.0  0.16730  0.51595  0.88615  1.0000
  C   C303      1.0  0.11902  0.52760  0.92529  1.0000
  C   C304      1.0  0.03841  0.69434  0.52258  1.0000
  C   C305      1.0  0.19753  0.58834  0.94721  1.0000
  H   H359      1.0  0.12120  0.55960  0.92092  1.0000
  S   S91       1.0  0.16928  0.53709  0.91351  1.0000
  C   C306      1.0  0.22241  0.86969  0.61411  1.0000
  H   H360      1.0  0.14986  0.77566  0.57254  1.0000
  C   C307      1.0  0.02677  0.52055  0.81802  1.0000
  H   H361      1.0  0.16463  0.73318  0.59177  1.0000
  H   H362      1.0  0.14374  0.82377  0.49636  1.0000
  H   H363      1.0  0.14108  0.83344  0.55804  1.0000
  H   H364      1.0  0.05237  0.53992  0.57355  1.0000
  H   H365      1.0  0.16596  0.85647  0.51653  1.0000
  N   N21       1.0  0.03128  0.65376  0.68124  1.0000
  C   C308      1.0  0.02508  0.61743  0.67504  1.0000
  C   C309      1.0  0.04374  0.64085  0.68490  1.0000
  C   C310      1.0  0.02575  0.66749  0.70331  1.0000
  C   C311      1.0  0.03083  0.68742  0.66348  1.0000
  C   C312      1.0  0.03707  0.72316  0.66608  1.0000
  C   C313      1.0  0.02429  0.68605  0.64334  1.0000
  H   H366      1.0  0.01983  0.62859  0.84106  1.0000
  C   C314      1.0  0.02423  0.71821  0.62679  1.0000
  C   C315      1.0  0.22901  0.94668  0.62835  1.0000
  H   H367      1.0  0.02894  0.60511  0.65872  1.0000
  H   H368      1.0  0.02577  0.59239  0.68847  1.0000
  H   H369      1.0  0.01548  0.62401  0.67328  1.0000
  H   H370      1.0  0.04887  0.66487  0.69189  1.0000
  H   H371      1.0  0.04833  0.63175  0.66846  1.0000
  H   H372      1.0  0.04438  0.61460  0.69758  1.0000
  H   H373      1.0  0.01643  0.67816  0.70120  1.0000
  H   H374      1.0  0.02571  0.64248  0.71694  1.0000
  H   H375      1.0  0.03050  0.69265  0.71016  1.0000
  H   H376      1.0  0.04209  0.72672  0.68107  1.0000
  H   H377      1.0  0.01938  0.66008  0.63960  1.0000
  H   H378      1.0  0.13950  0.56951  0.84961  1.0000
  H   H379      1.0  0.00906  0.61163  0.86237  1.0000
  C   C316      1.0  0.17184  0.77744  0.52994  1.0000
  H   H380      1.0  0.03590  0.54707  0.87407  1.0000
  S   S92       1.0  0.98512  0.57669  0.87011  1.0000
  H   H381      1.0  0.22777  0.90826  0.57263  1.0000
  H   H382      1.0  0.03293  0.58384  0.51615  1.0000
  H   H383      1.0  0.19867  0.57342  0.96460  1.0000
  H   H384      1.0  0.19665  0.51724  0.63853  1.0000
  H   H385      1.0  0.18850  0.50017  0.70270  1.0000
  H   H386      1.0  0.06372  0.60216  0.57165  1.0000
  H   H387      1.0  0.14207  0.54115  0.92563  1.0000
  C   C317      1.0  0.16441  0.48512  0.84174  1.0000
  N   N22       1.0  0.04342  0.65974  0.50956  1.0000
  H   H388      1.0  0.03982  0.60782  0.83014  1.0000
  H   H389      1.0  0.98150  0.67291  0.94000  1.0000
  C   C318      1.0  0.99799  0.72372  0.97553  1.0000
  H   H390      1.0  0.11179  0.91313  0.54429  1.0000
  S   S93       1.0  0.13233  0.93103  0.51530  1.0000
  H   H391      1.0  0.17071  0.57222  0.86709  1.0000
  C   C319      1.0  0.09747  0.87008  0.50207  1.0000
  N   N23       1.0  0.06975  0.96977  0.51084  1.0000
  C   C320      1.0  0.21553  0.68123  0.97759  1.0000
  C   C321      1.0  0.02579  0.94049  0.58078  1.0000
  H   H392      1.0  0.99980  0.49549  0.77237  1.0000
  H   H393      1.0  0.03014  0.68614  0.53246  1.0000
  C   C322      1.0  0.03359  0.51188  0.79801  1.0000
  H   H394      1.0  0.20021  0.87382  0.60498  1.0000
  C   C323      1.0  0.05727  0.59813  0.55892  1.0000
  H   H395      1.0  0.02995  0.91106  0.58447  1.0000
  C   C324      1.0  0.13670  0.54121  0.85793  1.0000
  C   C325      1.0  0.19131  0.67082  0.98467  1.0000
  H   H396      1.0  0.21586  0.87430  0.57190  1.0000
  C   C326      1.0  0.14052  0.82023  0.54091  1.0000
  C   C327      1.0  0.19141  0.64950  0.92603  1.0000
  H   H397      1.0  0.17331  0.64960  0.95699  1.0000
  H   H398      1.0  0.01618  0.49720  0.74234  1.0000
  H   H399      1.0  0.03469  0.60082  0.86741  1.0000
  H   H400      1.0  0.17459  0.60162  0.94421  1.0000
  H   H401      1.0  0.13823  0.50941  0.82642  1.0000
  C   C328      1.0  0.20954  0.65978  0.96197  1.0000
  C   C329      1.0  0.23052  0.72036  0.73011  1.0000
  H   H402      1.0  0.20873  0.81309  0.50824  1.0000
  C   C330      1.0  0.21834  0.90408  0.57803  1.0000
  H   H403      1.0  0.02614  0.69355  0.98226  1.0000
  H   H404      1.0  0.20946  0.52538  0.69771  1.0000
  C   C331      1.0  0.15752  0.85634  0.52710  1.0000
  C   C332      1.0  0.16857  0.54087  0.86584  1.0000
  Fe  Fe46      1.0  0.98669  0.64301  0.87468  1.0000
  C   C333      1.0  0.03081  0.75210  0.62947  1.0000
  S   S94       1.0  0.02673  0.50195  0.67357  1.0000
  H   H405      1.0  0.20169  0.90668  0.62825  1.0000
  Fe  Fe47      1.0  0.16718  0.51199  0.95117  1.0000
  H   H406      1.0  0.18587  0.51143  0.67325  1.0000
  C   C334      1.0  0.99033  0.71711  0.95812  1.0000
  C   C335      1.0  0.15041  0.80344  0.50504  1.0000
  H   H407      1.0  0.13617  0.79065  0.54309  1.0000
  C   C336      1.0  0.13428  0.53826  0.88177  1.0000
  H   H408      1.0  0.18690  0.67998  0.92682  1.0000
  H   H409      1.0  0.05152  0.59154  0.79512  1.0000
  H   H410      1.0  0.18880  0.74667  0.53318  1.0000
  C   C337      1.0  0.03986  0.58911  0.52751  1.0000
  H   H411      1.0  0.01875  0.50357  0.86386  1.0000
  N   N24       1.0  0.19128  0.62847  0.94914  1.0000
  C   C338      1.0  0.02630  0.95727  0.55820  1.0000
  C   C339      1.0  0.01445  0.60232  0.84689  1.0000
  H   H412      1.0  0.07387  0.91087  0.52612  1.0000
  H   H413      1.0  0.03712  0.53138  0.54562  1.0000
  C   C340      1.0  0.02892  0.55481  0.83085  1.0000
  C   C341      1.0  0.05492  0.62910  0.54238  1.0000
  C   C342      1.0  0.04615  0.62555  0.52609  1.0000
  N   N25       1.0  0.02180  0.56525  0.85196  1.0000
  C   C343      1.0  0.17754  0.73679  0.56357  1.0000
  H   H414      1.0  0.01973  0.94901  0.61610  1.0000
  C   C344      1.0  0.18972  0.48781  0.68524  1.0000
  C   C345      1.0  0.16714  0.52567  0.84384  1.0000
  H   H415      1.0  0.21842  0.50952  0.67323  1.0000
  H   H416      1.0  0.00828  0.59738  0.83311  1.0000
  C   C346      1.0  0.17879  0.62098  0.95637  1.0000
  C   C347      1.0  0.13597  0.50740  0.84481  1.0000
  C   C348      1.0  0.05434  0.67221  0.49639  1.0000
  H   H417      1.0  0.18420  0.71888  0.57268  1.0000
  H   H418      1.0  0.11690  0.52561  0.94428  1.0000
  H   H419      1.0  0.03619  0.72094  0.51099  1.0000
  S   S95       1.0  0.18972  0.86734  0.49469  1.0000
  H   H420      1.0  0.05965  0.93209  0.53514  1.0000
  H   H421      1.0  0.06097  0.68373  0.50754  1.0000
  H   H422      1.0  0.99797  0.96163  0.68250  1.0000
  C   C349      1.0  0.06897  0.93954  0.53047  1.0000
  C   C350      1.0  0.13955  0.50945  0.92992  1.0000
  C   C351      1.0  0.99160  0.64526  0.96726  1.0000
  C   C352      1.0  0.06385  0.95308  0.49135  1.0000
  C   C353      1.0  0.13105  0.50112  0.89323  1.0000
  H   H423      1.0  0.98937  0.61476  0.96354  1.0000
  S   S96       1.0  0.05002  0.85918  0.49748  1.0000
  C   C354      1.0  0.04473  0.57142  0.80183  1.0000
  C   C355      1.0  0.01999  0.96213  0.59868  1.0000
  H   H424      1.0  0.22481  0.74683  0.73534  1.0000
  H   H425      1.0  0.13525  0.56513  0.89123  1.0000
  Fe  Fe48      1.0  0.14865  0.49053  0.99011  1.0000
  H   H426      1.0  0.14724  0.48956  0.92450  1.0000
  C   C356      1.0  0.08229  0.97882  0.50537  1.0000
  Fe  Fe49      1.0  0.24045  0.20114  0.09505  1.0000
  S   S97       1.0  0.24560  0.20482  0.13166  1.0000
  S   S98       1.0  0.25016  0.14510  0.08008  1.0000
  Fe  Fe50      1.0  0.24508  0.27236  0.12583  1.0000
  S   S99       1.0  0.26011  0.31478  0.13133  1.0000
  S   S100      1.0  0.24099  0.26909  0.08836  1.0000
  S   S101      1.0  0.43196  0.40982  0.15102  1.0000
  H   H427      1.0  0.41895  0.34140  0.10271  1.0000
  C   C357      1.0  0.43134  0.99521  0.07888  1.0000
  Fe  Fe51      1.0  0.47077  0.19304  0.13903  1.0000
  S   S102      1.0  0.46681  0.12865  0.15099  1.0000
  S   S103      1.0  0.46264  0.24245  0.16246  1.0000
  C   C358      1.0  0.46736  0.39964  0.19785  1.0000
  H   H428      1.0  0.47314  0.43526  0.23753  1.0000
  Fe  Fe52      1.0  0.46436  0.11793  0.11360  1.0000
  S   S104      1.0  0.44719  0.09264  0.10248  1.0000
  H   H429      1.0  0.42282  0.98920  0.07260  1.0000
  S   S105      1.0  0.46752  0.18301  0.10191  1.0000
  H   H430      1.0  0.30299  0.19438  0.02311  1.0000
  C   C359      1.0  0.45341  0.01158  0.09534  1.0000
  H   H431      1.0  0.23614  0.46923  0.14239  1.0000
  C   C360      1.0  0.28726  0.19472  0.07530  1.0000
  H   H432      1.0  0.24323  0.41072  0.12887  1.0000
  S   S106      1.0  0.30484  0.44237  0.47603  1.0000
  Fe  Fe53      1.0  0.29012  0.43897  0.22946  1.0000
  C   C361      1.0  0.41561  0.32215  0.13810  1.0000
  S   S107      1.0  0.27900  0.38460  0.22306  1.0000
  H   H433      1.0  0.35754  0.41215  0.20878  1.0000
  H   H434      1.0  0.26890  0.18120  0.10820  1.0000
  C   C362      1.0  0.46388  0.47252  0.20006  1.0000
  S   S108      1.0  0.30424  0.43292  0.25567  1.0000
  H   H435      1.0  0.30395  0.12083  0.03275  1.0000
  H   H436      1.0  0.24771  0.42166  0.09920  1.0000
  H   H437      1.0  0.41376  0.29551  0.17240  1.0000
  S   S109      1.0  0.29623  0.45598  0.41272  1.0000
  H   H438      1.0  0.27083  0.22596  0.12334  1.0000
  C   C363      1.0  0.29419  0.12614  0.06524  1.0000
  C   C364      1.0  0.27555  0.20349  0.11211  1.0000
  C   C365      1.0  0.28874  0.25443  0.09761  1.0000
  H   H439      1.0  0.26912  0.01205  0.00954  1.0000
  C   C366      1.0  0.46355  0.43208  0.23534  1.0000
  C   C367      1.0  0.47401  0.36771  0.20903  1.0000
  H   H440      1.0  0.29262  0.24108  0.04920  1.0000
  H   H441      1.0  0.44525  0.42869  0.19124  1.0000
  C   C368      1.0  0.44477  0.04285  0.09384  1.0000
  N   N26       1.0  0.46091  0.43212  0.21056  1.0000
  C   C369      1.0  0.24119  0.98212  0.02269  1.0000
  H   H442      1.0  0.28365  0.13795  0.09532  1.0000
  H   H443      1.0  0.25549  0.06732  0.00117  1.0000
  C   C370      1.0  0.46657  0.41299  0.48973  1.0000
  C   C371      1.0  0.47941  0.33624  0.19658  1.0000
  C   C372      1.0  0.44018  0.36261  0.15464  1.0000
  C   C373      1.0  0.44531  0.34404  0.13500  1.0000
  C   C374      1.0  0.45191  0.30687  0.13690  1.0000
  C   C375      1.0  0.45359  0.28775  0.15858  1.0000
  C   C376      1.0  0.44828  0.30592  0.17817  1.0000
  C   C377      1.0  0.44153  0.34272  0.17621  1.0000
  H   H444      1.0  0.44423  0.35871  0.11816  1.0000
  H   H445      1.0  0.45592  0.29358  0.12162  1.0000
  H   H446      1.0  0.44943  0.29141  0.19503  1.0000
  H   H447      1.0  0.43726  0.35538  0.19137  1.0000
  S   S110      1.0  0.28647  0.08155  0.00059  1.0000
  C   C378      1.0  0.28801  0.15215  0.08027  1.0000
  H   H448      1.0  0.41240  0.35196  0.14312  1.0000
  H   H449      1.0  0.42697  0.05828  0.08436  1.0000
  C   C379      1.0  0.26043  0.12887  0.05788  1.0000
  C   C380      1.0  0.26536  0.08912  0.05967  1.0000
  C   C381      1.0  0.27335  0.07424  0.04241  1.0000
  C   C382      1.0  0.27641  0.09873  0.02289  1.0000
  C   C383      1.0  0.27160  0.13865  0.02123  1.0000
  C   C384      1.0  0.26366  0.15369  0.03859  1.0000
  H   H450      1.0  0.26303  0.06978  0.07463  1.0000
  H   H451      1.0  0.27735  0.04413  0.04443  1.0000
  C   C385      1.0  0.47985  0.03769  0.21051  1.0000
  H   H452      1.0  0.25994  0.18423  0.03684  1.0000
  C   C386      1.0  0.27321  0.36791  0.19730  1.0000
  C   C387      1.0  0.26517  0.33645  0.19897  1.0000
  C   C388      1.0  0.26086  0.32048  0.17906  1.0000
  C   C389      1.0  0.26469  0.33534  0.15712  1.0000
  C   C390      1.0  0.27278  0.36670  0.15542  1.0000
  C   C391      1.0  0.27695  0.38309  0.17534  1.0000
  H   H453      1.0  0.26226  0.32425  0.21583  1.0000
  H   H454      1.0  0.25468  0.29632  0.18075  1.0000
  H   H455      1.0  0.27583  0.37850  0.13858  1.0000
  H   H456      1.0  0.28314  0.40719  0.17368  1.0000
  H   H457      1.0  0.46192  0.01755  0.10166  1.0000
  C   C392      1.0  0.27094  0.24389  0.07829  1.0000
  Fe  Fe54      1.0  0.42488  0.46468  0.17171  1.0000
  N   N27       1.0  0.28075  0.22330  0.09066  1.0000
  H   H458      1.0  0.26455  0.22158  0.07327  1.0000
  C   C393      1.0  0.35812  0.44460  0.20957  1.0000
  H   H459      1.0  0.46116  0.41995  0.16402  1.0000
  H   H460      1.0  0.47497  0.36587  0.22741  1.0000
  H   H461      1.0  0.29654  0.24008  0.10605  1.0000
  H   H462      1.0  0.26604  0.26629  0.08926  1.0000
  H   H463      1.0  0.30006  0.41479  0.37027  1.0000
  C   C394      1.0  0.36920  0.46239  0.20541  1.0000
  C   C395      1.0  0.29296  0.20924  0.05435  1.0000
  H   H464      1.0  0.28243  0.18775  0.12256  1.0000
  H   H465      1.0  0.24921  0.05941  0.02953  1.0000
  N   N28       1.0  0.43009  0.20477  0.11929  1.0000
  C   C396      1.0  0.43408  0.20243  0.09461  1.0000
  C   C397      1.0  0.44047  0.19469  0.13318  1.0000
  C   C398      1.0  0.42126  0.17333  0.12443  1.0000
  C   C399      1.0  0.42497  0.24506  0.12527  1.0000
  C   C400      1.0  0.42397  0.27824  0.10884  1.0000
  C   C401      1.0  0.42097  0.25227  0.14832  1.0000
  C   C402      1.0  0.41934  0.31611  0.11530  1.0000
  H   H466      1.0  0.29201  0.27397  0.08274  1.0000
  C   C403      1.0  0.44808  0.42685  0.20929  1.0000
  H   H467      1.0  0.44115  0.22410  0.08978  1.0000
  H   H468      1.0  0.43794  0.17181  0.09074  1.0000
  H   H469      1.0  0.42664  0.20819  0.08303  1.0000
  H   H470      1.0  0.44726  0.21782  0.12987  1.0000
  H   H471      1.0  0.44461  0.16465  0.12908  1.0000
  H   H472      1.0  0.43830  0.19322  0.15204  1.0000
  H   H473      1.0  0.41312  0.18046  0.11491  1.0000
  H   H474      1.0  0.42478  0.14280  0.11939  1.0000
  H   H475      1.0  0.41867  0.17020  0.14310  1.0000
  H   H476      1.0  0.42689  0.27602  0.09097  1.0000
  H   H477      1.0  0.42156  0.22871  0.16180  1.0000
  C   C404      1.0  0.41642  0.29032  0.15458  1.0000
  H   H478      1.0  0.29516  0.20708  0.17489  1.0000
  C   C405      1.0  0.29897  0.18285  0.03932  1.0000
  N   N29       1.0  0.31715  0.33695  0.20247  1.0000
  C   C406      1.0  0.33021  0.33486  0.19903  1.0000
  C   C407      1.0  0.31271  0.37348  0.18928  1.0000
  C   C408      1.0  0.31429  0.34217  0.22737  1.0000
  C   C409      1.0  0.31139  0.30077  0.19495  1.0000
  C   C410      1.0  0.31776  0.26752  0.18495  1.0000
  C   C411      1.0  0.29895  0.29830  0.19733  1.0000
  C   C412      1.0  0.31192  0.23414  0.17783  1.0000
  C   C413      1.0  0.29319  0.26508  0.19001  1.0000
  C   C414      1.0  0.29966  0.23297  0.18033  1.0000
  H   H479      1.0  0.33419  0.30879  0.20913  1.0000
  H   H480      1.0  0.33303  0.33297  0.18049  1.0000
  H   H481      1.0  0.33423  0.36253  0.20496  1.0000
  H   H482      1.0  0.31400  0.36999  0.17037  1.0000
  H   H483      1.0  0.31735  0.40102  0.19351  1.0000
  H   H484      1.0  0.30314  0.38015  0.19311  1.0000
  H   H485      1.0  0.31675  0.31438  0.23788  1.0000
  H   H486      1.0  0.31905  0.36782  0.23385  1.0000
  H   H487      1.0  0.30473  0.34919  0.23114  1.0000
  H   H488      1.0  0.32725  0.26650  0.18248  1.0000
  H   H489      1.0  0.29357  0.32221  0.20493  1.0000
  H   H490      1.0  0.31694  0.20896  0.17040  1.0000
  H   H491      1.0  0.28364  0.26442  0.19196  1.0000
  C   C415      1.0  0.29527  0.47360  0.38308  1.0000
  H   H492      1.0  0.23988  0.06153  0.00514  1.0000
  H   H493      1.0  0.29443  0.09368  0.06903  1.0000
  C   C416      1.0  0.29959  0.14139  0.04476  1.0000
  H   H494      1.0  0.32855  0.46395  0.44916  1.0000
  H   H495      1.0  0.28417  0.27537  0.11000  1.0000
  H   H496      1.0  0.46055  0.40416  0.24498  1.0000
  H   H497      1.0  0.26215  0.99754  0.03712  1.0000
  H   H498      1.0  0.35208  0.47029  0.42676  1.0000
  H   H499      1.0  0.27400  0.26095  0.06233  1.0000
  H   H500      1.0  0.23177  0.42680  0.06928  1.0000
  C   C417      1.0  0.29738  0.45842  0.34189  1.0000
  C   C418      1.0  0.46263  0.47479  0.46718  1.0000
  H   H501      1.0  0.29933  0.43669  0.32879  1.0000
  C   C419      1.0  0.43373  0.03439  0.08559  1.0000
  C   C420      1.0  0.46979  0.44044  0.47176  1.0000
  C   C421      1.0  0.29778  0.44606  0.36554  1.0000
  S   S111      1.0  0.33408  0.44398  0.22000  1.0000
  Fe  Fe55      1.0  0.29453  0.47973  0.44964  1.0000
  H   H502      1.0  0.42688  0.43632  0.48870  1.0000
  H   H503      1.0  0.44550  0.39699  0.21717  1.0000
  H   H504      1.0  0.37700  0.44363  0.20146  1.0000
  H   H505      1.0  0.33216  0.43893  0.42280  1.0000
  H   H506      1.0  0.45884  0.45781  0.24408  1.0000
  C   C422      1.0  0.23250  0.99992  0.03802  1.0000
  C   C423      1.0  0.47845  0.33571  0.17282  1.0000
  H   H507      1.0  0.44279  0.45045  0.21860  1.0000
  C   C424      1.0  0.46654  0.39799  0.17361  1.0000
  H   H508      1.0  0.47355  0.47679  0.19964  1.0000
  S   S112      1.0  0.30157  0.47183  0.20266  1.0000
  H   H509      1.0  0.23188  0.03207  0.04061  1.0000
  H   H510      1.0  0.47578  0.04260  0.19407  1.0000
  H   H511      1.0  0.27401  0.15807  0.00635  1.0000
  H   H512      1.0  0.23988  0.18289  0.48118  1.0000
  C   C425      1.0  0.24856  0.05037  0.01147  1.0000
  Fe  Fe56      1.0  0.31535  0.46955  0.22942  1.0000
  C   C426      1.0  0.24071  0.40789  0.11082  1.0000
  H   H513      1.0  0.31917  0.47112  0.42577  1.0000
  S   S113      1.0  0.41662  0.46880  0.20781  1.0000
  H   H514      1.0  0.36099  0.98939  0.02321  1.0000
  C   C427      1.0  0.34783  0.46834  0.21486  1.0000
  H   H515      1.0  0.47107  0.36553  0.14295  1.0000
  N   N30       1.0  0.25029  0.00584  0.00952  1.0000
  H   H516      1.0  0.46096  0.47726  0.18217  1.0000
  H   H517      1.0  0.47784  0.43505  0.46128  1.0000
  C   C428      1.0  0.32858  0.46772  0.43003  1.0000
  C   C429      1.0  0.47211  0.36670  0.16135  1.0000
  H   H518      1.0  0.24104  0.37465  0.10823  1.0000
  C   C430      1.0  0.26201  0.99376  0.01822  1.0000
  H   H519      1.0  0.48055  0.00964  0.29388  1.0000
  H   H520      1.0  0.34055  0.98114  0.01118  1.0000
  H   H521      1.0  0.44107  0.02758  0.71965  1.0000
  S   S114      1.0  0.23692  0.17104  0.58783  1.0000
  S   S115      1.0  0.24098  0.13232  0.65183  1.0000
  H   H522      1.0  0.47011  0.06479  0.69649  1.0000
  S   S116      1.0  0.24500  0.26926  0.54967  1.0000
  H   H523      1.0  0.31000  0.41950  0.58632  1.0000
  C   C431      1.0  0.23562  0.16078  0.52634  1.0000
  H   H524      1.0  0.45421  0.39736  0.51690  1.0000
  H   H525      1.0  0.44712  0.46121  0.67923  1.0000
  H   H526      1.0  0.24101  0.44481  0.52983  1.0000
  C   C432      1.0  0.44502  0.01261  0.70418  1.0000
  S   S117      1.0  0.30517  0.01928  0.75306  1.0000
  S   S118      1.0  0.23443  0.25020  0.62016  1.0000
  Fe  Fe57      1.0  0.29337  0.02010  0.72303  1.0000
  S   S119      1.0  0.28706  0.08136  0.70698  1.0000
  Fe  Fe58      1.0  0.46955  0.34018  0.61513  1.0000
  N   N31       1.0  0.43761  0.46303  0.51288  1.0000
  S   S120      1.0  0.46494  0.40288  0.59873  1.0000
  C   C433      1.0  0.33442  0.44675  0.55431  1.0000
  Fe  Fe59      1.0  0.46901  0.24942  0.63209  1.0000
  S   S121      1.0  0.45543  0.20041  0.64274  1.0000
  C   C434      1.0  0.28026  0.04045  0.64286  1.0000
  S   S122      1.0  0.46371  0.30857  0.64859  1.0000
  N   N32       1.0  0.28153  0.99585  0.64724  1.0000
  S   S123      1.0  0.28309  0.40720  0.53162  1.0000
  C   C435      1.0  0.42989  0.43437  0.59493  1.0000
  C   C436      1.0  0.28282  0.07320  0.84309  1.0000
  S   S124      1.0  0.43977  0.01537  0.63896  1.0000
  C   C437      1.0  0.45132  0.42970  0.59457  1.0000
  C   C438      1.0  0.44045  0.41205  0.59940  1.0000
  H   H527      1.0  0.25553  0.44001  0.51647  1.0000
  H   H528      1.0  0.29271  0.14064  0.77721  1.0000
  H   H529      1.0  0.41892  0.47005  0.50790  1.0000
  H   H530      1.0  0.23974  0.22484  0.49985  1.0000
  H   H531      1.0  0.44014  0.38109  0.60631  1.0000
  H   H532      1.0  0.46436  0.38548  0.67868  1.0000
  H   H533      1.0  0.23096  0.14403  0.54098  1.0000
  H   H534      1.0  0.27149  0.12821  0.74837  1.0000
  C   C439      1.0  0.45134  0.14862  0.64156  1.0000
  C   C440      1.0  0.45774  0.12042  0.62814  1.0000
  C   C441      1.0  0.45400  0.08016  0.62751  1.0000
  C   C442      1.0  0.44388  0.06706  0.64039  1.0000
  C   C443      1.0  0.43755  0.09508  0.65405  1.0000
  C   C444      1.0  0.44125  0.13545  0.65454  1.0000
  H   H535      1.0  0.46549  0.12979  0.61799  1.0000
  H   H536      1.0  0.45898  0.05900  0.61681  1.0000
  H   H537      1.0  0.42971  0.08592  0.66396  1.0000
  H   H538      1.0  0.43617  0.15683  0.66494  1.0000
  H   H539      1.0  0.45378  0.40349  0.65801  1.0000
  S   S125      1.0  0.28224  0.98823  0.96418  1.0000
  C   C445      1.0  0.31948  0.42492  0.58224  1.0000
  H   H540      1.0  0.27611  0.05832  0.75303  1.0000
  C   C446      1.0  0.36005  0.98663  0.72208  1.0000
  H   H541      1.0  0.27115  0.05210  0.64745  1.0000
  H   H542      1.0  0.31693  0.44506  0.52479  1.0000
  C   C447      1.0  0.27222  0.36964  0.53616  1.0000
  C   C448      1.0  0.26949  0.35448  0.55881  1.0000
  C   C449      1.0  0.26104  0.32451  0.56338  1.0000
  C   C450      1.0  0.25527  0.30884  0.54527  1.0000
  C   C451      1.0  0.25792  0.32431  0.52264  1.0000
  C   C452      1.0  0.26627  0.35464  0.51810  1.0000
  H   H543      1.0  0.27401  0.36576  0.57297  1.0000
  H   H544      1.0  0.25916  0.31295  0.58086  1.0000
  H   H545      1.0  0.25356  0.31247  0.50845  1.0000
  C   C453      1.0  0.46404  0.47488  0.64720  1.0000
  C   C454      1.0  0.25389  0.11937  0.66713  1.0000
  C   C455      1.0  0.25402  0.08406  0.68174  1.0000
  C   C456      1.0  0.26404  0.07206  0.69414  1.0000
  C   C457      1.0  0.27410  0.09525  0.69204  1.0000
  C   C458      1.0  0.27394  0.13075  0.67764  1.0000
  C   C459      1.0  0.26393  0.14265  0.66514  1.0000
  H   H546      1.0  0.24627  0.06598  0.68355  1.0000
  H   H547      1.0  0.26393  0.04511  0.70545  1.0000
  H   H548      1.0  0.28164  0.14909  0.67597  1.0000
  H   H549      1.0  0.26397  0.16992  0.65406  1.0000
  H   H550      1.0  0.26825  0.36578  0.50058  1.0000
  H   H551      1.0  0.23820  0.44864  0.57031  1.0000
  H   H552      1.0  0.26191  0.14840  0.84972  1.0000
  H   H553      1.0  0.33932  0.46243  0.56713  1.0000
  C   C460      1.0  0.31567  0.42821  0.54174  1.0000
  C   C461      1.0  0.25048  0.44943  0.53242  1.0000
  H   H554      1.0  0.31652  0.99061  0.86156  1.0000
  C   C462      1.0  0.46047  0.05986  0.69815  1.0000
  H   H555      1.0  0.44076  0.02656  0.68873  1.0000
  C   C463      1.0  0.45153  0.47001  0.58563  1.0000
  H   H556      1.0  0.26080  0.12357  0.77192  1.0000
  H   H557      1.0  0.28298  0.00639  0.68329  1.0000
  C   C464      1.0  0.27494  0.10013  0.85408  1.0000
  C   C465      1.0  0.26899  0.12804  0.81691  1.0000
  S   S126      1.0  0.47365  0.28170  0.59731  1.0000
  H   H558      1.0  0.33807  0.41502  0.55386  1.0000
  H   H559      1.0  0.32289  0.44097  0.59678  1.0000
  H   H560      1.0  0.26417  0.02393  0.61646  1.0000
  C   C466      1.0  0.45614  0.46234  0.68582  1.0000
  N   N33       1.0  0.46536  0.44878  0.66851  1.0000
  N   N34       1.0  0.27825  0.10034  0.77967  1.0000
  H   H561      1.0  0.47805  0.01960  0.77104  1.0000
  H   H562      1.0  0.30007  0.00268  0.65212  1.0000
  C   C467      1.0  0.27574  0.05947  0.77217  1.0000
  C   C468      1.0  0.27695  0.10083  0.80515  1.0000
  C   C469      1.0  0.46900  0.02042  0.73925  1.0000
  C   C470      1.0  0.47370  0.00176  0.75906  1.0000
  Fe  Fe60      1.0  0.23419  0.18142  0.62570  1.0000
  H   H563      1.0  0.25352  0.42799  0.54646  1.0000
  H   H564      1.0  0.42151  0.42031  0.59845  1.0000
  C   C471      1.0  0.29416  0.98401  0.64261  1.0000
  H   H565      1.0  0.42681  0.43974  0.54190  1.0000
  Fe  Fe61      1.0  0.23567  0.23905  0.58189  1.0000
  H   H566      1.0  0.29669  0.98774  0.62390  1.0000
  H   H567      1.0  0.24070  0.18428  0.53421  1.0000
  H   H568      1.0  0.46998  0.05270  0.73683  1.0000
  H   H569      1.0  0.29192  0.10942  0.75286  1.0000
  H   H570      1.0  0.28218  0.03588  0.77843  1.0000
  H   H571      1.0  0.26685  0.05001  0.77881  1.0000
  H   H572      1.0  0.28815  0.05172  0.85326  1.0000
  H   H573      1.0  0.32393  0.39428  0.58197  1.0000
  C   C472      1.0  0.42743  0.46490  0.49783  1.0000
  H   H574      1.0  0.26872  0.99135  0.67573  1.0000
  H   H575      1.0  0.29880  0.47188  0.57389  1.0000
  H   H576      1.0  0.45677  0.07250  0.68180  1.0000
  H   H577      1.0  0.31923  0.39669  0.53960  1.0000
  H   H578      1.0  0.26338  0.14992  0.80790  1.0000
  H   H579      1.0  0.33656  0.46074  0.53688  1.0000
  H   H580      1.0  0.48027  0.35442  0.54031  1.0000
  N   N35       1.0  0.32150  0.44842  0.56004  1.0000
  C   C473      1.0  0.23405  0.20309  0.49195  1.0000
  H   H581      1.0  0.27418  0.09963  0.87276  1.0000
  C   C474      1.0  0.44865  0.45455  0.49898  1.0000
  H   H582      1.0  0.43407  0.40167  0.52503  1.0000
  H   H583      1.0  0.29713  0.08814  0.77940  1.0000
  H   H584      1.0  0.45618  0.44232  0.70181  1.0000
  H   H585      1.0  0.45635  0.07858  0.71201  1.0000
  Fe  Fe62      1.0  0.28914  0.44956  0.50099  1.0000
  C   C475      1.0  0.43516  0.43211  0.53178  1.0000
  H   H586      1.0  0.24216  0.13977  0.51779  1.0000
  S   S127      1.0  0.31014  0.00549  0.97042  1.0000
  C   C476      1.0  0.29051  0.11004  0.77198  1.0000
  H   H587      1.0  0.28254  0.04944  0.62453  1.0000
  C   C477      1.0  0.43010  0.47444  0.58558  1.0000
  H   H588      1.0  0.46980  0.46419  0.63252  1.0000
  C   C478      1.0  0.27022  0.12982  0.76750  1.0000
  C   C479      1.0  0.46295  0.40655  0.66340  1.0000
  N   N36       1.0  0.45801  0.01622  0.70231  1.0000
  H   H589      1.0  0.27192  0.16157  0.77149  1.0000
  H   H590      1.0  0.30600  0.42632  0.54542  1.0000
  H   H591      1.0  0.44224  0.43012  0.54437  1.0000
  C   C480      1.0  0.26805  0.12751  0.84104  1.0000
  C   C481      1.0  0.28385  0.07347  0.81903  1.0000
  H   H592      1.0  0.29007  0.05171  0.81140  1.0000
  H   H593      1.0  0.28619  0.05702  0.65353  1.0000
  H   H594      1.0  0.46883  0.39533  0.64907  1.0000
  C   C482      1.0  0.47755  0.45030  0.67632  1.0000
  C   C483      1.0  0.26553  0.99144  0.61832  1.0000
  C   C484      1.0  0.46316  0.99768  0.72341  1.0000
  H   H595      1.0  0.26840  0.47618  0.55513  1.0000
  H   H596      1.0  0.25649  0.01725  0.97409  1.0000
  H   H597      1.0  0.24141  0.00251  0.97788  1.0000
  C   C485      1.0  0.45618  0.41979  0.50326  1.0000
  H   H598      1.0  0.36056  0.00652  0.73619  1.0000
  H   H599      1.0  0.47214  0.38612  0.49307  1.0000
  H   H600      1.0  0.35565  0.47899  0.50005  1.0000
  C   C486      1.0  0.46282  0.99473  0.68182  1.0000
  C   C487      1.0  0.27838  0.98671  0.67195  1.0000
  H   H601      1.0  0.48007  0.42916  0.53209  1.0000
  H   H602      1.0  0.47263  0.99331  0.68104  1.0000
  H   H603      1.0  0.45999  0.01005  0.66542  1.0000
  H   H604      1.0  0.23893  0.98470  0.64876  1.0000
  C   C488      1.0  0.23257  0.98392  0.63553  1.0000
  H   H605      1.0  0.47330  0.46987  0.71151  1.0000
  C   C489      1.0  0.23915  0.48023  0.57345  1.0000
  Fe  Fe63      1.0  0.29271  0.01768  0.99023  1.0000
  H   H606      1.0  0.45487  0.47504  0.64116  1.0000
  H   H607      1.0  0.37856  0.99039  0.71167  1.0000
  C   C490      1.0  0.25036  0.99746  0.98464  1.0000
  C   C491      1.0  0.48010  0.46157  0.69880  1.0000
  H   H608      1.0  0.30972  0.98368  0.82199  1.0000
  H   H609      1.0  0.48039  0.43278  0.56276  1.0000
  H   H610      1.0  0.25194  0.98331  0.59458  1.0000
  C   C492      1.0  0.30758  0.98195  0.85934  1.0000
  S   S128      1.0  0.33660  0.98211  0.73642  1.0000
  C   C493      1.0  0.25252  0.65786  0.22967  1.0000
  S   S129      1.0  0.41097  0.50747  0.15625  1.0000
  H   H611      1.0  0.44902  0.67263  0.13650  1.0000
  Fe  Fe64      1.0  0.42839  0.52186  0.21111  1.0000
  S   S130      1.0  0.43714  0.51529  0.17580  1.0000
  S   S131      1.0  0.43970  0.51975  0.24293  1.0000
  Fe  Fe65      1.0  0.42279  0.55825  0.16271  1.0000
  S   S132      1.0  0.42846  0.60526  0.13434  1.0000
  C   C494      1.0  0.37016  0.50431  0.20651  1.0000
  S   S133      1.0  0.41490  0.56840  0.19838  1.0000
  S   S134      1.0  0.29388  0.51669  0.30566  1.0000
  Fe  Fe66      1.0  0.23990  0.76196  0.09988  1.0000
  C   C495      1.0  0.44390  0.69991  0.14077  1.0000
  S   S135      1.0  0.25290  0.81245  0.09246  1.0000
  C   C496      1.0  0.34878  0.51028  0.21582  1.0000
  S   S136      1.0  0.23977  0.63583  0.15776  1.0000
  S   S137      1.0  0.24302  0.69473  0.09635  1.0000
  C   C497      1.0  0.23297  0.91600  0.03397  1.0000
  Fe  Fe67      1.0  0.39595  0.88928  0.04014  1.0000
  S   S138      1.0  0.40418  0.87419  0.07420  1.0000
  S   S139      1.0  0.38002  0.93317  0.03456  1.0000
  Fe  Fe68      1.0  0.41576  0.84364  0.01305  1.0000
  S   S140      1.0  0.42530  0.82364  0.04500  1.0000
  Fe  Fe69      1.0  0.40735  0.81092  0.06165  1.0000
  S   S141      1.0  0.40177  0.76098  0.08851  1.0000
  Fe  Fe70      1.0  0.42168  0.88782  0.05614  1.0000
  H   H612      1.0  0.41956  0.56775  0.41947  1.0000
  S   S142      1.0  0.39795  0.82544  0.02867  1.0000
  S   S143      1.0  0.41332  0.90832  0.02317  1.0000
  S   S144      1.0  0.30140  0.53869  0.46022  1.0000
  C   C498      1.0  0.35985  0.52805  0.21166  1.0000
  C   C499      1.0  0.32622  0.50684  0.35902  1.0000
  H   H613      1.0  0.26447  0.96153  0.01525  1.0000
  C   C500      1.0  0.23347  0.53031  0.13007  1.0000
  S   S145      1.0  0.46464  0.65224  0.29879  1.0000
  C   C501      1.0  0.26363  0.63703  0.26373  1.0000
  S   S146      1.0  0.46509  0.67995  0.41122  1.0000
  H   H614      1.0  0.32040  0.54445  0.42321  1.0000
  S   S147      1.0  0.30903  0.52877  0.24409  1.0000
  H   H615      1.0  0.44964  0.83629  0.13788  1.0000
  Fe  Fe71      1.0  0.29437  0.52831  0.21929  1.0000
  S   S148      1.0  0.28972  0.58678  0.19871  1.0000
  C   C502      1.0  0.43928  0.60479  0.45789  1.0000
  C   C503      1.0  0.44090  0.64550  0.46181  1.0000
  C   C504      1.0  0.44888  0.66798  0.44742  1.0000
  C   C505      1.0  0.45534  0.65002  0.42905  1.0000
  C   C506      1.0  0.45382  0.60916  0.42526  1.0000
  C   C507      1.0  0.44583  0.58669  0.43963  1.0000
  H   H616      1.0  0.46513  0.49618  0.45318  1.0000
  H   H617      1.0  0.44997  0.69957  0.45049  1.0000
  H   H618      1.0  0.45873  0.59493  0.41121  1.0000
  H   H619      1.0  0.44459  0.55529  0.43636  1.0000
  H   H620      1.0  0.28907  0.58000  0.27011  1.0000
  H   H621      1.0  0.28691  0.62989  0.25681  1.0000
  C   C508      1.0  0.42979  0.76839  0.15094  1.0000
  H   H622      1.0  0.41318  0.62965  0.43921  1.0000
  C   C509      1.0  0.34180  0.91601  0.01349  1.0000
  C   C510      1.0  0.36091  0.88663  0.02543  1.0000
  C   C511      1.0  0.36524  0.92534  0.02716  1.0000
  C   C512      1.0  0.32582  0.50586  0.38311  1.0000
  H   H623      1.0  0.26892  0.72214  0.06189  1.0000
  C   C513      1.0  0.27612  0.75868  0.03333  1.0000
  H   H624      1.0  0.25362  0.82696  0.00743  1.0000
  C   C514      1.0  0.25735  0.83355  0.06491  1.0000
  C   C515      1.0  0.25292  0.82064  0.04462  1.0000
  C   C516      1.0  0.25697  0.83757  0.02305  1.0000
  C   C517      1.0  0.26545  0.86752  0.02156  1.0000
  C   C518      1.0  0.26958  0.88136  0.04189  1.0000
  C   C519      1.0  0.26560  0.86425  0.06342  1.0000
  H   H625      1.0  0.24652  0.79717  0.04554  1.0000
  H   H626      1.0  0.24872  0.72881  0.26980  1.0000
  H   H627      1.0  0.27587  0.90510  0.04107  1.0000
  H   H628      1.0  0.26899  0.87467  0.07905  1.0000
  C   C520      1.0  0.25400  0.62160  0.16743  1.0000
  C   C521      1.0  0.26352  0.64709  0.16410  1.0000
  C   C522      1.0  0.27444  0.63574  0.17354  1.0000
  C   C523      1.0  0.27599  0.59866  0.18616  1.0000
  C   C524      1.0  0.26653  0.57279  0.18909  1.0000
  C   C525      1.0  0.25557  0.58442  0.17996  1.0000
  H   H629      1.0  0.26242  0.67587  0.15463  1.0000
  H   H630      1.0  0.28169  0.65597  0.17120  1.0000
  H   H631      1.0  0.26760  0.54415  0.19871  1.0000
  H   H632      1.0  0.24824  0.56460  0.18276  1.0000
  C   C526      1.0  0.42111  0.64949  0.12240  1.0000
  C   C527      1.0  0.41082  0.66650  0.13280  1.0000
  C   C528      1.0  0.40518  0.70110  0.12246  1.0000
  C   C529      1.0  0.40983  0.71951  0.10177  1.0000
  C   C530      1.0  0.42033  0.70327  0.09175  1.0000
  C   C531      1.0  0.42589  0.66839  0.10196  1.0000
  H   H633      1.0  0.40721  0.65280  0.14872  1.0000
  H   H634      1.0  0.39708  0.71343  0.13038  1.0000
  H   H635      1.0  0.42399  0.71684  0.07578  1.0000
  H   H636      1.0  0.43390  0.65567  0.09385  1.0000
  C   C532      1.0  0.44662  0.55734  0.25795  1.0000
  C   C533      1.0  0.45361  0.54489  0.27654  1.0000
  C   C534      1.0  0.45929  0.57334  0.28905  1.0000
  C   C535      1.0  0.45800  0.61478  0.28319  1.0000
  C   C536      1.0  0.45097  0.62725  0.26468  1.0000
  C   C537      1.0  0.44535  0.59876  0.25207  1.0000
  H   H637      1.0  0.29534  0.86686  0.04749  1.0000
  H   H638      1.0  0.46465  0.56319  0.30323  1.0000
  H   H639      1.0  0.44989  0.65920  0.25999  1.0000
  H   H640      1.0  0.44000  0.60889  0.23787  1.0000
  H   H641      1.0  0.42792  0.49023  0.48456  1.0000
  H   H642      1.0  0.34099  0.52904  0.21987  1.0000
  H   H643      1.0  0.36652  0.86020  0.02930  1.0000
  S   S149      1.0  0.47399  0.60363  0.35984  1.0000
  H   H644      1.0  0.30183  0.77332  0.07285  1.0000
  C   C538      1.0  0.42627  0.81690  0.10665  1.0000
  H   H645      1.0  0.42617  0.84537  0.09566  1.0000
  H   H646      1.0  0.44196  0.87091  0.11844  1.0000
  H   H647      1.0  0.44675  0.83404  0.08521  1.0000
  C   C539      1.0  0.29496  0.76985  0.06106  1.0000
  H   H648      1.0  0.42402  0.79387  0.15540  1.0000
  H   H649      1.0  0.42279  0.73183  0.17984  1.0000
  H   H650      1.0  0.29043  0.53569  0.38961  1.0000
  C   C540      1.0  0.24849  0.69332  0.23991  1.0000
  C   C541      1.0  0.25995  0.63009  0.24134  1.0000
  H   H651      1.0  0.26285  0.60309  0.23260  1.0000
  C   C542      1.0  0.35776  0.95928  0.02200  1.0000
  H   H652      1.0  0.28969  0.55761  0.34813  1.0000
  H   H653      1.0  0.24988  0.65187  0.21250  1.0000
  H   H654      1.0  0.31874  0.78468  0.04623  1.0000
  H   H655      1.0  0.23325  0.88335  0.03257  1.0000
  H   H656      1.0  0.43426  0.84972  0.14327  1.0000
  N   N37       1.0  0.30431  0.81763  0.03024  1.0000
  H   H657      1.0  0.25715  0.57131  0.28943  1.0000
  S   S150      1.0  0.32719  0.90790  0.00522  1.0000
  C   C543      1.0  0.28525  0.78354  0.02522  1.0000
  H   H658      1.0  0.28431  0.79925  0.00862  1.0000
  C   C544      1.0  0.25934  0.67350  0.27377  1.0000
  S   S151      1.0  0.27047  0.88714  0.99396  1.0000
  C   C545      1.0  0.31477  0.81595  0.04467  1.0000
  H   H659      1.0  0.28557  0.73167  0.08643  1.0000
  Fe  Fe72      1.0  0.40359  0.51508  0.19266  1.0000
  C   C546      1.0  0.25188  0.70112  0.26192  1.0000
  N   N38       1.0  0.37711  0.60393  0.14402  1.0000
  C   C547      1.0  0.36561  0.62685  0.14640  1.0000
  C   C548      1.0  0.37459  0.56009  0.14607  1.0000
  C   C549      1.0  0.38423  0.61381  0.16349  1.0000
  C   C550      1.0  0.38383  0.61360  0.12206  1.0000
  C   C551      1.0  0.38066  0.64681  0.10681  1.0000
  C   C552      1.0  0.39431  0.59088  0.11600  1.0000
  C   C553      1.0  0.38757  0.65618  0.08676  1.0000
  C   C554      1.0  0.40109  0.60030  0.09584  1.0000
  C   C555      1.0  0.39774  0.63296  0.08128  1.0000
  H   H660      1.0  0.35996  0.62161  0.13182  1.0000
  H   H661      1.0  0.36054  0.61749  0.16260  1.0000
  H   H662      1.0  0.36681  0.65996  0.14735  1.0000
  S   S152      1.0  0.28207  0.49578  0.24468  1.0000
  H   H663      1.0  0.36873  0.55254  0.16154  1.0000
  Fe  Fe73      1.0  0.47651  0.65765  0.38064  1.0000
  H   H664      1.0  0.38658  0.64621  0.16229  1.0000
  H   H665      1.0  0.37942  0.60797  0.18044  1.0000
  H   H666      1.0  0.39261  0.59518  0.16401  1.0000
  H   H667      1.0  0.37309  0.66674  0.11021  1.0000
  Fe  Fe74      1.0  0.23466  0.68751  0.13211  1.0000
  H   H668      1.0  0.38529  0.68261  0.07583  1.0000
  H   H669      1.0  0.37025  0.55048  0.13063  1.0000
  H   H670      1.0  0.40327  0.64126  0.06617  1.0000
  C   C556      1.0  0.29443  0.49873  0.33530  1.0000
  N   N39       1.0  0.43801  0.80794  0.11606  1.0000
  S   S153      1.0  0.23295  0.75491  0.13695  1.0000
  C   C557      1.0  0.29237  0.51397  0.37649  1.0000
  C   C558      1.0  0.27625  0.74011  0.05533  1.0000
  C   C559      1.0  0.24115  0.93943  0.02113  1.0000
  H   H671      1.0  0.34626  0.49762  0.45081  1.0000
  H   H672      1.0  0.45072  0.73316  0.11150  1.0000
  C   C560      1.0  0.44470  0.73501  0.12641  1.0000
  H   H673      1.0  0.45945  0.49758  0.20985  1.0000
  C   C561      1.0  0.29194  0.52633  0.35284  1.0000
  H   H674      1.0  0.27124  0.54438  0.28814  1.0000
  N   N40       1.0  0.27154  0.60695  0.27560  1.0000
  C   C562      1.0  0.33628  0.50382  0.39554  1.0000
  C   C563      1.0  0.42904  0.73306  0.16510  1.0000
  H   H675      1.0  0.28091  0.59563  0.30682  1.0000
  C   C564      1.0  0.34928  0.88208  0.01872  1.0000
  H   H676      1.0  0.38267  0.54049  0.14839  1.0000
  H   H677      1.0  0.26354  0.55498  0.26246  1.0000
  H   H678      1.0  0.32895  0.54115  0.44820  1.0000
  H   H679      1.0  0.30178  0.81525  0.99353  1.0000
  C   C565      1.0  0.34615  0.95471  0.01511  1.0000
  C   C566      1.0  0.28259  0.60073  0.26125  1.0000
  C   C567      1.0  0.32957  0.54060  0.42901  1.0000
  C   C568      1.0  0.29505  0.78951  0.03871  1.0000
  H   H680      1.0  0.28103  0.58688  0.24474  1.0000
  H   H681      1.0  0.45464  0.51297  0.28133  1.0000
  C   C569      1.0  0.44111  0.84257  0.12957  1.0000
  H   H682      1.0  0.26708  0.62238  0.31074  1.0000
  H   H683      1.0  0.26162  0.68144  0.29072  1.0000
  S   S154      1.0  0.29474  0.96165  0.01362  1.0000
  S   S155      1.0  0.42882  0.57574  0.47453  1.0000
  H   H684      1.0  0.23290  0.86092  0.11407  1.0000
  C   C570      1.0  0.43762  0.77044  0.13108  1.0000
  S   S156      1.0  0.43738  0.91350  0.07311  1.0000
  C   C571      1.0  0.45222  0.48179  0.48051  1.0000
  C   C572      1.0  0.43607  0.69889  0.16000  1.0000
  H   H685      1.0  0.31721  0.50654  0.39196  1.0000
  H   H686      1.0  0.30593  0.88204  0.02509  1.0000
  C   C573      1.0  0.27491  0.61901  0.29858  1.0000
  H   H687      1.0  0.44452  0.78123  0.08448  1.0000
  C   C574      1.0  0.26560  0.56781  0.27904  1.0000
  H   H688      1.0  0.27975  0.64769  0.29721  1.0000
  H   H689      1.0  0.26865  0.75505  0.02285  1.0000
  H   H690      1.0  0.43521  0.67105  0.17053  1.0000
  H   H691      1.0  0.31253  0.82706  0.06218  1.0000
  H   H692      1.0  0.34606  0.85197  0.01750  1.0000
  H   H693      1.0  0.23670  0.54273  0.14541  1.0000
  C   C575      1.0  0.34721  0.49873  0.43160  1.0000
  H   H694      1.0  0.39761  0.56654  0.12723  1.0000
  H   H695      1.0  0.29208  0.86410  0.01771  1.0000
  C   C576      1.0  0.29919  0.85945  0.03014  1.0000
  H   H696      1.0  0.33441  0.56767  0.42233  1.0000
  H   H697      1.0  0.32181  0.83597  0.03715  1.0000
  H   H698      1.0  0.40929  0.58335  0.09209  1.0000
  H   H699      1.0  0.24275  0.71474  0.23070  1.0000
  H   H700      1.0  0.24757  0.92373  0.01009  1.0000
  Fe  Fe75      1.0  0.47712  0.64529  0.32865  1.0000
  C   C577      1.0  0.43996  0.96388  0.08052  1.0000
  H   H701      1.0  0.23182  0.91144  0.10187  1.0000
  H   H702      1.0  0.23326  0.96855  0.12358  1.0000
  Fe  Fe76      1.0  0.28589  0.53883  0.48651  1.0000
  H   H703      1.0  0.45772  0.94837  0.09014  1.0000
  S   S157      1.0  0.38383  0.52906  0.20119  1.0000
  H   H704      1.0  0.36044  0.56048  0.21263  1.0000
  H   H705      1.0  0.23854  0.90068  0.12925  1.0000
  N   N41       1.0  0.43734  0.64207  0.35670  1.0000
  C   C578      1.0  0.44776  0.66666  0.35957  1.0000
  C   C579      1.0  0.44178  0.60272  0.34765  1.0000
  C   C580      1.0  0.42999  0.66276  0.33901  1.0000
  C   C581      1.0  0.43039  0.63792  0.37893  1.0000
  C   C582      1.0  0.42629  0.67293  0.39062  1.0000
  C   C583      1.0  0.42758  0.59970  0.38971  1.0000
  C   C584      1.0  0.42012  0.66987  0.41204  1.0000
  C   C585      1.0  0.42130  0.59707  0.41107  1.0000
  C   C586      1.0  0.41767  0.63201  0.42227  1.0000
  H   H706      1.0  0.45306  0.65341  0.37380  1.0000
  H   H707      1.0  0.45359  0.66845  0.34359  1.0000
  H   H708      1.0  0.44537  0.69845  0.36370  1.0000
  H   H709      1.0  0.44751  0.58572  0.36006  1.0000
  H   H710      1.0  0.44726  0.60706  0.33129  1.0000
  H   H711      1.0  0.43444  0.58344  0.34356  1.0000
  H   H712      1.0  0.42707  0.69391  0.34367  1.0000
  H   H713      1.0  0.43495  0.66569  0.32194  1.0000
  H   H714      1.0  0.42194  0.64561  0.33661  1.0000
  H   H715      1.0  0.42801  0.70300  0.38348  1.0000
  H   H716      1.0  0.43031  0.57136  0.38228  1.0000
  H   H717      1.0  0.41740  0.69694  0.42102  1.0000
  H   H718      1.0  0.43589  0.65985  0.47573  1.0000
  H   H719      1.0  0.42376  0.79207  0.09591  1.0000
  C   C587      1.0  0.44670  0.80533  0.09612  1.0000
  H   H720      1.0  0.41912  0.82077  0.12021  1.0000
  H   H721      1.0  0.44695  0.50890  0.47627  1.0000
  N   N42       1.0  0.33554  0.50269  0.42108  1.0000
  H   H722      1.0  0.45584  0.79971  0.10184  1.0000
  C   C588      1.0  0.28565  0.74565  0.06915  1.0000
  C   C589      1.0  0.34747  0.50424  0.35817  1.0000
  H   H723      1.0  0.31809  0.50812  0.34996  1.0000
  H   H724      1.0  0.31610  0.82795  0.00026  1.0000
  S   S158      1.0  0.47830  0.70076  0.34959  1.0000
  C   C590      1.0  0.30861  0.80870  0.00636  1.0000
  Fe  Fe77      1.0  0.31111  0.50167  0.48749  1.0000
  Fe  Fe78      1.0  0.29708  0.49248  0.26895  1.0000
  H   H725      1.0  0.35586  0.50361  0.34835  1.0000
  C   C591      1.0  0.23119  0.89322  0.11846  1.0000
  H   H726      1.0  0.35560  0.50188  0.39015  1.0000
  H   H727      1.0  0.48069  0.74477  0.40355  1.0000
  C   C592      1.0  0.33702  0.50597  0.34657  1.0000
  C   C593      1.0  0.23319  0.48834  0.12805  1.0000
  H   H728      1.0  0.31165  0.77642  0.00525  1.0000
  H   H729      1.0  0.33725  0.50660  0.32788  1.0000
  H   H730      1.0  0.35271  0.52516  0.42664  1.0000
  C   C594      1.0  0.45098  0.97233  0.08881  1.0000
  Fe  Fe79      1.0  0.31141  0.94690  0.99187  1.0000
  H   H731      1.0  0.38132  0.88367  0.99229  1.0000
  C   C595      1.0  0.34718  0.50322  0.38231  1.0000
  S   S159      1.0  0.27830  0.48230  0.47406  1.0000
  H   H732      1.0  0.48001  0.97295  0.20962  1.0000
  C   C596      1.0  0.23761  0.75805  0.69636  1.0000
  S   S160      1.0  0.30179  0.91310  0.96625  1.0000
  H   H733      1.0  0.37212  0.51976  0.51157  1.0000
  H   H734      1.0  0.36552  0.92291  0.97978  1.0000
  S   S161      1.0  0.41996  0.83867  0.97432  1.0000
  C   C597      1.0  0.26750  0.90690  0.62155  1.0000
  H   H735      1.0  0.23120  0.74202  0.68655  1.0000
  S   S162      1.0  0.46628  0.77178  0.91895  1.0000
  S   S163      1.0  0.46464  0.80474  0.79666  1.0000
  C   C598      1.0  0.24918  0.51788  0.51692  1.0000
  Fe  Fe80      1.0  0.29506  0.92850  0.72092  1.0000
  S   S164      1.0  0.47044  0.84928  0.86125  1.0000
  S   S165      1.0  0.29063  0.87486  0.69999  1.0000
  H   H736      1.0  0.25128  0.80081  0.78218  1.0000
  H   H737      1.0  0.34691  0.91663  0.91839  1.0000
  H   H738      1.0  0.27019  0.82241  0.76343  1.0000
  C   C599      1.0  0.24918  0.75713  0.73010  1.0000
  S   S166      1.0  0.30693  0.92042  0.75106  1.0000
  Fe  Fe81      1.0  0.23867  0.77659  0.63577  1.0000
  S   S167      1.0  0.23804  0.77086  0.59742  1.0000
  S   S168      1.0  0.24334  0.83453  0.65261  1.0000
  Fe  Fe82      1.0  0.24244  0.70395  0.60453  1.0000
  S   S169      1.0  0.25784  0.66387  0.59068  1.0000
  S   S170      1.0  0.24437  0.71162  0.64252  1.0000
  C   C600      1.0  0.46713  0.93717  0.74849  1.0000
  Fe  Fe83      1.0  0.41341  0.55754  0.55599  1.0000
  S   S171      1.0  0.40583  0.54739  0.52179  1.0000
  Fe  Fe84      1.0  0.41248  0.64988  0.54785  1.0000
  S   S172      1.0  0.40505  0.64525  0.51268  1.0000
  S   S173      1.0  0.41520  0.71549  0.55755  1.0000
  Fe  Fe85      1.0  0.39288  0.59876  0.52942  1.0000
  S   S174      1.0  0.37297  0.60567  0.52289  1.0000
  Fe  Fe86      1.0  0.41848  0.59430  0.50750  1.0000
  S   S175      1.0  0.39956  0.60634  0.56488  1.0000
  S   S176      1.0  0.42682  0.60145  0.54135  1.0000
  Fe  Fe87      1.0  0.42442  0.92322  0.70448  1.0000
  S   S177      1.0  0.43668  0.91383  0.67359  1.0000
  S   S178      1.0  0.42997  0.92693  0.74150  1.0000
  Fe  Fe88      1.0  0.40273  0.93883  0.67504  1.0000
  S   S179      1.0  0.41391  0.93251  0.64188  1.0000
  H   H739      1.0  0.45760  0.93647  0.71804  1.0000
  Fe  Fe89      1.0  0.42233  0.87763  0.65965  1.0000
  S   S180      1.0  0.42404  0.81181  0.64822  1.0000
  H   H740      1.0  0.39687  0.87883  0.98737  1.0000
  S   S181      1.0  0.41084  0.88297  0.69223  1.0000
  C   C601      1.0  0.35623  0.90894  0.76900  1.0000
  C   C602      1.0  0.41784  0.74134  0.58302  1.0000
  C   C603      1.0  0.41987  0.72097  0.60422  1.0000
  C   C604      1.0  0.42175  0.74306  0.62385  1.0000
  C   C605      1.0  0.42167  0.78577  0.62266  1.0000
  C   C606      1.0  0.41978  0.80607  0.60138  1.0000
  C   C607      1.0  0.41784  0.78401  0.58180  1.0000
  H   H741      1.0  0.41995  0.68823  0.60550  1.0000
  H   H742      1.0  0.42329  0.72689  0.64011  1.0000
  H   H743      1.0  0.41999  0.83875  0.59987  1.0000
  H   H744      1.0  0.41638  0.80014  0.56549  1.0000
  H   H745      1.0  0.23335  0.78750  0.70131  1.0000
  C   C608      1.0  0.24603  0.50620  0.55838  1.0000
  C   C609      1.0  0.36149  0.57469  0.51456  1.0000
  C   C610      1.0  0.30446  0.49692  0.56959  1.0000
  H   H746      1.0  0.37937  0.93855  0.79721  1.0000
  H   H747      1.0  0.45973  0.96331  0.68155  1.0000
  H   H748      1.0  0.25134  0.67765  0.72365  1.0000
  C   C611      1.0  0.26190  0.64548  0.56308  1.0000
  C   C612      1.0  0.27211  0.62013  0.56067  1.0000
  C   C613      1.0  0.27557  0.60368  0.53934  1.0000
  C   C614      1.0  0.26882  0.61229  0.52014  1.0000
  C   C615      1.0  0.25867  0.63794  0.52247  1.0000
  C   C616      1.0  0.25520  0.65437  0.54384  1.0000
  H   H749      1.0  0.27737  0.61322  0.57545  1.0000
  H   H750      1.0  0.28345  0.58439  0.53770  1.0000
  Fe  Fe90      1.0  0.47403  0.79274  0.88347  1.0000
  H   H751      1.0  0.24734  0.67385  0.54541  1.0000
  C   C617      1.0  0.30003  0.97466  0.87902  1.0000
  C   C618      1.0  0.35001  0.59206  0.51245  1.0000
  H   H752      1.0  0.23949  0.51814  0.51491  1.0000
  S   S182      1.0  0.28214  0.97087  0.73911  1.0000
  C   C619      1.0  0.32292  0.52520  0.55525  1.0000
  S   S183      1.0  0.33108  0.49689  0.49327  1.0000
  H   H753      1.0  0.26788  0.52684  0.54246  1.0000
  C   C620      1.0  0.30374  0.97803  0.83679  1.0000
  H   H754      1.0  0.25192  0.56824  0.55429  1.0000
  C   C621      1.0  0.27722  0.86361  0.68772  1.0000
  C   C622      1.0  0.27703  0.82962  0.67412  1.0000
  C   C623      1.0  0.26666  0.81966  0.66373  1.0000
  C   C624      1.0  0.25639  0.84398  0.66661  1.0000
  C   C625      1.0  0.25654  0.87788  0.68028  1.0000
  C   C626      1.0  0.26686  0.88743  0.69100  1.0000
  H   H755      1.0  0.28500  0.81096  0.67151  1.0000
  H   H756      1.0  0.26670  0.79368  0.65310  1.0000
  H   H757      1.0  0.24863  0.89686  0.68262  1.0000
  H   H758      1.0  0.26679  0.91321  0.70176  1.0000
  C   C627      1.0  0.45497  0.83933  0.78180  1.0000
  C   C628      1.0  0.45182  0.83054  0.75953  1.0000
  C   C629      1.0  0.44422  0.85702  0.74693  1.0000
  C   C630      1.0  0.43958  0.89253  0.75658  1.0000
  C   C631      1.0  0.44268  0.90128  0.77889  1.0000
  C   C632      1.0  0.45037  0.87496  0.79141  1.0000
  H   H759      1.0  0.45530  0.80303  0.75193  1.0000
  H   H760      1.0  0.44192  0.84984  0.72981  1.0000
  H   H761      1.0  0.43918  0.92875  0.78649  1.0000
  H   H762      1.0  0.45271  0.88214  0.80851  1.0000
  C   C633      1.0  0.43340  0.82258  0.95976  1.0000
  C   C634      1.0  0.44207  0.79875  0.97086  1.0000
  C   C635      1.0  0.45215  0.78400  0.95818  1.0000
  C   C636      1.0  0.45383  0.79358  0.93440  1.0000
  C   C637      1.0  0.44534  0.81838  0.92344  1.0000
  C   C638      1.0  0.43513  0.83238  0.93601  1.0000
  C   C639      1.0  0.35889  0.93543  0.68574  1.0000
  H   H763      1.0  0.45863  0.76477  0.96684  1.0000
  H   H764      1.0  0.44646  0.82584  0.90515  1.0000
  H   H765      1.0  0.42848  0.85063  0.92721  1.0000
  C   C640      1.0  0.31777  0.56419  0.55671  1.0000
  C   C641      1.0  0.27400  0.97262  0.63304  1.0000
  C   C642      1.0  0.46226  0.95553  0.72881  1.0000
  Fe  Fe91      1.0  0.28523  0.93149  0.98663  1.0000
  C   C643      1.0  0.34858  0.94534  0.69926  1.0000
  C   C644      1.0  0.39633  0.94422  0.73902  1.0000
  H   H766      1.0  0.38847  0.98004  0.96063  1.0000
  C   C645      1.0  0.27469  0.92961  0.63435  1.0000
  H   H767      1.0  0.38159  0.95763  0.98634  1.0000
  H   H768      1.0  0.26289  0.76327  0.70251  1.0000
  H   H769      1.0  0.39437  0.69509  0.61902  1.0000
  Fe  Fe92      1.0  0.29484  0.96705  0.76819  1.0000
  H   H770      1.0  0.29628  0.95202  0.64826  1.0000
  H   H771      1.0  0.39701  0.96173  0.78277  1.0000
  H   H772      1.0  0.39938  0.88096  0.93726  1.0000
  H   H773      1.0  0.39767  0.85238  0.76786  1.0000
  C   C646      1.0  0.36587  0.91121  0.91396  1.0000
  S   S184      1.0  0.27250  0.59074  0.49317  1.0000
  S   S185      1.0  0.38261  0.93640  0.67289  1.0000
  H   H774      1.0  0.29025  0.54048  0.57696  1.0000
  H   H775      1.0  0.35804  0.93575  0.80137  1.0000
  H   H776      1.0  0.28085  0.95493  0.67742  1.0000
  C   C647      1.0  0.38886  0.95336  0.97303  1.0000
  C   C648      1.0  0.37662  0.91062  0.92477  1.0000
  H   H777      1.0  0.27566  0.95151  0.85093  1.0000
  H   H778      1.0  0.23268  0.70106  0.74566  1.0000
  H   H779      1.0  0.47129  0.65566  0.88920  1.0000
  H   H780      1.0  0.44125  0.52346  0.57463  1.0000
  H   H781      1.0  0.39198  0.97441  0.74205  1.0000
  C   C649      1.0  0.47676  0.95276  0.96036  1.0000
  H   H782      1.0  0.25173  0.54982  0.51787  1.0000
  H   H783      1.0  0.39945  0.93572  0.93228  1.0000
  H   H784      1.0  0.43873  0.52842  0.51063  1.0000
  N   N43       1.0  0.38813  0.91495  0.96109  1.0000
  C   C650      1.0  0.38841  0.88071  0.97852  1.0000
  H   H785      1.0  0.28069  0.91315  0.64560  1.0000
  C   C651      1.0  0.43829  0.50262  0.52355  1.0000
  C   C652      1.0  0.37698  0.91514  0.94893  1.0000
  C   C653      1.0  0.39891  0.91058  0.94567  1.0000
  S   S186      1.0  0.29611  0.50648  0.51423  1.0000
  H   H786      1.0  0.25344  0.96587  0.98110  1.0000
  S   S187      1.0  0.30574  0.97809  0.70309  1.0000
  H   H787      1.0  0.25343  0.64497  0.50768  1.0000
  H   H788      1.0  0.40591  0.94889  0.73570  1.0000
  S   S188      1.0  0.47549  0.75193  0.85330  1.0000
  H   H789      1.0  0.35833  0.91557  0.67166  1.0000
  C   C654      1.0  0.44098  0.49236  0.58130  1.0000
  H   H790      1.0  0.24198  0.67666  0.69965  1.0000
  C   C655      1.0  0.26439  0.80419  0.75432  1.0000
  H   H791      1.0  0.25530  0.70297  0.69644  1.0000
  C   C656      1.0  0.35523  0.91608  0.92679  1.0000
  H   H792      1.0  0.26815  0.87405  0.62299  1.0000
  C   C657      1.0  0.26759  0.79319  0.73200  1.0000
  H   H793      1.0  0.36575  0.90783  0.89553  1.0000
  C   C658      1.0  0.34062  0.56903  0.50588  1.0000
  H   H794      1.0  0.28252  0.95799  0.89052  1.0000
  H   H795      1.0  0.34699  0.92375  0.96054  1.0000
  H   H796      1.0  0.34840  0.62372  0.51591  1.0000
  H   H797      1.0  0.24515  0.76520  0.68411  1.0000
  C   C659      1.0  0.24780  0.69613  0.70887  1.0000
  C   C660      1.0  0.31642  0.49024  0.56181  1.0000
  H   H798      1.0  0.38934  0.70461  0.57831  1.0000
  C   C661      1.0  0.39115  0.72459  0.61257  1.0000
  H   H799      1.0  0.38750  0.85122  0.97047  1.0000
  C   C662      1.0  0.34910  0.97081  0.71766  1.0000
  H   H800      1.0  0.37829  0.88684  0.72992  1.0000
  Fe  Fe93      1.0  0.29964  0.97228  0.94569  1.0000
  N   N44       1.0  0.25258  0.49214  0.53736  1.0000
  C   C663      1.0  0.25373  0.79199  0.76480  1.0000
  C   C664      1.0  0.26010  0.77025  0.71997  1.0000
  H   H801      1.0  0.46633  0.90493  0.75223  1.0000
  S   S189      1.0  0.41659  0.50015  0.57888  1.0000
  H   H802      1.0  0.39659  0.86369  0.73749  1.0000
  C   C665      1.0  0.37430  0.89639  0.74615  1.0000
  C   C666      1.0  0.36987  0.95084  0.69035  1.0000
  Fe  Fe94      1.0  0.42735  0.96981  0.65816  1.0000
  H   H803      1.0  0.47021  0.63048  0.91769  1.0000
  H   H804      1.0  0.27590  0.80294  0.72390  1.0000
  H   H805      1.0  0.33190  0.58303  0.50439  1.0000
  C   C667      1.0  0.36205  0.89464  0.74918  1.0000
  C   C668      1.0  0.34255  0.52808  0.50134  1.0000
  C   C669      1.0  0.36339  0.53368  0.51000  1.0000
  H   H806      1.0  0.35694  0.88387  0.73563  1.0000
  H   H807      1.0  0.40710  0.91106  0.95546  1.0000
  C   C670      1.0  0.36596  0.91970  0.96140  1.0000
  N   N45       1.0  0.38552  0.83217  0.63331  1.0000
  C   C671      1.0  0.38899  0.82285  0.65736  1.0000
  C   C672      1.0  0.39313  0.86472  0.62345  1.0000
  C   C673      1.0  0.37310  0.84801  0.63442  1.0000
  C   C674      1.0  0.38663  0.79676  0.61858  1.0000
  C   C675      1.0  0.39044  0.75745  0.62691  1.0000
  C   C676      1.0  0.38369  0.80090  0.59510  1.0000
  C   C677      1.0  0.38462  0.76794  0.58085  1.0000
  H   H808      1.0  0.39840  0.81199  0.65781  1.0000
  H   H809      1.0  0.38816  0.85023  0.66784  1.0000
  H   H810      1.0  0.38332  0.79972  0.66630  1.0000
  H   H811      1.0  0.40259  0.85467  0.62335  1.0000
  H   H812      1.0  0.39209  0.89233  0.63369  1.0000
  H   H813      1.0  0.39110  0.87452  0.60553  1.0000
  H   H814      1.0  0.37186  0.87377  0.64610  1.0000
  H   H815      1.0  0.37019  0.85978  0.61733  1.0000
  H   H816      1.0  0.36701  0.82402  0.64091  1.0000
  H   H817      1.0  0.39320  0.75136  0.64426  1.0000
  H   H818      1.0  0.38080  0.82979  0.58746  1.0000
  H   H819      1.0  0.38269  0.77192  0.56279  1.0000
  H   H820      1.0  0.30208  0.59996  0.56556  1.0000
  C   C678      1.0  0.38831  0.72986  0.58959  1.0000
  H   H821      1.0  0.39876  0.91001  0.79450  1.0000
  N   N46       1.0  0.39407  0.91546  0.75896  1.0000
  H   H822      1.0  0.46622  0.50670  0.65002  1.0000
  C   C679      1.0  0.39962  0.87532  0.75367  1.0000
  H   H823      1.0  0.34667  0.90917  0.77076  1.0000
  C   C680      1.0  0.38117  0.91207  0.76316  1.0000
  H   H824      1.0  0.40982  0.93155  0.77520  1.0000
  C   C681      1.0  0.37497  0.92577  0.78341  1.0000
  H   H825      1.0  0.33197  0.52336  0.54861  1.0000
  C   C682      1.0  0.36268  0.92422  0.78613  1.0000
  H   H826      1.0  0.48045  0.70598  0.79438  1.0000
  C   C683      1.0  0.29221  0.96691  0.83349  1.0000
  C   C684      1.0  0.23415  0.53491  0.59896  1.0000
  H   H827      1.0  0.32288  0.59035  0.55135  1.0000
  C   C685      1.0  0.35528  0.92018  0.95049  1.0000
  H   H828      1.0  0.40941  0.87666  0.75123  1.0000
  C   C686      1.0  0.24619  0.76877  0.75298  1.0000
  H   H829      1.0  0.44623  0.50336  0.53390  1.0000
  C   C687      1.0  0.26540  0.49530  0.54007  1.0000
  S   S190      1.0  0.28666  0.96272  0.80539  1.0000
  H   H830      1.0  0.25368  0.50724  0.50070  1.0000
  Fe  Fe95      1.0  0.47357  0.80950  0.83086  1.0000
  H   H831      1.0  0.43040  0.50922  0.53511  1.0000
  C   C688      1.0  0.28462  0.95995  0.85315  1.0000
  C   C689      1.0  0.28848  0.96364  0.87571  1.0000
  H   H832      1.0  0.34025  0.93287  0.69564  1.0000
  C   C690      1.0  0.40009  0.93033  0.77883  1.0000
  C   C691      1.0  0.30606  0.56965  0.56469  1.0000
  H   H833      1.0  0.47229  0.91166  0.93481  1.0000
  C   C692      1.0  0.24672  0.54693  0.56468  1.0000
  H   H834      1.0  0.39300  0.93354  0.72280  1.0000
  N   N47       1.0  0.24136  0.73330  0.71681  1.0000
  H   H835      1.0  0.46989  0.68432  0.91445  1.0000
  C   C693      1.0  0.47408  0.65621  0.90726  1.0000
  H   H836      1.0  0.38451  0.90649  0.91385  1.0000
  H   H837      1.0  0.39716  0.95419  0.98241  1.0000
  C   C694      1.0  0.24087  0.56099  0.58462  1.0000
  S   S191      1.0  0.30549  0.98050  0.90705  1.0000
  H   H838      1.0  0.46811  0.95218  0.96918  1.0000
  H   H839      1.0  0.47738  0.58644  0.89100  1.0000
  C   C695      1.0  0.35400  0.51064  0.50345  1.0000
  H   H840      1.0  0.23295  0.91984  0.63668  1.0000
  H   H841      1.0  0.25373  0.90834  0.59755  1.0000
  C   C696      1.0  0.25838  0.96836  0.60558  1.0000
  C   C697      1.0  0.25935  0.92619  0.60723  1.0000
  H   H842      1.0  0.45733  0.49418  0.69033  1.0000
  Fe  Fe96      1.0  0.31674  0.97312  0.73428  1.0000
  H   H843      1.0  0.45989  0.48411  0.58204  1.0000
  C   C698      1.0  0.29942  0.53609  0.57116  1.0000
  C   C699      1.0  0.47278  0.96023  0.76365  1.0000
  H   H844      1.0  0.23805  0.76060  0.76210  1.0000
  H   H845      1.0  0.44084  0.79074  0.98907  1.0000
  C   C700      1.0  0.37034  0.97702  0.70842  1.0000
  H   H846      1.0  0.27063  0.48517  0.52458  1.0000
  H   H847      1.0  0.23210  0.86928  0.61016  1.0000
  C   C701      1.0  0.47908  0.92991  0.94102  1.0000
  H   H848      1.0  0.24165  0.59231  0.58904  1.0000
  C   C702      1.0  0.23331  0.49461  0.59342  1.0000
  H   H849      1.0  0.47635  0.94587  0.77911  1.0000
  S   S192      1.0  0.41547  0.98040  0.68974  1.0000
  H   H850      1.0  0.44242  0.98053  0.70574  1.0000
  S   S193      1.0  0.65820  0.02176  0.01098  1.0000
  C   C703      1.0  0.71667  0.42997  0.40449  1.0000
  S   S194      1.0  0.49940  0.18519  0.06883  1.0000
  S   S195      1.0  0.49798  0.06804  0.16346  1.0000
  C   C704      1.0  0.51126  0.46499  0.38787  1.0000
  S   S196      1.0  0.66179  0.01390  0.22829  1.0000
  H   H851      1.0  0.52144  0.17100  0.09261  1.0000
  H   H852      1.0  0.55924  0.05336  0.05739  1.0000
  S   S197      1.0  0.69061  0.04589  0.25928  1.0000
  Fe  Fe97      1.0  0.53883  0.04401  0.27494  1.0000
  S   S198      1.0  0.52971  0.03136  0.30973  1.0000
  S   S199      1.0  0.52919  0.08872  0.25036  1.0000
  C   C705      1.0  0.60507  0.00495  0.99539  1.0000
  H   H853      1.0  0.61061  0.99351  0.19473  1.0000
  H   H854      1.0  0.56354  0.40266  0.34717  1.0000
  H   H855      1.0  0.55025  0.37437  0.31810  1.0000
  Fe  Fe98      1.0  0.54726  0.04245  0.32416  1.0000
  S   S200      1.0  0.54982  0.07518  0.35746  1.0000
  S   S201      1.0  0.55621  0.05852  0.28968  1.0000
  H   H856      1.0  0.63876  0.02912  0.21041  1.0000
  C   C706      1.0  0.54560  0.36009  0.33355  1.0000
  H   H857      1.0  0.57627  0.15874  0.44691  1.0000
  Fe  Fe99      1.0  0.55280  0.29442  0.41508  1.0000
  S   S202      1.0  0.55739  0.27042  0.45038  1.0000
  S   S203      1.0  0.55405  0.26228  0.38063  1.0000
  Fe  Fe100     1.0  0.54616  0.37924  0.43284  1.0000
  S   S204      1.0  0.55017  0.36074  0.46965  1.0000
  S   S205      1.0  0.54134  0.44561  0.42335  1.0000
  Fe  Fe101     1.0  0.56656  0.32922  0.45433  1.0000
  S   S206      1.0  0.58437  0.32410  0.47184  1.0000
  Fe  Fe102     1.0  0.54087  0.30385  0.46337  1.0000
  S   S207      1.0  0.56312  0.35098  0.41793  1.0000
  S   S208      1.0  0.53565  0.32464  0.42772  1.0000
  Fe  Fe103     1.0  0.71663  0.16774  0.35983  1.0000
  S   S209      1.0  0.72225  0.16814  0.39665  1.0000
  S   S210      1.0  0.70106  0.12914  0.35271  1.0000
  Fe  Fe104     1.0  0.72421  0.23536  0.38965  1.0000
  S   S211      1.0  0.72023  0.28869  0.41273  1.0000
  S   S212      1.0  0.71727  0.23564  0.35406  1.0000
  H   H858      1.0  0.52025  0.41341  0.40441  1.0000
  C   C707      1.0  0.68733  0.31104  0.46086  1.0000
  C   C708      1.0  0.68923  0.27363  0.45049  1.0000
  C   C709      1.0  0.69910  0.26659  0.43528  1.0000
  C   C710      1.0  0.70729  0.29671  0.43065  1.0000
  C   C711      1.0  0.70541  0.33408  0.44111  1.0000
  C   C712      1.0  0.69541  0.34144  0.45591  1.0000
  H   H859      1.0  0.68304  0.24991  0.45426  1.0000
  H   H860      1.0  0.70045  0.23767  0.42742  1.0000
  H   H861      1.0  0.71179  0.35732  0.43800  1.0000
  H   H862      1.0  0.69414  0.37012  0.46405  1.0000
  C   C713      1.0  0.59623  0.35777  0.47397  1.0000
  H   H863      1.0  0.54162  0.33702  0.37750  1.0000
  H   H864      1.0  0.60468  0.45473  0.46139  1.0000
  S   S213      1.0  0.66179  0.43075  0.47255  1.0000
  H   H865      1.0  0.60131  0.13233  0.33580  1.0000
  C   C714      1.0  0.59571  0.39816  0.46544  1.0000
  H   H866      1.0  0.71956  0.98455  0.31974  1.0000
  H   H867      1.0  0.58794  0.40989  0.45702  1.0000
  C   C715      1.0  0.55262  0.21008  0.37469  1.0000
  C   C716      1.0  0.55229  0.19914  0.35160  1.0000
  C   C717      1.0  0.55125  0.15831  0.34599  1.0000
  C   C718      1.0  0.55066  0.12760  0.36343  1.0000
  C   C719      1.0  0.55113  0.13848  0.38650  1.0000
  C   C720      1.0  0.55203  0.17936  0.39213  1.0000
  H   H868      1.0  0.55276  0.22248  0.33792  1.0000
  H   H869      1.0  0.55090  0.15069  0.32816  1.0000
  H   H870      1.0  0.55069  0.11513  0.40018  1.0000
  H   H871      1.0  0.55229  0.18707  0.40996  1.0000
  C   C721      1.0  0.69297  0.07086  0.28498  1.0000
  C   C722      1.0  0.68519  0.06784  0.30439  1.0000
  C   C723      1.0  0.68766  0.08679  0.32472  1.0000
  C   C724      1.0  0.69800  0.10842  0.32608  1.0000
  C   C725      1.0  0.70576  0.11158  0.30664  1.0000
  C   C726      1.0  0.70321  0.09309  0.28619  1.0000
  H   H872      1.0  0.67726  0.05097  0.30377  1.0000
  H   H873      1.0  0.68157  0.08425  0.33962  1.0000
  H   H874      1.0  0.71372  0.12821  0.30736  1.0000
  H   H875      1.0  0.70928  0.09570  0.27127  1.0000
  H   H876      1.0  0.50624  0.07349  0.27507  1.0000
  C   C727      1.0  0.60528  0.03209  0.32439  1.0000
  C   C728      1.0  0.59526  0.01521  0.27036  1.0000
  C   C729      1.0  0.60699  0.02719  0.26588  1.0000
  H   H877      1.0  0.58812  0.03781  0.27149  1.0000
  H   H878      1.0  0.60877  0.05910  0.26390  1.0000
  C   C730      1.0  0.50677  0.07478  0.18733  1.0000
  C   C731      1.0  0.51327  0.04125  0.19660  1.0000
  C   C732      1.0  0.52027  0.04492  0.21568  1.0000
  C   C733      1.0  0.52077  0.08223  0.22588  1.0000
  C   C734      1.0  0.51438  0.11587  0.21642  1.0000
  C   C735      1.0  0.50743  0.11226  0.19725  1.0000
  H   H879      1.0  0.70866  0.01251  0.30304  1.0000
  H   H880      1.0  0.51285  0.01216  0.18900  1.0000
  H   H881      1.0  0.51475  0.14494  0.22407  1.0000
  H   H882      1.0  0.50249  0.13834  0.19033  1.0000
  C   C736      1.0  0.52052  0.10996  0.01484  1.0000
  C   C737      1.0  0.52168  0.15186  0.01517  1.0000
  C   C738      1.0  0.51493  0.17458  0.03142  1.0000
  C   C739      1.0  0.50687  0.15583  0.04734  1.0000
  C   C740      1.0  0.50547  0.11408  0.04656  1.0000
  C   C741      1.0  0.51236  0.09129  0.03059  1.0000
  H   H883      1.0  0.53831  0.38631  0.38824  1.0000
  H   H884      1.0  0.51607  0.20687  0.03184  1.0000
  H   H885      1.0  0.49924  0.09923  0.05852  1.0000
  H   H886      1.0  0.51141  0.05889  0.03060  1.0000
  H   H887      1.0  0.54246  0.09415  0.04181  1.0000
  H   H888      1.0  0.57097  0.03190  0.34081  1.0000
  C   C742      1.0  0.53819  0.36809  0.37269  1.0000
  H   H889      1.0  0.55668  0.14407  0.46525  1.0000
  C   C743      1.0  0.60648  0.34340  0.48494  1.0000
  H   H890      1.0  0.60111  0.00349  0.32343  1.0000
  C   C744      1.0  0.55257  0.06651  0.06910  1.0000
  C   C745      1.0  0.51478  0.38885  0.48319  1.0000
  H   H891      1.0  0.58451  0.00631  0.34776  1.0000
  H   H892      1.0  0.60326  0.99480  0.01315  1.0000
  Fe  Fe105     1.0  0.48670  0.16267  0.09796  1.0000
  H   H893      1.0  0.55018  0.33025  0.33762  1.0000
  C   C746      1.0  0.72652  0.43248  0.34011  1.0000
  C   C747      1.0  0.56216  0.16555  0.47274  1.0000
  H   H894      1.0  0.58696  0.11370  0.36337  1.0000
  C   C748      1.0  0.71851  0.47150  0.40463  1.0000
  C   C749      1.0  0.60526  0.42359  0.46797  1.0000
  H   H895      1.0  0.57465  0.08209  0.36706  1.0000
  C   C750      1.0  0.70014  0.00590  0.34921  1.0000
  C   C751      1.0  0.71238  0.98173  0.30767  1.0000
  H   H896      1.0  0.72200  0.25316  0.00181  1.0000
  Fe  Fe106     1.0  0.56077  0.99169  0.28799  1.0000
  C   C752      1.0  0.48300  0.07070  0.22248  1.0000
  H   H897      1.0  0.63796  0.05192  0.18208  1.0000
  H   H898      1.0  0.51272  0.98659  0.28734  1.0000
  H   H899      1.0  0.58265  0.13061  0.32334  1.0000
  C   C753      1.0  0.48874  0.06476  0.24316  1.0000
  H   H900      1.0  0.56068  0.04213  0.09959  1.0000
  H   H901      1.0  0.53663  0.35263  0.32880  1.0000
  H   H902      1.0  0.67776  0.02664  0.11504  1.0000
  C   C754      1.0  0.48791  0.99215  0.24006  1.0000
  C   C755      1.0  0.52877  0.43076  0.33750  1.0000
  Fe  Fe107     1.0  0.67603  0.00238  0.25369  1.0000
  S   S214      1.0  0.67527  0.31731  0.48115  1.0000
  C   C756      1.0  0.49130  0.02510  0.25270  1.0000
  C   C757      1.0  0.61754  0.10360  0.32460  1.0000
  C   C758      1.0  0.68511  0.99686  0.37990  1.0000
  N   N48       1.0  0.52548  0.11827  0.11497  1.0000
  C   C759      1.0  0.52430  0.16277  0.11030  1.0000
  C   C760      1.0  0.51418  0.10009  0.11041  1.0000
  C   C761      1.0  0.52743  0.11103  0.13995  1.0000
  C   C762      1.0  0.53498  0.10078  0.09962  1.0000
  C   C763      1.0  0.53450  0.10653  0.07533  1.0000
  C   C764      1.0  0.54469  0.07695  0.10803  1.0000
  N   N49       1.0  0.62948  0.99465  0.18702  1.0000
  C   C765      1.0  0.55335  0.06025  0.09288  1.0000
  C   C766      1.0  0.61646  0.99838  0.26440  1.0000
  H   H903      1.0  0.64477  0.01895  0.14925  1.0000
  H   H904      1.0  0.51748  0.17707  0.12210  1.0000
  H   H905      1.0  0.53280  0.17746  0.11232  1.0000
  H   H906      1.0  0.51138  0.10769  0.09265  1.0000
  H   H907      1.0  0.50691  0.11123  0.12222  1.0000
  H   H908      1.0  0.51474  0.06648  0.11290  1.0000
  H   H909      1.0  0.53578  0.12413  0.14477  1.0000
  H   H910      1.0  0.52018  0.12517  0.15086  1.0000
  H   H911      1.0  0.52750  0.07812  0.14512  1.0000
  H   H912      1.0  0.48230  0.31055  0.16335  1.0000
  C   C767      1.0  0.67141  0.98680  0.14321  1.0000
  S   S215      1.0  0.48327  0.09726  0.10681  1.0000
  H   H913      1.0  0.72133  0.37389  0.35417  1.0000
  S   S216      1.0  0.52949  0.07887  0.99635  1.0000
  H   H914      1.0  0.52882  0.36546  0.36855  1.0000
  C   C768      1.0  0.54543  0.46405  0.35146  1.0000
  C   C769      1.0  0.48232  0.99849  0.21925  1.0000
  H   H915      1.0  0.55807  0.40483  0.37695  1.0000
  H   H916      1.0  0.58911  0.06182  0.37349  1.0000
  H   H917      1.0  0.50456  0.44702  0.38125  1.0000
  H   H918      1.0  0.52386  0.40430  0.33474  1.0000
  S   S217      1.0  0.63111  0.01568  0.25952  1.0000
  H   H919      1.0  0.61833  0.02259  0.21348  1.0000
  H   H920      1.0  0.64337  0.00388  0.10931  1.0000
  H   H921      1.0  0.62235  0.13129  0.32452  1.0000
  C   C770      1.0  0.54004  0.42727  0.34709  1.0000
  H   H922      1.0  0.50415  0.04840  0.30271  1.0000
  S   S218      1.0  0.49036  0.17816  0.13428  1.0000
  N   N50       1.0  0.54537  0.38684  0.35337  1.0000
  H   H923      1.0  0.49128  0.09178  0.25102  1.0000
  H   H924      1.0  0.63274  0.06776  0.31279  1.0000
  N   N51       1.0  0.49711  0.01748  0.27482  1.0000
  C   C771      1.0  0.61552  0.40918  0.47892  1.0000
  S   S219      1.0  0.67173  0.99367  0.07242  1.0000
  C   C772      1.0  0.48932  0.99381  0.29127  1.0000
  C   C773      1.0  0.63894  0.02227  0.19181  1.0000
  H   H925      1.0  0.52531  0.01893  0.22239  1.0000
  C   C774      1.0  0.61604  0.36876  0.48735  1.0000
  H   H926      1.0  0.49181  0.07416  0.28998  1.0000
  N   N52       1.0  0.58614  0.06948  0.33725  1.0000
  C   C775      1.0  0.57990  0.09908  0.32168  1.0000
  C   C776      1.0  0.58057  0.02983  0.33582  1.0000
  C   C777      1.0  0.58417  0.08232  0.36130  1.0000
  C   C778      1.0  0.59894  0.06816  0.33083  1.0000
  H   H927      1.0  0.50703  0.33165  0.47931  1.0000
  C   C779      1.0  0.60549  0.10385  0.33094  1.0000
  C   C780      1.0  0.72617  0.40270  0.40086  1.0000
  C   C781      1.0  0.58010  0.20223  0.47152  1.0000
  H   H928      1.0  0.51522  0.00766  0.99738  1.0000
  H   H929      1.0  0.54576  0.07058  0.12620  1.0000
  H   H930      1.0  0.58152  0.09139  0.30332  1.0000
  C   C782      1.0  0.61735  0.03218  0.31827  1.0000
  C   C783      1.0  0.49990  0.05512  0.28605  1.0000
  H   H931      1.0  0.64785  0.00844  0.18749  1.0000
  H   H932      1.0  0.70784  0.41870  0.40739  1.0000
  C   C784      1.0  0.52335  0.46857  0.33228  1.0000
  H   H933      1.0  0.72472  0.37049  0.40083  1.0000
  H   H934      1.0  0.62199  0.00460  0.31291  1.0000
  H   H935      1.0  0.58854  0.20965  0.46305  1.0000
  S   S220      1.0  0.52696  0.27080  0.48595  1.0000
  H   H936      1.0  0.55373  0.46466  0.35964  1.0000
  H   H937      1.0  0.57018  0.09978  0.32559  1.0000
  H   H938      1.0  0.61598  0.04198  0.18455  1.0000
  H   H939      1.0  0.49323  0.98891  0.30843  1.0000
  H   H940      1.0  0.52735  0.12396  0.06766  1.0000
  C   C785      1.0  0.52025  0.44575  0.40077  1.0000
  C   C786      1.0  0.55766  0.38818  0.36081  1.0000
  H   H941      1.0  0.56150  0.35717  0.36485  1.0000
  C   C787      1.0  0.62344  0.06786  0.31814  1.0000
  C   C788      1.0  0.63684  0.99232  0.12201  1.0000
  C   C789      1.0  0.57319  0.17377  0.46237  1.0000
  H   H942      1.0  0.52795  0.16665  0.00324  1.0000
  S   S221      1.0  0.62728  0.44297  0.48179  1.0000
  Fe  Fe108     1.0  0.64950  0.98391  0.25520  1.0000
  H   H943      1.0  0.71999  0.32113  0.48611  1.0000
  H   H944      1.0  0.58134  0.01895  0.31794  1.0000
  C   C790      1.0  0.50733  0.35757  0.49000  1.0000
  Fe  Fe109     1.0  0.48611  0.11346  0.14345  1.0000
  H   H945      1.0  0.48417  0.31154  0.20543  1.0000
  C   C791      1.0  0.54315  0.08956  0.06035  1.0000
  H   H946      1.0  0.51453  0.47066  0.32586  1.0000
  C   C792      1.0  0.69418  0.01914  0.36928  1.0000
  H   H947      1.0  0.52010  0.38749  0.46716  1.0000
  C   C793      1.0  0.50835  0.99384  0.27092  1.0000
  H   H948      1.0  0.51464  0.01109  0.25934  1.0000
  C   C794      1.0  0.52922  0.46845  0.40867  1.0000
  C   C795      1.0  0.62915  0.98590  0.16231  1.0000
  H   H949      1.0  0.70690  0.02526  0.34171  1.0000
  C   C796      1.0  0.61809  0.01397  0.19518  1.0000
  C   C797      1.0  0.72759  0.39040  0.34293  1.0000
  H   H950      1.0  0.69646  0.04750  0.37627  1.0000
  C   C798      1.0  0.63749  0.00097  0.14520  1.0000
  H   H951      1.0  0.70752  0.26168  0.48828  1.0000
  H   H952      1.0  0.50002  0.99774  0.00205  1.0000
  C   C799      1.0  0.67307  0.99933  0.11964  1.0000
  H   H953      1.0  0.67486  0.00434  0.15639  1.0000
  H   H954      1.0  0.72573  0.09165  0.42630  1.0000
  H   H955      1.0  0.71942  0.44865  0.34942  1.0000
  H   H956      1.0  0.68045  0.00758  0.39530  1.0000
  H   H957      1.0  0.48136  0.10111  0.21518  1.0000
  H   H958      1.0  0.68959  0.98107  0.29636  1.0000
  H   H959      1.0  0.73058  0.04708  0.39408  1.0000
  H   H960      1.0  0.58731  0.02988  0.99105  1.0000
  Fe  Fe110     1.0  0.55474  0.44708  0.80055  1.0000
  S   S222      1.0  0.54257  0.45543  0.83228  1.0000
  H   H961      1.0  0.57764  0.25087  0.53452  1.0000
  Fe  Fe111     1.0  0.53473  0.41545  0.77371  1.0000
  S   S223      1.0  0.52155  0.42117  0.80351  1.0000
  S   S224      1.0  0.53163  0.38842  0.73913  1.0000
  C   C800      1.0  0.71148  0.34737  0.51617  1.0000
  Fe  Fe112     1.0  0.53594  0.39420  0.82539  1.0000
  S   S225      1.0  0.53165  0.34957  0.85571  1.0000
  H   H962      1.0  0.66792  0.47579  0.59214  1.0000
  S   S226      1.0  0.54872  0.38425  0.79533  1.0000
  Fe  Fe113     1.0  0.66439  0.45666  0.71608  1.0000
  S   S227      1.0  0.71996  0.19698  0.86539  1.0000
  S   S228      1.0  0.71333  0.18792  0.93560  1.0000
  H   H963      1.0  0.65370  0.14355  0.97119  1.0000
  S   S229      1.0  0.71885  0.31500  0.83591  1.0000
  H   H964      1.0  0.61405  0.16155  0.91991  1.0000
  H   H965      1.0  0.52445  0.01701  0.96080  1.0000
  C   C801      1.0  0.50882  0.42303  0.51803  1.0000
  H   H966      1.0  0.58220  0.32893  0.81720  1.0000
  Fe  Fe114     1.0  0.54902  0.12536  0.91588  1.0000
  S   S230      1.0  0.55623  0.13135  0.95113  1.0000
  S   S231      1.0  0.55053  0.17006  0.88437  1.0000
  Fe  Fe115     1.0  0.54583  0.03325  0.92430  1.0000
  S   S232      1.0  0.55313  0.03358  0.95940  1.0000
  Fe  Fe116     1.0  0.54149  0.08987  0.96391  1.0000
  Fe  Fe117     1.0  0.56715  0.07405  0.94415  1.0000
  S   S233      1.0  0.58741  0.06585  0.94351  1.0000
  S   S234      1.0  0.53363  0.08761  0.92906  1.0000
  S   S235      1.0  0.56057  0.06992  0.90859  1.0000
  S   S236      1.0  0.65178  0.37492  0.51730  1.0000
  C   C802      1.0  0.66234  0.40945  0.64854  1.0000
  S   S237      1.0  0.48765  0.24942  0.64436  1.0000
  S   S238      1.0  0.65398  0.44679  0.78144  1.0000
  Fe  Fe118     1.0  0.49190  0.28487  0.61064  1.0000
  S   S239      1.0  0.50983  0.29000  0.59110  1.0000
  S   S240      1.0  0.65439  0.40400  0.73166  1.0000
  H   H967      1.0  0.69005  0.45992  0.81079  1.0000
  Fe  Fe119     1.0  0.66637  0.40509  0.76139  1.0000
  S   S241      1.0  0.67247  0.34604  0.77988  1.0000
  C   C803      1.0  0.52179  0.27908  0.51470  1.0000
  C   C804      1.0  0.51206  0.25776  0.52405  1.0000
  C   C805      1.0  0.50802  0.26174  0.54719  1.0000
  C   C806      1.0  0.51390  0.28626  0.56139  1.0000
  C   C807      1.0  0.52361  0.30770  0.55200  1.0000
  C   C808      1.0  0.52738  0.30487  0.52865  1.0000
  H   H968      1.0  0.50769  0.23768  0.51339  1.0000
  H   H969      1.0  0.50061  0.24476  0.55424  1.0000
  H   H970      1.0  0.52822  0.32676  0.56286  1.0000
  H   H971      1.0  0.53469  0.32217  0.52155  1.0000
  H   H972      1.0  0.66371  0.41284  0.83740  1.0000
  C   C809      1.0  0.67429  0.30413  0.54285  1.0000
  C   C810      1.0  0.50205  0.39764  0.56699  1.0000
  H   H973      1.0  0.72105  0.18465  0.80061  1.0000
  C   C811      1.0  0.60917  0.46010  0.78560  1.0000
  H   H974      1.0  0.70744  0.36603  0.88941  1.0000
  H   H975      1.0  0.71576  0.26680  0.95293  1.0000
  H   H976      1.0  0.57762  0.98244  0.94952  1.0000
  C   C812      1.0  0.59822  0.03866  0.95999  1.0000
  C   C813      1.0  0.55868  0.28147  0.51461  1.0000
  H   H977      1.0  0.69418  0.33418  0.86399  1.0000
  H   H978      1.0  0.56644  0.32825  0.82174  1.0000
  H   H979      1.0  0.65073  0.09722  0.91435  1.0000
  C   C814      1.0  0.70454  0.14482  0.94014  1.0000
  C   C815      1.0  0.70218  0.12038  0.92211  1.0000
  C   C816      1.0  0.69487  0.08713  0.92627  1.0000
  C   C817      1.0  0.68996  0.07758  0.94850  1.0000
  C   C818      1.0  0.69238  0.10180  0.96659  1.0000
  C   C819      1.0  0.69959  0.13539  0.96238  1.0000
  H   H980      1.0  0.70587  0.12737  0.90492  1.0000
  H   H981      1.0  0.69299  0.06868  0.91214  1.0000
  H   H982      1.0  0.64995  0.09856  0.98801  1.0000
  H   H983      1.0  0.70136  0.15414  0.97643  1.0000
  C   C820      1.0  0.70625  0.32136  0.81929  1.0000
  C   C821      1.0  0.69737  0.29321  0.82055  1.0000
  C   C822      1.0  0.68717  0.30095  0.80802  1.0000
  C   C823      1.0  0.68578  0.33669  0.79412  1.0000
  C   C824      1.0  0.69486  0.36414  0.79231  1.0000
  C   C825      1.0  0.70501  0.35661  0.80497  1.0000
  H   H984      1.0  0.69821  0.26601  0.83155  1.0000
  H   H985      1.0  0.68020  0.27945  0.80939  1.0000
  H   H986      1.0  0.69402  0.39130  0.78126  1.0000
  H   H987      1.0  0.71188  0.37844  0.80379  1.0000
  C   C826      1.0  0.53728  0.30004  0.86349  1.0000
  C   C827      1.0  0.53351  0.28172  0.88484  1.0000
  C   C828      1.0  0.53749  0.24212  0.89161  1.0000
  C   C829      1.0  0.54527  0.22024  0.87701  1.0000
  C   C830      1.0  0.54907  0.23864  0.85567  1.0000
  C   C831      1.0  0.54514  0.27832  0.84896  1.0000
  H   H988      1.0  0.52741  0.29821  0.89620  1.0000
  H   H989      1.0  0.53447  0.22846  0.90804  1.0000
  H   H990      1.0  0.55509  0.22197  0.84425  1.0000
  H   H991      1.0  0.54805  0.29178  0.83245  1.0000
  C   C832      1.0  0.51843  0.37373  0.72718  1.0000
  C   C833      1.0  0.51913  0.35720  0.70527  1.0000
  C   C834      1.0  0.50895  0.34473  0.69510  1.0000
  C   C835      1.0  0.49792  0.34843  0.70681  1.0000
  C   C836      1.0  0.49722  0.36472  0.72880  1.0000
  C   C837      1.0  0.50739  0.37754  0.73889  1.0000
  H   H992      1.0  0.52762  0.35410  0.69604  1.0000
  H   H993      1.0  0.50964  0.33223  0.67821  1.0000
  H   H994      1.0  0.48873  0.36785  0.73796  1.0000
  H   H995      1.0  0.50666  0.39055  0.75563  1.0000
  H   H996      1.0  0.61475  0.43935  0.59376  1.0000
  C   C838      1.0  0.58382  0.24860  0.87131  1.0000
  C   C839      1.0  0.57535  0.24189  0.88912  1.0000
  H   H997      1.0  0.68055  0.37535  0.84069  1.0000
  C   C840      1.0  0.48604  0.43031  0.54661  1.0000
  H   H998      1.0  0.64333  0.43797  0.67630  1.0000
  C   C841      1.0  0.62767  0.10372  0.97231  1.0000
  N   N53       1.0  0.56053  0.23835  0.52219  1.0000
  C   C842      1.0  0.51771  0.99871  0.95331  1.0000
  C   C843      1.0  0.65439  0.10908  0.92997  1.0000
  C   C844      1.0  0.60952  0.44742  0.76295  1.0000
  N   N54       1.0  0.49415  0.39403  0.54771  1.0000
  H   H999      1.0  0.52448  0.32945  0.80764  1.0000
  H   H1000     1.0  0.48323  0.99394  0.98321  1.0000
  H   H1001     1.0  0.55197  0.28480  0.50129  1.0000
  H   H1002     1.0  0.66374  0.09717  0.93013  1.0000
  H   H1003     1.0  0.67538  0.47391  0.80274  1.0000
  N   N55       1.0  0.52431  0.27957  0.78515  1.0000
  C   C845      1.0  0.51713  0.26821  0.76603  1.0000
  C   C846      1.0  0.51937  0.31883  0.79339  1.0000
  C   C847      1.0  0.53654  0.28636  0.77593  1.0000
  C   C848      1.0  0.52440  0.24666  0.80339  1.0000
  C   C849      1.0  0.52938  0.20772  0.79854  1.0000
  C   C850      1.0  0.51980  0.25210  0.82633  1.0000
  C   C851      1.0  0.53011  0.17671  0.81573  1.0000
  C   C852      1.0  0.52047  0.22072  0.84330  1.0000
  C   C853      1.0  0.52575  0.18332  0.83811  1.0000
  H   H1004     1.0  0.52078  0.24068  0.75759  1.0000
  H   H1005     1.0  0.50791  0.26223  0.77232  1.0000
  H   H1006     1.0  0.51670  0.29278  0.75219  1.0000
  H   H1007     1.0  0.50995  0.31687  0.79945  1.0000
  H   H1008     1.0  0.49704  0.39758  0.58399  1.0000
  C   C854      1.0  0.56703  0.27246  0.89459  1.0000
  H   H1009     1.0  0.54055  0.25986  0.76702  1.0000
  H   H1010     1.0  0.53688  0.31233  0.76296  1.0000
  H   H1011     1.0  0.54234  0.29313  0.79001  1.0000
  H   H1012     1.0  0.53291  0.20114  0.78146  1.0000
  H   H1013     1.0  0.51594  0.28062  0.83190  1.0000
  Fe  Fe120     1.0  0.64555  0.43008  0.49679  1.0000
  H   H1014     1.0  0.51726  0.22593  0.86084  1.0000
  H   H1015     1.0  0.52665  0.15968  0.85159  1.0000
  H   H1016     1.0  0.66187  0.44483  0.86161  1.0000
  S   S242      1.0  0.62291  0.44344  0.74547  1.0000
  C   C855      1.0  0.62993  0.13387  0.93357  1.0000
  H   H1017     1.0  0.67359  0.27798  0.53176  1.0000
  H   H1018     1.0  0.58156  0.24548  0.49687  1.0000
  C   C856      1.0  0.59884  0.43804  0.75348  1.0000
  C   C857      1.0  0.60929  0.45950  0.62751  1.0000
  N   N56       1.0  0.57516  0.35521  0.84877  1.0000
  C   C858      1.0  0.58623  0.37653  0.85127  1.0000
  C   C859      1.0  0.57433  0.34614  0.82417  1.0000
  C   C860      1.0  0.56515  0.38362  0.85490  1.0000
  C   C861      1.0  0.57526  0.31701  0.86321  1.0000
  C   C862      1.0  0.58388  0.28571  0.85866  1.0000
  C   C863      1.0  0.56687  0.30942  0.88182  1.0000
  C   C864      1.0  0.72869  0.45819  0.85417  1.0000
  H   H1019     1.0  0.63483  0.14130  0.91763  1.0000
  C   C865      1.0  0.63544  0.44879  0.68663  1.0000
  H   H1020     1.0  0.58630  0.40592  0.84094  1.0000
  H   H1021     1.0  0.58733  0.38326  0.86959  1.0000
  H   H1022     1.0  0.59417  0.35861  0.84516  1.0000
  H   H1023     1.0  0.57364  0.37435  0.81295  1.0000
  H   H1024     1.0  0.56545  0.39339  0.87288  1.0000
  H   H1025     1.0  0.56528  0.41189  0.84371  1.0000
  H   H1026     1.0  0.55650  0.36992  0.85277  1.0000
  H   H1027     1.0  0.59062  0.28946  0.84499  1.0000
  Fe  Fe121     1.0  0.48250  0.30984  0.65898  1.0000
  H   H1028     1.0  0.66078  0.39073  0.66410  1.0000
  C   C866      1.0  0.50121  0.39147  0.52562  1.0000
  H   H1029     1.0  0.56603  0.25030  0.55616  1.0000
  N   N57       1.0  0.67694  0.45808  0.83891  1.0000
  H   H1030     1.0  0.65471  0.14266  0.92797  1.0000
  C   C867      1.0  0.70117  0.38473  0.87978  1.0000
  S   S243      1.0  0.67748  0.45435  0.74457  1.0000
  C   C868      1.0  0.68058  0.45324  0.81432  1.0000
  H   H1031     1.0  0.61368  0.47442  0.69725  1.0000
  H   H1032     1.0  0.54921  0.17878  0.49898  1.0000
  H   H1033     1.0  0.57986  0.43436  0.75871  1.0000
  S   S244      1.0  0.72748  0.27079  0.89614  1.0000
  S   S245      1.0  0.48477  0.33351  0.69479  1.0000
  H   H1034     1.0  0.50972  0.44903  0.52825  1.0000
  H   H1035     1.0  0.72245  0.47727  0.84473  1.0000
  Fe  Fe122     1.0  0.66978  0.46904  0.49820  1.0000
  N   N58       1.0  0.68580  0.30433  0.55376  1.0000
  C   C869      1.0  0.68766  0.26528  0.56700  1.0000
  C   C870      1.0  0.68504  0.33695  0.57055  1.0000
  C   C871      1.0  0.50067  0.35854  0.51091  1.0000
  C   C872      1.0  0.69368  0.36679  0.86541  1.0000
  C   C873      1.0  0.61796  0.14592  0.93464  1.0000
  C   C874      1.0  0.63514  0.11205  0.95240  1.0000
  C   C875      1.0  0.54921  0.22419  0.53310  1.0000
  H   H1036     1.0  0.72170  0.21704  0.97986  1.0000
  H   H1037     1.0  0.55555  0.30042  0.52918  1.0000
  H   H1038     1.0  0.69648  0.26350  0.57458  1.0000
  H   H1039     1.0  0.68085  0.26133  0.58135  1.0000
  H   H1040     1.0  0.68712  0.23877  0.55613  1.0000
  H   H1041     1.0  0.60152  0.14493  0.95482  1.0000
  H   H1042     1.0  0.67784  0.33218  0.58406  1.0000
  H   H1043     1.0  0.59896  0.42817  0.73601  1.0000
  H   H1044     1.0  0.72133  0.40375  0.84286  1.0000
  H   H1045     1.0  0.66671  0.30348  0.55581  1.0000
  H   H1046     1.0  0.71367  0.21912  0.76508  1.0000
  H   H1047     1.0  0.70669  0.44055  0.89232  1.0000
  C   C876      1.0  0.61650  0.99861  0.98526  1.0000
  H   H1048     1.0  0.61138  0.04142  0.93193  1.0000
  C   C877      1.0  0.61089  0.13691  0.95437  1.0000
  H   H1049     1.0  0.51721  0.00976  0.93498  1.0000
  C   C878      1.0  0.68512  0.43347  0.85345  1.0000
  H   H1050     1.0  0.51968  0.34309  0.77941  1.0000
  H   H1051     1.0  0.72430  0.30869  0.94380  1.0000
  S   S246      1.0  0.68048  0.03620  0.95224  1.0000
  H   H1052     1.0  0.59813  0.47415  0.81578  1.0000
  H   H1053     1.0  0.57177  0.20327  0.54492  1.0000
  S   S247      1.0  0.48796  0.34449  0.62664  1.0000
  C   C879      1.0  0.69536  0.30936  0.53562  1.0000
  C   C880      1.0  0.58796  0.44145  0.76635  1.0000
  Fe  Fe123     1.0  0.66846  0.37783  0.49459  1.0000
  H   H1054     1.0  0.62944  0.42305  0.68963  1.0000
  Fe  Fe124     1.0  0.72404  0.20442  0.90239  1.0000
  H   H1055     1.0  0.63606  0.44065  0.60051  1.0000
  H   H1056     1.0  0.71313  0.99399  0.88000  1.0000
  H   H1057     1.0  0.56855  0.98727  0.92545  1.0000
  Fe  Fe125     1.0  0.64274  0.44984  0.75052  1.0000
  H   H1058     1.0  0.55985  0.33094  0.88650  1.0000
  H   H1059     1.0  0.50036  0.05568  0.94610  1.0000
  H   H1060     1.0  0.71930  0.23341  0.81325  1.0000
  C   C881      1.0  0.61295  0.47130  0.64875  1.0000
  H   H1061     1.0  0.67922  0.42215  0.80881  1.0000
  C   C882      1.0  0.52200  0.98504  0.88882  1.0000
  C   C883      1.0  0.56938  0.23549  0.54018  1.0000
  C   C884      1.0  0.51551  0.42156  0.49715  1.0000
  C   C885      1.0  0.61857  0.01101  0.96212  1.0000
  C   C886      1.0  0.69744  0.27988  0.51877  1.0000
  H   H1062     1.0  0.65710  0.36411  0.62594  1.0000
  H   H1063     1.0  0.53423  0.14752  0.81183  1.0000
  S   S248      1.0  0.67762  0.41572  0.51880  1.0000
  H   H1064     1.0  0.64336  0.03877  0.96885  1.0000
  H   H1065     1.0  0.65665  0.03767  0.95125  1.0000
  H   H1066     1.0  0.60607  0.47879  0.66153  1.0000
  C   C887      1.0  0.66029  0.39435  0.62677  1.0000
  C   C888      1.0  0.70075  0.42668  0.88128  1.0000
  C   C889      1.0  0.49888  0.43859  0.66866  1.0000
  H   H1067     1.0  0.69337  0.33867  0.57965  1.0000
  C   C890      1.0  0.66224  0.41800  0.60616  1.0000
  H   H1068     1.0  0.54624  0.24198  0.54827  1.0000
  C   C891      1.0  0.58759  0.45462  0.78889  1.0000
  S   S249      1.0  0.65916  0.39727  0.57925  1.0000
  S   S250      1.0  0.57413  0.46034  0.80597  1.0000
  Fe  Fe126     1.0  0.66051  0.41670  0.54041  1.0000
  H   H1069     1.0  0.56033  0.26677  0.90823  1.0000
  N   N59       1.0  0.72968  0.23298  0.78109  1.0000
  H   H1070     1.0  0.71679  0.37397  0.51476  1.0000
  Fe  Fe127     1.0  0.67193  0.00240  0.98372  1.0000
  H   H1071     1.0  0.63858  0.45598  0.70367  1.0000
  C   C892      1.0  0.65383  0.10989  0.97113  1.0000
  C   C893      1.0  0.71334  0.31764  0.50007  1.0000
  C   C894      1.0  0.66634  0.44871  0.65011  1.0000
  C   C895      1.0  0.66636  0.45706  0.60770  1.0000
  H   H1072     1.0  0.50860  0.37173  0.56783  1.0000
  H   H1073     1.0  0.54996  0.19179  0.53914  1.0000
  H   H1074     1.0  0.62382  0.35701  0.49580  1.0000
  C   C896      1.0  0.64757  0.05129  0.95247  1.0000
  C   C897      1.0  0.68585  0.39067  0.85226  1.0000
  H   H1075     1.0  0.72960  0.29377  0.79324  1.0000
  S   S251      1.0  0.66850  0.47066  0.67714  1.0000
  C   C898      1.0  0.66471  0.44413  0.84302  1.0000
  H   H1076     1.0  0.50704  0.42589  0.56549  1.0000
  C   C899      1.0  0.60956  0.03135  0.94970  1.0000
  H   H1077     1.0  0.59024  0.22462  0.86707  1.0000
  H   H1078     1.0  0.57504  0.21267  0.89845  1.0000
  H   H1079     1.0  0.66325  0.09880  0.97055  1.0000
  C   C900      1.0  0.70265  0.34348  0.53375  1.0000
  H   H1080     1.0  0.62702  0.00422  0.95366  1.0000
  H   H1081     1.0  0.70157  0.36800  0.54535  1.0000
  H   H1082     1.0  0.54192  0.22802  0.52099  1.0000
  C   C901      1.0  0.69289  0.45091  0.86833  1.0000
  H   H1083     1.0  0.67300  0.33171  0.53148  1.0000
  H   H1084     1.0  0.50648  0.99553  0.86909  1.0000
  C   C902      1.0  0.59828  0.46373  0.79842  1.0000
  H   H1085     1.0  0.65831  0.46355  0.83308  1.0000
  N   N60       1.0  0.64753  0.09615  0.95135  1.0000
  H   H1086     1.0  0.52381  0.01685  0.88927  1.0000
  H   H1087     1.0  0.49245  0.32989  0.55521  1.0000
  H   H1088     1.0  0.68291  0.36706  0.56204  1.0000
  H   H1089     1.0  0.50891  0.06603  0.97015  1.0000
  H   H1090     1.0  0.64284  0.03995  0.93795  1.0000
  C   C903      1.0  0.50212  0.04597  0.96426  1.0000
  C   C904      1.0  0.72743  0.23866  0.98777  1.0000
  H   H1091     1.0  0.68865  0.09486  0.98376  1.0000
  H   H1092     1.0  0.69192  0.25411  0.51837  1.0000
  H   H1093     1.0  0.48182  0.36081  0.57022  1.0000
  C   C905      1.0  0.56483  0.21500  0.50211  1.0000
  H   H1094     1.0  0.49083  0.45895  0.54428  1.0000
  C   C906      1.0  0.49172  0.46131  0.70576  1.0000
  H   H1095     1.0  0.71309  0.26693  0.77800  1.0000
  H   H1096     1.0  0.49350  0.46888  0.72315  1.0000
  C   C907      1.0  0.66840  0.47217  0.62947  1.0000
  H   H1097     1.0  0.61014  0.10810  0.98827  1.0000
  C   C908      1.0  0.62513  0.47287  0.65307  1.0000
  H   H1098     1.0  0.71643  0.30849  0.97149  1.0000
  H   H1099     1.0  0.49540  0.33257  0.51536  1.0000
  H   H1100     1.0  0.49394  0.05234  0.97500  1.0000
  C   C909      1.0  0.48687  0.35820  0.55341  1.0000
  H   H1101     1.0  0.61726  0.46763  0.79313  1.0000
  H   H1102     1.0  0.51002  0.44831  0.69653  1.0000
  S   S252      1.0  0.54164  0.47811  0.77674  1.0000
  C   C910      1.0  0.72172  0.28935  0.95924  1.0000
  H   H1103     1.0  0.72149  0.26144  0.75142  1.0000
  C   C911      1.0  0.61576  0.11620  0.97324  1.0000
  C   C912      1.0  0.71906  0.24550  0.76820  1.0000
  C   C913      1.0  0.61759  0.44867  0.61015  1.0000
  C   C914      1.0  0.59597  0.02473  0.98286  1.0000
  C   C915      1.0  0.50107  0.44977  0.69076  1.0000
  C   C916      1.0  0.72794  0.41622  0.85302  1.0000
  H   H1104     1.0  0.56689  0.29493  0.50691  1.0000
  C   C917      1.0  0.48732  0.43899  0.66145  1.0000
  N   N61       1.0  0.50606  0.00266  0.96605  1.0000
  H   H1105     1.0  0.59997  0.45849  0.62454  1.0000
  C   C918      1.0  0.72555  0.21320  0.80333  1.0000
  H   H1106     1.0  0.58420  0.98444  0.92050  1.0000
  C   C919      1.0  0.63330  0.46140  0.63502  1.0000
  H   H1107     1.0  0.64267  0.46113  0.63716  1.0000
  C   C920      1.0  0.70634  0.28395  0.50140  1.0000
  H   H1108     1.0  0.50615  0.42834  0.65732  1.0000
  Fe  Fe128     1.0  0.72515  0.26157  0.85877  1.0000
  C   C921      1.0  0.62957  0.44952  0.61393  1.0000
  S   S253      1.0  0.65310  0.47234  0.52135  1.0000
  H   H1109     1.0  0.63084  0.08593  0.98700  1.0000
  H   H1110     1.0  0.72773  0.19769  0.73819  1.0000
  C   C922      1.0  0.55796  0.18582  0.49229  1.0000
  C   C923      1.0  0.57602  0.22256  0.49105  1.0000
  H   H1111     1.0  0.48605  0.42919  0.64434  1.0000
  H   H1112     1.0  0.52138  0.44571  0.49177  1.0000
  H   H1113     1.0  0.60705  0.31232  0.49161  1.0000
  C   C924      1.0  0.50791  0.99090  0.99061  1.0000
  C   C925      1.0  0.69423  0.91947  0.12593  1.0000
  S   S254      1.0  0.71728  0.73585  0.39452  1.0000
  S   S255      1.0  0.72021  0.77905  0.32735  1.0000
  Fe  Fe129     1.0  0.71801  0.66734  0.39401  1.0000
  S   S256      1.0  0.70365  0.62059  0.40203  1.0000
  H   H1114     1.0  0.55042  0.72501  0.32852  1.0000
  H   H1115     1.0  0.69763  0.93871  0.09116  1.0000
  H   H1116     1.0  0.69141  0.93430  0.05541  1.0000
  H   H1117     1.0  0.64369  0.48252  0.44515  1.0000
  C   C926      1.0  0.55417  0.78158  0.30995  1.0000
  S   S257      1.0  0.65661  0.92492  0.02676  1.0000
  Fe  Fe130     1.0  0.66859  0.91738  0.26693  1.0000
  H   H1118     1.0  0.57525  0.86200  0.27545  1.0000
  S   S258      1.0  0.67197  0.86534  0.29373  1.0000
  C   C927      1.0  0.48889  0.76031  0.39769  1.0000
  C   C928      1.0  0.49089  0.78547  0.43549  1.0000
  C   C929      1.0  0.54748  0.74763  0.31572  1.0000
  S   S259      1.0  0.65352  0.92146  0.24271  1.0000
  C   C930      1.0  0.49222  0.69611  0.43677  1.0000
  S   S260      1.0  0.52266  0.91417  0.30799  1.0000
  H   H1119     1.0  0.69581  0.78068  0.34748  1.0000
  H   H1120     1.0  0.48852  0.63743  0.45253  1.0000
  H   H1121     1.0  0.62426  0.93507  0.19988  1.0000
  H   H1122     1.0  0.56224  0.78409  0.31874  1.0000
  C   C931      1.0  0.66562  0.95106  0.14958  1.0000
  Fe  Fe131     1.0  0.49384  0.59516  0.35944  1.0000
  S   S261      1.0  0.49610  0.64665  0.38238  1.0000
  S   S262      1.0  0.50014  0.52897  0.36477  1.0000
  Fe  Fe132     1.0  0.49782  0.68685  0.34975  1.0000
  S   S263      1.0  0.51244  0.73388  0.34978  1.0000
  S   S264      1.0  0.49692  0.63385  0.32662  1.0000
  S   S265      1.0  0.66351  0.97800  0.28157  1.0000
  S   S266      1.0  0.66390  0.93183  0.17894  1.0000
  H   H1123     1.0  0.67486  0.94381  0.37877  1.0000
  C   C932      1.0  0.51094  0.50718  0.38319  1.0000
  C   C933      1.0  0.51963  0.53011  0.39191  1.0000
  C   C934      1.0  0.69432  0.95146  0.29990  1.0000
  C   C935      1.0  0.65398  0.58872  0.41442  1.0000
  H   H1124     1.0  0.51954  0.56253  0.38835  1.0000
  H   H1125     1.0  0.53561  0.52862  0.41056  1.0000
  C   C936      1.0  0.51977  0.86466  0.32069  1.0000
  C   C937      1.0  0.52698  0.84480  0.33688  1.0000
  C   C938      1.0  0.52448  0.80525  0.34574  1.0000
  C   C939      1.0  0.51468  0.78485  0.33880  1.0000
  C   C940      1.0  0.50731  0.80503  0.32302  1.0000
  C   C941      1.0  0.50987  0.84447  0.31401  1.0000
  H   H1126     1.0  0.53450  0.85977  0.34262  1.0000
  H   H1127     1.0  0.53028  0.79011  0.35787  1.0000
  H   H1128     1.0  0.49976  0.78998  0.31740  1.0000
  H   H1129     1.0  0.50417  0.85931  0.30160  1.0000
  C   C942      1.0  0.61982  0.95243  0.13149  1.0000
  H   H1130     1.0  0.54400  0.52933  0.35024  1.0000
  H   H1131     1.0  0.71084  0.49146  0.40747  1.0000
  H   H1132     1.0  0.66177  0.62425  0.38582  1.0000
  H   H1133     1.0  0.52426  0.76963  0.28238  1.0000
  H   H1134     1.0  0.56134  0.85463  0.32378  1.0000
  C   C943      1.0  0.49521  0.65633  0.44413  1.0000
  H   H1135     1.0  0.55244  0.85854  0.25301  1.0000
  Fe  Fe133     1.0  0.66617  0.95126  0.21623  1.0000
  N   N62       1.0  0.68943  0.87248  0.06840  1.0000
  H   H1136     1.0  0.72787  0.57919  0.42555  1.0000
  H   H1137     1.0  0.71721  0.54156  0.42711  1.0000
  C   C944      1.0  0.69790  0.59340  0.42712  1.0000
  C   C945      1.0  0.69995  0.60436  0.44945  1.0000
  C   C946      1.0  0.69475  0.58288  0.46872  1.0000
  C   C947      1.0  0.68761  0.54973  0.46603  1.0000
  C   C948      1.0  0.68590  0.53787  0.44369  1.0000
  C   C949      1.0  0.69094  0.55980  0.42440  1.0000
  H   H1138     1.0  0.70528  0.63005  0.45189  1.0000
  N   N63       1.0  0.64608  0.54646  0.44854  1.0000
  H   H1139     1.0  0.68046  0.51252  0.44127  1.0000
  H   H1140     1.0  0.68927  0.55103  0.40722  1.0000
  C   C950      1.0  0.70658  0.80156  0.31811  1.0000
  C   C951      1.0  0.70652  0.82459  0.29705  1.0000
  C   C952      1.0  0.69608  0.84443  0.28936  1.0000
  C   C953      1.0  0.68546  0.84114  0.30255  1.0000
  C   C954      1.0  0.68549  0.81774  0.32348  1.0000
  C   C955      1.0  0.69596  0.79825  0.33127  1.0000
  H   H1141     1.0  0.71465  0.82720  0.28662  1.0000
  H   H1142     1.0  0.69622  0.86184  0.27311  1.0000
  H   H1143     1.0  0.67734  0.81474  0.33379  1.0000
  H   H1144     1.0  0.55875  0.90112  0.26495  1.0000
  C   C956      1.0  0.60226  0.94526  0.27142  1.0000
  C   C957      1.0  0.53937  0.80679  0.28374  1.0000
  C   C958      1.0  0.61400  0.95726  0.26711  1.0000
  H   H1145     1.0  0.69555  0.89720  0.03498  1.0000
  H   H1146     1.0  0.62772  0.96104  0.09718  1.0000
  H   H1147     1.0  0.62116  0.93469  0.26610  1.0000
  C   C959      1.0  0.66281  0.94159  0.10843  1.0000
  H   H1148     1.0  0.71503  0.91532  0.33667  1.0000
  H   H1149     1.0  0.69523  0.82789  0.04386  1.0000
  H   H1150     1.0  0.61306  0.93321  0.12611  1.0000
  C   C960      1.0  0.68979  0.87878  0.09341  1.0000
  C   C961      1.0  0.51214  0.70411  0.42076  1.0000
  H   H1151     1.0  0.68104  0.82298  0.10449  1.0000
  C   C962      1.0  0.50662  0.64044  0.43996  1.0000
  H   H1152     1.0  0.64145  0.51404  0.48072  1.0000
  H   H1153     1.0  0.68100  0.83373  0.14577  1.0000
  H   H1154     1.0  0.56342  0.89903  0.30550  1.0000
  H   H1155     1.0  0.67169  0.85056  0.07160  1.0000
  C   C963      1.0  0.55779  0.87235  0.30878  1.0000
  H   H1156     1.0  0.50429  0.81878  0.40212  1.0000
  H   H1157     1.0  0.68988  0.80677  0.07082  1.0000
  N   N64       1.0  0.55756  0.84807  0.28808  1.0000
  C   C964      1.0  0.52876  0.51076  0.40443  1.0000
  H   H1158     1.0  0.70510  0.90468  0.05788  1.0000
  S   S267      1.0  0.57818  0.95697  0.27887  1.0000
  C   C965      1.0  0.63150  0.95635  0.20086  1.0000
  C   C966      1.0  0.65384  0.57839  0.43843  1.0000
  C   C967      1.0  0.70873  0.91439  0.32270  1.0000
  H   H1159     1.0  0.54406  0.88841  0.27396  1.0000
  H   H1160     1.0  0.62751  0.53531  0.45312  1.0000
  H   H1161     1.0  0.65652  0.52762  0.47736  1.0000
  C   C968      1.0  0.69568  0.90357  0.05364  1.0000
  H   H1162     1.0  0.57461  0.81953  0.29524  1.0000
  H   H1163     1.0  0.57004  0.81489  0.26635  1.0000
  C   C969      1.0  0.64888  0.50791  0.43703  1.0000
  C   C970      1.0  0.72551  0.55260  0.38311  1.0000
  C   C971      1.0  0.66913  0.63719  0.41774  1.0000
  H   H1164     1.0  0.71366  0.90260  0.30723  1.0000
  H   H1165     1.0  0.48785  0.96310  0.28529  1.0000
  C   C972      1.0  0.69491  0.83237  0.06281  1.0000
  S   S268      1.0  0.68154  0.94153  0.23961  1.0000
  C   C973      1.0  0.66158  0.61752  0.40427  1.0000
  H   H1166     1.0  0.49632  0.78484  0.45091  1.0000
  C   C974      1.0  0.67698  0.87383  0.06188  1.0000
  C   C975      1.0  0.55038  0.81209  0.29361  1.0000
  C   C976      1.0  0.69707  0.96975  0.33906  1.0000
  C   C977      1.0  0.55296  0.87503  0.26913  1.0000
  H   H1167     1.0  0.48313  0.70633  0.43971  1.0000
  S   S269      1.0  0.68194  0.96282  0.00900  1.0000
  H   H1168     1.0  0.71656  0.97005  0.29142  1.0000
  C   C978      1.0  0.69431  0.91411  0.10221  1.0000
  C   C979      1.0  0.66901  0.62855  0.44142  1.0000
  Fe  Fe134     1.0  0.67076  0.91287  0.99870  1.0000
  H   H1169     1.0  0.67630  0.86855  0.04323  1.0000
  N   N65       1.0  0.70308  0.95489  0.31771  1.0000
  H   H1170     1.0  0.65928  0.92413  0.09536  1.0000
  C   C980      1.0  0.66128  0.92880  0.13196  1.0000
  H   H1171     1.0  0.51900  0.72027  0.41114  1.0000
  C   C981      1.0  0.51507  0.66428  0.42832  1.0000
  H   H1172     1.0  0.68910  0.89543  0.15988  1.0000
  Fe  Fe135     1.0  0.72491  0.73548  0.35796  1.0000
  H   H1173     1.0  0.67268  0.90394  0.06522  1.0000
  H   H1174     1.0  0.71581  0.54879  0.38471  1.0000
  C   C982      1.0  0.68782  0.94763  0.35044  1.0000
  H   H1175     1.0  0.48893  0.81775  0.43016  1.0000
  H   H1176     1.0  0.68754  0.92906  0.30506  1.0000
  S   S270      1.0  0.72439  0.66752  0.35651  1.0000
  H   H1177     1.0  0.52385  0.65142  0.42459  1.0000
  C   C983      1.0  0.64736  0.53823  0.47365  1.0000
  C   C984      1.0  0.68494  0.85566  0.13352  1.0000
  H   H1178     1.0  0.68501  0.91981  0.34373  1.0000
  C   C985      1.0  0.68502  0.84985  0.10984  1.0000
  H   H1179     1.0  0.70409  0.82922  0.06865  1.0000
  H   H1180     1.0  0.51382  0.78934  0.42078  1.0000
  S   S271      1.0  0.62765  0.97350  0.00196  1.0000
  C   C986      1.0  0.53682  0.74314  0.30552  1.0000
  H   H1181     1.0  0.60052  0.91335  0.27358  1.0000
  H   H1182     1.0  0.53548  0.82897  0.27187  1.0000
  H   H1183     1.0  0.67509  0.64334  0.45177  1.0000
  Fe  Fe136     1.0  0.64801  0.96881  0.00089  1.0000
  H   H1184     1.0  0.53146  0.71741  0.31053  1.0000
  C   C987      1.0  0.63355  0.55854  0.44518  1.0000
  C   C988      1.0  0.68196  0.96109  0.37054  1.0000
  H   H1185     1.0  0.67529  0.65860  0.40978  1.0000
  C   C989      1.0  0.56986  0.83540  0.28099  1.0000
  C   C990      1.0  0.53277  0.77266  0.28961  1.0000
  H   H1186     1.0  0.54875  0.88391  0.31407  1.0000
  H   H1187     1.0  0.64834  0.57408  0.40323  1.0000
  H   H1188     1.0  0.65673  0.90124  0.13657  1.0000
  H   H1189     1.0  0.64501  0.56546  0.48367  1.0000
  H   H1190     1.0  0.50885  0.60929  0.44525  1.0000
  H   H1191     1.0  0.69740  0.94713  0.13228  1.0000
  C   C991      1.0  0.66154  0.59953  0.45173  1.0000
  H   H1192     1.0  0.64683  0.50975  0.41854  1.0000
  H   H1193     1.0  0.63116  0.58782  0.45322  1.0000
  C   C992      1.0  0.50060  0.72142  0.42498  1.0000
  C   C993      1.0  0.68955  0.89036  0.14154  1.0000
  C   C994      1.0  0.50715  0.78729  0.40757  1.0000
  H   H1194     1.0  0.70218  0.89133  0.32829  1.0000
  H   H1195     1.0  0.65841  0.49904  0.43804  1.0000
  H   H1196     1.0  0.51019  0.95793  0.99282  1.0000
  H   H1197     1.0  0.66231  0.59337  0.47003  1.0000
  H   H1198     1.0  0.63158  0.56207  0.42667  1.0000
  H   H1199     1.0  0.51153  0.77436  0.39186  1.0000
  H   H1200     1.0  0.69613  0.59239  0.48589  1.0000
  H   H1201     1.0  0.72676  0.58586  0.38285  1.0000
  H   H1202     1.0  0.63984  0.94030  0.19488  1.0000
  C   C995      1.0  0.66888  0.97676  0.10199  1.0000
  H   H1203     1.0  0.48966  0.96116  0.24607  1.0000
  N   N66       1.0  0.49705  0.76297  0.41658  1.0000
  H   H1204     1.0  0.69853  0.94167  0.28326  1.0000
  H   H1205     1.0  0.63222  0.96197  0.21947  1.0000
  C   C996      1.0  0.72682  0.54599  0.42446  1.0000
  H   H1206     1.0  0.52444  0.53313  0.33330  1.0000
  C   C997      1.0  0.53992  0.50170  0.34612  1.0000
  H   H1207     1.0  0.49311  0.74278  0.38341  1.0000
  H   H1208     1.0  0.72881  0.54187  0.36604  1.0000
  H   H1209     1.0  0.48619  0.79072  0.39027  1.0000
  H   H1210     1.0  0.61384  0.94803  0.16680  1.0000
  S   S272      1.0  0.68090  0.85173  0.99552  1.0000
  C   C998      1.0  0.62033  0.96115  0.15472  1.0000
  C   C999      1.0  0.73001  0.48693  0.40139  1.0000
  Fe  Fe137     1.0  0.53589  0.96598  0.30586  1.0000
  Fe  Fe138     1.0  0.66732  0.97699  0.03567  1.0000
  H   H1211     1.0  0.50714  0.96430  0.26325  1.0000
  C   C1000     1.0  0.62805  0.96805  0.11517  1.0000
  C   C1001     1.0  0.59281  0.97409  0.27323  1.0000
  C   C1002     1.0  0.52892  0.50395  0.33652  1.0000
  H   H1212     1.0  0.48220  0.77286  0.44098  1.0000
  S   S273      1.0  0.55271  0.97578  0.32338  1.0000
  S   S274      1.0  0.54417  0.97873  0.27025  1.0000
  Fe  Fe139     1.0  0.72015  0.65408  0.85671  1.0000
  S   S275      1.0  0.71351  0.65160  0.89383  1.0000
  S   S276      1.0  0.71556  0.60533  0.83180  1.0000
  Fe  Fe140     1.0  0.71510  0.71958  0.89278  1.0000
  S   S277      1.0  0.70113  0.76862  0.90319  1.0000
  S   S278      1.0  0.72049  0.72271  0.85457  1.0000
  S   S279      1.0  0.51462  0.53143  0.81570  1.0000
  Fe  Fe141     1.0  0.49487  0.76315  0.85172  1.0000
  S   S280      1.0  0.49315  0.81866  0.82784  1.0000
  S   S281      1.0  0.51010  0.71572  0.84640  1.0000
  H   H1213     1.0  0.71168  0.54293  0.80057  1.0000
  Fe  Fe142     1.0  0.49025  0.85477  0.85958  1.0000
  S   S282      1.0  0.49719  0.91814  0.86198  1.0000
  S   S283      1.0  0.49367  0.80059  0.88328  1.0000
  H   H1214     1.0  0.69746  0.78467  0.98781  1.0000
  H   H1215     1.0  0.50972  0.52580  0.87040  1.0000
  C   C1003     1.0  0.49401  0.65196  0.76855  1.0000
  H   H1216     1.0  0.49236  0.58853  0.76270  1.0000
  C   C1004     1.0  0.57680  0.97220  0.93173  1.0000
  H   H1217     1.0  0.50070  0.69822  0.89741  1.0000
  H   H1218     1.0  0.58127  0.92527  0.89497  1.0000
  N   N67       1.0  0.48715  0.65562  0.90808  1.0000
  H   H1219     1.0  0.52713  0.62385  0.77544  1.0000
  C   C1005     1.0  0.49898  0.95399  0.93744  1.0000
  S   S284      1.0  0.66908  0.55068  0.78462  1.0000
  H   H1220     1.0  0.69401  0.52120  0.78157  1.0000
  H   H1221     1.0  0.48465  0.65796  0.76714  1.0000
  H   H1222     1.0  0.57182  0.88547  0.90583  1.0000
  Fe  Fe143     1.0  0.52913  0.48225  0.80822  1.0000
  H   H1223     1.0  0.61640  0.84732  0.95750  1.0000
  C   C1006     1.0  0.71275  0.96222  0.88551  1.0000
  C   C1007     1.0  0.60843  0.86350  0.95210  1.0000
  H   H1224     1.0  0.50197  0.78554  0.78271  1.0000
  C   C1008     1.0  0.56670  0.91396  0.94730  1.0000
  C   C1009     1.0  0.51152  0.58248  0.88627  1.0000
  C   C1010     1.0  0.49832  0.61214  0.76591  1.0000
  H   H1225     1.0  0.71026  0.84955  0.90556  1.0000
  C   C1011     1.0  0.50974  0.93164  0.87642  1.0000
  C   C1012     1.0  0.51718  0.90260  0.88715  1.0000
  C   C1013     1.0  0.52703  0.91475  0.89851  1.0000
  H   H1226     1.0  0.70665  0.86066  0.84303  1.0000
  C   C1014     1.0  0.59692  0.92633  0.94744  1.0000
  C   C1015     1.0  0.50158  0.68320  0.77353  1.0000
  H   H1227     1.0  0.51538  0.87080  0.88658  1.0000
  H   H1228     1.0  0.53276  0.89202  0.90667  1.0000
  H   H1229     1.0  0.51102  0.63968  0.90141  1.0000
  H   H1230     1.0  0.51268  0.75595  0.76653  1.0000
  C   C1016     1.0  0.51367  0.58242  0.82471  1.0000
  C   C1017     1.0  0.50244  0.60163  0.82792  1.0000
  C   C1018     1.0  0.50113  0.64193  0.83491  1.0000
  C   C1019     1.0  0.51109  0.66409  0.83836  1.0000
  C   C1020     1.0  0.52232  0.64482  0.83528  1.0000
  C   C1021     1.0  0.52362  0.60426  0.82859  1.0000
  H   H1231     1.0  0.49468  0.58502  0.82511  1.0000
  H   H1232     1.0  0.49241  0.65558  0.83766  1.0000
  H   H1233     1.0  0.53010  0.66143  0.83800  1.0000
  H   H1234     1.0  0.53232  0.59005  0.82624  1.0000
  H   H1235     1.0  0.49237  0.71342  0.81268  1.0000
  H   H1236     1.0  0.70174  0.90214  0.92983  1.0000
  C   C1022     1.0  0.68673  0.82973  0.96963  1.0000
  C   C1023     1.0  0.69479  0.79622  0.97107  1.0000
  C   C1024     1.0  0.69939  0.77730  0.95104  1.0000
  C   C1025     1.0  0.69583  0.79123  0.92926  1.0000
  C   C1026     1.0  0.68778  0.82474  0.92785  1.0000
  C   C1027     1.0  0.68334  0.84408  0.94782  1.0000
  H   H1237     1.0  0.55821  0.93015  0.94332  1.0000
  H   H1238     1.0  0.70555  0.75159  0.95249  1.0000
  H   H1239     1.0  0.68493  0.83583  0.91115  1.0000
  H   H1240     1.0  0.67712  0.86960  0.94634  1.0000
  C   C1028     1.0  0.70252  0.59127  0.81860  1.0000
  C   C1029     1.0  0.69154  0.61122  0.82246  1.0000
  C   C1030     1.0  0.68152  0.59877  0.81162  1.0000
  C   C1031     1.0  0.68225  0.56615  0.79682  1.0000
  C   C1032     1.0  0.69322  0.54605  0.79304  1.0000
  C   C1033     1.0  0.70325  0.55850  0.80388  1.0000
  H   H1241     1.0  0.69078  0.63645  0.83367  1.0000
  H   H1242     1.0  0.67310  0.61463  0.81473  1.0000
  C   C1034     1.0  0.71205  0.83849  0.85344  1.0000
  C   C1035     1.0  0.48688  0.58671  0.89022  1.0000
  H   H1243     1.0  0.50730  0.95309  0.92765  1.0000
  H   H1244     1.0  0.67152  0.50252  0.63032  1.0000
  H   H1245     1.0  0.61411  0.92124  0.96169  1.0000
  H   H1246     1.0  0.69315  0.48321  0.87009  1.0000
  H   H1247     1.0  0.49661  0.73945  0.74023  1.0000
  H   H1248     1.0  0.52009  0.69305  0.78052  1.0000
  C   C1036     1.0  0.61984  0.49889  0.69181  1.0000
  C   C1037     1.0  0.72900  0.82668  0.87655  1.0000
  C   C1038     1.0  0.51371  0.67197  0.77586  1.0000
  H   H1249     1.0  0.49186  0.91325  0.91429  1.0000
  C   C1039     1.0  0.59943  0.84268  0.94311  1.0000
  C   C1040     1.0  0.60715  0.90518  0.95436  1.0000
  C   C1041     1.0  0.70636  0.91065  0.91359  1.0000
  H   H1250     1.0  0.48557  0.68438  0.94064  1.0000
  N   N68       1.0  0.57648  0.92739  0.93121  1.0000
  H   H1251     1.0  0.58229  0.84591  0.92991  1.0000
  H   H1252     1.0  0.72506  0.89300  0.83107  1.0000
  H   H1253     1.0  0.71936  0.53294  0.86740  1.0000
  C   C1042     1.0  0.63789  0.51738  0.67161  1.0000
  C   C1043     1.0  0.52948  0.95598  0.89944  1.0000
  H   H1254     1.0  0.48711  0.77211  0.75769  1.0000
  H   H1255     1.0  0.59651  0.95845  0.94982  1.0000
  H   H1256     1.0  0.72340  0.80857  0.88912  1.0000
  H   H1257     1.0  0.56852  0.91999  0.96544  1.0000
  S   S285      1.0  0.65241  0.50284  0.73396  1.0000
  C   C1044     1.0  0.71738  0.89049  0.87816  1.0000
  H   H1258     1.0  0.51353  0.57114  0.76673  1.0000
  C   C1045     1.0  0.58760  0.90614  0.93799  1.0000
  H   H1259     1.0  0.67017  0.51950  0.83258  1.0000
  C   C1046     1.0  0.49007  0.65759  0.93255  1.0000
  C   C1047     1.0  0.70703  0.95138  0.90656  1.0000
  C   C1048     1.0  0.51026  0.60228  0.76805  1.0000
  C   C1049     1.0  0.49014  0.93069  0.92955  1.0000
  S   S286      1.0  0.54186  0.96960  0.91434  1.0000
  C   C1050     1.0  0.50565  0.61600  0.89600  1.0000
  H   H1260     1.0  0.49968  0.66038  0.93445  1.0000
  C   C1051     1.0  0.71138  0.88065  0.89960  1.0000
  C   C1052     1.0  0.49058  0.74028  0.75593  1.0000
  C   C1053     1.0  0.67667  0.50202  0.84328  1.0000
  H   H1261     1.0  0.56523  0.88106  0.94647  1.0000
  C   C1054     1.0  0.57379  0.91778  0.90739  1.0000
  H   H1262     1.0  0.70297  0.97451  0.91736  1.0000
  H   H1263     1.0  0.48730  0.62991  0.94275  1.0000
  C   C1055     1.0  0.50587  0.75430  0.78095  1.0000
  C   C1056     1.0  0.49314  0.61938  0.89810  1.0000
  C   C1057     1.0  0.48814  0.72479  0.79673  1.0000
  H   H1264     1.0  0.70600  0.82519  0.86718  1.0000
  N   N69       1.0  0.49674  0.72494  0.77671  1.0000
  C   C1058     1.0  0.49286  0.55324  0.88059  1.0000
  H   H1265     1.0  0.61479  0.52551  0.68440  1.0000
  H   H1266     1.0  0.48276  0.72254  0.75286  1.0000
  C   C1059     1.0  0.71787  0.93240  0.87142  1.0000
  C   C1060     1.0  0.50514  0.55118  0.87858  1.0000
  C   C1061     1.0  0.51792  0.63212  0.77296  1.0000
  H   H1267     1.0  0.64611  0.50761  0.66189  1.0000
  C   C1062     1.0  0.58912  0.86353  0.93629  1.0000
  H   H1268     1.0  0.56580  0.93527  0.90145  1.0000
  H   H1269     1.0  0.48627  0.72039  0.90122  1.0000
  H   H1270     1.0  0.60043  0.81016  0.94156  1.0000
  C   C1063     1.0  0.51220  0.97287  0.87734  1.0000
  H   H1271     1.0  0.48798  0.52901  0.87419  1.0000
  N   N70       1.0  0.72208  0.85798  0.86315  1.0000
  H   H1272     1.0  0.72754  0.57116  0.87878  1.0000
  H   H1273     1.0  0.52106  0.58122  0.88406  1.0000
  H   H1274     1.0  0.64088  0.52787  0.68818  1.0000
  H   H1275     1.0  0.63392  0.54394  0.66192  1.0000
  C   C1064     1.0  0.72712  0.53773  0.87770  1.0000
  H   H1276     1.0  0.48450  0.75573  0.79993  1.0000
  H   H1277     1.0  0.71509  0.81333  0.84225  1.0000
  S   S287      1.0  0.66118  0.95162  0.97226  1.0000
  C   C1065     1.0  0.48551  0.97640  0.96831  1.0000
  Fe  Fe144     1.0  0.66468  0.49644  0.76349  1.0000
  H   H1278     1.0  0.72532  0.52513  0.89559  1.0000
  H   H1279     1.0  0.49011  0.69085  0.87652  1.0000
  H   H1280     1.0  0.51027  0.74635  0.79738  1.0000
  C   C1066     1.0  0.49124  0.69276  0.89530  1.0000
  C   C1067     1.0  0.49694  0.97750  0.95720  1.0000
  N   N71       1.0  0.62939  0.48443  0.67540  1.0000
  H   H1281     1.0  0.72205  0.94297  0.85528  1.0000
  H   H1282     1.0  0.52125  0.96680  0.95376  1.0000
  H   H1283     1.0  0.62343  0.50836  0.70814  1.0000
  H   H1284     1.0  0.67407  0.50779  0.86156  1.0000
  H   H1285     1.0  0.68534  0.51559  0.83869  1.0000
  C   C1068     1.0  0.72993  0.87297  0.84358  1.0000
  S   S288      1.0  0.68055  0.52608  0.49104  1.0000
  S   S289      1.0  0.78438  0.32647  0.99240  1.0000
  H   H1286     1.0  0.94284  0.35634  0.03891  1.0000
  S   S290      1.0  0.80674  0.38473  0.02665  1.0000
  C   C1069     1.0  0.85947  0.40938  0.17556  1.0000
  C   C1070     1.0  0.97426  0.40407  0.22511  1.0000
  S   S291      1.0  0.96564  0.23467  0.06658  1.0000
  H   H1287     1.0  0.75586  0.40347  0.27380  1.0000
  S   S292      1.0  0.96529  0.35039  0.16072  1.0000
  S   S293      1.0  0.97210  0.23906  0.13446  1.0000
  Fe  Fe145     1.0  0.79508  0.40661  0.27133  1.0000
  S   S294      1.0  0.78942  0.36208  0.30039  1.0000
  C   C1071     1.0  0.88843  0.29403  0.02565  1.0000
  S   S295      1.0  0.81157  0.40155  0.24818  1.0000
  Fe  Fe146     1.0  0.92844  0.38360  0.28368  1.0000
  S   S296      1.0  0.93391  0.40915  0.31668  1.0000
  S   S297      1.0  0.94250  0.34630  0.26365  1.0000
  Fe  Fe147     1.0  0.90201  0.40680  0.29364  1.0000
  S   S298      1.0  0.90591  0.43455  0.32681  1.0000
  S   S299      1.0  0.88354  0.39013  0.28338  1.0000
  H   H1288     1.0  0.78879  0.47654  0.16268  1.0000
  Fe  Fe148     1.0  0.91788  0.37959  0.33351  1.0000
  S   S300      1.0  0.91634  0.35005  0.36996  1.0000
  S   S301      1.0  0.91693  0.43799  0.27341  1.0000
  S   S302      1.0  0.91334  0.35057  0.30140  1.0000
  Fe  Fe149     1.0  0.79222  0.38582  0.00125  1.0000
  S   S303      1.0  0.74333  0.22838  0.37704  1.0000
  S   S304      1.0  0.74392  0.25532  0.30899  1.0000
  C   C1072     1.0  0.96773  0.42011  0.24379  1.0000
  S   S305      1.0  0.75537  0.11450  0.39051  1.0000
  H   H1289     1.0  0.84203  0.46226  0.15602  1.0000
  H   H1290     1.0  0.96406  0.39867  0.25658  1.0000
  H   H1291     1.0  0.90698  0.32364  0.00030  1.0000
  H   H1292     1.0  0.93070  0.98428  0.38321  1.0000
  Fe  Fe150     1.0  0.91506  0.11447  0.42513  1.0000
  S   S306      1.0  0.90569  0.12592  0.45959  1.0000
  S   S307      1.0  0.91965  0.15844  0.39434  1.0000
  Fe  Fe151     1.0  0.91609  0.02159  0.43445  1.0000
  S   S308      1.0  0.90660  0.02760  0.46914  1.0000
  Fe  Fe152     1.0  0.89437  0.07346  0.45231  1.0000
  S   S309      1.0  0.87399  0.07703  0.45417  1.0000
  Fe  Fe153     1.0  0.91875  0.07855  0.47398  1.0000
  H   H1293     1.0  0.83702  0.43133  0.22818  1.0000
  S   S310      1.0  0.90310  0.06468  0.41710  1.0000
  S   S311      1.0  0.92880  0.07009  0.44003  1.0000
  C   C1073     1.0  0.91265  0.26522  0.03447  1.0000
  H   H1294     1.0  0.75673  0.44614  0.06300  1.0000
  C   C1074     1.0  0.92596  0.25586  0.06563  1.0000
  H   H1295     1.0  0.85688  0.45046  0.22848  1.0000
  C   C1075     1.0  0.86240  0.04735  0.46740  1.0000
  C   C1076     1.0  0.85061  0.05774  0.46241  1.0000
  C   C1077     1.0  0.84116  0.03457  0.47185  1.0000
  C   C1078     1.0  0.74302  0.29643  0.00324  1.0000
  H   H1296     1.0  0.92515  0.43173  0.36584  1.0000
  C   C1079     1.0  0.76089  0.10229  0.41806  1.0000
  C   C1080     1.0  0.76979  0.07170  0.42007  1.0000
  C   C1081     1.0  0.77417  0.05970  0.44169  1.0000
  C   C1082     1.0  0.76973  0.07841  0.46154  1.0000
  C   C1083     1.0  0.76105  0.10981  0.45945  1.0000
  C   C1084     1.0  0.75665  0.12176  0.43780  1.0000
  H   H1297     1.0  0.77325  0.05700  0.40481  1.0000
  H   H1298     1.0  0.78100  0.03607  0.44302  1.0000
  H   H1299     1.0  0.75763  0.12466  0.47470  1.0000
  H   H1300     1.0  0.74985  0.14553  0.43648  1.0000
  C   C1085     1.0  0.91698  0.29659  0.37643  1.0000
  C   C1086     1.0  0.92078  0.26903  0.35984  1.0000
  C   C1087     1.0  0.92154  0.22711  0.36574  1.0000
  C   C1088     1.0  0.91836  0.21189  0.38818  1.0000
  C   C1089     1.0  0.91432  0.23939  0.40466  1.0000
  C   C1090     1.0  0.91371  0.28146  0.39883  1.0000
  H   H1301     1.0  0.92339  0.28001  0.34257  1.0000
  H   H1302     1.0  0.92468  0.20622  0.35284  1.0000
  H   H1303     1.0  0.91180  0.22826  0.42195  1.0000
  H   H1304     1.0  0.91072  0.30235  0.41182  1.0000
  C   C1091     1.0  0.77637  0.33446  0.30248  1.0000
  C   C1092     1.0  0.77014  0.32717  0.28309  1.0000
  C   C1093     1.0  0.76021  0.30280  0.28536  1.0000
  C   C1094     1.0  0.75633  0.28618  0.30703  1.0000
  C   C1095     1.0  0.76237  0.29448  0.32648  1.0000
  C   C1096     1.0  0.77243  0.31812  0.32416  1.0000
  H   H1305     1.0  0.77314  0.33930  0.26628  1.0000
  H   H1306     1.0  0.75555  0.29657  0.27023  1.0000
  H   H1307     1.0  0.75930  0.28260  0.34327  1.0000
  H   H1308     1.0  0.77722  0.32361  0.33924  1.0000
  C   C1097     1.0  0.86976  0.41742  0.28044  1.0000
  C   C1098     1.0  0.85973  0.39592  0.27600  1.0000
  C   C1099     1.0  0.84867  0.41610  0.27288  1.0000
  H   H1309     1.0  0.86052  0.36337  0.27483  1.0000
  H   H1310     1.0  0.84109  0.39898  0.26948  1.0000
  C   C1100     1.0  0.95822  0.34671  0.18876  1.0000
  C   C1101     1.0  0.96072  0.31463  0.20455  1.0000
  C   C1102     1.0  0.95560  0.31466  0.22720  1.0000
  C   C1103     1.0  0.94777  0.34630  0.23426  1.0000
  C   C1104     1.0  0.94501  0.37786  0.21829  1.0000
  C   C1105     1.0  0.95029  0.37817  0.19574  1.0000
  H   H1311     1.0  0.96682  0.29029  0.19949  1.0000
  H   H1312     1.0  0.95783  0.29013  0.23941  1.0000
  H   H1313     1.0  0.93903  0.40244  0.22340  1.0000
  H   H1314     1.0  0.94832  0.40318  0.18368  1.0000
  C   C1106     1.0  0.94178  0.30709  0.01623  1.0000
  C   C1107     1.0  0.94561  0.32533  0.03575  1.0000
  C   C1108     1.0  0.95296  0.30375  0.05129  1.0000
  C   C1109     1.0  0.95656  0.26360  0.04743  1.0000
  C   C1110     1.0  0.95279  0.24547  0.02783  1.0000
  C   C1111     1.0  0.94548  0.26710  0.01224  1.0000
  H   H1315     1.0  0.95573  0.31804  0.06635  1.0000
  H   H1316     1.0  0.95554  0.21441  0.02471  1.0000
  H   H1317     1.0  0.93342  0.23978  0.07331  1.0000
  H   H1318     1.0  0.74760  0.01872  0.47022  1.0000
  H   H1319     1.0  0.83382  0.39580  0.20716  1.0000
  H   H1320     1.0  0.80924  0.39991  0.09976  1.0000
  H   H1321     1.0  0.83991  0.34676  0.00140  1.0000
  C   C1112     1.0  0.73625  0.05633  0.45018  1.0000
  H   H1322     1.0  0.90884  0.36637  0.01690  1.0000
  C   C1113     1.0  0.92075  0.28978  0.07588  1.0000
  H   H1323     1.0  0.87486  0.37479  0.16329  1.0000
  H   H1324     1.0  0.89190  0.27525  0.01126  1.0000
  H   H1325     1.0  0.96034  0.42794  0.28933  1.0000
  S   S312      1.0  0.77462  0.06320  0.48925  1.0000
  H   H1326     1.0  0.74850  0.46706  0.39421  1.0000
  C   C1114     1.0  0.86458  0.01367  0.48233  1.0000
  H   H1327     1.0  0.73434  0.07671  0.46406  1.0000
  H   H1328     1.0  0.93844  0.45030  0.37567  1.0000
  H   H1329     1.0  0.92419  0.29975  0.09162  1.0000
  C   C1115     1.0  0.86858  0.45956  0.28167  1.0000
  Fe  Fe154     1.0  0.81553  0.42799  0.00046  1.0000
  H   H1330     1.0  0.82491  0.44139  0.21010  1.0000
  H   H1331     1.0  0.74302  0.43436  0.26696  1.0000
  H   H1332     1.0  0.88321  0.36725  0.03883  1.0000
  H   H1333     1.0  0.73759  0.33659  0.33358  1.0000
  C   C1116     1.0  0.74172  0.00557  0.41389  1.0000
  C   C1117     1.0  0.74689  0.99606  0.43532  1.0000
  C   C1118     1.0  0.94564  0.46717  0.26176  1.0000
  Fe  Fe155     1.0  0.74080  0.16127  0.38134  1.0000
  H   H1334     1.0  0.75331  0.32138  0.02898  1.0000
  Fe  Fe156     1.0  0.92172  0.46209  0.30758  1.0000
  H   H1335     1.0  0.97821  0.38308  0.05860  1.0000
  C   C1119     1.0  0.75018  0.32526  0.01166  1.0000
  S   S313      1.0  0.80577  0.41716  0.18388  1.0000
  H   H1336     1.0  0.91028  0.25563  0.01790  1.0000
  H   H1337     1.0  0.92627  0.21799  0.03670  1.0000
  H   H1338     1.0  0.76734  0.41783  0.30641  1.0000
  H   H1339     1.0  0.93146  0.47603  0.35182  1.0000
  Fe  Fe157     1.0  0.79703  0.43957  0.04136  1.0000
  H   H1340     1.0  0.91499  0.43611  0.40471  1.0000
  C   C1120     1.0  0.75368  0.35846  0.99767  1.0000
  C   C1121     1.0  0.90224  0.34446  0.01229  1.0000
  H   H1341     1.0  0.97863  0.31023  0.04929  1.0000
  Fe  Fe158     1.0  0.73624  0.22451  0.34204  1.0000
  H   H1342     1.0  0.88725  0.33743  0.06407  1.0000
  Fe  Fe159     1.0  0.80108  0.43692  0.22104  1.0000
  C   C1122     1.0  0.86052  0.43466  0.21377  1.0000
  C   C1123     1.0  0.76409  0.44997  0.30455  1.0000
  H   H1343     1.0  0.75174  0.37271  0.30810  1.0000
  Fe  Fe160     1.0  0.97550  0.25648  0.09664  1.0000
  H   H1344     1.0  0.81412  0.38480  0.14062  1.0000
  H   H1345     1.0  0.97563  0.37152  0.22415  1.0000
  C   C1124     1.0  0.92190  0.24356  0.04502  1.0000
  H   H1346     1.0  0.97139  0.46557  0.28888  1.0000
  C   C1125     1.0  0.84752  0.45829  0.27389  1.0000
  N   N72       1.0  0.84187  0.44988  0.19288  1.0000
  N   N73       1.0  0.77760  0.18218  0.34649  1.0000
  C   C1126     1.0  0.78372  0.14265  0.35196  1.0000
  C   C1127     1.0  0.77468  0.20265  0.36835  1.0000
  C   C1128     1.0  0.76630  0.17377  0.33622  1.0000
  C   C1129     1.0  0.78538  0.20767  0.33113  1.0000
  C   C1130     1.0  0.79624  0.22027  0.33892  1.0000
  C   C1131     1.0  0.78251  0.22085  0.30836  1.0000
  C   C1132     1.0  0.80354  0.24557  0.32509  1.0000
  C   C1133     1.0  0.78996  0.24569  0.29460  1.0000
  C   C1134     1.0  0.80037  0.25846  0.30303  1.0000
  H   H1347     1.0  0.79185  0.14602  0.36139  1.0000
  H   H1348     1.0  0.77797  0.12245  0.36319  1.0000
  H   H1349     1.0  0.78624  0.12656  0.33596  1.0000
  H   H1350     1.0  0.78249  0.20550  0.37879  1.0000
  H   H1351     1.0  0.76822  0.18555  0.37971  1.0000
  H   H1352     1.0  0.77076  0.23358  0.36493  1.0000
  H   H1353     1.0  0.76065  0.15468  0.34812  1.0000
  H   H1354     1.0  0.76104  0.20219  0.33233  1.0000
  H   H1355     1.0  0.76772  0.15684  0.32019  1.0000
  H   H1356     1.0  0.79906  0.21113  0.35592  1.0000
  H   H1357     1.0  0.77438  0.21351  0.30094  1.0000
  H   H1358     1.0  0.81162  0.25583  0.33162  1.0000
  H   H1359     1.0  0.78742  0.25647  0.27757  1.0000
  H   H1360     1.0  0.80583  0.27914  0.29259  1.0000
  C   C1135     1.0  0.74393  0.02263  0.45345  1.0000
  H   H1361     1.0  0.83528  0.41522  0.16600  1.0000
  H   H1362     1.0  0.97552  0.01617  0.23706  1.0000
  H   H1363     1.0  0.94480  0.43370  0.26255  1.0000
  C   C1136     1.0  0.79331  0.45982  0.14911  1.0000
  H   H1364     1.0  0.75954  0.37995  0.00404  1.0000
  N   N74       1.0  0.88479  0.28528  0.33199  1.0000
  C   C1137     1.0  0.89130  0.27682  0.30980  1.0000
  C   C1138     1.0  0.87223  0.29385  0.32691  1.0000
  C   C1139     1.0  0.88959  0.32226  0.34072  1.0000
  C   C1140     1.0  0.88579  0.25167  0.34971  1.0000
  C   C1141     1.0  0.87970  0.25453  0.37158  1.0000
  C   C1142     1.0  0.89301  0.21609  0.34624  1.0000
  C   C1143     1.0  0.88081  0.22383  0.38886  1.0000
  C   C1144     1.0  0.89400  0.18554  0.36363  1.0000
  C   C1145     1.0  0.88798  0.18947  0.38491  1.0000
  H   H1365     1.0  0.88805  0.24954  0.30206  1.0000
  H   H1366     1.0  0.89029  0.30255  0.29680  1.0000
  H   H1367     1.0  0.90096  0.27240  0.31204  1.0000
  H   H1368     1.0  0.86812  0.26617  0.32137  1.0000
  H   H1369     1.0  0.87131  0.31790  0.31287  1.0000
  H   H1370     1.0  0.86692  0.30506  0.34202  1.0000
  H   H1371     1.0  0.89902  0.31696  0.34456  1.0000
  H   H1372     1.0  0.88902  0.34839  0.32792  1.0000
  H   H1373     1.0  0.88489  0.33203  0.35684  1.0000
  H   H1374     1.0  0.87423  0.28094  0.37567  1.0000
  H   H1375     1.0  0.89826  0.21139  0.33053  1.0000
  H   H1376     1.0  0.87627  0.22689  0.40560  1.0000
  H   H1377     1.0  0.89987  0.15926  0.36099  1.0000
  H   H1378     1.0  0.88911  0.16618  0.39852  1.0000
  H   H1379     1.0  0.85515  0.40491  0.15983  1.0000
  C   C1146     1.0  0.74371  0.43294  0.31259  1.0000
  C   C1147     1.0  0.96183  0.46097  0.28704  1.0000
  C   C1148     1.0  0.73948  0.45828  0.39725  1.0000
  C   C1149     1.0  0.96549  0.46249  0.24525  1.0000
  C   C1150     1.0  0.89081  0.35219  0.04770  1.0000
  C   C1151     1.0  0.91137  0.31140  0.06565  1.0000
  H   H1380     1.0  0.97146  0.29716  0.47334  1.0000
  C   C1152     1.0  0.92975  0.45995  0.36886  1.0000
  H   H1381     1.0  0.94267  0.25276  0.99723  1.0000
  C   C1153     1.0  0.85398  0.43165  0.19379  1.0000
  H   H1382     1.0  0.88379  0.00273  0.43517  1.0000
  C   C1154     1.0  0.73752  0.41680  0.39708  1.0000
  N   N75       1.0  0.89724  0.32220  0.03299  1.0000
  S   S314      1.0  0.73501  0.15668  0.34507  1.0000
  H   H1383     1.0  0.88541  0.27332  0.04023  1.0000
  H   H1384     1.0  0.76539  0.98221  0.46390  1.0000
  C   C1155     1.0  0.83658  0.44722  0.17015  1.0000
  C   C1156     1.0  0.73445  0.45368  0.32524  1.0000
  Fe  Fe161     1.0  0.81603  0.46207  0.26048  1.0000
  S   S315      1.0  0.93265  0.33599  0.99717  1.0000
  H   H1385     1.0  0.92863  0.45048  0.41448  1.0000
  S   S316      1.0  0.78181  0.43708  0.01775  1.0000
  C   C1157     1.0  0.80755  0.40834  0.13662  1.0000
  H   H1386     1.0  0.89528  0.36124  0.00243  1.0000
  S   S317      1.0  0.78415  0.43676  0.24370  1.0000
  C   C1158     1.0  0.90693  0.29941  0.04467  1.0000
  C   C1159     1.0  0.87698  0.39542  0.19720  1.0000
  C   C1160     1.0  0.80478  0.41681  0.11333  1.0000
  C   C1161     1.0  0.75211  0.43507  0.27323  1.0000
  H   H1387     1.0  0.84876  0.08388  0.45107  1.0000
  H   H1388     1.0  0.74341  0.44721  0.03051  1.0000
  C   C1162     1.0  0.79053  0.46824  0.12583  1.0000
  C   C1163     1.0  0.80182  0.42961  0.15474  1.0000
  H   H1389     1.0  0.89655  0.37714  0.05173  1.0000
  H   H1390     1.0  0.88051  0.31055  0.01876  1.0000
  Fe  Fe162     1.0  0.97651  0.30354  0.14049  1.0000
  C   C1164     1.0  0.84337  0.00025  0.48631  1.0000
  C   C1165     1.0  0.79620  0.44681  0.10770  1.0000
  H   H1391     1.0  0.74483  0.39523  0.39408  1.0000
  H   H1392     1.0  0.75762  0.45190  0.25986  1.0000
  C   C1166     1.0  0.87082  0.39172  0.17733  1.0000
  H   H1393     1.0  0.83220  0.04290  0.46765  1.0000
  S   S318      1.0  0.97875  0.32141  0.10243  1.0000
  N   N76       1.0  0.75202  0.45385  0.29595  1.0000
  H   H1394     1.0  0.90791  0.33774  0.07431  1.0000
  S   S319      1.0  0.80040  0.46455  0.28586  1.0000
  C   C1167     1.0  0.83412  0.42867  0.21037  1.0000
  H   H1395     1.0  0.76955  0.98655  0.42069  1.0000
  C   C1168     1.0  0.73417  0.03966  0.41076  1.0000
  C   C1169     1.0  0.92040  0.46297  0.40691  1.0000
  H   H1396     1.0  0.87350  0.00594  0.48693  1.0000
  H   H1397     1.0  0.76442  0.46322  0.32172  1.0000
  H   H1398     1.0  0.97144  0.31438  0.01291  1.0000
  H   H1399     1.0  0.77058  0.46575  0.29257  1.0000
  S   S320      1.0  0.79214  0.45891  0.07860  1.0000
  H   H1400     1.0  0.88575  0.38149  0.19860  1.0000
  C   C1170     1.0  0.74476  0.39031  0.31657  1.0000
  H   H1401     1.0  0.82759  0.46210  0.16994  1.0000
  H   H1402     1.0  0.95683  0.47490  0.30183  1.0000
  H   H1403     1.0  0.90608  0.46721  0.37302  1.0000
  C   C1171     1.0  0.73675  0.36940  0.33133  1.0000
  H   H1404     1.0  0.74080  0.27125  0.01494  1.0000
  H   H1405     1.0  0.74349  0.98682  0.39933  1.0000
  C   C1172     1.0  0.97286  0.34473  0.00586  1.0000
  H   H1406     1.0  0.87620  0.47663  0.28491  1.0000
  C   C1173     1.0  0.95469  0.99297  0.47884  1.0000
  N   N77       1.0  0.95793  0.47855  0.26454  1.0000
  H   H1407     1.0  0.86491  0.99059  0.42505  1.0000
  C   C1174     1.0  0.73143  0.06492  0.42889  1.0000
  Fe  Fe163     1.0  0.79209  0.47726  0.99243  1.0000
  H   H1408     1.0  0.73467  0.21958  0.99540  1.0000
  C   C1175     1.0  0.87183  0.41680  0.21539  1.0000
  C   C1176     1.0  0.97853  0.42948  0.20708  1.0000
  H   H1409     1.0  0.85726  0.30061  0.99298  1.0000
  H   H1410     1.0  0.87659  0.41924  0.23096  1.0000
  C   C1177     1.0  0.74914  0.47217  0.03224  1.0000
  C   C1178     1.0  0.96672  0.98269  0.47831  1.0000
  C   C1179     1.0  0.75658  0.47168  0.05056  1.0000
  C   C1180     1.0  0.97968  0.98877  0.24448  1.0000
  C   C1181     1.0  0.84746  0.35797  0.99138  1.0000
  C   C1182     1.0  0.85755  0.47980  0.27834  1.0000
  C   C1183     1.0  0.97652  0.47123  0.20791  1.0000
  H   H1411     1.0  0.93801  0.98220  0.46488  1.0000
  C   C1184     1.0  0.97576  0.29121  0.48946  1.0000
  H   H1412     1.0  0.93953  0.47966  0.27547  1.0000
  H   H1413     1.0  0.94243  0.47868  0.24479  1.0000
  H   H1414     1.0  0.88326  0.98102  0.40725  1.0000
  H   H1415     1.0  0.95097  0.01558  0.49038  1.0000
  H   H1416     1.0  0.97236  0.99734  0.48961  1.0000
  C   C1185     1.0  0.73573  0.39006  0.86477  1.0000
  H   H1417     1.0  0.92495  0.31816  0.87859  1.0000
  Fe  Fe164     1.0  0.91627  0.03909  0.80868  1.0000
  S   S321      1.0  0.90684  0.03650  0.77549  1.0000
  S   S322      1.0  0.91502  0.10420  0.82151  1.0000
  C   C1186     1.0  0.73799  0.20491  0.76870  1.0000
  C   C1187     1.0  0.84870  0.34055  0.93041  1.0000
  C   C1188     1.0  0.93582  0.44865  0.91396  1.0000
  H   H1418     1.0  0.94368  0.99594  0.68396  1.0000
  C   C1189     1.0  0.85432  0.30260  0.92843  1.0000
  Fe  Fe165     1.0  0.97768  0.13969  0.59133  1.0000
  H   H1419     1.0  0.79412  0.02783  0.63017  1.0000
  S   S323      1.0  0.80154  0.42578  0.97445  1.0000
  H   H1420     1.0  0.75202  0.45762  0.88929  1.0000
  C   C1190     1.0  0.92719  0.28989  0.86951  1.0000
  C   C1191     1.0  0.83589  0.99340  0.60781  1.0000
  Fe  Fe166     1.0  0.91752  0.35344  0.91799  1.0000
  S   S324      1.0  0.91048  0.36707  0.95372  1.0000
  S   S325      1.0  0.92260  0.39928  0.88881  1.0000
  Fe  Fe167     1.0  0.91701  0.26168  0.92695  1.0000
  S   S326      1.0  0.91042  0.26846  0.96392  1.0000
  S   S327      1.0  0.92125  0.19771  0.91404  1.0000
  Fe  Fe168     1.0  0.89784  0.31738  0.95031  1.0000
  S   S328      1.0  0.87935  0.31111  0.96773  1.0000
  Fe  Fe169     1.0  0.92338  0.31757  0.96558  1.0000
  H   H1421     1.0  0.92025  0.28627  0.85703  1.0000
  S   S329      1.0  0.90366  0.30740  0.91314  1.0000
  S   S330      1.0  0.93119  0.30709  0.92990  1.0000
  Fe  Fe170     1.0  0.74642  0.25130  0.88950  1.0000
  S   S331      1.0  0.74429  0.24516  0.85153  1.0000
  S   S332      1.0  0.75939  0.29802  0.89906  1.0000
  Fe  Fe171     1.0  0.73947  0.18093  0.86039  1.0000
  S   S333      1.0  0.74283  0.12835  0.83646  1.0000
  S   S334      1.0  0.74328  0.18498  0.89805  1.0000
  S   S335      1.0  0.80041  0.00612  0.52458  1.0000
  H   H1422     1.0  0.91111  0.10368  0.54828  1.0000
  H   H1423     1.0  0.81400  0.37312  0.93793  1.0000
  S   S336      1.0  0.96456  0.12517  0.67647  1.0000
  C   C1192     1.0  0.81170  0.27476  0.95624  1.0000
  S   S337      1.0  0.96696  0.15890  0.56010  1.0000
  S   S338      1.0  0.97667  0.08386  0.61500  1.0000
  H   H1424     1.0  0.83324  0.37414  0.94105  1.0000
  C   C1193     1.0  0.82593  0.99207  0.68033  1.0000
  S   S339      1.0  0.79014  0.06165  0.78502  1.0000
  C   C1194     1.0  0.93929  0.09374  0.52126  1.0000
  C   C1195     1.0  0.94450  0.07443  0.54056  1.0000
  C   C1196     1.0  0.95322  0.09330  0.55222  1.0000
  C   C1197     1.0  0.95667  0.13222  0.54503  1.0000
  C   C1198     1.0  0.95155  0.15140  0.52560  1.0000
  C   C1199     1.0  0.94299  0.13218  0.51364  1.0000
  H   H1425     1.0  0.94169  0.04474  0.54664  1.0000
  H   H1426     1.0  0.95720  0.07779  0.56682  1.0000
  H   H1427     1.0  0.95414  0.18148  0.51984  1.0000
  H   H1428     1.0  0.94724  0.26960  0.88928  1.0000
  C   C1200     1.0  0.75605  0.11244  0.82130  1.0000
  C   C1201     1.0  0.76705  0.12653  0.82613  1.0000
  C   C1202     1.0  0.77737  0.11126  0.81451  1.0000
  C   C1203     1.0  0.77683  0.08188  0.79793  1.0000
  C   C1204     1.0  0.76579  0.06864  0.79264  1.0000
  C   C1205     1.0  0.75547  0.08372  0.80435  1.0000
  H   H1429     1.0  0.76763  0.14863  0.83910  1.0000
  H   H1430     1.0  0.78587  0.12184  0.81865  1.0000
  H   H1431     1.0  0.76524  0.04665  0.77959  1.0000
  H   H1432     1.0  0.74699  0.07304  0.80026  1.0000
  H   H1433     1.0  0.82188  0.36083  0.97611  1.0000
  C   C1206     1.0  0.77764  0.31894  0.96618  1.0000
  C   C1207     1.0  0.77642  0.35009  0.94922  1.0000
  C   C1208     1.0  0.77087  0.34302  0.92875  1.0000
  C   C1209     1.0  0.76647  0.30486  0.92502  1.0000
  C   C1210     1.0  0.76799  0.27344  0.94171  1.0000
  C   C1211     1.0  0.77347  0.28055  0.96226  1.0000
  H   H1434     1.0  0.77961  0.37976  0.95197  1.0000
  H   H1435     1.0  0.76990  0.36740  0.91579  1.0000
  H   H1436     1.0  0.76513  0.24352  0.93859  1.0000
  C   C1212     1.0  0.73579  0.27037  0.78575  1.0000
  H   H1437     1.0  0.82582  0.98859  0.69951  1.0000
  H   H1438     1.0  0.83136  0.11857  0.80441  1.0000
  C   C1213     1.0  0.86747  0.38677  0.96626  1.0000
  C   C1214     1.0  0.86741  0.34608  0.97404  1.0000
  H   H1439     1.0  0.78305  0.98723  0.81746  1.0000
  Fe  Fe172     1.0  0.79256  0.00592  0.76322  1.0000
  H   H1440     1.0  0.74723  0.23217  0.96067  1.0000
  S   S340      1.0  0.79236  0.99050  0.67598  1.0000
  Fe  Fe173     1.0  0.92196  0.99514  0.76385  1.0000
  C   C1215     1.0  0.91603  0.12841  0.84811  1.0000
  C   C1216     1.0  0.91213  0.16929  0.84943  1.0000
  C   C1217     1.0  0.91319  0.19052  0.86970  1.0000
  C   C1218     1.0  0.91846  0.17143  0.88882  1.0000
  C   C1219     1.0  0.92218  0.13037  0.88760  1.0000
  C   C1220     1.0  0.92089  0.10887  0.86750  1.0000
  H   H1441     1.0  0.90838  0.18483  0.83456  1.0000
  H   H1442     1.0  0.91012  0.22180  0.87036  1.0000
  H   H1443     1.0  0.92624  0.11516  0.90225  1.0000
  H   H1444     1.0  0.92396  0.07752  0.86684  1.0000
  C   C1221     1.0  0.93981  0.03217  0.71341  1.0000
  C   C1222     1.0  0.94202  0.06858  0.72337  1.0000
  C   C1223     1.0  0.94961  0.09650  0.71177  1.0000
  C   C1224     1.0  0.95515  0.08835  0.69019  1.0000
  C   C1225     1.0  0.95294  0.05185  0.68025  1.0000
  C   C1226     1.0  0.94528  0.02414  0.69174  1.0000
  H   H1445     1.0  0.93789  0.07521  0.74002  1.0000
  H   H1446     1.0  0.95121  0.12459  0.71965  1.0000
  H   H1447     1.0  0.95711  0.04463  0.66378  1.0000
  H   H1448     1.0  0.74124  0.33750  0.94834  1.0000
  C   C1227     1.0  0.97438  0.25428  0.50166  1.0000
  H   H1449     1.0  0.79328  0.00210  0.59084  1.0000
  C   C1228     1.0  0.94121  0.25316  0.84517  1.0000
  C   C1229     1.0  0.75689  0.16596  0.76696  1.0000
  C   C1230     1.0  0.74879  0.19186  0.77844  1.0000
  H   H1450     1.0  0.75036  0.38504  0.88676  1.0000
  H   H1451     1.0  0.84293  0.05544  0.79642  1.0000
  H   H1452     1.0  0.88986  0.11737  0.84628  1.0000
  S   S341      1.0  0.97643  0.18304  0.62015  1.0000
  N   N78       1.0  0.81794  0.31352  0.95368  1.0000
  H   H1453     1.0  0.80148  0.34401  0.94489  1.0000
  H   H1454     1.0  0.86363  0.30026  0.92326  1.0000
  H   H1455     1.0  0.85369  0.36762  0.92675  1.0000
  H   H1456     1.0  0.93903  0.14753  0.49893  1.0000
  H   H1457     1.0  0.74277  0.26474  0.79835  1.0000
  C   C1231     1.0  0.83691  0.34391  0.93843  1.0000
  C   C1232     1.0  0.79285  0.99597  0.62821  1.0000
  H   H1458     1.0  0.84116  0.17717  0.81881  1.0000
  H   H1459     1.0  0.85755  0.44391  0.96423  1.0000
  C   C1233     1.0  0.75440  0.15160  0.74572  1.0000
  H   H1460     1.0  0.87509  0.39815  0.95647  1.0000
  C   C1234     1.0  0.84735  0.39836  0.98298  1.0000
  H   H1461     1.0  0.86227  0.17334  0.82528  1.0000
  H   H1462     1.0  0.88333  0.05870  0.79812  1.0000
  C   C1235     1.0  0.79235  0.98143  0.60578  1.0000
  H   H1463     1.0  0.96056  0.40877  0.96537  1.0000
  H   H1464     1.0  0.73618  0.98263  0.90410  1.0000
  C   C1236     1.0  0.84071  0.11647  0.80746  1.0000
  H   H1465     1.0  0.73937  0.03695  0.87371  1.0000
  H   H1466     1.0  0.75103  0.20123  0.79519  1.0000
  Fe  Fe174     1.0  0.78676  0.00831  0.49730  1.0000
  H   H1467     1.0  0.73443  0.22389  0.94507  1.0000
  H   H1468     1.0  0.86380  0.04958  0.80272  1.0000
  C   C1237     1.0  0.93232  0.43911  0.89223  1.0000
  H   H1469     1.0  0.87941  0.04491  0.82797  1.0000
  H   H1470     1.0  0.83196  0.24256  0.94601  1.0000
  S   S342      1.0  0.93202  0.00058  0.79588  1.0000
  S   S343      1.0  0.93044  0.99558  0.72726  1.0000
  C   C1238     1.0  0.94797  0.29379  0.87535  1.0000
  C   C1239     1.0  0.94313  0.17880  0.84600  1.0000
  C   C1240     1.0  0.97990  0.24639  0.52242  1.0000
  S   S344      1.0  0.92760  0.06976  0.50864  1.0000
  C   C1241     1.0  0.73923  0.30003  0.98026  1.0000
  H   H1471     1.0  0.75318  0.38806  0.96405  1.0000
  H   H1472     1.0  0.94330  0.15003  0.85582  1.0000
  H   H1473     1.0  0.93811  0.35616  0.85290  1.0000
  H   H1474     1.0  0.81154  0.26001  0.93947  1.0000
  H   H1475     1.0  0.94097  0.21267  0.87609  1.0000
  H   H1476     1.0  0.93364  0.45556  0.85585  1.0000
  C   C1242     1.0  0.75009  0.36292  0.97512  1.0000
  C   C1243     1.0  0.94186  0.21501  0.85746  1.0000
  H   H1477     1.0  0.76509  0.15645  0.77475  1.0000
  C   C1244     1.0  0.74384  0.16344  0.73573  1.0000
  H   H1478     1.0  0.89373  0.13648  0.80395  1.0000
  H   H1479     1.0  0.97752  0.04727  0.66675  1.0000
  C   C1245     1.0  0.83620  0.27072  0.94167  1.0000
  C   C1246     1.0  0.74315  0.33389  0.96636  1.0000
  H   H1480     1.0  0.87780  0.15302  0.84564  1.0000
  H   H1481     1.0  0.94691  0.32298  0.88423  1.0000
  H   H1482     1.0  0.89316  0.06723  0.81999  1.0000
  C   C1247     1.0  0.84808  0.26777  0.93399  1.0000
  C   C1248     1.0  0.81090  0.34164  0.93858  1.0000
  C   C1249     1.0  0.83024  0.30909  0.94415  1.0000
  H   H1483     1.0  0.88246  0.12976  0.78414  1.0000
  C   C1250     1.0  0.97404  0.02143  0.72494  1.0000
  H   H1484     1.0  0.93280  0.43097  0.92912  1.0000
  C   C1251     1.0  0.93949  0.32846  0.84269  1.0000
  H   H1485     1.0  0.93236  0.33014  0.83022  1.0000
  N   N79       1.0  0.93761  0.12738  0.62064  1.0000
  C   C1252     1.0  0.94477  0.16412  0.61809  1.0000
  C   C1253     1.0  0.93033  0.12991  0.64253  1.0000
  C   C1254     1.0  0.94590  0.09178  0.62263  1.0000
  C   C1255     1.0  0.93001  0.12260  0.60109  1.0000
  C   C1256     1.0  0.92249  0.08929  0.60123  1.0000
  C   C1257     1.0  0.93020  0.14920  0.58108  1.0000
  C   C1258     1.0  0.91567  0.08287  0.58248  1.0000
  C   C1259     1.0  0.92326  0.14265  0.56254  1.0000
  C   C1260     1.0  0.91609  0.10943  0.56315  1.0000
  H   H1486     1.0  0.93908  0.19222  0.61649  1.0000
  H   H1487     1.0  0.95020  0.16719  0.63331  1.0000
  H   H1488     1.0  0.95108  0.16292  0.60277  1.0000
  H   H1489     1.0  0.92365  0.15540  0.64144  1.0000
  H   H1490     1.0  0.93587  0.13464  0.65742  1.0000
  H   H1491     1.0  0.92558  0.10170  0.64713  1.0000
  H   H1492     1.0  0.95097  0.08724  0.60601  1.0000
  H   H1493     1.0  0.95234  0.09565  0.63603  1.0000
  H   H1494     1.0  0.94134  0.06328  0.62750  1.0000
  H   H1495     1.0  0.92205  0.06735  0.61562  1.0000
  H   H1496     1.0  0.93590  0.17458  0.57891  1.0000
  H   H1497     1.0  0.74195  0.15204  0.71919  1.0000
  H   H1498     1.0  0.83216  0.01628  0.67522  1.0000
  H   H1499     1.0  0.85258  0.23835  0.93282  1.0000
  C   C1261     1.0  0.94201  0.25274  0.82067  1.0000
  C   C1262     1.0  0.94321  0.21624  0.80939  1.0000
  H   H1500     1.0  0.92379  0.16247  0.54711  1.0000
  C   C1263     1.0  0.94367  0.17936  0.82203  1.0000
  H   H1501     1.0  0.94158  0.28012  0.80981  1.0000
  H   H1502     1.0  0.94362  0.21642  0.79071  1.0000
  H   H1503     1.0  0.81116  0.33131  0.92062  1.0000
  H   H1504     1.0  0.94427  0.15105  0.81328  1.0000
  H   H1505     1.0  0.92649  0.26456  0.88273  1.0000
  C   C1264     1.0  0.97497  0.42287  0.98588  1.0000
  N   N80       1.0  0.93906  0.29084  0.85776  1.0000
  H   H1506     1.0  0.94820  0.33095  0.83315  1.0000
  H   H1507     1.0  0.81576  0.25333  0.96920  1.0000
  H   H1508     1.0  0.84198  0.00545  0.64066  1.0000
  H   H1509     1.0  0.80902  0.33352  0.98494  1.0000
  H   H1510     1.0  0.97573  0.45322  0.97812  1.0000
  C   C1265     1.0  0.84625  0.14938  0.81560  1.0000
  H   H1511     1.0  0.74266  0.26823  0.93850  1.0000
  C   C1266     1.0  0.75212  0.00139  0.85384  1.0000
  H   H1512     1.0  0.95708  0.29174  0.86739  1.0000
  N   N81       1.0  0.87805  0.10907  0.81904  1.0000
  C   C1267     1.0  0.88030  0.12084  0.84271  1.0000
  C   C1268     1.0  0.88366  0.06819  0.81617  1.0000
  C   C1269     1.0  0.88400  0.13750  0.80215  1.0000
  C   C1270     1.0  0.86523  0.11078  0.81536  1.0000
  C   C1271     1.0  0.85930  0.07792  0.80681  1.0000
  C   C1272     1.0  0.85833  0.14677  0.81940  1.0000
  C   C1273     1.0  0.84723  0.08090  0.80302  1.0000
  H   H1513     1.0  0.77451  0.25615  0.97518  1.0000
  S   S345      1.0  0.83483  0.43212  0.98684  1.0000
  H   H1514     1.0  0.87540  0.10158  0.85590  1.0000
  C   C1274     1.0  0.96497  0.00376  0.73864  1.0000
  C   C1275     1.0  0.74410  0.00784  0.87246  1.0000
  H   H1515     1.0  0.88088  0.16943  0.80427  1.0000
  S   S346      1.0  0.80620  0.00392  0.73375  1.0000
  H   H1516     1.0  0.80234  0.27959  0.96262  1.0000
  C   C1276     1.0  0.74515  0.44766  0.87899  1.0000
  H   H1517     1.0  0.75324  0.02620  0.84120  1.0000
  C   C1277     1.0  0.85748  0.41265  0.97067  1.0000
  H   H1518     1.0  0.73996  0.28411  0.76963  1.0000
  H   H1519     1.0  0.91022  0.05668  0.58264  1.0000
  H   H1520     1.0  0.73521  0.35752  0.86367  1.0000
  H   H1521     1.0  0.76067  0.13105  0.73707  1.0000
  H   H1522     1.0  0.82339  0.31039  0.98861  1.0000
  C   C1278     1.0  0.83612  0.98735  0.63178  1.0000
  C   C1279     1.0  0.74428  0.40571  0.87778  1.0000
  C   C1280     1.0  0.73741  0.47528  0.86698  1.0000
  C   C1281     1.0  0.93633  0.46257  0.87273  1.0000
  H   H1523     1.0  0.97728  0.28537  0.57382  1.0000
  C   C1282     1.0  0.96544  0.35892  0.98851  1.0000
  C   C1283     1.0  0.81806  0.33032  0.97680  1.0000
  H   H1524     1.0  0.81698  0.00342  0.67550  1.0000
  C   C1284     1.0  0.73940  0.24756  0.95289  1.0000
  H   H1525     1.0  0.95872  0.33971  0.98291  1.0000
  H   H1526     1.0  0.77268  0.02100  0.83115  1.0000
  H   H1527     1.0  0.96068  0.01997  0.75274  1.0000
  H   H1528     1.0  0.97854  0.21727  0.53120  1.0000
  C   C1285     1.0  0.77649  0.98963  0.83233  1.0000
  C   C1286     1.0  0.96645  0.39789  0.97861  1.0000
  N   N82       1.0  0.73204  0.26936  0.97042  1.0000
  S   S347      1.0  0.90703  0.98520  0.82479  1.0000
  H   H1529     1.0  0.84142  0.01563  0.59878  1.0000
  Fe  Fe175     1.0  0.97670  0.12677  0.64376  1.0000
  C   C1287     1.0  0.97955  0.00121  0.70594  1.0000
  H   H1530     1.0  0.75676  0.99345  0.80771  1.0000
  C   C1288     1.0  0.85739  0.33199  0.98681  1.0000
  H   H1531     1.0  0.78139  0.98660  0.84844  1.0000
  H   H1532     1.0  0.73292  0.20479  0.81465  1.0000
  C   C1289     1.0  0.73572  0.18977  0.74693  1.0000
  H   H1533     1.0  0.96900  0.23151  0.49505  1.0000
  H   H1534     1.0  0.97638  0.05130  0.72934  1.0000
  H   H1535     1.0  0.97836  0.23195  0.56965  1.0000
  C   C1290     1.0  0.85516  0.99015  0.49150  1.0000
  Fe  Fe176     1.0  0.74271  0.66488  0.36928  1.0000
  S   S348      1.0  0.73636  0.66180  0.40682  1.0000
  S   S349      1.0  0.75668  0.61493  0.36016  1.0000
  C   C1291     1.0  0.86720  0.89572  0.45137  1.0000
  S   S350      1.0  0.74160  0.76695  0.43559  1.0000
  S   S351      1.0  0.74396  0.73305  0.36833  1.0000
  H   H1536     1.0  0.94238  0.94831  0.35252  1.0000
  H   H1537     1.0  0.74954  0.52696  0.41361  1.0000
  H   H1538     1.0  0.76241  0.61788  0.02139  1.0000
  H   H1539     1.0  0.73308  0.48618  0.32380  1.0000
  H   H1540     1.0  0.82356  0.53898  0.30509  1.0000
  H   H1541     1.0  0.76607  0.92837  0.46269  1.0000
  C   C1292     1.0  0.96655  0.91906  0.40778  1.0000
  S   S352      1.0  0.77740  0.54868  0.26388  1.0000
  H   H1542     1.0  0.79698  0.65032  0.28020  1.0000
  C   C1293     1.0  0.97824  0.92533  0.26821  1.0000
  S   S353      1.0  0.92602  0.52942  0.31043  1.0000
  N   N83       1.0  0.81129  0.58994  0.29943  1.0000
  S   S354      1.0  0.78533  0.86984  0.46293  1.0000
  H   H1543     1.0  0.80376  0.59225  0.26572  1.0000
  H   H1544     1.0  0.75311  0.89447  0.43745  1.0000
  H   H1545     1.0  0.84395  0.49800  0.21627  1.0000
  H   H1546     1.0  0.88609  0.95775  0.47019  1.0000
  Fe  Fe177     1.0  0.96242  0.80802  0.35369  1.0000
  S   S355      1.0  0.96294  0.75877  0.38178  1.0000
  S   S356      1.0  0.95092  0.86574  0.34879  1.0000
  Fe  Fe178     1.0  0.96749  0.71473  0.35356  1.0000
  S   S357      1.0  0.96212  0.64757  0.35348  1.0000
  S   S358      1.0  0.96534  0.76360  0.32554  1.0000
  C   C1294     1.0  0.92916  0.93117  0.40589  1.0000
  H   H1547     1.0  0.96990  0.89708  0.39480  1.0000
  C   C1295     1.0  0.93964  0.93186  0.36830  1.0000
  C   C1296     1.0  0.94278  0.89038  0.37127  1.0000
  C   C1297     1.0  0.93914  0.86944  0.39172  1.0000
  C   C1298     1.0  0.93223  0.88963  0.40877  1.0000
  H   H1548     1.0  0.76076  0.59858  0.06424  1.0000
  C   C1299     1.0  0.74756  0.92289  0.43616  1.0000
  H   H1549     1.0  0.94142  0.83748  0.39415  1.0000
  H   H1550     1.0  0.92929  0.87297  0.42435  1.0000
  S   S359      1.0  0.83399  0.48578  0.26861  1.0000
  C   C1300     1.0  0.93657  0.56149  0.32159  1.0000
  C   C1301     1.0  0.93494  0.60390  0.31858  1.0000
  C   C1302     1.0  0.94280  0.63068  0.32751  1.0000
  C   C1303     1.0  0.95244  0.61551  0.33979  1.0000
  C   C1304     1.0  0.95418  0.57304  0.34247  1.0000
  C   C1305     1.0  0.94637  0.54626  0.33341  1.0000
  H   H1551     1.0  0.92746  0.61629  0.30943  1.0000
  H   H1552     1.0  0.94126  0.66310  0.32528  1.0000
  H   H1553     1.0  0.96155  0.56079  0.35199  1.0000
  H   H1554     1.0  0.94790  0.51395  0.33590  1.0000
  C   C1306     1.0  0.97298  0.96150  0.25836  1.0000
  C   C1307     1.0  0.94648  0.55389  0.40317  1.0000
  H   H1555     1.0  0.75637  0.56039  0.00454  1.0000
  H   H1556     1.0  0.95836  0.93645  0.29732  1.0000
  N   N84       1.0  0.97144  0.89502  0.28238  1.0000
  C   C1308     1.0  0.93299  0.95233  0.38565  1.0000
  H   H1557     1.0  0.96470  0.85338  0.45452  1.0000
  H   H1558     1.0  0.78690  0.62713  0.36359  1.0000
  H   H1559     1.0  0.76989  0.50125  0.06693  1.0000
  C   C1309     1.0  0.88947  0.90530  0.42137  1.0000
  C   C1310     1.0  0.85515  0.89021  0.45595  1.0000
  C   C1311     1.0  0.75378  0.79618  0.44248  1.0000
  C   C1312     1.0  0.75300  0.81766  0.46293  1.0000
  C   C1313     1.0  0.76240  0.84089  0.46931  1.0000
  C   C1314     1.0  0.77286  0.84258  0.45545  1.0000
  C   C1315     1.0  0.77365  0.82101  0.43508  1.0000
  C   C1316     1.0  0.76418  0.79826  0.42855  1.0000
  H   H1560     1.0  0.74504  0.81619  0.47395  1.0000
  H   H1561     1.0  0.76159  0.85692  0.48510  1.0000
  H   H1562     1.0  0.78167  0.82183  0.42422  1.0000
  H   H1563     1.0  0.76498  0.78195  0.41282  1.0000
  C   C1317     1.0  0.76195  0.59630  0.33310  1.0000
  C   C1318     1.0  0.75854  0.61411  0.31204  1.0000
  C   C1319     1.0  0.76341  0.59932  0.29108  1.0000
  C   C1320     1.0  0.77172  0.56656  0.29086  1.0000
  C   C1321     1.0  0.77504  0.54844  0.31194  1.0000
  C   C1322     1.0  0.77016  0.56318  0.33288  1.0000
  H   H1564     1.0  0.75227  0.63966  0.31187  1.0000
  H   H1565     1.0  0.76074  0.61355  0.27492  1.0000
  H   H1566     1.0  0.78141  0.52326  0.31216  1.0000
  H   H1567     1.0  0.77292  0.54930  0.34905  1.0000
  H   H1568     1.0  0.96373  0.96948  0.26105  1.0000
  H   H1569     1.0  0.94603  0.93161  0.43876  1.0000
  H   H1570     1.0  0.77582  0.75006  0.47320  1.0000
  C   C1323     1.0  0.91106  0.49522  0.37450  1.0000
  H   H1571     1.0  0.77766  0.62821  0.02362  1.0000
  C   C1324     1.0  0.75667  0.53668  0.01798  1.0000
  H   H1572     1.0  0.95419  0.88495  0.29874  1.0000
  H   H1573     1.0  0.96658  0.83289  0.28031  1.0000
  N   N85       1.0  0.77252  0.57032  0.03910  1.0000
  H   H1574     1.0  0.97066  0.94860  0.40336  1.0000
  C   C1325     1.0  0.95795  0.52339  0.26561  1.0000
  H   H1575     1.0  0.79136  0.57800  0.03852  1.0000
  H   H1576     1.0  0.89909  0.90950  0.41748  1.0000
  H   H1577     1.0  0.82834  0.59953  0.28240  1.0000
  C   C1326     1.0  0.85065  0.95547  0.43754  1.0000
  C   C1327     1.0  0.78600  0.66751  0.30901  1.0000
  N   N86       1.0  0.88420  0.93740  0.43609  1.0000
  H   H1578     1.0  0.78675  0.53107  0.05176  1.0000
  H   H1579     1.0  0.85683  0.51243  0.27906  1.0000
  C   C1328     1.0  0.79517  0.64449  0.29846  1.0000
  H   H1580     1.0  0.91211  0.50913  0.35666  1.0000
  C   C1329     1.0  0.77017  0.58804  0.06192  1.0000
  C   C1330     1.0  0.74918  0.50461  0.01601  1.0000
  H   H1581     1.0  0.76128  0.95671  0.40279  1.0000
  H   H1582     1.0  0.85216  0.86303  0.46527  1.0000
  N   N87       1.0  0.73173  0.53099  0.40215  1.0000
  C   C1331     1.0  0.78486  0.55392  0.03765  1.0000
  C   C1332     1.0  0.77147  0.60372  0.02116  1.0000
  C   C1333     1.0  0.82084  0.61690  0.29092  1.0000
  H   H1583     1.0  0.88871  0.87455  0.42974  1.0000
  H   H1584     1.0  0.89960  0.94014  0.45616  1.0000
  C   C1334     1.0  0.74430  0.54205  0.39977  1.0000
  N   N88       1.0  0.92266  0.48618  0.38469  1.0000
  H   H1585     1.0  0.95393  0.91272  0.27175  1.0000
  C   C1335     1.0  0.88704  0.97708  0.42451  1.0000
  H   H1586     1.0  0.78675  0.53887  0.02114  1.0000
  C   C1336     1.0  0.81658  0.55727  0.31457  1.0000
  H   H1587     1.0  0.79902  0.55201  0.28509  1.0000
  H   H1588     1.0  0.88513  0.90562  0.40463  1.0000
  H   H1589     1.0  0.80983  0.53558  0.32131  1.0000
  C   C1337     1.0  0.96432  0.93431  0.44820  1.0000
  H   H1590     1.0  0.77581  0.67853  0.34049  1.0000
  Fe  Fe179     1.0  0.73633  0.73035  0.40494  1.0000
  H   H1591     1.0  0.74343  0.92289  0.41924  1.0000
  H   H1592     1.0  0.74034  0.92093  0.44982  1.0000
  H   H1593     1.0  0.73117  0.53022  0.43928  1.0000
  C   C1338     1.0  0.97153  0.95379  0.46327  1.0000
  C   C1339     1.0  0.76438  0.53713  0.03649  1.0000
  C   C1340     1.0  0.78943  0.63229  0.34546  1.0000
  H   H1594     1.0  0.77376  0.59278  0.00359  1.0000
  S   S360      1.0  0.92054  0.95466  0.42819  1.0000
  C   C1341     1.0  0.76441  0.95877  0.42044  1.0000
  C   C1342     1.0  0.88999  0.93471  0.45845  1.0000
  H   H1595     1.0  0.91779  0.56774  0.37006  1.0000
  H   H1596     1.0  0.96721  0.86185  0.25314  1.0000
  C   C1343     1.0  0.80673  0.57028  0.27949  1.0000
  C   C1344     1.0  0.94247  0.59208  0.39512  1.0000
  N   N89       1.0  0.75461  0.95915  0.43837  1.0000
  S   S361      1.0  0.79843  0.97544  0.47128  1.0000
  H   H1597     1.0  0.83295  0.50847  0.19610  1.0000
  H   H1598     1.0  0.91564  0.48230  0.41980  1.0000
  H   H1599     1.0  0.94366  0.49070  0.40585  1.0000
  H   H1600     1.0  0.87327  0.87180  0.45715  1.0000
  H   H1601     1.0  0.80292  0.58646  0.34616  1.0000
  H   H1602     1.0  0.77210  0.56593  0.07642  1.0000
  H   H1603     1.0  0.95386  0.53897  0.25042  1.0000
  S   S362      1.0  0.80677  0.48281  0.01666  1.0000
  C   C1345     1.0  0.92552  0.56232  0.37999  1.0000
  C   C1346     1.0  0.76410  0.50357  0.05269  1.0000
  H   H1604     1.0  0.96872  0.52022  0.22599  1.0000
  H   H1605     1.0  0.88923  0.90456  0.46751  1.0000
  H   H1606     1.0  0.94770  0.61836  0.39704  1.0000
  C   C1347     1.0  0.80168  0.61414  0.31111  1.0000
  H   H1607     1.0  0.75504  0.51210  0.27857  1.0000
  H   H1608     1.0  0.77578  0.61430  0.06404  1.0000
  H   H1609     1.0  0.81775  0.64034  0.27799  1.0000
  H   H1610     1.0  0.90539  0.51588  0.38527  1.0000
  C   C1348     1.0  0.96331  0.86506  0.43654  1.0000
  H   H1611     1.0  0.81353  0.54980  0.27115  1.0000
  H   H1612     1.0  0.95479  0.55079  0.41157  1.0000
  H   H1613     1.0  0.78388  0.49150  0.12185  1.0000
  C   C1349     1.0  0.92925  0.52292  0.38834  1.0000
  H   H1614     1.0  0.96694  0.84138  0.42480  1.0000
  C   C1350     1.0  0.95209  0.94521  0.44948  1.0000
  H   H1615     1.0  0.82090  0.56973  0.32929  1.0000
  H   H1616     1.0  0.74841  0.53466  0.38261  1.0000
  H   H1617     1.0  0.82435  0.63298  0.30534  1.0000
  H   H1618     1.0  0.74983  0.51484  0.30783  1.0000
  H   H1619     1.0  0.97152  0.86590  0.31634  1.0000
  C   C1351     1.0  0.86268  0.96161  0.43315  1.0000
  C   C1352     1.0  0.84690  0.92011  0.44913  1.0000
  C   C1353     1.0  0.78314  0.66143  0.33246  1.0000
  C   C1354     1.0  0.93204  0.59625  0.38355  1.0000
  H   H1620     1.0  0.73993  0.50281  0.28580  1.0000
  C   C1355     1.0  0.94001  0.51974  0.39981  1.0000
  H   H1621     1.0  0.78090  0.68967  0.29889  1.0000
  H   H1622     1.0  0.92926  0.62588  0.37646  1.0000
  H   H1623     1.0  0.98046  0.84405  0.26635  1.0000
  Fe  Fe180     1.0  0.79003  0.91926  0.48730  1.0000
  H   H1624     1.0  0.74525  0.57527  0.40105  1.0000
  C   C1356     1.0  0.79857  0.60886  0.33508  1.0000
  C   C1357     1.0  0.94739  0.97416  0.46448  1.0000
  H   H1625     1.0  0.97979  0.49079  0.19368  1.0000
  C   C1358     1.0  0.87136  0.93182  0.44005  1.0000
  H   H1626     1.0  0.95366  0.86742  0.43423  1.0000
  H   H1627     1.0  0.76062  0.70455  0.49003  1.0000
  C   C1359     1.0  0.95895  0.90814  0.28764  1.0000
  H   H1628     1.0  0.95696  0.92366  0.40531  1.0000
  C   C1360     1.0  0.76002  0.95552  0.46115  1.0000
  C   C1361     1.0  0.97011  0.48773  0.22668  1.0000
  H   H1629     1.0  0.83758  0.91650  0.45343  1.0000
  C   C1362     1.0  0.97140  0.85690  0.26998  1.0000
  S   S363      1.0  0.80623  0.49738  0.23279  1.0000
  H   H1630     1.0  0.97804  0.91452  0.31392  1.0000
  C   C1363     1.0  0.97698  0.88625  0.30474  1.0000
  C   C1364     1.0  0.84182  0.49341  0.19813  1.0000
  H   H1631     1.0  0.96705  0.53406  0.26685  1.0000
  N   N90       1.0  0.96905  0.90428  0.43162  1.0000
  H   H1632     1.0  0.77069  0.93232  0.42321  1.0000
  Fe  Fe181     1.0  0.79021  0.49469  0.25753  1.0000
  H   H1633     1.0  0.75326  0.95238  0.47560  1.0000
  C   C1365     1.0  0.74900  0.49773  0.29200  1.0000
  H   H1634     1.0  0.95262  0.53432  0.28091  1.0000
  H   H1635     1.0  0.74348  0.50483  0.00160  1.0000
  H   H1636     1.0  0.84828  0.50997  0.18654  1.0000
  H   H1637     1.0  0.84420  0.97916  0.43291  1.0000
  H   H1638     1.0  0.89672  0.98015  0.42162  1.0000
  H   H1639     1.0  0.74704  0.91658  0.90129  1.0000
  C   C1366     1.0  0.76135  0.96342  0.81008  1.0000
  S   S364      1.0  0.75518  0.75426  0.85534  1.0000
  C   C1367     1.0  0.94365  0.49552  0.87494  1.0000
  H   H1640     1.0  0.73233  0.53316  0.83272  1.0000
  S   S365      1.0  0.73933  0.64843  0.86551  1.0000
  S   S366      1.0  0.92948  0.89267  0.83274  1.0000
  C   C1368     1.0  0.79203  0.81397  0.54055  1.0000
  Fe  Fe182     1.0  0.96560  0.58865  0.87480  1.0000
  S   S367      1.0  0.96718  0.65467  0.88209  1.0000
  S   S368      1.0  0.95492  0.54949  0.90101  1.0000
  Fe  Fe183     1.0  0.96600  0.66747  0.84377  1.0000
  S   S369      1.0  0.95325  0.71278  0.82474  1.0000
  H   H1641     1.0  0.73592  0.84047  0.88614  1.0000
  S   S370      1.0  0.96335  0.60157  0.83701  1.0000
  S   S371      1.0  0.73752  0.59288  0.92659  1.0000
  Fe  Fe184     1.0  0.92198  0.94571  0.80960  1.0000
  H   H1642     1.0  0.73350  0.80389  0.86526  1.0000
  H   H1643     1.0  0.93853  0.58468  0.83593  1.0000
  H   H1644     1.0  0.76112  0.90413  0.86939  1.0000
  S   S372      1.0  0.79002  0.91989  0.57477  1.0000
  S   S373      1.0  0.80406  0.91019  0.51332  1.0000
  Fe  Fe185     1.0  0.78637  0.91816  0.75891  1.0000
  H   H1645     1.0  0.91952  0.52484  0.91546  1.0000
  S   S374      1.0  0.77116  0.87753  0.77196  1.0000
  C   C1369     1.0  0.74847  0.94020  0.88792  1.0000
  S   S375      1.0  0.83227  0.92869  0.74439  1.0000
  H   H1646     1.0  0.94653  0.51363  0.85986  1.0000
  H   H1647     1.0  0.90998  0.58309  0.83822  1.0000
  H   H1648     1.0  0.97879  0.94604  0.68696  1.0000
  S   S376      1.0  0.79977  0.90890  0.72907  1.0000
  C   C1370     1.0  0.79062  0.94038  0.60275  1.0000
  H   H1649     1.0  0.91223  0.65302  0.84106  1.0000
  H   H1650     1.0  0.93887  0.63735  0.82644  1.0000
  H   H1651     1.0  0.90496  0.49310  0.89276  1.0000
  C   C1371     1.0  0.79004  0.92873  0.64505  1.0000
  C   C1372     1.0  0.78949  0.91421  0.62260  1.0000
  H   H1652     1.0  0.76770  0.96027  0.79490  1.0000
  H   H1653     1.0  0.75472  0.93982  0.80891  1.0000
  H   H1654     1.0  0.78905  0.90816  0.66001  1.0000
  H   H1655     1.0  0.78816  0.88241  0.62064  1.0000
  H   H1656     1.0  0.88000  0.88603  0.79462  1.0000
  H   H1657     1.0  0.78433  0.79942  0.49648  1.0000
  H   H1658     1.0  0.96279  0.91662  0.71113  1.0000
  H   H1659     1.0  0.74703  0.52258  0.89923  1.0000
  C   C1373     1.0  0.84391  0.95975  0.78066  1.0000
  H   H1660     1.0  0.74113  0.57048  0.84299  1.0000
  H   H1661     1.0  0.75418  0.70778  0.53123  1.0000
  H   H1662     1.0  0.93343  0.64841  0.88784  1.0000
  H   H1663     1.0  0.85037  0.81215  0.80886  1.0000
  C   C1374     1.0  0.93663  0.84355  0.82961  1.0000
  C   C1375     1.0  0.93701  0.82328  0.80896  1.0000
  C   C1376     1.0  0.94217  0.78363  0.80785  1.0000
  C   C1377     1.0  0.94732  0.76375  0.82712  1.0000
  C   C1378     1.0  0.94704  0.78418  0.84770  1.0000
  C   C1379     1.0  0.94164  0.82348  0.84895  1.0000
  H   H1664     1.0  0.93331  0.83804  0.79381  1.0000
  H   H1665     1.0  0.94231  0.76837  0.79179  1.0000
  H   H1666     1.0  0.95088  0.76958  0.86274  1.0000
  H   H1667     1.0  0.94144  0.83860  0.86506  1.0000
  C   C1380     1.0  0.96099  0.96602  0.73373  1.0000
  H   H1668     1.0  0.76233  0.75621  0.55544  1.0000
  C   C1381     1.0  0.74809  0.53276  0.88072  1.0000
  S   S377      1.0  0.77781  0.95265  0.51209  1.0000
  H   H1669     1.0  0.85710  0.92486  0.73142  1.0000
  C   C1382     1.0  0.75116  0.57694  0.93859  1.0000
  C   C1383     1.0  0.76089  0.60164  0.93749  1.0000
  C   C1384     1.0  0.77138  0.58819  0.94796  1.0000
  C   C1385     1.0  0.77237  0.54974  0.95937  1.0000
  C   C1386     1.0  0.76271  0.52466  0.96008  1.0000
  C   C1387     1.0  0.75215  0.53835  0.94991  1.0000
  H   H1670     1.0  0.76030  0.63134  0.92885  1.0000
  H   H1671     1.0  0.77880  0.60783  0.94722  1.0000
  H   H1672     1.0  0.94540  0.48961  0.93316  1.0000
  H   H1673     1.0  0.74468  0.51899  0.95088  1.0000
  C   C1388     1.0  0.75968  0.78591  0.83095  1.0000
  C   C1389     1.0  0.75203  0.79852  0.81368  1.0000
  C   C1390     1.0  0.75579  0.82599  0.79563  1.0000
  C   C1391     1.0  0.76730  0.84059  0.79426  1.0000
  C   C1392     1.0  0.77509  0.82677  0.81106  1.0000
  C   C1393     1.0  0.77124  0.80015  0.82944  1.0000
  H   H1674     1.0  0.74321  0.78729  0.81428  1.0000
  H   H1675     1.0  0.74973  0.83591  0.78255  1.0000
  H   H1676     1.0  0.78402  0.83710  0.81013  1.0000
  H   H1677     1.0  0.77729  0.79029  0.84255  1.0000
  H   H1678     1.0  0.82818  0.97621  0.57681  1.0000
  H   H1679     1.0  0.85701  0.96381  0.50269  1.0000
  N   N91       1.0  0.76739  0.95872  0.83215  1.0000
  N   N92       1.0  0.73822  0.51985  0.86731  1.0000
  C   C1394     1.0  0.93697  0.63760  0.87094  1.0000
  C   C1395     1.0  0.93305  0.61326  0.83408  1.0000
  H   H1680     1.0  0.79577  0.82061  0.52279  1.0000
  Fe  Fe186     1.0  0.81159  0.96926  0.49932  1.0000
  N   N93       1.0  0.92748  0.62434  0.85670  1.0000
  H   H1681     1.0  0.95370  0.95313  0.74401  1.0000
  H   H1682     1.0  0.79560  0.83729  0.55128  1.0000
  C   C1396     1.0  0.74001  0.53715  0.84338  1.0000
  H   H1683     1.0  0.89255  0.91169  0.81874  1.0000
  C   C1397     1.0  0.91226  0.57139  0.85515  1.0000
  C   C1398     1.0  0.84132  0.94024  0.67588  1.0000
  S   S378      1.0  0.77916  0.97730  0.74290  1.0000
  C   C1399     1.0  0.86551  0.96320  0.78124  1.0000
  H   H1684     1.0  0.73381  0.84761  0.83339  1.0000
  Fe  Fe187     1.0  0.73907  0.71649  0.86633  1.0000
  H   H1685     1.0  0.76728  0.89372  0.83214  1.0000
  C   C1400     1.0  0.82884  0.95885  0.64408  1.0000
  H   H1686     1.0  0.76482  0.85667  0.53175  1.0000
  H   H1687     1.0  0.90303  0.81359  0.79586  1.0000
  H   H1688     1.0  0.90010  0.52301  0.85441  1.0000
  C   C1401     1.0  0.82109  0.92240  0.67971  1.0000
  H   H1689     1.0  0.90422  0.89702  0.83699  1.0000
  C   C1402     1.0  0.82846  0.97121  0.59537  1.0000
  C   C1403     1.0  0.82128  0.94281  0.60684  1.0000
  H   H1690     1.0  0.81172  0.93114  0.67650  1.0000
  C   C1404     1.0  0.75657  0.93347  0.86939  1.0000
  C   C1405     1.0  0.85417  0.96895  0.79187  1.0000
  H   H1691     1.0  0.88183  0.78312  0.84415  1.0000
  C   C1406     1.0  0.92102  0.58956  0.86737  1.0000
  C   C1407     1.0  0.84485  0.94367  0.75878  1.0000
  H   H1692     1.0  0.76333  0.49504  0.96878  1.0000
  Fe  Fe188     1.0  0.81228  0.94376  0.74929  1.0000
  S   S379      1.0  0.91265  0.93840  0.77695  1.0000
  H   H1693     1.0  0.94185  0.66320  0.86229  1.0000
  H   H1694     1.0  0.86161  0.76896  0.83669  1.0000
  H   H1695     1.0  0.92388  0.68634  0.84522  1.0000
  H   H1696     1.0  0.79565  0.78377  0.54660  1.0000
  H   H1697     1.0  0.89929  0.86557  0.78848  1.0000
  N   N94       1.0  0.77892  0.81527  0.54191  1.0000
  C   C1408     1.0  0.77462  0.85489  0.53199  1.0000
  C   C1409     1.0  0.77506  0.81300  0.56675  1.0000
  C   C1410     1.0  0.77440  0.78273  0.52854  1.0000
  H   H1698     1.0  0.82165  0.91891  0.69879  1.0000
  H   H1699     1.0  0.77733  0.88030  0.54216  1.0000
  H   H1700     1.0  0.77816  0.86064  0.51397  1.0000
  H   H1701     1.0  0.76532  0.81764  0.56930  1.0000
  H   H1702     1.0  0.77892  0.83733  0.57634  1.0000
  H   H1703     1.0  0.77786  0.78354  0.57524  1.0000
  C   C1411     1.0  0.76573  0.75574  0.53777  1.0000
  C   C1412     1.0  0.91918  0.65953  0.85296  1.0000
  H   H1704     1.0  0.75680  0.52142  0.87350  1.0000
  S   S380      1.0  0.79939  0.94750  0.78031  1.0000
  H   H1705     1.0  0.73742  0.88936  0.84978  1.0000
  C   C1413     1.0  0.90914  0.52041  0.88595  1.0000
  H   H1706     1.0  0.91191  0.85328  0.80478  1.0000
  H   H1707     1.0  0.82321  0.89200  0.67289  1.0000
  C   C1414     1.0  0.76459  0.72552  0.50084  1.0000
  Fe  Fe189     1.0  0.79336  0.96963  0.71448  1.0000
  C   C1415     1.0  0.77804  0.77924  0.50496  1.0000
  H   H1708     1.0  0.88917  0.89255  0.84757  1.0000
  H   H1709     1.0  0.74847  0.56638  0.88066  1.0000
  C   C1416     1.0  0.75870  0.96415  0.85177  1.0000
  C   C1417     1.0  0.94689  0.50567  0.89677  1.0000
  Fe  Fe190     1.0  0.79239  0.94755  0.53746  1.0000
  Fe  Fe191     1.0  0.73272  0.64772  0.90252  1.0000
  H   H1710     1.0  0.94361  0.61258  0.87414  1.0000
  H   H1711     1.0  0.77984  0.91497  0.81729  1.0000
  H   H1712     1.0  0.85971  0.87051  0.78811  1.0000
  C   C1418     1.0  0.90650  0.53714  0.86429  1.0000
  C   C1419     1.0  0.77362  0.91839  0.83263  1.0000
  H   H1713     1.0  0.74795  0.52309  0.83449  1.0000
  C   C1420     1.0  0.91736  0.53833  0.89873  1.0000
  H   H1714     1.0  0.91472  0.66844  0.86955  1.0000
  C   C1421     1.0  0.85621  0.93756  0.74824  1.0000
  H   H1715     1.0  0.92981  0.58357  0.90033  1.0000
  C   C1422     1.0  0.76094  0.72761  0.52402  1.0000
  S   S381      1.0  0.78564  0.53565  0.97326  1.0000
  H   H1716     1.0  0.87508  0.94272  0.75081  1.0000
  H   H1717     1.0  0.92651  0.60866  0.82103  1.0000
  C   C1423     1.0  0.92326  0.57234  0.88970  1.0000
  N   N95       1.0  0.89532  0.84687  0.82416  1.0000
  C   C1424     1.0  0.90115  0.81991  0.84175  1.0000
  C   C1425     1.0  0.90267  0.84471  0.80238  1.0000
  C   C1426     1.0  0.89530  0.88875  0.83219  1.0000
  C   C1427     1.0  0.88308  0.83628  0.82005  1.0000
  C   C1428     1.0  0.87745  0.80292  0.83170  1.0000
  C   C1429     1.0  0.87635  0.86011  0.80410  1.0000
  C   C1430     1.0  0.86579  0.79440  0.82758  1.0000
  C   C1431     1.0  0.86470  0.85144  0.80020  1.0000
  C   C1432     1.0  0.85943  0.81864  0.81191  1.0000
  H   H1718     1.0  0.90193  0.78800  0.83647  1.0000
  H   H1719     1.0  0.91034  0.82912  0.84425  1.0000
  H   H1720     1.0  0.89635  0.82123  0.85889  1.0000
  N   N96       1.0  0.82922  0.95326  0.66949  1.0000
  S   S382      1.0  0.73372  0.71567  0.90442  1.0000
  S   S383      1.0  0.87810  0.97448  0.79675  1.0000
  H   H1721     1.0  0.83529  0.96425  0.78917  1.0000
  H   H1722     1.0  0.77891  0.91317  0.84814  1.0000
  H   H1723     1.0  0.84428  0.91184  0.66743  1.0000
  H   H1724     1.0  0.84178  0.93438  0.69490  1.0000
  H   H1725     1.0  0.81540  0.92598  0.59707  1.0000
  H   H1726     1.0  0.81538  0.91481  0.63853  1.0000
  C   C1433     1.0  0.82138  0.93665  0.63082  1.0000
  C   C1434     1.0  0.79168  0.96987  0.64807  1.0000
  C   C1435     1.0  0.86646  0.94762  0.75923  1.0000
  H   H1727     1.0  0.84787  0.96355  0.67094  1.0000
  C   C1436     1.0  0.97524  0.96282  0.70138  1.0000
  S   S384      1.0  0.83197  0.96757  0.49727  1.0000
  C   C1437     1.0  0.74233  0.97737  0.88954  1.0000
  C   C1438     1.0  0.96609  0.94563  0.71511  1.0000
  H   H1728     1.0  0.85328  0.98039  0.80900  1.0000
  Fe  Fe192     1.0  0.89825  0.98072  0.79108  1.0000
  C   C1439     1.0  0.94298  0.48192  0.91620  1.0000
  C   C1440     1.0  0.77319  0.75105  0.49139  1.0000
