data_image0
_chemical_formula_structural       SFeSHC3HSH3S2HFeSHFeS2FeHFeS3FeS2FeS2FeSFeS3C3H3C6H4CH3CH2C10H4CHC7H3NCHC3HFeHCFeHCH4C2H4C2NC6H14CSFeH3FeSCHC2NHCHCSCHCHC2H2C2HCHC2S2CSH3CNCSCSCFeCHCH3NH2C3H4S2CHC3H2CHFeHC2H2C2H3C3HFeNHSHC2H2CH2NHC5H14CSCNHC8H2C2HCH7NC8H10CHC2H3CHCHCH2CSCH2CH2SH4CHCHCH2C2H2C2HCHC2HCSH2FeC2H7SFeCSH2FeSCFe2S2FeS3FeS2FeS2FeSFeS3C2HC6H3C6H4C3H4C2HCHC8H5SHCFeH7CH2CH2CHNC9H11CHCNC8H14C2NC9H15CHFeH2SCH2NHCHSHCNC8H8SH4CFeS2H3NCSH3FeCH2SC2SFeHCFeHCSHNHCHSC2HCH4C3HCH2SCSCHNH3C2H2C2HSFeH2C2H3CHCNCHCH4SC2HC2HSH4SC2SFeSHCH4CHCHCNFeHCFeS2FeS2FeSFeS3FeS2FeSFeHFeS3CHSHCH4CHCHC2H4C7H3C6H5CH2CSHC3HC2HCH3C3SCH2NHCH2C2HC6H6SCHCHCHSH2CH3SCHC2H2CHC2HCHCH9NC8H12FeC3H3C3NH3SCHCH3C2HC2HNHC9H6CH2FeCHNC2H3CH4NSCH3C2H2C4HSH5C2H3CSCH3CH2CHFeSH4C2FeSHSHCH2NSCHSH2FeS2FeCSHCH2S2FeHSC2NHNH2NHSFeHSH2CH7C2SCH2C2HC3NCH2SCFeC6H4CHC4H3CHNH2CH2C2HCHSH2CHCH2C3H2CHFeHC6H3C6H7SCH3CH2SC2HCFeCHSCHCNC6FeCH3C2H2NSCFeCSHC6HCSHCH3CH2CHC5HCHCH2CH2CH5CNC3HC2SCH2C4HFeCH3CH3CSHCHCH5CHCHFeCHC4H3SFeHSCHS2CHCHFeHC2FeH6NH2SHCHC2H4CH3C2HC3HCHCSCHCH3C2HCH2S3CHCH2C2SH4FeC2FeS3HFeS3CH6FeH2C3H2C3HCH3SHCH2CH2FeC4HSCH4CHC5H2C4H2FeH2C3HCHCH2CH2CSHC3HCFeHSH4NHC2HC2HC3HCSC3HCHCHCH2NC2HSC2H2CFeC2SHC2FeC3HCH4C2H2SC2HC3NHFeH2C2HCH3CNCSC2H3FeC2H2FeSCSHNHSHC2HSH5FeCH2C2SC2HC2H2C3H3C2HCH4SHC2SHCHSC2H3C2SHCHCSH2NC2HSCNH4CHCH2CFeSHSNFeS2FeSFeSFeS4HCFeCFeSCFeS2FeS2FeSFeS4C2HC2FeH2C2HSHC6H4C6H4C6H4C6H4C2HSC6H5SHC2HC2H3NC7HC2H8CHC2HNCH2C2H3CFeCHFeHC3H4NC6HCSH13SHCH7C4H5C2HCHSH2CHCHNHSFeHCHCHCHCH2S2CH5C2H2NCH3C2H3CHCSHFeHSH2CHCFeCH4CH4CFeC2H4CSFeS2NFeSH2FeS2FeS2FeSFeS4H3FeSHSFeSHFeSFeS2HCHFeHS2HCHC6H4C2H4C7H4C6H5C2HCH2CH4C2SHCSHC7H4C6H3CHCH3CSH2SC2SH2CFeNC9H11CSHNC8H13C2HCH3CH4CFeH2CH2CHFeNH2CH5SC2HSFeSCH3CHC2HCHCHCHCFeC2H2SHCH3NHC3H3SHSHCHC3HC2HC2NC9H14NHC3H2CNH2C3NCHC2HC2H3C3H4CH2CH4SC3H2C2H2CHCH2CHSC4H3CHNCHFeS2FeCH2S2HC3SHFeS2FeS2FeSFeS4CSH2CH6CH2SCS2CHCFeH3CSH3CH3C2HC3HC2HCFeHC6H3C6H6C7H7CHCHCH2CHCH2SFeH3CHCH5C2H2SHCHSHCFeNC6HCH4SH2FeHSH3CHNC6HCH7CHCHC3HNC9H15FeNFeCH3NH4SCFeNH3C2H2CHC2H3C2FeH2CH2CH2CHNC3HCHSHS3CHFeCHSHFeS2FeSFeSHSFeS2FeS2FeSFeS3HCH5C5H4CFeC2H2C7H7NCSCSHC3HC2HSCH2C2HSC6H5CHCH3C2FeHCFeHC2SCSH4SC4NC9H15CHCHC3HCFeHCSC2SHCH4C8H4CH3NHC3H4FeH2SNCH2CH5C2H2FeH2FeCH4NHSH4C3SHC3FeCH3C3H3CHCH5CNCH2CSC2HCH3CSCH2CHCHC2HSHC2H3CSHC2HC3H3C2HCH2CH2CHCH2C2H2CH3CH3SNC3HCHFeH2C3FeS2FeS2HCSHNHCFeHCFeS2FeS2FeSFeS3H2CHSFeHS2C2HC2H2CHCH2C4HSH3C2HCSC4HCH2C6H4CNH2FeC6H4C6H4Fe2H3NC4HSHCHCSHCHCFeCSCHCHC4H6NC9H11CH2C2HCNCFeHSH5CH2SC2H3CHSC3SHC2H5CH2C2H2FeH2SNC5HCHCH2C2HFeH5CH2C2H2C2HFeH4CH2CHCHSCSCHC2HC3H3CHNHCH3NC6HCHCH4CSNHC4H3SH4C3SHC3H3FeS3FeS2H2S2FeHC4SH4SHFeSHFeSCFeSFeS3C2HNHFeCH2NC3HC3SH4SC3HC6H4CH4C2H2CHCHFeC3NH3CHC4H2CHCH2CHNH2CHCH2SCSHNC3H5C3HFeH2C3H3SC2HCHSC2HC2H2SC2H2C3H2C2HSNC8H9CFeH4C3H4SCHCHC3HC4HC2HC2H4CHC3SFeSCHC2HC2H2CH2C3HCH3CHCHCH3C2HC2HCH2SH3CH2CHSCHSCHCH3SNH2CH2CHC3SH4Fe2SHFeS2FeSFeS3HSCFeS2HFeSHSCHC2H4SC2HSNCFeSFeSHFeCFeS3H2C2FeHCFeSH3FeSCSH3C3H3CH2Fe2CHSC2HCH2C3H3CH2C2SHC6HCH2C6H8NCH2C6H4C6H4C6H7CH3C2HC2NH3NHCH3C2HCHSH8CHC2HC8HCH4C4H2CHCH2CH6CH3C2H2CFeCHSH3C2H4SCH2CH2C2HCH2NCHN2CH4C3H5SHC2H4SFeHCHC2SHNH3C2SHC3N2C2H3FeSFeSFeCHSCFeHNCSHC3S2HNCNC2HC2H3CFeS2FeSFeS3FeSCFeS2FeSFeS3C7H3C6H4S2H2C6H4CHC2SH4SHSCH2CSHCHC5H3C2HC2FeHCHC7H2C2HC3H2CHSCNH5C2SHNH2C2H2CHC3HC2H3C2H2CH2C3SH2C2H3CH4CHS2H2CH2CH7CHCH2CFeCHCH3C2HC3NHCH4C2H2CH3CH2CSC2NH2C3FeH2CH6CHCH3CHCH2SHCHNH5CH3SH3C2HC3H2C2HC4FeHCHCNH5CHC2H3CH5SFeH2CH3CH2CFeH3CHNCFe2C2FeSFeS2FeS2CS3H2CSHSHCH3FeSHS3CFeS2CHFe2SH2SC2HCH4CHC3FeH2CSC6H4C6H4C7H4C6H5C2HCHC2SHS2HCFeH2CSCHCH3CH2C2H6FeH3CH2C2H2C2HC2SH2FeHSC3HFeHN2FeC2H6CHC2H2CH5CSC2H3CHFeCHC2NCH2CSNH3SH2CHSC4HNC9H14C7H2C2HC2H2SCHCH5SH2CH2C6H5CH2SH4CH3CH2CHCHCH2CHSFeS2FeS2FeSFeS3CH6SH2FeNH2CHCSHCHCFeSFeS3FeSFeHFeS2HCHCH2CSHC2H2CH2CHSCHC4SH6NHNHFeSC2H2CH3C6H4SH3C2H4C6H4C10H2CH2CSCHC4H3CH2SH2C3HFeHCHC3HSHC2HC2H6CHCNH3C7H13CNH2C2HS2H2C3FeH2CSC2HSCH2CHC2H2NHSHFeC4HCHFeCH2CH4SC7HSC2HC2H3CHC2HC3H2C2HC2H3CH2CSH2CH4CSH4SFeHCHCH2CH3CHCNHC2FeS2FeS2FeHFeS3HS2HSFeS2FeS2FeHFeS3C2HCSC2SC2HFeH2FeCSFeC7S2H2CSH2CH2SHCHCH3CHSHC2HSCHC6H3CH3CH5C5H3C3H2CNC5H3C5SCH2CHC6H5SCHCH2C6H4NHNC9H14FeCSHNH5CH3C2HCHCNC4HCH3SCHCHCH2FeCFeC5H6CH3SHCH3C2FeC2H3NHCHC2NHC2HSH2CHSFeH2CHCH2CNHSCHSCH4C2HC2HSHC2H3FeS2NHSH2CNCFeCHCSHFeH2CH2FeHFeCH3CH3C5NH2CHCH3C2H3CH2SHCH2CHC2NHCH3SC2SH2C3H8C4H3C3H2CH2FeS2HCHCS2FeCFeS2CFeSC2SFeSFeS2FeHS2CH2C2HFeHSC4HFeH2SHCHC2H3CHCHSH2CH4C2HCH2SHCHC6H5FeH4SC2SH2CHCH2CSC2HC6H3C2FeH2CH2C2HC3HNC7HFeH3C2H8SFeHC2HC2HCH4FeCSHCHC2HCH3C2H4C2NCNH2C3SCH3CH2NH2C7H2CH3C2H5FeC4HCSHSH2C2SH3NCHCH5C3FeHSH4NH2C2H2C2HCS2HSCHNHCH2CFeHSFeS2FeSCFeSFeS5FeS2FeS2FeSFeS3FeS2FeS2HFeS3NSHC5H5C7H4FeH2C6H7C7H5NCHFeCH2CH2C7H3CH2SNC4HC2HNCH2CHCH5NC9H2CH4CH4CHCHCHC4H3CH2C3H4CHC3SC3HCHC12HSHCH2FeHSFeH3SHC2SCNCH2C2H2CH2FeH4CHCFeH3CH10FeHSNC7HCH14NC9H14CH2SH3CH2CSHCHSH2CH2CNCHCHNH2CH7CHCH2CHC3HCH2C3HCNC3HCH7FeS2FeSNFeSFeS4HFeSNCFeS2H2SCNSC2HC2SCSCH3C8H3C4SC2H4C6H5CH3C3H5C3H4C3H2FeHCNC8H4CH7FeHC3S2CFeHFeSHCH3CHFeSHC4HFeH4C3H8SH2CFeC3H2S2CHNFeCNCH3C3SH3C4S2H9CSC3H2CH2C2HC2SCHFeCSH2C2H3CFeH4SH3C3H4CH2SCHCH2SC4HCHCNHCH4CSH6CHFeS2FeSFeS3CHC4FeS2FeSHFeSFeS2H2C2HC3SFeH5CHCH8CSHC3HC2H2CH2C2H2C4HC6H4C3SHCHFeC2FeC2HSH4CHSCH3SFeS2HC4H3CHSHC4SCHNSCHCHSHC2H3C3SH3CHCHCHCHFeHCH2FeHCH5C4HC2HCH2CNSHCSHC2HCHCH2CNHNCH2C2SH2CHCFeHC2H2CH3C4H5CN2CHCH8C2H11C2H3C5SHCSHFeSFeCSCHNCFeCSFeS2FeSFeHS2FeSHFeS2FeHFeS3FeSCSC2HFeC2H2C8H4FeH5C2H4C3SH4CHC2H2CNCH6CH2CH3C6H4C2HCH2C3SH3NC9H16C2HCH2SCFeCHCHC3HCHCH2CH3S2HNSC3NC9H17SC2H6CHS4HCH4NHC4H3CH2C2H2FeC3HCHCSC3SH2S2HC2HFeH2CHCFeCHC2HC2SC3SC2NC3H3SH5SHCHC2HCFeCHSNCH2C2HC2FeSNC2SCHSH2SHFeSFeHSC3H2NC2HCH2CH2SFeS2FeS2Fe2S3CH2CH2NFeS2FeS2FeSFeS3H2CHSC3H2C6H4CH2NHCH3C5H3CNCHCHSH3C5H3C7H5C2H4CHCH2C2HC3HC2H2CSCHC2H4SHCHCHNHFeH2C4HC2HC2HC2H4CHCSHFeC3HC2H2C2FeHCHNHC3HNC9H15C2H4C2HCSCH2CHSC3H2CH2C2HCH2SFeCHCHCH2CFeCH5CHC3HCH2SCH8CH6CFeCHCH3C2HCSH3C3SFeS2FeSHFeSFeHS2CFeSCHNH3SC3H2C3H2SCHCHCHSHC3H2C6H4C2HCSH4SFeC2SFeCH2CHCHCH4CH4NH2NC3HC2HSCH3SHFeH2CH2CH3CNHCHC4HCHC2SC2H3CHNC4HC2HCH9C2NHC8HFeH2C3H9FeHCSCSH2C2H2NSH3CH2C2HSHFeHC2SC2HC2HCFeH4C2H3CH4NFeS2FeS2FeSFeS3CFeS2FeSHFe2CS2C2FeSCFeS2H2Fe2HSH5C2HSH2CHCHCHSH4NHSCH3C2HSC2HCH2CFeHCHC2SHCSH3C3HC7H4C6H4C2HCHCH2S2C3H3CH3CH8C2H2C2HCH3C5HCHCH2C2H2NC2H3CH2CHFeC5NHC4SH2CHCHCHCH2C3HCHCHCH4C2HC2HC3HSH2NC8SC3H3CFeH3CH5CHCSC2NHCHCH2CH3SCHC2HC2H5C3H4C2H3CH3C3FeC2HCH3S2C2
_chemical_formula_sum              "S768 Fe384 H3456 C2880 N192"
_cell_length_a       55.2719
_cell_length_b       55.4159
_cell_length_c       94.7373
_cell_angle_alpha    76.3846
_cell_angle_beta     76.3967
_cell_angle_gamma    76.3408

_space_group_name_H-M_alt    "P 1"
_space_group_IT_number       1

loop_
  _space_group_symop_operation_xyz
  'x, y, z'

loop_
  _atom_site_type_symbol
  _atom_site_label
  _atom_site_symmetry_multiplicity
  _atom_site_fract_x
  _atom_site_fract_y
  _atom_site_fract_z
  _atom_site_occupancy
  S   S1        1.0  0.13720  0.02787  0.02516  1.0000
  Fe  Fe1       1.0  0.15327  0.05726  0.03081  1.0000
  S   S2        1.0  0.13786  0.06764  0.05332  1.0000
  H   H1        1.0  0.34445  0.28646  0.19256  1.0000
  C   C1        1.0  0.25976  0.01181  0.00078  1.0000
  C   C2        1.0  0.28939  0.15319  0.20993  1.0000
  C   C3        1.0  0.41113  0.29490  0.09651  1.0000
  H   H2        1.0  0.26000  0.13963  0.02368  1.0000
  S   S3        1.0  0.47990  0.29395  0.13469  1.0000
  H   H3        1.0  0.35700  0.24593  0.20896  1.0000
  H   H4        1.0  0.30532  0.12063  0.19963  1.0000
  H   H5        1.0  0.15642  0.03130  0.20753  1.0000
  S   S4        1.0  0.03770  0.26906  0.15396  1.0000
  S   S5        1.0  0.29012  0.14262  0.99078  1.0000
  H   H6        1.0  0.43018  0.29694  0.08974  1.0000
  Fe  Fe2       1.0  0.28215  0.27496  0.18824  1.0000
  S   S6        1.0  0.31006  0.23910  0.19337  1.0000
  H   H7        1.0  0.15642  0.03983  0.13824  1.0000
  Fe  Fe3       1.0  0.24964  0.24874  0.17697  1.0000
  S   S7        1.0  0.27565  0.21100  0.18064  1.0000
  S   S8        1.0  0.21300  0.25228  0.16937  1.0000
  Fe  Fe4       1.0  0.27607  0.22075  0.20223  1.0000
  H   H8        1.0  0.26274  0.10454  0.00895  1.0000
  Fe  Fe5       1.0  0.30714  0.23296  0.17132  1.0000
  S   S9        1.0  0.34369  0.22001  0.15614  1.0000
  S   S10       1.0  0.24813  0.25737  0.19921  1.0000
  S   S11       1.0  0.28096  0.26996  0.16555  1.0000
  Fe  Fe6       1.0  0.18443  0.13514  0.10102  1.0000
  S   S12       1.0  0.14766  0.12927  0.11624  1.0000
  S   S13       1.0  0.20313  0.11717  0.08104  1.0000
  Fe  Fe7       1.0  0.19437  0.16981  0.11904  1.0000
  S   S14       1.0  0.15842  0.16698  0.13575  1.0000
  S   S15       1.0  0.22370  0.19228  0.11852  1.0000
  Fe  Fe8       1.0  0.16855  0.12571  0.13456  1.0000
  S   S16       1.0  0.17019  0.09507  0.15486  1.0000
  Fe  Fe9       1.0  0.14081  0.17108  0.11600  1.0000
  S   S17       1.0  0.10521  0.19767  0.11038  1.0000
  S   S18       1.0  0.20597  0.12825  0.11934  1.0000
  S   S19       1.0  0.17612  0.17718  0.09930  1.0000
  C   C4        1.0  0.14805  0.07538  0.15835  1.0000
  C   C5        1.0  0.12679  0.08267  0.15162  1.0000
  C   C6        1.0  0.11000  0.06603  0.15395  1.0000
  H   H9        1.0  0.12422  0.09621  0.07643  1.0000
  H   H10       1.0  0.12318  0.10117  0.14471  1.0000
  H   H11       1.0  0.09360  0.07167  0.14872  1.0000
  C   C7        1.0  0.21661  0.23406  0.15592  1.0000
  C   C8        1.0  0.23908  0.23108  0.14546  1.0000
  C   C9        1.0  0.24115  0.21789  0.13414  1.0000
  C   C10       1.0  0.22109  0.20701  0.13349  1.0000
  C   C11       1.0  0.19895  0.20922  0.14429  1.0000
  C   C12       1.0  0.19655  0.22310  0.15533  1.0000
  H   H12       1.0  0.25464  0.23946  0.14589  1.0000
  H   H13       1.0  0.25836  0.21616  0.12584  1.0000
  H   H14       1.0  0.18360  0.20044  0.14412  1.0000
  H   H15       1.0  0.17933  0.22499  0.16359  1.0000
  C   C13       1.0  0.35074  0.26887  0.15030  1.0000
  H   H16       1.0  0.04002  0.00967  0.17300  1.0000
  H   H17       1.0  0.33107  0.27368  0.15528  1.0000
  H   H18       1.0  0.44160  0.27176  0.99816  1.0000
  C   C14       1.0  0.19650  0.16145  0.00129  1.0000
  H   H19       1.0  0.16871  0.04591  0.17281  1.0000
  H   H20       1.0  0.04660  0.29749  0.17364  1.0000
  C   C15       1.0  0.29890  0.28991  0.21858  1.0000
  C   C16       1.0  0.01872  0.17640  0.03494  1.0000
  C   C17       1.0  0.05835  0.11076  0.98903  1.0000
  C   C18       1.0  0.39232  0.27706  0.19712  1.0000
  C   C19       1.0  0.05615  0.24889  0.14199  1.0000
  C   C20       1.0  0.07720  0.23125  0.14622  1.0000
  C   C21       1.0  0.09220  0.21510  0.13672  1.0000
  C   C22       1.0  0.08625  0.21665  0.12293  1.0000
  C   C23       1.0  0.06519  0.23430  0.11874  1.0000
  C   C24       1.0  0.05016  0.25038  0.12824  1.0000
  H   H21       1.0  0.08176  0.22992  0.15691  1.0000
  H   H22       1.0  0.10820  0.20137  0.14012  1.0000
  H   H23       1.0  0.06051  0.23561  0.10808  1.0000
  H   H24       1.0  0.03394  0.26392  0.12491  1.0000
  C   C25       1.0  0.37339  0.24036  0.20020  1.0000
  H   H25       1.0  0.31066  0.26618  0.12824  1.0000
  C   C26       1.0  0.36177  0.24386  0.14911  1.0000
  C   C27       1.0  0.15621  0.08157  0.06074  1.0000
  C   C28       1.0  0.18230  0.07955  0.05548  1.0000
  C   C29       1.0  0.19658  0.09030  0.06193  1.0000
  C   C30       1.0  0.18474  0.10361  0.07341  1.0000
  C   C31       1.0  0.15860  0.10582  0.07856  1.0000
  C   C32       1.0  0.14442  0.09460  0.07233  1.0000
  H   H26       1.0  0.19153  0.06938  0.04660  1.0000
  H   H27       1.0  0.21683  0.08841  0.05796  1.0000
  H   H28       1.0  0.14931  0.11622  0.08731  1.0000
  N   N1        1.0  0.39860  0.27969  0.09052  1.0000
  C   C33       1.0  0.23464  0.10248  0.99709  1.0000
  H   H29       1.0  0.43503  0.25977  0.08079  1.0000
  C   C34       1.0  0.12065  0.27607  0.15768  1.0000
  C   C35       1.0  0.09102  0.31425  0.11673  1.0000
  C   C36       1.0  0.28017  0.11110  0.22038  1.0000
  H   H30       1.0  0.36483  0.29522  0.17523  1.0000
  Fe  Fe10      1.0  0.17974  0.07293  0.99886  1.0000
  H   H31       1.0  0.16675  0.12260  0.02989  1.0000
  C   C37       1.0  0.18284  0.04865  0.10186  1.0000
  Fe  Fe11      1.0  0.12850  0.05755  0.00546  1.0000
  H   H32       1.0  0.24357  0.06996  0.19091  1.0000
  C   C38       1.0  0.21189  0.16872  0.00869  1.0000
  H   H33       1.0  0.31835  0.30935  0.11677  1.0000
  H   H34       1.0  0.27900  0.00184  0.00273  1.0000
  H   H35       1.0  0.22462  0.18110  0.00218  1.0000
  H   H36       1.0  0.39121  0.24213  0.17158  1.0000
  C   C39       1.0  0.16913  0.01376  0.21078  1.0000
  C   C40       1.0  0.19397  0.08546  0.18835  1.0000
  H   H37       1.0  0.19775  0.16808  0.98946  1.0000
  H   H38       1.0  0.12389  0.25760  0.15481  1.0000
  H   H39       1.0  0.29948  0.16579  0.20128  1.0000
  H   H40       1.0  0.48229  0.30683  0.03888  1.0000
  C   C41       1.0  0.37747  0.28644  0.20979  1.0000
  C   C42       1.0  0.36515  0.28786  0.14518  1.0000
  N   N2        1.0  0.07690  0.12308  0.03772  1.0000
  C   C43       1.0  0.07864  0.10004  0.03182  1.0000
  C   C44       1.0  0.10179  0.13118  0.03309  1.0000
  C   C45       1.0  0.07188  0.11591  0.05412  1.0000
  C   C46       1.0  0.05730  0.14371  0.03177  1.0000
  C   C47       1.0  0.03650  0.15656  0.04100  1.0000
  C   C48       1.0  0.05909  0.15202  0.01625  1.0000
  H   H41       1.0  0.15221  0.02498  0.09200  1.0000
  H   H42       1.0  0.38269  0.23387  0.10566  1.0000
  H   H43       1.0  0.18889  0.02881  0.12991  1.0000
  H   H44       1.0  0.08509  0.10279  0.01964  1.0000
  H   H45       1.0  0.09249  0.08374  0.03654  1.0000
  H   H46       1.0  0.05996  0.09410  0.03435  1.0000
  H   H47       1.0  0.10103  0.14883  0.03699  1.0000
  H   H48       1.0  0.10803  0.13485  0.02086  1.0000
  H   H49       1.0  0.11699  0.11645  0.03766  1.0000
  H   H50       1.0  0.05355  0.10926  0.05837  1.0000
  H   H51       1.0  0.08685  0.10007  0.05813  1.0000
  H   H52       1.0  0.07183  0.13188  0.05940  1.0000
  H   H53       1.0  0.03355  0.15176  0.05292  1.0000
  H   H54       1.0  0.07443  0.14330  0.00852  1.0000
  C   C49       1.0  0.08336  0.09904  0.99022  1.0000
  S   S20       1.0  0.28497  0.07906  0.21938  1.0000
  Fe  Fe12      1.0  0.44895  0.29870  0.12219  1.0000
  H   H55       1.0  0.00732  0.19947  0.01501  1.0000
  H   H56       1.0  0.20183  0.11226  0.21525  1.0000
  H   H57       1.0  0.22525  0.05129  0.98971  1.0000
  Fe  Fe13      1.0  0.48471  0.30294  0.09240  1.0000
  S   S21       1.0  0.48943  0.30501  0.06794  1.0000
  C   C50       1.0  0.09631  0.29104  0.15896  1.0000
  H   H58       1.0  0.22716  0.08768  0.00542  1.0000
  C   C51       1.0  0.09109  0.31504  0.16311  1.0000
  C   C52       1.0  0.42688  0.29522  0.20015  1.0000
  N   N3        1.0  0.02031  0.00900  0.19574  1.0000
  H   H59       1.0  0.25598  0.16047  0.18593  1.0000
  C   C53       1.0  0.46386  0.32028  0.05905  1.0000
  H   H60       1.0  0.25148  0.02502  0.00867  1.0000
  C   C54       1.0  0.18470  0.01233  0.22076  1.0000
  S   S22       1.0  0.26993  0.19372  0.22403  1.0000
  C   C55       1.0  0.38962  0.02934  0.22075  1.0000
  H   H61       1.0  0.38211  0.31300  0.07615  1.0000
  C   C56       1.0  0.30715  0.28939  0.23160  1.0000
  H   H62       1.0  0.05844  0.01576  0.19251  1.0000
  C   C57       1.0  0.43094  0.25986  0.99486  1.0000
  C   C58       1.0  0.28941  0.05058  0.99027  1.0000
  H   H63       1.0  0.44617  0.29843  0.19660  1.0000
  H   H64       1.0  0.29099  0.27439  0.21764  1.0000
  C   C59       1.0  0.41737  0.28207  0.19239  1.0000
  C   C60       1.0  0.36924  0.25100  0.10739  1.0000
  H   H65       1.0  0.35828  0.28342  0.21401  1.0000
  C   C61       1.0  0.09105  0.29289  0.11140  1.0000
  H   H66       1.0  0.12343  0.01802  0.23486  1.0000
  C   C62       1.0  0.04123  0.17186  0.01034  1.0000
  C   C63       1.0  0.37445  0.27553  0.10068  1.0000
  S   S23       1.0  0.09478  0.02063  0.16476  1.0000
  S   S24       1.0  0.40824  0.30635  0.13360  1.0000
  C   C64       1.0  0.13576  0.03484  0.16970  1.0000
  S   S25       1.0  0.19272  0.04516  0.01837  1.0000
  H   H67       1.0  0.11187  0.25786  0.10584  1.0000
  H   H68       1.0  0.15942  0.27278  0.15971  1.0000
  H   H69       1.0  0.39604  0.21862  0.14149  1.0000
  C   C65       1.0  0.15230  0.05160  0.16757  1.0000
  N   N4        1.0  0.34505  0.02086  0.23220  1.0000
  C   C66       1.0  0.13909  0.06039  0.11354  1.0000
  S   S26       1.0  0.47037  0.27009  0.10824  1.0000
  C   C67       1.0  0.34630  0.24787  0.11704  1.0000
  S   S27       1.0  0.14210  0.08747  0.01195  1.0000
  C   C68       1.0  0.32803  0.26883  0.12036  1.0000
  Fe  Fe14      1.0  0.17558  0.01803  0.01101  1.0000
  C   C69       1.0  0.46548  0.31792  0.04445  1.0000
  H   H70       1.0  0.00802  0.00435  0.17677  1.0000
  C   C70       1.0  0.40205  0.25703  0.13745  1.0000
  H   H71       1.0  0.05446  0.31800  0.14746  1.0000
  H   H72       1.0  0.43004  0.27586  0.18281  1.0000
  H   H73       1.0  0.34297  0.22905  0.12245  1.0000
  N   N5        1.0  0.16283  0.04150  0.11471  1.0000
  H   H74       1.0  0.38271  0.28346  0.07126  1.0000
  H   H75       1.0  0.17688  0.05156  0.09108  1.0000
  C   C71       1.0  0.17130  0.04293  0.12821  1.0000
  C   C72       1.0  0.18041  0.14474  0.00887  1.0000
  C   C73       1.0  0.17911  0.13579  0.02400  1.0000
  H   H76       1.0  0.15974  0.99929  0.13820  1.0000
  H   H77       1.0  0.14159  0.07966  0.11367  1.0000
  H   H78       1.0  0.18795  0.06688  0.10204  1.0000
  H   H79       1.0  0.12353  0.05549  0.12295  1.0000
  S   S28       1.0  0.29005  0.31186  0.19063  1.0000
  S   S29       1.0  0.32774  0.24302  0.99502  1.0000
  C   C74       1.0  0.15800  0.01623  0.11487  1.0000
  H   H80       1.0  0.13249  0.06163  0.10312  1.0000
  C   C75       1.0  0.35263  0.27928  0.99644  1.0000
  C   C76       1.0  0.02109  0.18403  0.01966  1.0000
  C   C77       1.0  0.35527  0.29648  0.10420  1.0000
  H   H81       1.0  0.05497  0.30986  0.18734  1.0000
  H   H82       1.0  0.29037  0.03937  0.00117  1.0000
  C   C78       1.0  0.32826  0.01912  0.22251  1.0000
  H   H83       1.0  0.33083  0.99967  0.22049  1.0000
  Fe  Fe15      1.0  0.00682  0.29796  0.14437  1.0000
  H   H84       1.0  0.17536  0.06195  0.12769  1.0000
  C   C79       1.0  0.30024  0.31082  0.20702  1.0000
  C   C80       1.0  0.33880  0.04725  0.23481  1.0000
  H   H85       1.0  0.08146  0.28344  0.15688  1.0000
  H   H86       1.0  0.41913  0.31431  0.21855  1.0000
  C   C81       1.0  0.04800  0.31524  0.17671  1.0000
  C   C82       1.0  0.25507  0.16011  0.02427  1.0000
  H   H87       1.0  0.33186  0.03186  0.21154  1.0000
  H   H88       1.0  0.24859  0.17556  0.16028  1.0000
  H   H89       1.0  0.04311  0.10055  0.99421  1.0000
  C   C83       1.0  0.41699  0.25590  0.08836  1.0000
  C   C84       1.0  0.00828  0.03614  0.19386  1.0000
  C   C85       1.0  0.14060  0.28458  0.16040  1.0000
  H   H90       1.0  0.20582  0.07777  0.17855  1.0000
  Fe  Fe16      1.0  0.49291  0.32531  0.11692  1.0000
  N   N6        1.0  0.38168  0.26257  0.18956  1.0000
  H   H91       1.0  0.22199  0.05944  0.20746  1.0000
  S   S30       1.0  0.25295  0.02156  0.23351  1.0000
  H   H92       1.0  0.23993  0.08230  0.20731  1.0000
  C   C86       1.0  0.42310  0.99603  0.21211  1.0000
  C   C87       1.0  0.39987  0.25304  0.17689  1.0000
  H   H93       1.0  0.03920  0.04885  0.17668  1.0000
  H   H94       1.0  0.40589  0.26884  0.16802  1.0000
  C   C88       1.0  0.19166  0.10570  0.20848  1.0000
  H   H95       1.0  0.13943  0.01630  0.17654  1.0000
  H   H96       1.0  0.18607  0.06944  0.19611  1.0000
  N   N7        1.0  0.22825  0.16727  0.03159  1.0000
  H   H97       1.0  0.15191  0.31453  0.16652  1.0000
  C   C89       1.0  0.22200  0.19509  0.03059  1.0000
  C   C90       1.0  0.22619  0.15530  0.04751  1.0000
  C   C91       1.0  0.21135  0.15969  0.02407  1.0000
  C   C92       1.0  0.19404  0.14338  0.03158  1.0000
  C   C93       1.0  0.11198  0.32330  0.16561  1.0000
  H   H98       1.0  0.35017  0.26830  0.17865  1.0000
  H   H99       1.0  0.16936  0.13833  0.00291  1.0000
  H   H100      1.0  0.17648  0.12174  0.20506  1.0000
  H   H101      1.0  0.26856  0.16390  0.03017  1.0000
  H   H102      1.0  0.17747  0.09953  0.18475  1.0000
  H   H103      1.0  0.18230  0.09044  0.21602  1.0000
  H   H104      1.0  0.22519  0.20551  0.01894  1.0000
  H   H105      1.0  0.23394  0.20146  0.03644  1.0000
  H   H106      1.0  0.20176  0.20133  0.03559  1.0000
  H   H107      1.0  0.20680  0.16077  0.05398  1.0000
  H   H108      1.0  0.23104  0.13427  0.04908  1.0000
  H   H109      1.0  0.23934  0.16100  0.05285  1.0000
  H   H110      1.0  0.19185  0.13600  0.04331  1.0000
  H   H111      1.0  0.35662  0.26744  0.00679  1.0000
  C   C94       1.0  0.35939  0.27889  0.18377  1.0000
  S   S31       1.0  0.08985  0.06757  0.99951  1.0000
  C   C95       1.0  0.33248  0.29310  0.11395  1.0000
  N   N8        1.0  0.20887  0.09671  0.19540  1.0000
  H   H112      1.0  0.35632  0.30714  0.14622  1.0000
  C   C96       1.0  0.26074  0.14570  0.23343  1.0000
  C   C97       1.0  0.22947  0.07627  0.20047  1.0000
  C   C98       1.0  0.21989  0.11801  0.18547  1.0000
  C   C99       1.0  0.21612  0.12709  0.17063  1.0000
  C   C100      1.0  0.23474  0.13056  0.19066  1.0000
  C   C101      1.0  0.22656  0.14752  0.16169  1.0000
  C   C102      1.0  0.24490  0.15107  0.18165  1.0000
  C   C103      1.0  0.24077  0.15957  0.16721  1.0000
  H   H113      1.0  0.36697  0.22800  0.19465  1.0000
  H   H114      1.0  0.41696  0.24007  0.18046  1.0000
  C   C104      1.0  0.38707  0.29974  0.21735  1.0000
  C   C105      1.0  0.39084  0.28198  0.13891  1.0000
  H   H115      1.0  0.41125  0.29595  0.06762  1.0000
  C   C106      1.0  0.38742  0.23797  0.14247  1.0000
  H   H116      1.0  0.42197  0.25236  0.13267  1.0000
  H   H117      1.0  0.23858  0.12470  0.20177  1.0000
  H   H118      1.0  0.25918  0.17079  0.01275  1.0000
  H   H119      1.0  0.20515  0.11884  0.16564  1.0000
  H   H120      1.0  0.42231  0.24491  0.09902  1.0000
  H   H121      1.0  0.22354  0.15413  0.15039  1.0000
  H   H122      1.0  0.34103  0.06124  0.22423  1.0000
  N   N9        1.0  0.15861  0.25645  0.11178  1.0000
  C   C107      1.0  0.16591  0.25345  0.09609  1.0000
  C   C108      1.0  0.18090  0.26182  0.11589  1.0000
  C   C109      1.0  0.15333  0.23206  0.12106  1.0000
  C   C110      1.0  0.13556  0.27633  0.11375  1.0000
  C   C111      1.0  0.11292  0.27417  0.10994  1.0000
  C   C112      1.0  0.13475  0.29815  0.11946  1.0000
  C   C113      1.0  0.11469  0.04200  0.16284  1.0000
  C   C114      1.0  0.29281  0.12761  0.20906  1.0000
  H   H123      1.0  0.41385  0.28575  0.10793  1.0000
  H   H124      1.0  0.16887  0.27170  0.08859  1.0000
  H   H125      1.0  0.18377  0.23921  0.09416  1.0000
  H   H126      1.0  0.15132  0.24660  0.09255  1.0000
  H   H127      1.0  0.18614  0.27987  0.10922  1.0000
  H   H128      1.0  0.19804  0.24682  0.11388  1.0000
  H   H129      1.0  0.17751  0.26244  0.12788  1.0000
  H   H130      1.0  0.13863  0.22527  0.11763  1.0000
  H   H131      1.0  0.17054  0.21690  0.12020  1.0000
  H   H132      1.0  0.14670  0.23353  0.13292  1.0000
  C   C115      1.0  0.39341  0.29360  0.07579  1.0000
  H   H133      1.0  0.15080  0.30125  0.12298  1.0000
  C   C116      1.0  0.25463  0.11218  0.99912  1.0000
  C   C117      1.0  0.41175  0.30408  0.21258  1.0000
  H   H134      1.0  0.20045  0.03392  0.10175  1.0000
  H   H135      1.0  0.37531  0.30652  0.22708  1.0000
  H   H136      1.0  0.41084  0.26994  0.99659  1.0000
  C   C118      1.0  0.36211  0.30177  0.99107  1.0000
  H   H137      1.0  0.40928  0.24382  0.08332  1.0000
  C   C119      1.0  0.15275  0.01088  0.10206  1.0000
  H   H138      1.0  0.43261  0.24136  0.00268  1.0000
  C   C120      1.0  0.26392  0.12022  0.23249  1.0000
  H   H139      1.0  0.00111  0.99662  0.21807  1.0000
  H   H140      1.0  0.22931  0.31864  0.22110  1.0000
  C   C121      1.0  0.02079  0.05439  0.18339  1.0000
  S   S32       1.0  0.16525  0.04516  0.99069  1.0000
  C   C122      1.0  0.13629  0.30817  0.16427  1.0000
  H   H141      1.0  0.38908  0.22859  0.20575  1.0000
  H   H142      1.0  0.35793  0.31566  0.09960  1.0000
  C   C123      1.0  0.27351  0.16220  0.22220  1.0000
  H   H143      1.0  0.04305  0.17790  0.99843  1.0000
  H   H144      1.0  0.04157  0.01206  0.21130  1.0000
  S   S33       1.0  0.18103  0.03818  0.22920  1.0000
  H   H145      1.0  0.37312  0.30730  0.99734  1.0000
  H   H146      1.0  0.01995  0.09372  0.17343  1.0000
  H   H147      1.0  0.45742  0.31917  0.16993  1.0000
  H   H148      1.0  0.24779  0.99703  0.00384  1.0000
  C   C124      1.0  0.31728  0.30947  0.23296  1.0000
  H   H149      1.0  0.00303  0.18603  0.04215  1.0000
  C   C125      1.0  0.37186  0.01284  0.22525  1.0000
  H   H150      1.0  0.39507  0.23935  0.99288  1.0000
  C   C126      1.0  0.15692  0.99682  0.12776  1.0000
  H   H151      1.0  0.40011  0.31435  0.09697  1.0000
  H   H152      1.0  0.07395  0.29075  0.10843  1.0000
  C   C127      1.0  0.00996  0.08016  0.18145  1.0000
  C   C128      1.0  0.41486  0.02090  0.21430  1.0000
  H   H153      1.0  0.38449  0.04886  0.22200  1.0000
  H   H154      1.0  0.42813  0.03375  0.21093  1.0000
  C   C129      1.0  0.02558  0.00039  0.18142  1.0000
  C   C130      1.0  0.11276  0.31681  0.12083  1.0000
  H   H155      1.0  0.30790  0.02472  0.22744  1.0000
  C   C131      1.0  0.04462  0.00538  0.20071  1.0000
  H   H156      1.0  0.09556  0.00622  0.23508  1.0000
  C   C132      1.0  0.11588  0.00052  0.23605  1.0000
  C   C133      1.0  0.33804  0.27204  0.98848  1.0000
  H   H157      1.0  0.31308  0.07419  0.99331  1.0000
  C   C134      1.0  0.26427  0.13158  0.98840  1.0000
  S   S34       1.0  0.41494  0.32631  0.99965  1.0000
  H   H158      1.0  0.22152  0.02095  0.98773  1.0000
  H   H159      1.0  0.02821  0.32615  0.17878  1.0000
  Fe  Fe17      1.0  0.25864  0.05813  0.23720  1.0000
  C   C135      1.0  0.24768  0.32583  0.23693  1.0000
  C   C136      1.0  0.21021  0.06666  0.30198  1.0000
  H   H160      1.0  0.01813  0.05679  0.28622  1.0000
  H   H161      1.0  0.35848  0.01939  0.45532  1.0000
  H   H162      1.0  0.16495  0.28670  0.48648  1.0000
  H   H163      1.0  0.38869  0.03707  0.43462  1.0000
  H   H164      1.0  0.29373  0.08838  0.41261  1.0000
  H   H165      1.0  0.35065  0.05002  0.24209  1.0000
  H   H166      1.0  0.31696  0.04392  0.41696  1.0000
  S   S35       1.0  0.26386  0.04343  0.26066  1.0000
  Fe  Fe18      1.0  0.25466  0.00781  0.25760  1.0000
  C   C137      1.0  0.42295  0.99881  0.47940  1.0000
  S   S36       1.0  0.32654  0.30857  0.24961  1.0000
  H   H167      1.0  0.35127  0.00477  0.25437  1.0000
  H   H168      1.0  0.46815  0.19620  0.43797  1.0000
  Fe  Fe19      1.0  0.43613  0.29514  0.37997  1.0000
  S   S37       1.0  0.42261  0.25794  0.38785  1.0000
  C   C138      1.0  0.00182  0.07368  0.32176  1.0000
  Fe  Fe20      1.0  0.20965  0.06174  0.36503  1.0000
  Fe  Fe21      1.0  0.18819  0.10039  0.38470  1.0000
  S   S38       1.0  0.16532  0.07456  0.40160  1.0000
  S   S39       1.0  0.18593  0.13834  0.39030  1.0000
  Fe  Fe22      1.0  0.15544  0.06469  0.38226  1.0000
  S   S40       1.0  0.11832  0.05218  0.38444  1.0000
  S   S41       1.0  0.22407  0.07130  0.38293  1.0000
  S   S42       1.0  0.17534  0.09326  0.36536  1.0000
  Fe  Fe23      1.0  0.29600  0.22334  0.43097  1.0000
  S   S43       1.0  0.27834  0.21070  0.45465  1.0000
  S   S44       1.0  0.31064  0.25988  0.42385  1.0000
  Fe  Fe24      1.0  0.27963  0.18302  0.42031  1.0000
  S   S45       1.0  0.25982  0.16747  0.44293  1.0000
  S   S46       1.0  0.28520  0.16451  0.40069  1.0000
  Fe  Fe25      1.0  0.24553  0.20804  0.44537  1.0000
  S   S47       1.0  0.20528  0.22595  0.45379  1.0000
  Fe  Fe26      1.0  0.29431  0.17132  0.45024  1.0000
  S   S48       1.0  0.31058  0.13789  0.46625  1.0000
  S   S49       1.0  0.26206  0.22331  0.42190  1.0000
  S   S50       1.0  0.31530  0.18420  0.42734  1.0000
  C   C139      1.0  0.24902  0.99615  0.43412  1.0000
  C   C140      1.0  0.34026  0.30345  0.45501  1.0000
  H   H169      1.0  0.08537  0.00380  0.26199  1.0000
  C   C141      1.0  0.09211  0.06861  0.37621  1.0000
  C   C142      1.0  0.08909  0.09437  0.36982  1.0000
  C   C143      1.0  0.06657  0.10695  0.36465  1.0000
  C   C144      1.0  0.04708  0.09383  0.36584  1.0000
  C   C145      1.0  0.05077  0.06787  0.37155  1.0000
  C   C146      1.0  0.07298  0.05543  0.37689  1.0000
  H   H170      1.0  0.06399  0.12702  0.36009  1.0000
  H   H171      1.0  0.03634  0.05737  0.37211  1.0000
  H   H172      1.0  0.07531  0.03546  0.38167  1.0000
  C   C147      1.0  0.21376  0.14602  0.39259  1.0000
  C   C148      1.0  0.21172  0.16433  0.40103  1.0000
  C   C149      1.0  0.23356  0.16985  0.40375  1.0000
  C   C150      1.0  0.25757  0.15764  0.39763  1.0000
  C   C151      1.0  0.25966  0.13983  0.38886  1.0000
  C   C152      1.0  0.23780  0.13387  0.38643  1.0000
  H   H173      1.0  0.19317  0.17396  0.40571  1.0000
  H   H174      1.0  0.23178  0.18378  0.41044  1.0000
  H   H175      1.0  0.27822  0.13051  0.38399  1.0000
  H   H176      1.0  0.23956  0.12014  0.37965  1.0000
  C   C153      1.0  0.34087  0.13849  0.46881  1.0000
  C   C154      1.0  0.35430  0.15703  0.46018  1.0000
  C   C155      1.0  0.37915  0.15618  0.46176  1.0000
  H   H177      1.0  0.34562  0.17196  0.45225  1.0000
  H   H178      1.0  0.38951  0.17051  0.45505  1.0000
  H   H179      1.0  0.49750  0.15684  0.45762  1.0000
  H   H180      1.0  0.10378  0.10469  0.36922  1.0000
  C   C156      1.0  0.18211  0.25940  0.47233  1.0000
  C   C157      1.0  0.20134  0.23840  0.46980  1.0000
  H   H181      1.0  0.34156  0.10539  0.48616  1.0000
  C   C158      1.0  0.20230  0.06821  0.32815  1.0000
  H   H182      1.0  0.16927  0.26731  0.46465  1.0000
  C   C159      1.0  0.00039  0.11609  0.41147  1.0000
  C   C160      1.0  0.40263  0.31463  0.43867  1.0000
  C   C161      1.0  0.39162  0.25865  0.39807  1.0000
  C   C162      1.0  0.37397  0.28134  0.39790  1.0000
  C   C163      1.0  0.34906  0.28141  0.40573  1.0000
  C   C164      1.0  0.34174  0.25884  0.41386  1.0000
  C   C165      1.0  0.35931  0.23608  0.41401  1.0000
  C   C166      1.0  0.38424  0.23600  0.40610  1.0000
  H   H183      1.0  0.37930  0.29875  0.39146  1.0000
  H   H184      1.0  0.33536  0.29897  0.40538  1.0000
  H   H185      1.0  0.35382  0.21861  0.42035  1.0000
  H   H186      1.0  0.39784  0.21838  0.40620  1.0000
  H   H187      1.0  0.37829  0.29522  0.34028  1.0000
  S   S51       1.0  0.23859  0.04995  0.34554  1.0000
  H   H188      1.0  0.26252  0.03800  0.31699  1.0000
  C   C167      1.0  0.04473  0.09473  0.40812  1.0000
  Fe  Fe27      1.0  0.20036  0.04495  0.39840  1.0000
  H   H189      1.0  0.04910  0.10805  0.41389  1.0000
  H   H190      1.0  0.23094  0.27497  0.46458  1.0000
  H   H191      1.0  0.01862  0.08843  0.43629  1.0000
  H   H192      1.0  0.40192  0.04835  0.44674  1.0000
  H   H193      1.0  0.29029  0.06354  0.46593  1.0000
  H   H194      1.0  0.40521  0.30418  0.44995  1.0000
  H   H195      1.0  0.04705  0.02236  0.31370  1.0000
  C   C168      1.0  0.01552  0.07717  0.42881  1.0000
  H   H196      1.0  0.41592  0.29845  0.31794  1.0000
  H   H197      1.0  0.02632  0.05702  0.40449  1.0000
  C   C169      1.0  0.27557  0.06893  0.45937  1.0000
  H   H198      1.0  0.24739  0.04728  0.29323  1.0000
  H   H199      1.0  0.24393  0.28588  0.44577  1.0000
  C   C170      1.0  0.19398  0.07407  0.31463  1.0000
  H   H200      1.0  0.30697  0.02799  0.36806  1.0000
  N   N10       1.0  0.32549  0.22482  0.37463  1.0000
  C   C171      1.0  0.34332  0.20180  0.38014  1.0000
  C   C172      1.0  0.30926  0.23519  0.38752  1.0000
  C   C173      1.0  0.30873  0.21682  0.36713  1.0000
  C   C174      1.0  0.33982  0.24402  0.36494  1.0000
  C   C175      1.0  0.35742  0.25272  0.37035  1.0000
  C   C176      1.0  0.33670  0.25480  0.35012  1.0000
  C   C177      1.0  0.37122  0.27082  0.36150  1.0000
  C   C178      1.0  0.35052  0.27304  0.34138  1.0000
  C   C179      1.0  0.36770  0.28103  0.34707  1.0000
  H   H201      1.0  0.35454  0.20542  0.38749  1.0000
  H   H202      1.0  0.33308  0.18651  0.38686  1.0000
  H   H203      1.0  0.35691  0.19418  0.37081  1.0000
  H   H204      1.0  0.32048  0.23960  0.39458  1.0000
  H   H205      1.0  0.29773  0.22142  0.39479  1.0000
  H   H206      1.0  0.29599  0.25295  0.38396  1.0000
  H   H207      1.0  0.31978  0.20835  0.35745  1.0000
  H   H208      1.0  0.29848  0.20216  0.37467  1.0000
  H   H209      1.0  0.29376  0.23290  0.36348  1.0000
  H   H210      1.0  0.36061  0.24561  0.38151  1.0000
  H   H211      1.0  0.26610  0.01592  0.37146  1.0000
  C   C180      1.0  0.01281  0.05160  0.31557  1.0000
  H   H212      1.0  0.35914  0.32335  0.41697  1.0000
  C   C181      1.0  0.42896  0.00342  0.46395  1.0000
  N   N11       1.0  0.21716  0.09016  0.43297  1.0000
  C   C182      1.0  0.22892  0.08675  0.41763  1.0000
  C   C183      1.0  0.19817  0.07355  0.43905  1.0000
  C   C184      1.0  0.20330  0.11676  0.43221  1.0000
  C   C185      1.0  0.23704  0.08331  0.44211  1.0000
  C   C186      1.0  0.25164  0.05839  0.44409  1.0000
  C   C187      1.0  0.24283  0.10086  0.44904  1.0000
  C   C188      1.0  0.27051  0.05133  0.45265  1.0000
  C   C189      1.0  0.33901  0.00406  0.24675  1.0000
  H   H213      1.0  0.25738  0.30353  0.47873  1.0000
  H   H214      1.0  0.23726  0.06665  0.41695  1.0000
  H   H215      1.0  0.21473  0.09305  0.41024  1.0000
  H   H216      1.0  0.24419  0.09796  0.41291  1.0000
  H   H217      1.0  0.20650  0.05331  0.43871  1.0000
  H   H218      1.0  0.18266  0.07863  0.43257  1.0000
  H   H219      1.0  0.18944  0.07485  0.45076  1.0000
  H   H220      1.0  0.21636  0.13034  0.42727  1.0000
  H   H221      1.0  0.18874  0.12147  0.42507  1.0000
  H   H222      1.0  0.01629  0.12810  0.38810  1.0000
  H   H223      1.0  0.24858  0.04418  0.43897  1.0000
  H   H224      1.0  0.23303  0.12033  0.44808  1.0000
  H   H225      1.0  0.28140  0.03214  0.45393  1.0000
  H   H226      1.0  0.48497  0.29779  0.27022  1.0000
  C   C190      1.0  0.23478  0.05316  0.30292  1.0000
  C   C191      1.0  0.01265  0.07538  0.40430  1.0000
  N   N12       1.0  0.23574  0.13691  0.28341  1.0000
  C   C192      1.0  0.24903  0.15861  0.27798  1.0000
  C   C193      1.0  0.25170  0.11485  0.27718  1.0000
  C   C194      1.0  0.21189  0.14374  0.27747  1.0000
  C   C195      1.0  0.23148  0.13082  0.29981  1.0000
  C   C196      1.0  0.20692  0.13459  0.30888  1.0000
  C   C197      1.0  0.25237  0.12142  0.30719  1.0000
  C   C198      1.0  0.20368  0.12893  0.32433  1.0000
  C   C199      1.0  0.24884  0.11544  0.32264  1.0000
  C   C200      1.0  0.22456  0.11923  0.33118  1.0000
  H   H227      1.0  0.26794  0.15430  0.28116  1.0000
  H   H228      1.0  0.25227  0.16416  0.26568  1.0000
  H   H229      1.0  0.23782  0.17550  0.28259  1.0000
  H   H230      1.0  0.27129  0.11033  0.27935  1.0000
  H   H231      1.0  0.25367  0.11811  0.26497  1.0000
  H   H232      1.0  0.24325  0.09768  0.28186  1.0000
  H   H233      1.0  0.19975  0.16147  0.28062  1.0000
  H   H234      1.0  0.21563  0.14705  0.26516  1.0000
  H   H235      1.0  0.20079  0.12825  0.28142  1.0000
  H   H236      1.0  0.18982  0.14144  0.30437  1.0000
  H   H237      1.0  0.27161  0.11840  0.30110  1.0000
  H   H238      1.0  0.23918  0.00003  0.36345  1.0000
  H   H239      1.0  0.26495  0.10743  0.32807  1.0000
  H   H240      1.0  0.22189  0.11414  0.34314  1.0000
  H   H241      1.0  0.49183  0.15145  0.41022  1.0000
  C   C201      1.0  0.24332  0.04791  0.31638  1.0000
  H   H242      1.0  0.37565  0.07166  0.46521  1.0000
  Fe  Fe28      1.0  0.44342  0.09528  0.47952  1.0000
  H   H243      1.0  0.17493  0.08444  0.31397  1.0000
  H   H244      1.0  0.36624  0.27936  0.43144  1.0000
  S   S52       1.0  0.01776  0.11041  0.36097  1.0000
  C   C202      1.0  0.39071  0.13656  0.47180  1.0000
  H   H245      1.0  0.25014  0.30636  0.24281  1.0000
  H   H246      1.0  0.26374  0.27632  0.45967  1.0000
  N   N13       1.0  0.01798  0.09132  0.41329  1.0000
  H   H247      1.0  0.18960  0.07395  0.33784  1.0000
  C   C203      1.0  0.22715  0.05559  0.32899  1.0000
  H   H248      1.0  0.42706  0.31726  0.33633  1.0000
  S   S53       1.0  0.18900  0.03269  0.38045  1.0000
  H   H249      1.0  0.02959  0.05907  0.42981  1.0000
  C   C204      1.0  0.24473  0.28643  0.45733  1.0000
  N   N14       1.0  0.36121  0.05914  0.44934  1.0000
  C   C205      1.0  0.35628  0.03608  0.46042  1.0000
  C   C206      1.0  0.38670  0.05334  0.44007  1.0000
  C   C207      1.0  0.36172  0.07860  0.45765  1.0000
  C   C208      1.0  0.34201  0.06734  0.43971  1.0000
  C   C209      1.0  0.32826  0.09265  0.43699  1.0000
  C   C210      1.0  0.33748  0.05008  0.43210  1.0000
  C   C211      1.0  0.31110  0.09998  0.42731  1.0000
  C   C212      1.0  0.32011  0.05757  0.42255  1.0000
  H   H250      1.0  0.03221  0.02464  0.29296  1.0000
  H   H251      1.0  0.05845  0.07649  0.40996  1.0000
  H   H252      1.0  0.43944  0.16413  0.44371  1.0000
  H   H253      1.0  0.30297  0.01409  0.40159  1.0000
  H   H254      1.0  0.33679  0.03924  0.46714  1.0000
  H   H255      1.0  0.00642  0.09976  0.33422  1.0000
  H   H256      1.0  0.39079  0.06988  0.43124  1.0000
  H   H257      1.0  0.46468  0.31025  0.25697  1.0000
  S   S54       1.0  0.21734  0.07384  0.24338  1.0000
  H   H258      1.0  0.36752  0.09587  0.45015  1.0000
  H   H259      1.0  0.33039  0.10726  0.44217  1.0000
  H   H260      1.0  0.34754  0.03065  0.43330  1.0000
  H   H261      1.0  0.30089  0.11942  0.42535  1.0000
  C   C213      1.0  0.28789  0.00924  0.41069  1.0000
  Fe  Fe29      1.0  0.48544  0.31541  0.37146  1.0000
  S   S55       1.0  0.19981  0.07603  0.28497  1.0000
  S   S56       1.0  0.42224  0.13500  0.47310  1.0000
  H   H262      1.0  0.36988  0.03022  0.46819  1.0000
  H   H263      1.0  0.30727  0.29968  0.47221  1.0000
  H   H264      1.0  0.05174  0.99904  0.24492  1.0000
  N   N15       1.0  0.37923  0.31082  0.43507  1.0000
  C   C214      1.0  0.45571  0.15169  0.43788  1.0000
  S   S57       1.0  0.48526  0.02801  0.48605  1.0000
  H   H265      1.0  0.47714  0.13387  0.46171  1.0000
  H   H266      1.0  0.48094  0.18679  0.42058  1.0000
  H   H267      1.0  0.01340  0.08496  0.39259  1.0000
  Fe  Fe30      1.0  0.22163  0.05549  0.26665  1.0000
  C   C215      1.0  0.30581  0.00811  0.37089  1.0000
  H   H268      1.0  0.34277  0.28387  0.45417  1.0000
  H   H269      1.0  0.38619  0.27120  0.44514  1.0000
  S   S58       1.0  0.46257  0.30398  0.35826  1.0000
  C   C216      1.0  0.31961  0.31233  0.46546  1.0000
  C   C217      1.0  0.47984  0.15311  0.45554  1.0000
  S   S59       1.0  0.21258  0.01882  0.26536  1.0000
  Fe  Fe31      1.0  0.45844  0.04406  0.47020  1.0000
  H   H270      1.0  0.32371  0.24956  0.34500  1.0000
  C   C218      1.0  0.30701  0.08250  0.42012  1.0000
  Fe  Fe32      1.0  0.49755  0.06565  0.47919  1.0000
  H   H271      1.0  0.19318  0.12055  0.44334  1.0000
  C   C219      1.0  0.17974  0.27047  0.48463  1.0000
  S   S60       1.0  0.45025  0.02349  0.45451  1.0000
  H   H272      1.0  0.18478  0.13140  0.33106  1.0000
  N   N16       1.0  0.99908  0.04065  0.30769  1.0000
  H   H273      1.0  0.38477  0.27696  0.36587  1.0000
  C   C220      1.0  0.26248  0.01711  0.40896  1.0000
  H   H274      1.0  0.42202  0.99603  0.44406  1.0000
  S   S61       1.0  0.47346  0.07994  0.46175  1.0000
  C   C221      1.0  0.03956  0.07076  0.33136  1.0000
  C   C222      1.0  0.21285  0.32428  0.45704  1.0000
  H   H275      1.0  0.45340  0.13181  0.44276  1.0000
  C   C223      1.0  0.10590  0.99698  0.26235  1.0000
  H   H276      1.0  0.04962  0.07802  0.33750  1.0000
  H   H277      1.0  0.26619  0.10744  0.46258  1.0000
  H   H278      1.0  0.39305  0.31963  0.41154  1.0000
  H   H279      1.0  0.28125  0.30077  0.43787  1.0000
  C   C224      1.0  0.03771  0.03952  0.31776  1.0000
  C   C225      1.0  0.35691  0.31956  0.44609  1.0000
  C   C226      1.0  0.05083  0.04904  0.32553  1.0000
  H   H280      1.0  0.34281  0.08427  0.46457  1.0000
  C   C227      1.0  0.01516  0.08303  0.32947  1.0000
  H   H281      1.0  0.25801  0.02811  0.39855  1.0000
  H   H282      1.0  0.45348  0.15555  0.42617  1.0000
  S   S62       1.0  0.46084  0.30327  0.39321  1.0000
  C   C228      1.0  0.35210  0.11944  0.47923  1.0000
  S   S63       1.0  0.21120  0.01809  0.41875  1.0000
  C   C229      1.0  0.38287  0.28362  0.43442  1.0000
  H   H283      1.0  0.19871  0.31241  0.46343  1.0000
  N   N17       1.0  0.48042  0.15584  0.43948  1.0000
  H   H284      1.0  0.46366  0.16646  0.46076  1.0000
  H   H285      1.0  0.31884  0.00930  0.25225  1.0000
  H   H286      1.0  0.31864  0.05236  0.24033  1.0000
  C   C230      1.0  0.21774  0.22809  0.47982  1.0000
  C   C231      1.0  0.37648  0.32564  0.42012  1.0000
  H   H287      1.0  0.23229  0.21161  0.47812  1.0000
  H   H288      1.0  0.11391  0.01408  0.26147  1.0000
  C   C232      1.0  0.01393  0.03820  0.29268  1.0000
  C   C233      1.0  0.37706  0.11834  0.48063  1.0000
  H   H289      1.0  0.41987  0.30822  0.43060  1.0000
  S   S64       1.0  0.39821  0.32006  0.29086  1.0000
  Fe  Fe33      1.0  0.21178  0.03612  0.24152  1.0000
  H   H290      1.0  0.21245  0.32658  0.44510  1.0000
  H   H291      1.0  0.06973  0.03943  0.32721  1.0000
  C   C234      1.0  0.26188  0.09366  0.45751  1.0000
  C   C235      1.0  0.41389  0.31876  0.31635  1.0000
  H   H292      1.0  0.39956  0.27788  0.42582  1.0000
  H   H293      1.0  0.34796  0.28109  0.33009  1.0000
  H   H294      1.0  0.04921  0.10210  0.39605  1.0000
  C   C236      1.0  0.28244  0.00096  0.37287  1.0000
  H   H295      1.0  0.47884  0.31027  0.31767  1.0000
  C   C237      1.0  0.24306  0.01020  0.42063  1.0000
  N   N18       1.0  0.23865  0.31273  0.46008  1.0000
  C   C238      1.0  0.23820  0.31117  0.47600  1.0000
  H   H296      1.0  0.34566  0.99537  0.37114  1.0000
  C   C239      1.0  0.47566  0.32143  0.29465  1.0000
  H   H297      1.0  0.45096  0.30686  0.27616  1.0000
  H   H298      1.0  0.30552  0.27344  0.24067  1.0000
  H   H299      1.0  0.47318  0.30272  0.29460  1.0000
  H   H300      1.0  0.24816  0.15282  0.24274  1.0000
  S   S65       1.0  0.38895  0.32658  0.25164  1.0000
  C   C240      1.0  0.00210  0.13287  0.39755  1.0000
  C   C241      1.0  0.46781  0.31204  0.26784  1.0000
  H   H301      1.0  0.01358  0.00145  0.31645  1.0000
  C   C242      1.0  0.48297  0.18223  0.43236  1.0000
  C   C243      1.0  0.27775  0.31963  0.44013  1.0000
  H   H302      1.0  0.23513  0.99946  0.38981  1.0000
  S   S66       1.0  0.00279  0.00290  0.26368  1.0000
  H   H303      1.0  0.43225  0.00667  0.48561  1.0000
  H   H304      1.0  0.25399  0.10759  0.24118  1.0000
  H   H305      1.0  0.22536  0.29857  0.48323  1.0000
  H   H306      1.0  0.00345  0.03104  0.28629  1.0000
  S   S67       1.0  0.42627  0.06054  0.48660  1.0000
  C   C244      1.0  0.29383  0.99458  0.42409  1.0000
  C   C245      1.0  0.47895  0.32547  0.30806  1.0000
  S   S68       1.0  0.19455  0.27392  0.50983  1.0000
  Fe  Fe34      1.0  0.45405  0.04737  0.50194  1.0000
  S   S69       1.0  0.44195  0.02630  0.52494  1.0000
  H   H307      1.0  0.04371  0.05750  0.71469  1.0000
  C   C246      1.0  0.21004  0.99609  0.63274  1.0000
  H   H308      1.0  0.41614  0.03343  0.58530  1.0000
  H   H309      1.0  0.49783  0.14531  0.71018  1.0000
  H   H310      1.0  0.08109  0.99622  0.66020  1.0000
  H   H311      1.0  0.22405  0.00880  0.62845  1.0000
  C   C247      1.0  0.47511  0.03485  0.56503  1.0000
  H   H312      1.0  0.34723  0.32398  0.63618  1.0000
  C   C248      1.0  0.45741  0.03282  0.59611  1.0000
  H   H313      1.0  0.01112  0.29751  0.52671  1.0000
  C   C249      1.0  0.19630  0.26022  0.49458  1.0000
  N   N19       1.0  0.44423  0.05387  0.58599  1.0000
  Fe  Fe35      1.0  0.49176  0.04005  0.66241  1.0000
  H   H314      1.0  0.01019  0.25406  0.54184  1.0000
  C   C250      1.0  0.44495  0.07791  0.59011  1.0000
  Fe  Fe36      1.0  0.34712  0.07902  0.58895  1.0000
  S   S70       1.0  0.34866  0.03780  0.59882  1.0000
  S   S71       1.0  0.36110  0.09534  0.56510  1.0000
  Fe  Fe37      1.0  0.31908  0.09608  0.61782  1.0000
  S   S72       1.0  0.31809  0.05625  0.62994  1.0000
  S   S73       1.0  0.29894  0.12811  0.62976  1.0000
  Fe  Fe38      1.0  0.35850  0.04794  0.61815  1.0000
  S   S74       1.0  0.38838  0.02132  0.62986  1.0000
  Fe  Fe39      1.0  0.30822  0.05011  0.60954  1.0000
  S   S75       1.0  0.27375  0.03428  0.61032  1.0000
  S   S76       1.0  0.36025  0.08833  0.60735  1.0000
  S   S77       1.0  0.30596  0.09073  0.59832  1.0000
  Fe  Fe40      1.0  0.35441  0.22912  0.69604  1.0000
  S   S78       1.0  0.34803  0.18916  0.70149  1.0000
  S   S79       1.0  0.38731  0.24081  0.70119  1.0000
  Fe  Fe41      1.0  0.30958  0.24895  0.68024  1.0000
  S   S80       1.0  0.29994  0.21058  0.68428  1.0000
  Fe  Fe42      1.0  0.30674  0.20702  0.70716  1.0000
  H   H315      1.0  0.23376  0.01991  0.60224  1.0000
  Fe  Fe43      1.0  0.34180  0.19675  0.67815  1.0000
  S   S81       1.0  0.36274  0.17067  0.66229  1.0000
  S   S82       1.0  0.31366  0.24651  0.70349  1.0000
  S   S83       1.0  0.35096  0.23563  0.67220  1.0000
  C   C251      1.0  0.30977  0.22983  0.64338  1.0000
  H   H316      1.0  0.20358  0.25700  0.68356  1.0000
  S   S84       1.0  0.46976  0.06770  0.64628  1.0000
  H   H317      1.0  0.31450  0.99606  0.59797  1.0000
  C   C252      1.0  0.29381  0.30085  0.65380  1.0000
  H   H318      1.0  0.40842  0.04967  0.60051  1.0000
  H   H319      1.0  0.47364  0.10082  0.69462  1.0000
  H   H320      1.0  0.37201  0.19851  0.72351  1.0000
  H   H321      1.0  0.09755  0.23337  0.53399  1.0000
  C   C253      1.0  0.21509  0.23887  0.49223  1.0000
  H   H322      1.0  0.01154  0.32268  0.53559  1.0000
  C   C254      1.0  0.27421  0.01025  0.60096  1.0000
  H   H323      1.0  0.17930  0.25779  0.70974  1.0000
  C   C255      1.0  0.34956  0.24226  0.63194  1.0000
  C   C256      1.0  0.00703  0.07905  0.72246  1.0000
  H   H324      1.0  0.20850  0.24415  0.71613  1.0000
  H   H325      1.0  0.33225  0.29150  0.65745  1.0000
  H   H326      1.0  0.45573  0.01402  0.59455  1.0000
  H   H327      1.0  0.28614  0.03677  0.54631  1.0000
  C   C257      1.0  0.41079  0.03440  0.63450  1.0000
  C   C258      1.0  0.42895  0.01860  0.64239  1.0000
  C   C259      1.0  0.44732  0.02862  0.64597  1.0000
  C   C260      1.0  0.44781  0.05443  0.64143  1.0000
  C   C261      1.0  0.42993  0.07014  0.63334  1.0000
  C   C262      1.0  0.41116  0.06024  0.63015  1.0000
  C   C263      1.0  0.34771  0.01710  0.54461  1.0000
  H   H328      1.0  0.44898  0.03346  0.60795  1.0000
  H   H329      1.0  0.43025  0.09014  0.62984  1.0000
  H   H330      1.0  0.39715  0.07263  0.62425  1.0000
  C   C264      1.0  0.31689  0.13967  0.63878  1.0000
  C   C265      1.0  0.34324  0.13662  0.63445  1.0000
  C   C266      1.0  0.35706  0.14665  0.64157  1.0000
  C   C267      1.0  0.34470  0.15916  0.65330  1.0000
  C   C268      1.0  0.31838  0.16209  0.65769  1.0000
  C   C269      1.0  0.30448  0.15265  0.65030  1.0000
  H   H331      1.0  0.35288  0.12703  0.62540  1.0000
  H   H332      1.0  0.37737  0.14481  0.63791  1.0000
  H   H333      1.0  0.30870  0.17140  0.66684  1.0000
  H   H334      1.0  0.28407  0.15501  0.65368  1.0000
  H   H335      1.0  0.49779  0.11937  0.70231  1.0000
  C   C270      1.0  0.01310  0.29519  0.56255  1.0000
  H   H336      1.0  0.01524  0.24732  0.56076  1.0000
  H   H337      1.0  0.07049  0.23579  0.72723  1.0000
  C   C271      1.0  0.01529  0.05259  0.70392  1.0000
  S   S85       1.0  0.28174  0.28011  0.66946  1.0000
  H   H338      1.0  0.29950  0.01334  0.56051  1.0000
  C   C272      1.0  0.09956  0.27237  0.53146  1.0000
  C   C273      1.0  0.42248  0.22652  0.71916  1.0000
  C   C274      1.0  0.40025  0.22199  0.71639  1.0000
  H   H339      1.0  0.43091  0.24212  0.71228  1.0000
  C   C275      1.0  0.30633  0.30214  0.60561  1.0000
  C   C276      1.0  0.19633  0.26242  0.71204  1.0000
  H   H340      1.0  0.39585  0.12474  0.70761  1.0000
  C   C277      1.0  0.32765  0.32176  0.63859  1.0000
  H   H341      1.0  0.24365  0.29378  0.69344  1.0000
  H   H342      1.0  0.11151  0.00986  0.63747  1.0000
  H   H343      1.0  0.32025  0.21473  0.65099  1.0000
  C   C278      1.0  0.16980  0.31097  0.69998  1.0000
  C   C279      1.0  0.99874  0.12627  0.69115  1.0000
  C   C280      1.0  0.25933  0.23782  0.73389  1.0000
  S   S86       1.0  0.02512  0.00077  0.66370  1.0000
  C   C281      1.0  0.48531  0.03605  0.54994  1.0000
  H   H344      1.0  0.31342  0.08870  0.55244  1.0000
  H   H345      1.0  0.33569  0.05449  0.56905  1.0000
  N   N20       1.0  0.31213  0.04912  0.55552  1.0000
  H   H346      1.0  0.02279  0.28181  0.57118  1.0000
  C   C282      1.0  0.00626  0.30392  0.53750  1.0000
  H   H347      1.0  0.39291  0.02315  0.51332  1.0000
  H   H348      1.0  0.34485  0.25802  0.63816  1.0000
  C   C283      1.0  0.37621  0.02833  0.52151  1.0000
  C   C284      1.0  0.43411  0.21067  0.73062  1.0000
  H   H349      1.0  0.33666  0.28612  0.61695  1.0000
  C   C285      1.0  0.41853  0.04515  0.53583  1.0000
  C   C286      1.0  0.40864  0.03470  0.55041  1.0000
  C   C287      1.0  0.39049  0.04980  0.55939  1.0000
  C   C288      1.0  0.38249  0.07548  0.55387  1.0000
  C   C289      1.0  0.39200  0.08579  0.53919  1.0000
  C   C290      1.0  0.40992  0.07063  0.53015  1.0000
  H   H350      1.0  0.41515  0.01493  0.55477  1.0000
  H   H351      1.0  0.38294  0.04159  0.57059  1.0000
  H   H352      1.0  0.38572  0.10561  0.53483  1.0000
  H   H353      1.0  0.41734  0.07876  0.51886  1.0000
  H   H354      1.0  0.28369  0.08076  0.56207  1.0000
  H   H355      1.0  0.05240  0.23915  0.54399  1.0000
  S   S87       1.0  0.47101  0.02019  0.68347  1.0000
  C   C291      1.0  0.20404  0.31614  0.67884  1.0000
  H   H356      1.0  0.23441  0.00294  0.65238  1.0000
  C   C292      1.0  0.08612  0.29641  0.53325  1.0000
  H   H357      1.0  0.43090  0.08970  0.56209  1.0000
  C   C293      1.0  0.08701  0.25203  0.53554  1.0000
  H   H358      1.0  0.46458  0.08176  0.58718  1.0000
  S   S88       1.0  0.14372  0.32540  0.52800  1.0000
  H   H359      1.0  0.45135  0.21416  0.73262  1.0000
  H   H360      1.0  0.19110  0.00880  0.63430  1.0000
  C   C294      1.0  0.31924  0.30329  0.65055  1.0000
  H   H361      1.0  0.34528  0.21980  0.61004  1.0000
  H   H362      1.0  0.40573  0.06715  0.58229  1.0000
  H   H363      1.0  0.30504  0.04874  0.57898  1.0000
  S   S89       1.0  0.01844  0.09232  0.73423  1.0000
  C   C295      1.0  0.23224  0.28273  0.70287  1.0000
  H   H364      1.0  0.20114  0.00709  0.65985  1.0000
  C   C296      1.0  0.02388  0.06241  0.71387  1.0000
  C   C297      1.0  0.31227  0.25848  0.61967  1.0000
  H   H365      1.0  0.31254  0.32018  0.60178  1.0000
  H   H366      1.0  0.16116  0.30158  0.71067  1.0000
  C   C298      1.0  0.27612  0.27624  0.60698  1.0000
  H   H367      1.0  0.36959  0.06736  0.51088  1.0000
  C   C299      1.0  0.41392  0.08548  0.71042  1.0000
  C   C300      1.0  0.00840  0.27322  0.73111  1.0000
  H   H368      1.0  0.35973  0.22558  0.63890  1.0000
  C   C301      1.0  0.32083  0.04359  0.56978  1.0000
  H   H369      1.0  0.28268  0.23868  0.61933  1.0000
  C   C302      1.0  0.29254  0.03395  0.55698  1.0000
  H   H370      1.0  0.42880  0.99855  0.64578  1.0000
  H   H371      1.0  0.47781  0.03366  0.59458  1.0000
  H   H372      1.0  0.27804  0.24183  0.72928  1.0000
  H   H373      1.0  0.01350  0.29092  0.72496  1.0000
  H   H374      1.0  0.29337  0.22246  0.64234  1.0000
  H   H375      1.0  0.22606  0.29372  0.71196  1.0000
  H   H376      1.0  0.42036  0.16551  0.66306  1.0000
  H   H377      1.0  0.36329  0.24708  0.62154  1.0000
  H   H378      1.0  0.43244  0.09445  0.58461  1.0000
  N   N21       1.0  0.38086  0.08333  0.67379  1.0000
  C   C303      1.0  0.39399  0.09864  0.66053  1.0000
  C   C304      1.0  0.38377  0.05762  0.67065  1.0000
  C   C305      1.0  0.35333  0.09452  0.67612  1.0000
  C   C306      1.0  0.39169  0.08350  0.68665  1.0000
  C   C307      1.0  0.40735  0.06187  0.69358  1.0000
  C   C308      1.0  0.38813  0.10627  0.69198  1.0000
  C   C309      1.0  0.41822  0.06299  0.70528  1.0000
  C   C310      1.0  0.39891  0.10710  0.70377  1.0000
  H   H379      1.0  0.01904  0.31365  0.56078  1.0000
  H   H380      1.0  0.41477  0.09109  0.65865  1.0000
  H   H381      1.0  0.38703  0.09861  0.65042  1.0000
  H   H382      1.0  0.39118  0.11869  0.66163  1.0000
  H   H383      1.0  0.40407  0.04894  0.66730  1.0000
  H   H384      1.0  0.37468  0.05804  0.66123  1.0000
  H   H385      1.0  0.37494  0.04481  0.68040  1.0000
  H   H386      1.0  0.34943  0.11491  0.67670  1.0000
  H   H387      1.0  0.34458  0.09365  0.66681  1.0000
  H   H388      1.0  0.34295  0.08448  0.68653  1.0000
  H   H389      1.0  0.41187  0.04392  0.69003  1.0000
  H   H390      1.0  0.37744  0.12381  0.68686  1.0000
  Fe  Fe44      1.0  0.49783  0.03085  0.69424  1.0000
  C   C311      1.0  0.25099  0.00671  0.59911  1.0000
  C   C312      1.0  0.21958  0.26061  0.68752  1.0000
  C   C313      1.0  0.04663  0.28011  0.54316  1.0000
  H   H391      1.0  0.46114  0.01633  0.65219  1.0000
  H   H392      1.0  0.24538  0.26502  0.70672  1.0000
  H   H393      1.0  0.48407  0.05715  0.52786  1.0000
  C   C314      1.0  0.34226  0.06033  0.53106  1.0000
  C   C315      1.0  0.45556  0.05443  0.57013  1.0000
  C   C316      1.0  0.19449  0.30126  0.69254  1.0000
  N   N22       1.0  0.01888  0.28499  0.54873  1.0000
  H   H394      1.0  0.32895  0.02328  0.57319  1.0000
  H   H395      1.0  0.23266  0.26876  0.67772  1.0000
  H   H396      1.0  0.34642  0.19872  0.62758  1.0000
  S   S90       1.0  0.46848  0.08384  0.49643  1.0000
  C   C317      1.0  0.29986  0.07629  0.55292  1.0000
  H   H397      1.0  0.38555  0.10373  0.48875  1.0000
  C   C318      1.0  0.36858  0.01029  0.53370  1.0000
  H   H398      1.0  0.02851  0.04030  0.69705  1.0000
  H   H399      1.0  0.23068  0.24197  0.69208  1.0000
  H   H400      1.0  0.05060  0.31946  0.53994  1.0000
  C   C319      1.0  0.41748  0.05098  0.58862  1.0000
  C   C320      1.0  0.33390  0.04236  0.54366  1.0000
  H   H401      1.0  0.43041  0.04637  0.71028  1.0000
  C   C321      1.0  0.45733  0.07602  0.54418  1.0000
  C   C322      1.0  0.25445  0.21400  0.73436  1.0000
  H   H402      1.0  0.00407  0.14255  0.70843  1.0000
  N   N23       1.0  0.46289  0.14726  0.70301  1.0000
  H   H403      1.0  0.05798  0.28344  0.72106  1.0000
  C   C323      1.0  0.45601  0.17468  0.70340  1.0000
  C   C324      1.0  0.45104  0.13353  0.71742  1.0000
  C   C325      1.0  0.45462  0.14059  0.69087  1.0000
  C   C326      1.0  0.43852  0.15821  0.68187  1.0000
  C   C327      1.0  0.46257  0.11572  0.68778  1.0000
  C   C328      1.0  0.43247  0.15172  0.66989  1.0000
  C   C329      1.0  0.45661  0.10955  0.67569  1.0000
  C   C330      1.0  0.44209  0.12768  0.66657  1.0000
  C   C331      1.0  0.28436  0.29921  0.60196  1.0000
  H   H404      1.0  0.33352  0.08012  0.52949  1.0000
  H   H405      1.0  0.01825  0.11627  0.68920  1.0000
  H   H406      1.0  0.46380  0.18630  0.69275  1.0000
  H   H407      1.0  0.46351  0.17917  0.71221  1.0000
  H   H408      1.0  0.43510  0.18120  0.70594  1.0000
  H   H409      1.0  0.19034  0.27270  0.72144  1.0000
  C   C332      1.0  0.05590  0.28338  0.73303  1.0000
  H   H410      1.0  0.42999  0.13905  0.71925  1.0000
  H   H411      1.0  0.43049  0.17722  0.68376  1.0000
  Fe  Fe45      1.0  0.17502  0.31448  0.50947  1.0000
  C   C333      1.0  0.06014  0.30031  0.53907  1.0000
  H   H412      1.0  0.07448  0.28568  0.73471  1.0000
  N   N24       1.0  0.21019  0.27719  0.69870  1.0000
  C   C334      1.0  0.44665  0.07481  0.55919  1.0000
  C   C335      1.0  0.06093  0.25569  0.54130  1.0000
  H   H413      1.0  0.25732  0.31454  0.64743  1.0000
  H   H414      1.0  0.43827  0.12304  0.65693  1.0000
  H   H415      1.0  0.45715  0.13775  0.72686  1.0000
  C   C336      1.0  0.00740  0.26212  0.55195  1.0000
  H   H416      1.0  0.25901  0.27403  0.60409  1.0000
  H   H417      1.0  0.34279  0.00252  0.55397  1.0000
  H   H418      1.0  0.11970  0.26957  0.52672  1.0000
  H   H419      1.0  0.42258  0.08612  0.71943  1.0000
  N   N25       1.0  0.32637  0.23686  0.62891  1.0000
  S   S91       1.0  0.48200  0.04567  0.71533  1.0000
  C   C337      1.0  0.03384  0.32461  0.49879  1.0000
  H   H420      1.0  0.29218  0.08187  0.54253  1.0000
  H   H421      1.0  0.45608  0.11271  0.71814  1.0000
  H   H422      1.0  0.30213  0.24640  0.64894  1.0000
  C   C338      1.0  0.28982  0.25613  0.61569  1.0000
  C   C339      1.0  0.32011  0.28222  0.61438  1.0000
  H   H423      1.0  0.31791  0.20717  0.62051  1.0000
  H   H424      1.0  0.04215  0.30056  0.73594  1.0000
  C   C340      1.0  0.49433  0.07716  0.72960  1.0000
  C   C341      1.0  0.38936  0.20189  0.72537  1.0000
  C   C342      1.0  0.33429  0.21477  0.62142  1.0000
  C   C343      1.0  0.27699  0.31643  0.64500  1.0000
  H   H425      1.0  0.22782  0.23077  0.49997  1.0000
  S   S92       1.0  0.27787  0.19122  0.72609  1.0000
  H   H426      1.0  0.22300  0.31048  0.67280  1.0000
  H   H427      1.0  0.43829  0.07743  0.60217  1.0000
  H   H428      1.0  0.27557  0.03914  0.56554  1.0000
  H   H429      1.0  0.44998  0.09157  0.53600  1.0000
  H   H430      1.0  0.48261  0.01822  0.57241  1.0000
  C   C344      1.0  0.49090  0.14003  0.70139  1.0000
  C   C345      1.0  0.36304  0.05324  0.52017  1.0000
  H   H431      1.0  0.27368  0.31485  0.59526  1.0000
  H   H432      1.0  0.09574  0.31231  0.52967  1.0000
  H   H433      1.0  0.46343  0.09062  0.67330  1.0000
  C   C346      1.0  0.47655  0.05664  0.53957  1.0000
  S   S93       1.0  0.01467  0.30790  0.49384  1.0000
  C   C347      1.0  0.06033  0.31730  0.49556  1.0000
  H   H434      1.0  0.46341  0.99751  0.71871  1.0000
  H   H435      1.0  0.99901  0.01847  0.73696  1.0000
  H   H436      1.0  0.09631  0.32391  0.49752  1.0000
  C   C348      1.0  0.40095  0.18609  0.73684  1.0000
  H   H437      1.0  0.47632  0.07595  0.73703  1.0000
  H   H438      1.0  0.06882  0.30160  0.48991  1.0000
  C   C349      1.0  0.29654  0.99363  0.59637  1.0000
  H   H439      1.0  0.41008  0.23277  0.92330  1.0000
  Fe  Fe46      1.0  0.03491  0.19020  0.95316  1.0000
  S   S94       1.0  0.04093  0.17295  0.93321  1.0000
  H   H440      1.0  0.19997  0.31125  0.82940  1.0000
  H   H441      1.0  0.48948  0.07590  0.93438  1.0000
  H   H442      1.0  0.47189  0.01283  0.80268  1.0000
  H   H443      1.0  0.26506  0.26555  0.90272  1.0000
  C   C350      1.0  0.07594  0.25056  0.85698  1.0000
  C   C351      1.0  0.23929  0.25399  0.83023  1.0000
  Fe  Fe47      1.0  0.02930  0.21274  0.92151  1.0000
  S   S95       1.0  0.05394  0.22636  0.89983  1.0000
  H   H444      1.0  0.43771  0.20342  0.94817  1.0000
  S   S96       1.0  0.02602  0.23016  0.94112  1.0000
  H   H445      1.0  0.22637  0.24234  0.77753  1.0000
  C   C352      1.0  0.37743  0.26186  0.94592  1.0000
  H   H446      1.0  0.19020  0.30558  0.91767  1.0000
  H   H447      1.0  0.44418  0.28075  0.95775  1.0000
  N   N26       1.0  0.38818  0.27816  0.93221  1.0000
  S   S97       1.0  0.22457  0.29923  0.88979  1.0000
  C   C353      1.0  0.49165  0.02236  0.81745  1.0000
  H   H448      1.0  0.13337  0.26126  0.91639  1.0000
  S   S98       1.0  0.45031  0.03795  0.87912  1.0000
  H   H449      1.0  0.47328  0.22716  0.98309  1.0000
  H   H450      1.0  0.02120  0.20416  0.79466  1.0000
  Fe  Fe48      1.0  0.32797  0.20966  0.95027  1.0000
  S   S99       1.0  0.33464  0.19136  0.97307  1.0000
  S   S100      1.0  0.36098  0.20920  0.93114  1.0000
  Fe  Fe49      1.0  0.27304  0.23168  0.96102  1.0000
  C   C354      1.0  0.02810  0.10206  0.96055  1.0000
  S   S101      1.0  0.23549  0.25534  0.95654  1.0000
  H   H451      1.0  0.07043  0.23219  0.85765  1.0000
  C   C355      1.0  0.21106  0.22724  0.74696  1.0000
  H   H452      1.0  0.07992  0.25015  0.86799  1.0000
  H   H453      1.0  0.08772  0.24110  0.73984  1.0000
  S   S102      1.0  0.30865  0.24737  0.95610  1.0000
  S   S103      1.0  0.29189  0.19543  0.95300  1.0000
  Fe  Fe50      1.0  0.47947  0.16948  0.75205  1.0000
  H   H454      1.0  0.48769  0.23973  0.91533  1.0000
  S   S104      1.0  0.43841  0.16905  0.75317  1.0000
  C   C356      1.0  0.46778  0.24741  0.91894  1.0000
  C   C357      1.0  0.03529  0.19510  0.78650  1.0000
  N   N27       1.0  0.04829  0.25980  0.74240  1.0000
  H   H455      1.0  0.42676  0.09689  0.95649  1.0000
  N   N28       1.0  0.45054  0.09530  0.93509  1.0000
  H   H456      1.0  0.39253  0.17047  0.74370  1.0000
  H   H457      1.0  0.31993  0.28306  0.96958  1.0000
  N   N29       1.0  0.05594  0.27238  0.85274  1.0000
  H   H458      1.0  0.18880  0.29913  0.80922  1.0000
  S   S105      1.0  0.14864  0.23309  0.78162  1.0000
  Fe  Fe51      1.0  0.11552  0.23125  0.77218  1.0000
  H   H459      1.0  0.08901  0.09261  0.94180  1.0000
  S   S106      1.0  0.10886  0.19591  0.76694  1.0000
  H   H460      1.0  0.03149  0.27778  0.76118  1.0000
  H   H461      1.0  0.37957  0.24205  0.94451  1.0000
  C   C358      1.0  0.46062  0.27057  0.92358  1.0000
  H   H462      1.0  0.03867  0.11926  0.93145  1.0000
  H   H463      1.0  0.44186  0.00482  0.84383  1.0000
  H   H464      1.0  0.11275  0.14810  0.97187  1.0000
  H   H465      1.0  0.06504  0.21231  0.78872  1.0000
  H   H466      1.0  0.45958  0.08374  0.95688  1.0000
  H   H467      1.0  0.39040  0.30533  0.94478  1.0000
  H   H468      1.0  0.47706  0.14152  0.85891  1.0000
  C   C359      1.0  0.48525  0.02354  0.80360  1.0000
  C   C360      1.0  0.01479  0.23326  0.74820  1.0000
  S   S107      1.0  0.12853  0.29510  0.77593  1.0000
  C   C361      1.0  0.23108  0.24756  0.78712  1.0000
  H   H469      1.0  0.39892  0.07856  0.94797  1.0000
  H   H470      1.0  0.47752  0.99712  0.85472  1.0000
  C   C362      1.0  0.44936  0.23414  0.91886  1.0000
  C   C363      1.0  0.21583  0.25138  0.74584  1.0000
  H   H471      1.0  0.24395  0.27501  0.73886  1.0000
  C   C364      1.0  0.01405  0.11874  0.84352  1.0000
  C   C365      1.0  0.05170  0.04536  0.94743  1.0000
  C   C366      1.0  0.17267  0.25024  0.91702  1.0000
  N   N30       1.0  0.11175  0.23832  0.94400  1.0000
  C   C367      1.0  0.13607  0.28186  0.83693  1.0000
  H   H472      1.0  0.11142  0.20660  0.93463  1.0000
  H   H473      1.0  0.46274  0.12898  0.92147  1.0000
  S   S108      1.0  0.19163  0.27614  0.75124  1.0000
  C   C368      1.0  0.14275  0.30154  0.84129  1.0000
  Fe  Fe52      1.0  0.45149  0.06206  0.89488  1.0000
  C   C369      1.0  0.39467  0.12671  0.92092  1.0000
  C   C370      1.0  0.37484  0.13350  0.93381  1.0000
  C   C371      1.0  0.36487  0.15793  0.93672  1.0000
  C   C372      1.0  0.37324  0.17863  0.92744  1.0000
  C   C373      1.0  0.39159  0.17504  0.91509  1.0000
  C   C374      1.0  0.40153  0.15085  0.91182  1.0000
  H   H474      1.0  0.36589  0.11999  0.94242  1.0000
  H   H475      1.0  0.35034  0.16063  0.94642  1.0000
  H   H476      1.0  0.39805  0.19134  0.90766  1.0000
  H   H477      1.0  0.41504  0.15223  0.90149  1.0000
  C   C375      1.0  0.48029  0.09516  0.82639  1.0000
  H   H478      1.0  0.18470  0.26523  0.78190  1.0000
  C   C376      1.0  0.23356  0.03565  0.98352  1.0000
  C   C377      1.0  0.07650  0.32407  0.86487  1.0000
  C   C378      1.0  0.14420  0.32464  0.83155  1.0000
  C   C379      1.0  0.47363  0.10713  0.81270  1.0000
  H   H479      1.0  0.44146  0.16388  0.82126  1.0000
  H   H480      1.0  0.45530  0.10672  0.81065  1.0000
  H   H481      1.0  0.17959  0.23417  0.81322  1.0000
  C   C380      1.0  0.22731  0.27725  0.83412  1.0000
  H   H482      1.0  0.12237  0.10350  0.98461  1.0000
  N   N31       1.0  0.04957  0.09070  0.94995  1.0000
  H   H483      1.0  0.24050  0.26420  0.78266  1.0000
  H   H484      1.0  0.49008  0.03995  0.78028  1.0000
  C   C381      1.0  0.30225  0.08631  0.97210  1.0000
  H   H485      1.0  0.39079  0.31764  0.92521  1.0000
  H   H486      1.0  0.26119  0.15610  0.96735  1.0000
  C   C382      1.0  0.13165  0.30839  0.81312  1.0000
  C   C383      1.0  0.07089  0.31314  0.83861  1.0000
  H   H487      1.0  0.03173  0.09719  0.97198  1.0000
  C   C384      1.0  0.22446  0.11201  0.98424  1.0000
  H   H488      1.0  0.35675  0.26873  0.94942  1.0000
  S   S109      1.0  0.06629  0.18084  0.96609  1.0000
  H   H489      1.0  0.29174  0.99870  0.97624  1.0000
  H   H490      1.0  0.06448  0.26404  0.76003  1.0000
  C   C385      1.0  0.07005  0.02670  0.97379  1.0000
  H   H491      1.0  0.33646  0.32289  0.96014  1.0000
  C   C386      1.0  0.06440  0.29615  0.85210  1.0000
  H   H492      1.0  0.44031  0.06529  0.95293  1.0000
  H   H493      1.0  0.44055  0.14509  0.84773  1.0000
  C   C387      1.0  0.42350  0.19023  0.73937  1.0000
  C   C388      1.0  0.10108  0.22636  0.93500  1.0000
  C   C389      1.0  0.34146  0.31045  0.97010  1.0000
  H   H494      1.0  0.47977  0.17868  0.80576  1.0000
  H   H495      1.0  0.13538  0.26398  0.84451  1.0000
  C   C390      1.0  0.06008  0.19985  0.78310  1.0000
  H   H496      1.0  0.11485  0.20412  0.96061  1.0000
  Fe  Fe53      1.0  0.15390  0.26628  0.76319  1.0000
  H   H497      1.0  0.04368  0.25258  0.83934  1.0000
  C   C391      1.0  0.22733  0.28693  0.90839  1.0000
  C   C392      1.0  0.20765  0.29335  0.91998  1.0000
  C   C393      1.0  0.21040  0.28359  0.93472  1.0000
  C   C394      1.0  0.23277  0.26722  0.93796  1.0000
  C   C395      1.0  0.25245  0.26065  0.92640  1.0000
  C   C396      1.0  0.24977  0.27062  0.91164  1.0000
  H   H498      1.0  0.04442  0.05128  0.93727  1.0000
  H   H499      1.0  0.19509  0.28858  0.94364  1.0000
  H   H500      1.0  0.26975  0.24796  0.92883  1.0000
  C   C397      1.0  0.08412  0.29325  0.90458  1.0000
  C   C398      1.0  0.05952  0.28998  0.91153  1.0000
  C   C399      1.0  0.05019  0.26966  0.90985  1.0000
  C   C400      1.0  0.06565  0.25208  0.90155  1.0000
  C   C401      1.0  0.09036  0.25525  0.89458  1.0000
  C   C402      1.0  0.09952  0.27602  0.89597  1.0000
  H   H501      1.0  0.06616  0.22016  0.74622  1.0000
  H   H502      1.0  0.03084  0.26782  0.91483  1.0000
  H   H503      1.0  0.10251  0.24156  0.88825  1.0000
  H   H504      1.0  0.17830  0.26044  0.90587  1.0000
  H   H505      1.0  0.03366  0.14469  0.98029  1.0000
  H   H506      1.0  0.02443  0.09247  0.93518  1.0000
  H   H507      1.0  0.19871  0.21467  0.94605  1.0000
  S   S110      1.0  0.12348  0.26201  0.75251  1.0000
  C   C403      1.0  0.40604  0.20489  0.96630  1.0000
  H   H508      1.0  0.27566  0.30258  0.92470  1.0000
  H   H509      1.0  0.36210  0.31194  0.93765  1.0000
  H   H510      1.0  0.43887  0.13421  0.93746  1.0000
  C   C404      1.0  0.46864  0.24735  0.97764  1.0000
  H   H511      1.0  0.21106  0.23684  0.92043  1.0000
  H   H512      1.0  0.10605  0.27484  0.94978  1.0000
  S   S111      1.0  0.48526  0.30810  0.98254  1.0000
  C   C405      1.0  0.18413  0.22442  0.93965  1.0000
  C   C406      1.0  0.19118  0.23699  0.92521  1.0000
  H   H513      1.0  0.15448  0.21426  0.95710  1.0000
  C   C407      1.0  0.42869  0.21145  0.95794  1.0000
  Fe  Fe54      1.0  0.09748  0.28766  0.76700  1.0000
  C   C408      1.0  0.13051  0.28518  0.82283  1.0000
  H   H514      1.0  0.03633  0.28645  0.83439  1.0000
  S   S112      1.0  0.08743  0.25678  0.78611  1.0000
  C   C409      1.0  0.49741  0.30318  0.96433  1.0000
  H   H515      1.0  0.44347  0.01195  0.82433  1.0000
  C   C410      1.0  0.47841  0.14974  0.84730  1.0000
  N   N32       1.0  0.20810  0.25347  0.79849  1.0000
  C   C411      1.0  0.24008  0.25648  0.73954  1.0000
  C   C412      1.0  0.19722  0.23030  0.80481  1.0000
  C   C413      1.0  0.27512  0.06239  0.96686  1.0000
  C   C414      1.0  0.21478  0.26221  0.81046  1.0000
  C   C415      1.0  0.20307  0.28591  0.81465  1.0000
  C   C416      1.0  0.23319  0.24653  0.81858  1.0000
  Fe  Fe55      1.0  0.99926  0.17252  0.93946  1.0000
  C   C417      1.0  0.48709  0.31880  0.95243  1.0000
  H   H516      1.0  0.06837  0.26911  0.82974  1.0000
  H   H517      1.0  0.23186  0.28293  0.84324  1.0000
  H   H518      1.0  0.21060  0.21461  0.81024  1.0000
  C   C418      1.0  0.45158  0.01512  0.83325  1.0000
  C   C419      1.0  0.06436  0.05276  0.96860  1.0000
  H   H519      1.0  0.24282  0.22822  0.81607  1.0000
  H   H520      1.0  0.04159  0.24415  0.76586  1.0000
  N   N33       1.0  0.47956  0.00673  0.83105  1.0000
  S   S113      1.0  0.09533  0.31824  0.90766  1.0000
  C   C420      1.0  0.49560  0.03893  0.79070  1.0000
  Fe  Fe56      1.0  0.48896  0.01779  0.88312  1.0000
  C   C421      1.0  0.03010  0.11520  0.83012  1.0000
  S   S114      1.0  0.41933  0.06881  0.91414  1.0000
  H   H521      1.0  0.24525  0.23138  0.79146  1.0000
  C   C422      1.0  0.43003  0.09709  0.92734  1.0000
  C   C423      1.0  0.43430  0.10869  0.90852  1.0000
  C   C424      1.0  0.40199  0.08696  0.93637  1.0000
  C   C425      1.0  0.41045  0.11100  0.89890  1.0000
  C   C426      1.0  0.37832  0.08932  0.92660  1.0000
  C   C427      1.0  0.38256  0.10174  0.90806  1.0000
  H   H522      1.0  0.47862  0.24941  0.96590  1.0000
  C   C428      1.0  0.45611  0.12083  0.93327  1.0000
  S   S115      1.0  0.49544  0.19065  0.76416  1.0000
  H   H523      1.0  0.45164  0.11476  0.90266  1.0000
  C   C429      1.0  0.47346  0.07857  0.92856  1.0000
  H   H524      1.0  0.41324  0.11792  0.88708  1.0000
  H   H525      1.0  0.36114  0.08239  0.93212  1.0000
  H   H526      1.0  0.36799  0.10272  0.90197  1.0000
  C   C430      1.0  0.07262  0.14920  0.97507  1.0000
  H   H527      1.0  0.25326  0.24163  0.83635  1.0000
  H   H528      1.0  0.11388  0.23284  0.96704  1.0000
  C   C431      1.0  0.28845  0.08228  0.96262  1.0000
  H   H529      1.0  0.14692  0.29868  0.85217  1.0000
  C   C432      1.0  0.02391  0.25556  0.74042  1.0000
  C   C433      1.0  0.04243  0.09831  0.93512  1.0000
  C   C434      1.0  0.05080  0.27019  0.83842  1.0000
  C   C435      1.0  0.04683  0.16744  0.76869  1.0000
  C   C436      1.0  0.27489  0.04609  0.98091  1.0000
  H   H530      1.0  0.31189  0.10226  0.96900  1.0000
  C   C437      1.0  0.43966  0.22848  0.96201  1.0000
  H   H531      1.0  0.22631  0.13873  0.96359  1.0000
  C   C438      1.0  0.47920  0.17115  0.81748  1.0000
  H   H532      1.0  0.45680  0.23352  0.95486  1.0000
  H   H533      1.0  0.47516  0.28079  0.92355  1.0000
  C   C439      1.0  0.43493  0.28075  0.92799  1.0000
  H   H534      1.0  0.19218  0.22298  0.79612  1.0000
  H   H535      1.0  0.07742  0.26593  0.94841  1.0000
  C   C440      1.0  0.37453  0.27855  0.92036  1.0000
  H   H536      1.0  0.02451  0.25366  0.86395  1.0000
  H   H537      1.0  0.37450  0.25925  0.91885  1.0000
  H   H538      1.0  0.35413  0.28752  0.92293  1.0000
  H   H539      1.0  0.38318  0.28910  0.90954  1.0000
  H   H540      1.0  0.47132  0.12047  0.93924  1.0000
  C   C441      1.0  0.05737  0.01926  0.95275  1.0000
  N   N34       1.0  0.26027  0.02538  0.98520  1.0000
  C   C442      1.0  0.27150  0.00661  0.97547  1.0000
  C   C443      1.0  0.23416  0.13131  0.97354  1.0000
  C   C444      1.0  0.25383  0.14126  0.97568  1.0000
  H   H541      1.0  0.01040  0.09544  0.96089  1.0000
  C   C445      1.0  0.33211  0.28789  0.97542  1.0000
  C   C446      1.0  0.35687  0.31721  0.97776  1.0000
  S   S116      1.0  0.15961  0.30730  0.87720  1.0000
  C   C447      1.0  0.02854  0.17917  0.77918  1.0000
  H   H542      1.0  0.09405  0.25121  0.84883  1.0000
  H   H543      1.0  0.38665  0.26138  0.95526  1.0000
  C   C448      1.0  0.10656  0.22470  0.95958  1.0000
  C   C449      1.0  0.44392  0.08486  0.95107  1.0000
  C   C450      1.0  0.42364  0.24402  0.92334  1.0000
  C   C451      1.0  0.02037  0.12167  0.81715  1.0000
  H   H544      1.0  0.17083  0.27671  0.79846  1.0000
  Fe  Fe57      1.0  0.31278  0.22809  0.97925  1.0000
  C   C452      1.0  0.13908  0.23781  0.93783  1.0000
  H   H545      1.0  0.44613  0.03572  0.83358  1.0000
  H   H546      1.0  0.48478  0.13010  0.79141  1.0000
  H   H547      1.0  0.07710  0.09952  0.96001  1.0000
  C   C453      1.0  0.07172  0.17202  0.76539  1.0000
  H   H548      1.0  0.23144  0.04339  0.97185  1.0000
  H   H549      1.0  0.06703  0.06488  0.97530  1.0000
  H   H550      1.0  0.08077  0.22548  0.93960  1.0000
  C   C454      1.0  0.23042  0.20854  0.74123  1.0000
  S   S117      1.0  0.45872  0.07970  0.84015  1.0000
  H   H551      1.0  0.07007  0.30971  0.82800  1.0000
  C   C455      1.0  0.38284  0.30437  0.93504  1.0000
  H   H552      1.0  0.47764  0.25833  0.98271  1.0000
  C   C456      1.0  0.14700  0.25068  0.92319  1.0000
  H   H553      1.0  0.45518  0.21606  0.91526  1.0000
  H   H554      1.0  0.43077  0.29885  0.93134  1.0000
  H   H555      1.0  0.09891  0.27600  0.93217  1.0000
  H   H556      1.0  0.04752  0.30335  0.91814  1.0000
  H   H557      1.0  0.10197  0.23689  0.92343  1.0000
  C   C457      1.0  0.09799  0.26487  0.94360  1.0000
  H   H558      1.0  0.45627  0.99754  0.74537  1.0000
  C   C458      1.0  0.49041  0.12019  0.80175  1.0000
  H   H559      1.0  0.11859  0.27836  0.89063  1.0000
  Fe  Fe58      1.0  0.47129  0.06515  0.86198  1.0000
  C   C459      1.0  0.45763  0.16274  0.82618  1.0000
  H   H560      1.0  0.07711  0.01955  0.98406  1.0000
  C   C460      1.0  0.45720  0.15213  0.84108  1.0000
  C   C461      1.0  0.41557  0.26785  0.92784  1.0000
  C   C462      1.0  0.07827  0.18860  0.77239  1.0000
  C   C463      1.0  0.15851  0.22459  0.94591  1.0000
  H   H561      1.0  0.04177  0.15511  0.76299  1.0000
  H   H562      1.0  0.46940  0.05956  0.92908  1.0000
  H   H563      1.0  0.41492  0.28905  0.97034  1.0000
  S   S118      1.0  0.06727  0.31725  0.75741  1.0000
  Fe  Fe59      1.0  0.12118  0.26177  0.79381  1.0000
  H   H564      1.0  0.08582  0.22591  0.96392  1.0000
  S   S119      1.0  0.12223  0.25991  0.81779  1.0000
  C   C464      1.0  0.05529  0.06296  0.95517  1.0000
  H   H565      1.0  0.48041  0.08620  0.91671  1.0000
  S   S120      1.0  0.46903  0.09120  0.87726  1.0000
  S   S121      1.0  0.19944  0.10062  0.98114  1.0000
  C   C465      1.0  0.18917  0.27237  0.79081  1.0000
  H   H566      1.0  0.08578  0.16314  0.75714  1.0000
  C   C466      1.0  0.03228  0.27045  0.86396  1.0000
  H   H567      1.0  0.19619  0.29022  0.78544  1.0000
  Fe  Fe60      1.0  0.29677  0.18035  0.97660  1.0000
  H   H568      1.0  0.03534  0.26793  0.87546  1.0000
  C   C467      1.0  0.20934  0.29318  0.82630  1.0000
  C   C468      1.0  0.06661  0.00995  0.96587  1.0000
  Fe  Fe61      1.0  0.18712  0.32286  0.88500  1.0000
  H   H569      1.0  0.05772  0.09041  0.92653  1.0000
  H   H570      1.0  0.12696  0.31141  0.80234  1.0000
  H   H571      1.0  0.39729  0.19205  0.96298  1.0000
  H   H572      1.0  0.06880  0.12240  0.94458  1.0000
  H   H573      1.0  0.02401  0.12310  0.95749  1.0000
  H   H574      1.0  0.27084  0.01506  0.96366  1.0000
  N   N35       1.0  0.44072  0.25649  0.97928  1.0000
  H   H575      1.0  0.26461  0.06019  0.95911  1.0000
  H   H576      1.0  0.44380  0.29576  0.97259  1.0000
  S   S122      1.0  0.27537  0.21558  0.98487  1.0000
  H   H577      1.0  0.19236  0.22314  0.75185  1.0000
  C   C469      1.0  0.09752  0.13770  0.97661  1.0000
  H   H578      1.0  0.28759  0.09504  0.95206  1.0000
  C   C470      1.0  0.04631  0.26144  0.75803  1.0000
  C   C471      1.0  0.43568  0.28155  0.96953  1.0000
  H   H579      1.0  0.22660  0.19003  0.74178  1.0000
  H   H580      1.0  0.03290  0.11929  0.80666  1.0000
  H   H581      1.0  0.06304  0.29042  0.87582  1.0000
  H   H582      1.0  0.48269  0.02818  0.84649  1.0000
  C   C472      1.0  0.07207  0.10169  0.94905  1.0000
  H   H583      1.0  0.05016  0.10764  0.82975  1.0000
  H   H584      1.0  0.02529  0.21917  0.75565  1.0000
  H   H585      1.0  0.02162  0.11383  0.85362  1.0000
  C   C473      1.0  0.42870  0.23872  0.97500  1.0000
  C   C474      1.0  0.39432  0.21529  0.97880  1.0000
  H   H586      1.0  0.11959  0.32062  0.74528  1.0000
  C   C475      1.0  0.06736  0.30243  0.86520  1.0000
  C   C476      1.0  0.40535  0.23196  0.98313  1.0000
  C   C477      1.0  0.48748  0.00839  0.84466  1.0000
  H   H587      1.0  0.01739  0.28764  0.86197  1.0000
  C   C478      1.0  0.49716  0.31469  0.93800  1.0000
  H   H588      1.0  0.49205  0.11846  0.89045  1.0000
  C   C479      1.0  0.05300  0.13569  0.98121  1.0000
  S   S123      1.0  0.48852  0.03947  0.90046  1.0000
  C   C480      1.0  0.06897  0.23836  0.73872  1.0000
  H   H589      1.0  0.05449  0.00615  0.94670  1.0000
  C   C481      1.0  0.30283  0.07044  0.98585  1.0000
  H   H590      1.0  0.48259  0.15931  0.89895  1.0000
  H   H591      1.0  0.00230  0.04716  0.75203  1.0000
  H   H592      1.0  0.37641  0.21052  0.98519  1.0000
  C   C482      1.0  0.10295  0.11252  0.98397  1.0000
  C   C483      1.0  0.26209  0.31850  0.92844  1.0000
  H   H593      1.0  0.26998  0.30801  0.95048  1.0000
  C   C484      1.0  0.25896  0.32156  0.94297  1.0000
  H   H594      1.0  0.44944  0.34795  0.18924  1.0000
  H   H595      1.0  0.44110  0.33740  0.07725  1.0000
  S   S124      1.0  0.42121  0.57718  0.01666  1.0000
  S   S125      1.0  0.21794  0.62024  0.20575  1.0000
  S   S126      1.0  0.19696  0.55517  0.21456  1.0000
  C   C485      1.0  0.42070  0.45086  0.03626  1.0000
  H   H596      1.0  0.27413  0.41080  0.21490  1.0000
  C   C486      1.0  0.40796  0.49555  0.99771  1.0000
  H   H597      1.0  0.08094  0.54362  0.23333  1.0000
  H   H598      1.0  0.01527  0.54710  0.11021  1.0000
  C   C487      1.0  0.45054  0.36416  0.17976  1.0000
  C   C488      1.0  0.48860  0.50446  0.18229  1.0000
  S   S127      1.0  0.39681  0.52017  0.00787  1.0000
  H   H599      1.0  0.37469  0.33994  0.15322  1.0000
  H   H600      1.0  0.01697  0.60757  0.11725  1.0000
  H   H601      1.0  0.36299  0.35283  0.19741  1.0000
  H   H602      1.0  0.35093  0.55857  0.99762  1.0000
  Fe  Fe62      1.0  0.02695  0.45982  0.19094  1.0000
  C   C489      1.0  0.46832  0.40165  0.23170  1.0000
  C   C490      1.0  0.42200  0.34660  0.05870  1.0000
  Fe  Fe63      1.0  0.06644  0.48538  0.19623  1.0000
  S   S128      1.0  0.04645  0.52396  0.18716  1.0000
  S   S129      1.0  0.10552  0.48020  0.20130  1.0000
  S   S130      1.0  0.45306  0.60972  0.07973  1.0000
  H   H603      1.0  0.35880  0.60046  0.02833  1.0000
  Fe  Fe64      1.0  0.04200  0.50618  0.16931  1.0000
  S   S131      1.0  0.05260  0.52697  0.14605  1.0000
  S   S132      1.0  0.03103  0.47349  0.21071  1.0000
  S   S133      1.0  0.06429  0.46812  0.17742  1.0000
  C   C491      1.0  0.46751  0.43544  0.04845  1.0000
  H   H604      1.0  0.43859  0.38150  0.18358  1.0000
  H   H605      1.0  0.00973  0.63215  0.00205  1.0000
  H   H606      1.0  0.47049  0.36719  0.17703  1.0000
  H   H607      1.0  0.37757  0.47566  0.00893  1.0000
  H   H608      1.0  0.15710  0.57248  0.15702  1.0000
  H   H609      1.0  0.02712  0.50768  0.12674  1.0000
  Fe  Fe65      1.0  0.41951  0.55146  0.00177  1.0000
  H   H610      1.0  0.44557  0.44766  0.00850  1.0000
  H   H611      1.0  0.35974  0.55962  0.02176  1.0000
  C   C492      1.0  0.13961  0.58428  0.15434  1.0000
  C   C493      1.0  0.41639  0.35473  0.17014  1.0000
  C   C494      1.0  0.05524  0.33547  0.15104  1.0000
  H   H612      1.0  0.43396  0.61864  0.05310  1.0000
  H   H613      1.0  0.32784  0.34513  0.22209  1.0000
  C   C495      1.0  0.01288  0.59109  0.12543  1.0000
  C   C496      1.0  0.03282  0.57214  0.12999  1.0000
  C   C497      1.0  0.02761  0.55090  0.14072  1.0000
  H   H614      1.0  0.17158  0.61841  0.19914  1.0000
  C   C498      1.0  0.30558  0.55666  0.20885  1.0000
  H   H615      1.0  0.02912  0.44287  0.16321  1.0000
  H   H616      1.0  0.05227  0.57400  0.12527  1.0000
  H   H617      1.0  0.04279  0.36527  0.17074  1.0000
  S   S134      1.0  0.46121  0.60263  0.98823  1.0000
  H   H618      1.0  0.20196  0.64689  0.16017  1.0000
  C   C499      1.0  0.40463  0.63267  0.16883  1.0000
  H   H619      1.0  0.48207  0.55166  0.18648  1.0000
  H   H620      1.0  0.39523  0.61737  0.17516  1.0000
  C   C500      1.0  0.44674  0.39405  0.23012  1.0000
  H   H621      1.0  0.47990  0.64968  0.00958  1.0000
  H   H622      1.0  0.45925  0.33486  0.15093  1.0000
  Fe  Fe66      1.0  0.41926  0.60831  0.99659  1.0000
  C   C501      1.0  0.13621  0.49989  0.21254  1.0000
  C   C502      1.0  0.24120  0.63255  0.21009  1.0000
  C   C503      1.0  0.24793  0.62462  0.22402  1.0000
  C   C504      1.0  0.26632  0.63485  0.22739  1.0000
  H   H623      1.0  0.40551  0.36078  0.19313  1.0000
  S   S135      1.0  0.00653  0.64348  0.08926  1.0000
  C   C505      1.0  0.35476  0.57718  0.01417  1.0000
  H   H624      1.0  0.06721  0.34660  0.14194  1.0000
  H   H625      1.0  0.48451  0.36312  0.06268  1.0000
  H   H626      1.0  0.32593  0.43328  0.23236  1.0000
  H   H627      1.0  0.07404  0.32879  0.11769  1.0000
  C   C506      1.0  0.12282  0.63298  0.18024  1.0000
  H   H628      1.0  0.15169  0.48763  0.20678  1.0000
  C   C507      1.0  0.47731  0.52509  0.15862  1.0000
  C   C508      1.0  0.11112  0.49956  0.21206  1.0000
  C   C509      1.0  0.09118  0.51542  0.21955  1.0000
  C   C510      1.0  0.12153  0.53179  0.22794  1.0000
  C   C511      1.0  0.13797  0.60329  0.20602  1.0000
  H   H629      1.0  0.07177  0.51526  0.21926  1.0000
  H   H630      1.0  0.44211  0.53327  0.19220  1.0000
  C   C512      1.0  0.47954  0.38339  0.05876  1.0000
  C   C513      1.0  0.48177  0.57570  0.03780  1.0000
  C   C514      1.0  0.30120  0.52728  0.23226  1.0000
  C   C515      1.0  0.49185  0.46568  0.20133  1.0000
  H   H631      1.0  0.48290  0.45235  0.21019  1.0000
  H   H632      1.0  0.46566  0.45534  0.01839  1.0000
  Fe  Fe67      1.0  0.16892  0.55296  0.23602  1.0000
  H   H633      1.0  0.10075  0.51762  0.16799  1.0000
  H   H634      1.0  0.01241  0.57013  0.08587  1.0000
  C   C516      1.0  0.45114  0.60443  0.05210  1.0000
  C   C517      1.0  0.40344  0.45591  0.99256  1.0000
  C   C518      1.0  0.39468  0.47572  0.00055  1.0000
  H   H635      1.0  0.07559  0.58871  0.15865  1.0000
  C   C519      1.0  0.45692  0.43984  0.01738  1.0000
  H   H636      1.0  0.41689  0.40219  0.03910  1.0000
  C   C520      1.0  0.13757  0.53517  0.17240  1.0000
  H   H637      1.0  0.10444  0.56439  0.18963  1.0000
  H   H638      1.0  0.23865  0.61096  0.23231  1.0000
  C   C521      1.0  0.01153  0.50989  0.12109  1.0000
  H   H639      1.0  0.14657  0.54403  0.17872  1.0000
  H   H640      1.0  0.07934  0.63004  0.14313  1.0000
  C   C522      1.0  0.01738  0.42002  0.15142  1.0000
  S   S136      1.0  0.44783  0.36942  0.99831  1.0000
  H   H641      1.0  0.44900  0.60037  0.03043  1.0000
  C   C523      1.0  0.11466  0.60272  0.20305  1.0000
  C   C524      1.0  0.46428  0.39279  0.04805  1.0000
  C   C525      1.0  0.34816  0.62289  0.00803  1.0000
  H   H642      1.0  0.15111  0.53091  0.16218  1.0000
  C   C526      1.0  0.49450  0.37647  0.21401  1.0000
  Fe  Fe68      1.0  0.46462  0.59336  0.13247  1.0000
  H   H643      1.0  0.41001  0.44476  0.04758  1.0000
  S   S137      1.0  0.42256  0.36726  0.21855  1.0000
  H   H644      1.0  0.39304  0.44073  0.99477  1.0000
  H   H645      1.0  0.41551  0.41957  0.02072  1.0000
  H   H646      1.0  0.30739  0.56054  0.19693  1.0000
  H   H647      1.0  0.15155  0.65164  0.15279  1.0000
  N   N36       1.0  0.47380  0.52728  0.17429  1.0000
  H   H648      1.0  0.08241  0.54636  0.16008  1.0000
  C   C527      1.0  0.00194  0.63804  0.99204  1.0000
  C   C528      1.0  0.48680  0.57789  0.06233  1.0000
  H   H649      1.0  0.11344  0.53514  0.15035  1.0000
  C   C529      1.0  0.35414  0.60020  0.01787  1.0000
  C   C530      1.0  0.45730  0.41924  0.04280  1.0000
  H   H650      1.0  0.11259  0.33336  0.12511  1.0000
  C   C531      1.0  0.15384  0.61854  0.19618  1.0000
  C   C532      1.0  0.48267  0.42584  0.05920  1.0000
  C   C533      1.0  0.00851  0.41557  0.17815  1.0000
  H   H651      1.0  0.47209  0.50743  0.15762  1.0000
  C   C534      1.0  0.30159  0.57110  0.23164  1.0000
  S   S138      1.0  0.01139  0.42421  0.19432  1.0000
  C   C535      1.0  0.42512  0.62815  0.15721  1.0000
  C   C536      1.0  0.10204  0.53707  0.16153  1.0000
  C   C537      1.0  0.34250  0.62311  0.99410  1.0000
  H   H652      1.0  0.44238  0.39569  0.02379  1.0000
  C   C538      1.0  0.46071  0.33695  0.16207  1.0000
  H   H653      1.0  0.13464  0.51651  0.17949  1.0000
  C   C539      1.0  0.38173  0.34448  0.16186  1.0000
  H   H654      1.0  0.41794  0.34707  0.14830  1.0000
  C   C540      1.0  0.49221  0.39286  0.22363  1.0000
  H   H655      1.0  0.07411  0.36710  0.16093  1.0000
  H   H656      1.0  0.45685  0.48910  0.19765  1.0000
  N   N37       1.0  0.44108  0.42987  0.03152  1.0000
  C   C541      1.0  0.10709  0.61753  0.19017  1.0000
  C   C542      1.0  0.11590  0.57630  0.15957  1.0000
  H   H657      1.0  0.18749  0.61973  0.16294  1.0000
  S   S139      1.0  0.25282  0.49662  0.21854  1.0000
  C   C543      1.0  0.27071  0.47661  0.23129  1.0000
  C   C544      1.0  0.01918  0.42773  0.16418  1.0000
  H   H658      1.0  0.09313  0.53637  0.19038  1.0000
  H   H659      1.0  0.49729  0.52465  0.15282  1.0000
  C   C545      1.0  0.34380  0.59924  0.99057  1.0000
  Fe  Fe69      1.0  0.41029  0.35968  0.01028  1.0000
  C   C546      1.0  0.44613  0.53131  0.18041  1.0000
  C   C547      1.0  0.37514  0.35182  0.18668  1.0000
  S   S140      1.0  0.23821  0.55818  0.23373  1.0000
  H   H660      1.0  0.43578  0.54899  0.17430  1.0000
  C   C548      1.0  0.40654  0.34865  0.15914  1.0000
  C   C549      1.0  0.14683  0.63390  0.18298  1.0000
  Fe  Fe70      1.0  0.20889  0.58525  0.22213  1.0000
  C   C550      1.0  0.34970  0.57667  0.00053  1.0000
  C   C551      1.0  0.31059  0.33082  0.20832  1.0000
  C   C552      1.0  0.48290  0.55016  0.17486  1.0000
  H   H661      1.0  0.07710  0.56595  0.18196  1.0000
  C   C553      1.0  0.25534  0.36898  0.23333  1.0000
  H   H662      1.0  0.30589  0.59489  0.21001  1.0000
  H   H663      1.0  0.44054  0.63439  0.01176  1.0000
  H   H664      1.0  0.29749  0.38268  0.21846  1.0000
  H   H665      1.0  0.15966  0.61347  0.14112  1.0000
  C   C554      1.0  0.27797  0.65311  0.21689  1.0000
  C   C555      1.0  0.00247  0.54853  0.14677  1.0000
  H   H666      1.0  0.11551  0.64425  0.17062  1.0000
  H   H667      1.0  0.43133  0.39869  0.15772  1.0000
  S   S141      1.0  0.00435  0.49655  0.18114  1.0000
  C   C556      1.0  0.28429  0.39817  0.22353  1.0000
  C   C557      1.0  0.29639  0.63209  0.17079  1.0000
  H   H668      1.0  0.29615  0.64523  0.98936  1.0000
  C   C558      1.0  0.45963  0.59409  0.03923  1.0000
  C   C559      1.0  0.47299  0.36879  0.21250  1.0000
  C   C560      1.0  0.29356  0.46105  0.22622  1.0000
  N   N38       1.0  0.44268  0.35929  0.16689  1.0000
  H   H669      1.0  0.30011  0.46158  0.21447  1.0000
  Fe  Fe71      1.0  0.01085  0.51094  0.19987  1.0000
  H   H670      1.0  0.23992  0.39457  0.21483  1.0000
  H   H671      1.0  0.35344  0.64893  0.16344  1.0000
  C   C561      1.0  0.36605  0.34606  0.17559  1.0000
  C   C562      1.0  0.39985  0.35627  0.18404  1.0000
  H   H672      1.0  0.02606  0.42919  0.14065  1.0000
  C   C563      1.0  0.48852  0.39986  0.06442  1.0000
  H   H673      1.0  0.31169  0.34697  0.19937  1.0000
  H   H674      1.0  0.03553  0.34672  0.15217  1.0000
  H   H675      1.0  0.12096  0.64289  0.13434  1.0000
  C   C564      1.0  0.18914  0.63503  0.16823  1.0000
  N   N39       1.0  0.11324  0.55128  0.16900  1.0000
  C   C565      1.0  0.09624  0.55483  0.18330  1.0000
  S   S142      1.0  0.45827  0.56743  0.11939  1.0000
  C   C566      1.0  0.42365  0.34404  0.04411  1.0000
  C   C567      1.0  0.11965  0.62447  0.14133  1.0000
  H   H676      1.0  0.34871  0.63995  0.01150  1.0000
  H   H677      1.0  0.10243  0.59091  0.21088  1.0000
  H   H678      1.0  0.46451  0.38596  0.15222  1.0000
  Fe  Fe72      1.0  0.47256  0.59443  0.09928  1.0000
  C   C568      1.0  0.44218  0.33486  0.06614  1.0000
  C   C569      1.0  0.47712  0.48693  0.19399  1.0000
  H   H679      1.0  0.14372  0.59202  0.21612  1.0000
  H   H680      1.0  0.43761  0.51565  0.17938  1.0000
  Fe  Fe73      1.0  0.22402  0.52788  0.22793  1.0000
  S   S143      1.0  0.39869  0.35921  0.03475  1.0000
  C   C570      1.0  0.44909  0.37747  0.22057  1.0000
  S   S144      1.0  0.43487  0.59768  0.15304  1.0000
  H   H681      1.0  0.46562  0.54137  0.15229  1.0000
  N   N40       1.0  0.16385  0.65039  0.17299  1.0000
  H   H682      1.0  0.47133  0.56784  0.16962  1.0000
  S   S145      1.0  0.46156  0.54243  0.99395  1.0000
  H   H683      1.0  0.28558  0.61928  0.17888  1.0000
  C   C571      1.0  0.14134  0.60796  0.14525  1.0000
  C   C572      1.0  0.30420  0.53231  0.21684  1.0000
  H   H684      1.0  0.40677  0.45755  0.02872  1.0000
  S   S146      1.0  0.38770  0.38689  0.99425  1.0000
  H   H685      1.0  0.46396  0.45568  0.04455  1.0000
  H   H686      1.0  0.44181  0.37856  0.14423  1.0000
  H   H687      1.0  0.32890  0.62058  0.18124  1.0000
  H   H688      1.0  0.08876  0.61735  0.18796  1.0000
  H   H689      1.0  0.29607  0.40957  0.22613  1.0000
  Fe  Fe74      1.0  0.46300  0.57020  0.00743  1.0000
  C   C573      1.0  0.09641  0.53150  0.22748  1.0000
  H   H690      1.0  0.45827  0.37887  0.04407  1.0000
  H   H691      1.0  0.47507  0.35570  0.20527  1.0000
  C   C574      1.0  0.09616  0.61726  0.14633  1.0000
  C   C575      1.0  0.09424  0.59354  0.15525  1.0000
  S   S147      1.0  0.47506  0.62240  0.11235  1.0000
  C   C576      1.0  0.42850  0.41099  0.02872  1.0000
  C   C577      1.0  0.44511  0.38160  0.15477  1.0000
  H   H692      1.0  0.47254  0.42467  0.01349  1.0000
  C   C578      1.0  0.49552  0.56782  0.04932  1.0000
  C   C579      1.0  0.44385  0.65166  0.00415  1.0000
  H   H693      1.0  0.42800  0.46795  0.03616  1.0000
  H   H694      1.0  0.49721  0.57132  0.07127  1.0000
  C   C580      1.0  0.14143  0.51601  0.22040  1.0000
  C   C581      1.0  0.46452  0.59620  0.06376  1.0000
  C   C582      1.0  0.30466  0.57594  0.21622  1.0000
  H   H695      1.0  0.16084  0.51599  0.22078  1.0000
  H   H696      1.0  0.40527  0.35793  0.06417  1.0000
  H   H697      1.0  0.19915  0.62601  0.17762  1.0000
  C   C583      1.0  0.25280  0.65085  0.19959  1.0000
  C   C584      1.0  0.33470  0.64945  0.16175  1.0000
  H   H698      1.0  0.30484  0.51727  0.21112  1.0000
  C   C585      1.0  0.32076  0.63283  0.17209  1.0000
  H   H699      1.0  0.34684  0.34273  0.17763  1.0000
  H   H700      1.0  0.45337  0.64447  0.14027  1.0000
  H   H701      1.0  0.42828  0.40118  0.23618  1.0000
  H   H702      1.0  0.48079  0.33836  0.16118  1.0000
  S   S148      1.0  0.40200  0.64978  0.99435  1.0000
  H   H703      1.0  0.11003  0.34119  0.16885  1.0000
  C   C586      1.0  0.06265  0.35455  0.16944  1.0000
  C   C587      1.0  0.43737  0.64789  0.14913  1.0000
  S   S149      1.0  0.46040  0.33179  0.10531  1.0000
  H   H704      1.0  0.06836  0.35193  0.18030  1.0000
  C   C588      1.0  0.24242  0.37556  0.22125  1.0000
  H   H705      1.0  0.47532  0.64809  0.05962  1.0000
  S   S150      1.0  0.01720  0.32716  0.12450  1.0000
  C   C589      1.0  0.00473  0.40029  0.15252  1.0000
  C   C590      1.0  0.00451  0.53255  0.11145  1.0000
  H   H706      1.0  0.24739  0.65727  0.18888  1.0000
  H   H707      1.0  0.48224  0.65446  0.08139  1.0000
  H   H708      1.0  0.22405  0.36279  0.20739  1.0000
  C   C591      1.0  0.23310  0.35758  0.21695  1.0000
  C   C592      1.0  0.44545  0.32978  0.03699  1.0000
  S   S151      1.0  0.00353  0.39089  0.13622  1.0000
  H   H709      1.0  0.00376  0.47282  0.13129  1.0000
  C   C593      1.0  0.28577  0.64808  0.15917  1.0000
  H   H710      1.0  0.26671  0.64761  0.15824  1.0000
  C   C594      1.0  0.31950  0.32994  0.22119  1.0000
  S   S152      1.0  0.49248  0.56253  0.02168  1.0000
  H   H711      1.0  0.23576  0.41922  0.23256  1.0000
  H   H712      1.0  0.48999  0.43861  0.06349  1.0000
  N   N41       1.0  0.06485  0.32996  0.16505  1.0000
  C   C595      1.0  0.30812  0.44499  0.23631  1.0000
  C   C596      1.0  0.39619  0.65695  0.17224  1.0000
  H   H713      1.0  0.35302  0.65779  0.12397  1.0000
  S   S153      1.0  0.35006  0.37562  0.23673  1.0000
  C   C597      1.0  0.23592  0.33271  0.22471  1.0000
  N   N42       1.0  0.26675  0.38795  0.23689  1.0000
  H   H714      1.0  0.17655  0.66003  0.19056  1.0000
  H   H715      1.0  0.44684  0.32766  0.02575  1.0000
  H   H716      1.0  0.30131  0.58672  0.23669  1.0000
  H   H717      1.0  0.23111  0.32982  0.47945  1.0000
  C   C598      1.0  0.28138  0.37755  0.24902  1.0000
  H   H718      1.0  0.33045  0.51863  0.25758  1.0000
  C   C599      1.0  0.44742  0.35554  0.26396  1.0000
  H   H719      1.0  0.41673  0.63176  0.42607  1.0000
  H   H720      1.0  0.12218  0.55850  0.27399  1.0000
  C   C600      1.0  0.28205  0.60317  0.44079  1.0000
  Fe  Fe75      1.0  0.20701  0.55585  0.25369  1.0000
  S   S154      1.0  0.21703  0.55263  0.27595  1.0000
  H   H721      1.0  0.29879  0.34416  0.47540  1.0000
  S   S155      1.0  0.31694  0.42396  0.26444  1.0000
  N   N43       1.0  0.47075  0.33805  0.26776  1.0000
  Fe  Fe76      1.0  0.16914  0.62920  0.33781  1.0000
  S   S156      1.0  0.16810  0.59019  0.35113  1.0000
  S   S157      1.0  0.16670  0.63853  0.31358  1.0000
  Fe  Fe77      1.0  0.44021  0.34361  0.35729  1.0000
  S   S158      1.0  0.16973  0.61347  0.37989  1.0000
  Fe  Fe78      1.0  0.19769  0.59730  0.36153  1.0000
  S   S159      1.0  0.23470  0.57083  0.36427  1.0000
  Fe  Fe79      1.0  0.14004  0.61005  0.36807  1.0000
  S   S160      1.0  0.10491  0.59420  0.38013  1.0000
  S   S161      1.0  0.20118  0.63488  0.34669  1.0000
  S   S162      1.0  0.13908  0.64887  0.35408  1.0000
  S   S163      1.0  0.44717  0.62129  0.45750  1.0000
  H   H722      1.0  0.26289  0.52301  0.25856  1.0000
  C   C601      1.0  0.25696  0.32855  0.45090  1.0000
  Fe  Fe80      1.0  0.47653  0.61707  0.47142  1.0000
  C   C602      1.0  0.27552  0.58260  0.43755  1.0000
  Fe  Fe81      1.0  0.44098  0.58290  0.47035  1.0000
  S   S164      1.0  0.43624  0.55277  0.45930  1.0000
  C   C603      1.0  0.22296  0.40204  0.47462  1.0000
  Fe  Fe82      1.0  0.27754  0.50161  0.43602  1.0000
  S   S165      1.0  0.28277  0.49521  0.45942  1.0000
  S   S166      1.0  0.23877  0.51854  0.43073  1.0000
  Fe  Fe83      1.0  0.33233  0.47902  0.42513  1.0000
  S   S167      1.0  0.34268  0.47083  0.44764  1.0000
  S   S168      1.0  0.35643  0.46988  0.40364  1.0000
  Fe  Fe84      1.0  0.30551  0.45741  0.45555  1.0000
  S   S169      1.0  0.29985  0.42163  0.47207  1.0000
  Fe  Fe85      1.0  0.31909  0.50947  0.44958  1.0000
  S   S170      1.0  0.32511  0.53963  0.46013  1.0000
  S   S171      1.0  0.29721  0.46248  0.43294  1.0000
  S   S172      1.0  0.31193  0.51892  0.42635  1.0000
  S   S173      1.0  0.41171  0.33393  0.37793  1.0000
  C   C604      1.0  0.26371  0.39201  0.48230  1.0000
  C   C605      1.0  0.24763  0.41176  0.41712  1.0000
  H   H723      1.0  0.46648  0.41445  0.23910  1.0000
  C   C606      1.0  0.27042  0.41398  0.47284  1.0000
  C   C607      1.0  0.03488  0.65169  0.38783  1.0000
  Fe  Fe86      1.0  0.39121  0.36557  0.23865  1.0000
  H   H724      1.0  0.05497  0.63947  0.34201  1.0000
  H   H725      1.0  0.28508  0.56358  0.44160  1.0000
  C   C608      1.0  0.25328  0.43003  0.46440  1.0000
  C   C609      1.0  0.47470  0.34137  0.28207  1.0000
  H   H726      1.0  0.07544  0.64869  0.38133  1.0000
  S   S174      1.0  0.19401  0.39421  0.47449  1.0000
  H   H727      1.0  0.25797  0.44731  0.45733  1.0000
  C   C610      1.0  0.37510  0.43927  0.40536  1.0000
  C   C611      1.0  0.38811  0.42967  0.39263  1.0000
  C   C612      1.0  0.40296  0.40516  0.39386  1.0000
  C   C613      1.0  0.40524  0.39048  0.40784  1.0000
  C   C614      1.0  0.39210  0.40002  0.42055  1.0000
  C   C615      1.0  0.37680  0.42424  0.41932  1.0000
  H   H728      1.0  0.38684  0.44124  0.38181  1.0000
  H   H729      1.0  0.41309  0.39788  0.38402  1.0000
  H   H730      1.0  0.39400  0.38882  0.43138  1.0000
  H   H731      1.0  0.36681  0.43148  0.42917  1.0000
  C   C616      1.0  0.40536  0.54764  0.46077  1.0000
  C   C617      1.0  0.40188  0.52945  0.45371  1.0000
  C   C618      1.0  0.37734  0.52642  0.45367  1.0000
  C   C619      1.0  0.35616  0.54160  0.46071  1.0000
  C   C620      1.0  0.35962  0.55953  0.46795  1.0000
  C   C621      1.0  0.38412  0.56257  0.46796  1.0000
  H   H732      1.0  0.41822  0.51793  0.44805  1.0000
  H   H733      1.0  0.37482  0.51258  0.44803  1.0000
  H   H734      1.0  0.23857  0.36200  0.46031  1.0000
  H   H735      1.0  0.41003  0.59027  0.43675  1.0000
  C   C622      1.0  0.23574  0.55541  0.38260  1.0000
  C   C623      1.0  0.25924  0.54518  0.38688  1.0000
  C   C624      1.0  0.26036  0.53373  0.40166  1.0000
  C   C625      1.0  0.23797  0.53210  0.41211  1.0000
  C   C626      1.0  0.21450  0.54183  0.40775  1.0000
  C   C627      1.0  0.21338  0.55364  0.39305  1.0000
  H   H736      1.0  0.27658  0.54659  0.37881  1.0000
  H   H737      1.0  0.27853  0.52632  0.40495  1.0000
  H   H738      1.0  0.19713  0.54037  0.41579  1.0000
  H   H739      1.0  0.19519  0.56101  0.38975  1.0000
  C   C628      1.0  0.07890  0.60058  0.37116  1.0000
  C   C629      1.0  0.05906  0.58709  0.37702  1.0000
  C   C630      1.0  0.03791  0.59221  0.37016  1.0000
  C   C631      1.0  0.03654  0.61088  0.35739  1.0000
  C   C632      1.0  0.05613  0.62468  0.35173  1.0000
  C   C633      1.0  0.07728  0.61948  0.35854  1.0000
  H   H740      1.0  0.06017  0.57251  0.38685  1.0000
  H   H741      1.0  0.02297  0.58137  0.37457  1.0000
  H   H742      1.0  0.23265  0.40211  0.25129  1.0000
  H   H743      1.0  0.09220  0.63030  0.35411  1.0000
  C   C634      1.0  0.37150  0.62744  0.44395  1.0000
  C   C635      1.0  0.41845  0.35554  0.32453  1.0000
  H   H744      1.0  0.21326  0.57750  0.42435  1.0000
  S   S175      1.0  0.47325  0.57716  0.48220  1.0000
  C   C636      1.0  0.20273  0.57669  0.28624  1.0000
  C   C637      1.0  0.20706  0.57347  0.30063  1.0000
  C   C638      1.0  0.19566  0.59211  0.30922  1.0000
  C   C639      1.0  0.18013  0.61423  0.30337  1.0000
  C   C640      1.0  0.17588  0.61752  0.28896  1.0000
  C   C641      1.0  0.18707  0.59875  0.28042  1.0000
  H   H745      1.0  0.21909  0.55640  0.30522  1.0000
  H   H746      1.0  0.19921  0.58945  0.32029  1.0000
  H   H747      1.0  0.16390  0.63462  0.28437  1.0000
  H   H748      1.0  0.18359  0.60138  0.26936  1.0000
  H   H749      1.0  0.15040  0.55601  0.32037  1.0000
  S   S176      1.0  0.42813  0.36925  0.33678  1.0000
  H   H750      1.0  0.32678  0.37320  0.46014  1.0000
  C   C642      1.0  0.29962  0.44421  0.25149  1.0000
  C   C643      1.0  0.27689  0.45993  0.25653  1.0000
  H   H751      1.0  0.24929  0.61939  0.39452  1.0000
  C   C644      1.0  0.40957  0.37107  0.31207  1.0000
  C   C645      1.0  0.48101  0.34933  0.30942  1.0000
  H   H752      1.0  0.27028  0.45941  0.26828  1.0000
  H   H753      1.0  0.24490  0.48811  0.25045  1.0000
  H   H754      1.0  0.35731  0.58676  0.42116  1.0000
  N   N44       1.0  0.10311  0.58576  0.31960  1.0000
  C   C646      1.0  0.07783  0.59860  0.31606  1.0000
  C   C647      1.0  0.09879  0.56862  0.33421  1.0000
  C   C648      1.0  0.11622  0.60542  0.32085  1.0000
  C   C649      1.0  0.11918  0.57125  0.30833  1.0000
  C   C650      1.0  0.14319  0.55652  0.31061  1.0000
  C   C651      1.0  0.11197  0.57164  0.29478  1.0000
  C   C652      1.0  0.15867  0.54255  0.30021  1.0000
  H   H755      1.0  0.27555  0.64367  0.43779  1.0000
  C   C653      1.0  0.15108  0.54331  0.28708  1.0000
  C   C654      1.0  0.33060  0.35369  0.45866  1.0000
  H   H756      1.0  0.06700  0.58480  0.31493  1.0000
  H   H757      1.0  0.06580  0.60860  0.32494  1.0000
  H   H758      1.0  0.22420  0.46716  0.42932  1.0000
  H   H759      1.0  0.08527  0.57853  0.34271  1.0000
  H   H760      1.0  0.11642  0.56086  0.33879  1.0000
  H   H761      1.0  0.12100  0.61799  0.30994  1.0000
  H   H762      1.0  0.10443  0.61760  0.32871  1.0000
  H   H763      1.0  0.13431  0.59716  0.32488  1.0000
  C   C655      1.0  0.40006  0.63571  0.42057  1.0000
  H   H764      1.0  0.09430  0.58255  0.29189  1.0000
  C   C656      1.0  0.25679  0.58634  0.42916  1.0000
  C   C657      1.0  0.23523  0.60740  0.40078  1.0000
  H   H765      1.0  0.00415  0.61614  0.39792  1.0000
  N   N45       1.0  0.22339  0.61441  0.41536  1.0000
  C   C658      1.0  0.40506  0.33427  0.30388  1.0000
  H   H766      1.0  0.28858  0.58022  0.26064  1.0000
  H   H767      1.0  0.19371  0.64273  0.40633  1.0000
  C   C659      1.0  0.24346  0.61097  0.42405  1.0000
  C   C660      1.0  0.23632  0.45364  0.42278  1.0000
  H   H768      1.0  0.25728  0.62277  0.30334  1.0000
  H   H769      1.0  0.44893  0.37573  0.26198  1.0000
  H   H770      1.0  0.27346  0.51916  0.27550  1.0000
  C   C661      1.0  0.31832  0.53584  0.26148  1.0000
  Fe  Fe87      1.0  0.43856  0.34288  0.38951  1.0000
  C   C662      1.0  0.25107  0.63164  0.42722  1.0000
  H   H771      1.0  0.22405  0.65550  0.36972  1.0000
  Fe  Fe88      1.0  0.38033  0.34411  0.27173  1.0000
  H   H772      1.0  0.24405  0.39269  0.41921  1.0000
  C   C663      1.0  0.31482  0.33735  0.46730  1.0000
  C   C664      1.0  0.12783  0.55785  0.28434  1.0000
  C   C665      1.0  0.24121  0.63563  0.30897  1.0000
  H   H773      1.0  0.22112  0.65422  0.40606  1.0000
  H   H774      1.0  0.32907  0.55152  0.25699  1.0000
  H   H775      1.0  0.07947  0.61326  0.30577  1.0000
  H   H776      1.0  0.29229  0.50201  0.26192  1.0000
  N   N46       1.0  0.29493  0.45062  0.39171  1.0000
  C   C666      1.0  0.29181  0.44768  0.37712  1.0000
  C   C667      1.0  0.29798  0.47711  0.39020  1.0000
  C   C668      1.0  0.31873  0.43375  0.39535  1.0000
  C   C669      1.0  0.27305  0.44370  0.40320  1.0000
  C   C670      1.0  0.25634  0.46101  0.41172  1.0000
  C   C671      1.0  0.26795  0.41885  0.40618  1.0000
  H   H777      1.0  0.49036  0.34139  0.24499  1.0000
  C   C672      1.0  0.20886  0.64077  0.41274  1.0000
  S   S177      1.0  0.12762  0.55215  0.23788  1.0000
  H   H778      1.0  0.27368  0.45953  0.37424  1.0000
  H   H779      1.0  0.30756  0.45351  0.36813  1.0000
  H   H780      1.0  0.29167  0.42779  0.37682  1.0000
  H   H781      1.0  0.28127  0.49101  0.38676  1.0000
  H   H782      1.0  0.31493  0.48157  0.38175  1.0000
  H   H783      1.0  0.30102  0.48062  0.40069  1.0000
  H   H784      1.0  0.31946  0.41368  0.39509  1.0000
  H   H785      1.0  0.33577  0.43932  0.38741  1.0000
  H   H786      1.0  0.32114  0.43464  0.40656  1.0000
  H   H787      1.0  0.25851  0.48032  0.41029  1.0000
  H   H788      1.0  0.27966  0.40472  0.40005  1.0000
  H   H789      1.0  0.26085  0.57222  0.25732  1.0000
  H   H790      1.0  0.20578  0.34322  0.46018  1.0000
  S   S178      1.0  0.33840  0.35226  0.27259  1.0000
  H   H791      1.0  0.19631  0.60179  0.43449  1.0000
  C   C673      1.0  0.25426  0.35384  0.45261  1.0000
  H   H792      1.0  0.34328  0.57140  0.47335  1.0000
  H   H793      1.0  0.26260  0.66016  0.37728  1.0000
  H   H794      1.0  0.00642  0.37966  0.45684  1.0000
  H   H795      1.0  0.30046  0.50800  0.23776  1.0000
  H   H796      1.0  0.30200  0.64211  0.40048  1.0000
  H   H797      1.0  0.26911  0.37059  0.25962  1.0000
  H   H798      1.0  0.38720  0.62368  0.45020  1.0000
  C   C674      1.0  0.35897  0.62600  0.42141  1.0000
  C   C675      1.0  0.99871  0.38633  0.46752  1.0000
  C   C676      1.0  0.20475  0.59795  0.42317  1.0000
  C   C677      1.0  0.32922  0.61247  0.41058  1.0000
  H   H799      1.0  0.22341  0.63010  0.30849  1.0000
  H   H800      1.0  0.43089  0.35277  0.27306  1.0000
  H   H801      1.0  0.30553  0.37140  0.42794  1.0000
  H   H802      1.0  0.26700  0.33659  0.25050  1.0000
  H   H803      1.0  0.38064  0.58113  0.43827  1.0000
  C   C678      1.0  0.34623  0.65130  0.41727  1.0000
  C   C679      1.0  0.23198  0.42906  0.42550  1.0000
  H   H804      1.0  0.31573  0.53208  0.27377  1.0000
  C   C680      1.0  0.27001  0.62764  0.43554  1.0000
  H   H805      1.0  0.48113  0.38791  0.29859  1.0000
  S   S179      1.0  0.17854  0.58557  0.24257  1.0000
  H   H806      1.0  0.25293  0.56968  0.42670  1.0000
  H   H807      1.0  0.16346  0.53289  0.27892  1.0000
  C   C681      1.0  0.29490  0.33505  0.43189  1.0000
  H   H808      1.0  0.38646  0.57693  0.47319  1.0000
  C   C682      1.0  0.27168  0.36900  0.44450  1.0000
  H   H809      1.0  0.36281  0.64782  0.44329  1.0000
  N   N47       1.0  0.29367  0.54210  0.25660  1.0000
  H   H810      1.0  0.24536  0.58739  0.40190  1.0000
  S   S180      1.0  0.01146  0.61678  0.34773  1.0000
  Fe  Fe89      1.0  0.34450  0.38947  0.25798  1.0000
  H   H811      1.0  0.36298  0.35845  0.44174  1.0000
  C   C683      1.0  0.27798  0.56471  0.26247  1.0000
  H   H812      1.0  0.21660  0.43641  0.45856  1.0000
  C   C684      1.0  0.31772  0.63756  0.40629  1.0000
  H   H813      1.0  0.24288  0.65114  0.42334  1.0000
  C   C685      1.0  0.29198  0.35963  0.43414  1.0000
  H   H814      1.0  0.21645  0.42345  0.43413  1.0000
  C   C686      1.0  0.26249  0.47616  0.24646  1.0000
  H   H815      1.0  0.29005  0.39213  0.25132  1.0000
  H   H816      1.0  0.48238  0.35257  0.32004  1.0000
  S   S181      1.0  0.19497  0.52309  0.24885  1.0000
  S   S182      1.0  0.38605  0.38256  0.25876  1.0000
  C   C687      1.0  0.35129  0.34503  0.44817  1.0000
  H   H817      1.0  0.40094  0.58724  0.42041  1.0000
  H   H818      1.0  0.49495  0.36384  0.25428  1.0000
  H   H819      1.0  0.37544  0.34618  0.41929  1.0000
  H   H820      1.0  0.47649  0.38146  0.27479  1.0000
  H   H821      1.0  0.40808  0.39133  0.31033  1.0000
  C   C688      1.0  0.22973  0.42393  0.46517  1.0000
  C   C689      1.0  0.39355  0.59366  0.43116  1.0000
  H   H822      1.0  0.29718  0.36174  0.24622  1.0000
  H   H823      1.0  0.35696  0.61638  0.45077  1.0000
  N   N48       1.0  0.38063  0.62062  0.42912  1.0000
  C   C690      1.0  0.29848  0.54686  0.24020  1.0000
  H   H824      1.0  0.39568  0.37263  0.29232  1.0000
  H   H825      1.0  0.27123  0.62890  0.23825  1.0000
  H   H826      1.0  0.26938  0.38812  0.44631  1.0000
  C   C691      1.0  0.49262  0.34392  0.25591  1.0000
  C   C692      1.0  0.34950  0.60662  0.41807  1.0000
  H   H827      1.0  0.32225  0.59743  0.40818  1.0000
  H   H828      1.0  0.29671  0.60003  0.44725  1.0000
  H   H829      1.0  0.40698  0.63154  0.40922  1.0000
  C   C693      1.0  0.47726  0.36537  0.28381  1.0000
  H   H830      1.0  0.22090  0.60960  0.39379  1.0000
  C   C694      1.0  0.40265  0.36050  0.30183  1.0000
  S   S183      1.0  0.46529  0.35600  0.36876  1.0000
  H   H831      1.0  0.17709  0.53165  0.30209  1.0000
  Fe  Fe90      1.0  0.41926  0.63547  0.47652  1.0000
  H   H832      1.0  0.09079  0.55240  0.33346  1.0000
  S   S184      1.0  0.42441  0.36018  0.40986  1.0000
  H   H833      1.0  0.18904  0.60076  0.41707  1.0000
  H   H834      1.0  0.27098  0.56036  0.27464  1.0000
  C   C695      1.0  0.48017  0.36924  0.29733  1.0000
  H   H835      1.0  0.25451  0.42356  0.24439  1.0000
  C   C696      1.0  0.24653  0.40907  0.24146  1.0000
  Fe  Fe91      1.0  0.17131  0.65073  0.36438  1.0000
  C   C697      1.0  0.25735  0.34357  0.24123  1.0000
  H   H836      1.0  0.20696  0.65414  0.28824  1.0000
  H   H837      1.0  0.03583  0.63423  0.38439  1.0000
  H   H838      1.0  0.31062  0.32768  0.42382  1.0000
  H   H839      1.0  0.40250  0.33487  0.43825  1.0000
  C   C698      1.0  0.28009  0.52068  0.26333  1.0000
  H   H840      1.0  0.39275  0.65634  0.41943  1.0000
  H   H841      1.0  0.00814  0.37233  0.47611  1.0000
  H   H842      1.0  0.19960  0.64725  0.42332  1.0000
  H   H843      1.0  0.24241  0.63156  0.32089  1.0000
  C   C699      1.0  0.23990  0.38616  0.48329  1.0000
  Fe  Fe92      1.0  0.34743  0.33775  0.25142  1.0000
  C   C700      1.0  0.42025  0.32937  0.32676  1.0000
  C   C701      1.0  0.32615  0.65689  0.40968  1.0000
  H   H844      1.0  0.20837  0.65913  0.26181  1.0000
  H   H845      1.0  0.28184  0.65704  0.30171  1.0000
  H   H846      1.0  0.44275  0.35246  0.25378  1.0000
  H   H847      1.0  0.00508  0.40429  0.46660  1.0000
  C   C702      1.0  0.05766  0.66000  0.38585  1.0000
  S   S185      1.0  0.44816  0.57714  0.52298  1.0000
  Fe  Fe93      1.0  0.16495  0.35510  0.52807  1.0000
  S   S186      1.0  0.14552  0.38411  0.51150  1.0000
  S   S187      1.0  0.16230  0.36557  0.55008  1.0000
  N   N49       1.0  0.08151  0.37392  0.55966  1.0000
  Fe  Fe94      1.0  0.12613  0.35362  0.51030  1.0000
  S   S188      1.0  0.08346  0.36538  0.51374  1.0000
  H   H848      1.0  0.05137  0.37010  0.54130  1.0000
  H   H849      1.0  0.13659  0.34076  0.69953  1.0000
  Fe  Fe95      1.0  0.25857  0.40670  0.58108  1.0000
  S   S189      1.0  0.29405  0.41631  0.58419  1.0000
  S   S190      1.0  0.25864  0.39965  0.55854  1.0000
  Fe  Fe96      1.0  0.23253  0.40846  0.61298  1.0000
  S   S191      1.0  0.26553  0.41900  0.61841  1.0000
  S   S192      1.0  0.20225  0.39875  0.63275  1.0000
  Fe  Fe97      1.0  0.26744  0.44515  0.59641  1.0000
  S   S193      1.0  0.27349  0.48534  0.59201  1.0000
  Fe  Fe98      1.0  0.28892  0.38914  0.60588  1.0000
  S   S194      1.0  0.32081  0.36173  0.61555  1.0000
  S   S195      1.0  0.23197  0.43749  0.59193  1.0000
  S   S196      1.0  0.25586  0.37688  0.60167  1.0000
  S   S197      1.0  0.10425  0.46722  0.68931  1.0000
  H   H850      1.0  0.39620  0.64942  0.54481  1.0000
  H   H851      1.0  0.26961  0.40108  0.67841  1.0000
  H   H852      1.0  0.39452  0.54430  0.50075  1.0000
  Fe  Fe99      1.0  0.08521  0.46908  0.67063  1.0000
  S   S198      1.0  0.10429  0.48129  0.64717  1.0000
  H   H853      1.0  0.05141  0.62803  0.72318  1.0000
  S   S199      1.0  0.36161  0.57200  0.63641  1.0000
  Fe  Fe100     1.0  0.35692  0.59110  0.59482  1.0000
  S   S200      1.0  0.37928  0.55396  0.60402  1.0000
  H   H854      1.0  0.00270  0.35110  0.50829  1.0000
  Fe  Fe101     1.0  0.34636  0.55258  0.62297  1.0000
  S   S201      1.0  0.33521  0.51444  0.63195  1.0000
  Fe  Fe102     1.0  0.39311  0.57591  0.61662  1.0000
  S   S202      1.0  0.43493  0.56889  0.61721  1.0000
  S   S203      1.0  0.32266  0.58821  0.61280  1.0000
  H   H855      1.0  0.04828  0.50941  0.64877  1.0000
  C   C703      1.0  0.49750  0.59819  0.53785  1.0000
  H   H856      1.0  0.03003  0.37324  0.51597  1.0000
  Fe  Fe103     1.0  0.44406  0.59479  0.49950  1.0000
  H   H857      1.0  0.23491  0.36918  0.49056  1.0000
  S   S204      1.0  0.46419  0.54952  0.68021  1.0000
  S   S205      1.0  0.05350  0.44867  0.71142  1.0000
  H   H858      1.0  0.24958  0.47582  0.52683  1.0000
  C   C704      1.0  0.00899  0.47419  0.62219  1.0000
  H   H859      1.0  0.46018  0.60533  0.66098  1.0000
  C   C705      1.0  0.44356  0.56162  0.63472  1.0000
  C   C706      1.0  0.42582  0.55624  0.64767  1.0000
  C   C707      1.0  0.43271  0.55157  0.66153  1.0000
  C   C708      1.0  0.45734  0.55244  0.66259  1.0000
  C   C709      1.0  0.47533  0.55724  0.64967  1.0000
  C   C710      1.0  0.46845  0.56172  0.63576  1.0000
  H   H860      1.0  0.40667  0.55603  0.64708  1.0000
  H   H861      1.0  0.41873  0.54784  0.67150  1.0000
  H   H862      1.0  0.02587  0.38032  0.70088  1.0000
  H   H863      1.0  0.06652  0.46706  0.63140  1.0000
  C   C711      1.0  0.08339  0.52826  0.71622  1.0000
  C   C712      1.0  0.10793  0.51376  0.71444  1.0000
  H   H864      1.0  0.20892  0.34492  0.71361  1.0000
  H   H865      1.0  0.49437  0.55800  0.65039  1.0000
  H   H866      1.0  0.38025  0.47471  0.63212  1.0000
  H   H867      1.0  0.11173  0.49663  0.71008  1.0000
  C   C713      1.0  0.20942  0.35877  0.70337  1.0000
  C   C714      1.0  0.29087  0.49283  0.60320  1.0000
  C   C715      1.0  0.30170  0.47438  0.61401  1.0000
  C   C716      1.0  0.31516  0.48113  0.62291  1.0000
  C   C717      1.0  0.31827  0.50621  0.62079  1.0000
  C   C718      1.0  0.30774  0.52451  0.60985  1.0000
  C   C719      1.0  0.29382  0.51790  0.60121  1.0000
  H   H868      1.0  0.29973  0.45495  0.61552  1.0000
  H   H869      1.0  0.32333  0.46688  0.63134  1.0000
  H   H870      1.0  0.30990  0.54388  0.60818  1.0000
  H   H871      1.0  0.28518  0.53232  0.59303  1.0000
  C   C720      1.0  0.17533  0.42216  0.63632  1.0000
  C   C721      1.0  0.16947  0.44381  0.62570  1.0000
  C   C722      1.0  0.14759  0.46206  0.62901  1.0000
  C   C723      1.0  0.13171  0.45868  0.64295  1.0000
  C   C724      1.0  0.13797  0.43729  0.65363  1.0000
  C   C725      1.0  0.15963  0.41903  0.65028  1.0000
  H   H872      1.0  0.18161  0.44635  0.61491  1.0000
  H   H873      1.0  0.14293  0.47869  0.62075  1.0000
  H   H874      1.0  0.12611  0.43466  0.66447  1.0000
  H   H875      1.0  0.16425  0.40244  0.65854  1.0000
  H   H876      1.0  0.20939  0.40903  0.66722  1.0000
  C   C726      1.0  0.09796  0.55761  0.72645  1.0000
  C   C727      1.0  0.21603  0.44194  0.53188  1.0000
  H   H877      1.0  0.46505  0.61727  0.67559  1.0000
  C   C728      1.0  0.07849  0.55022  0.72220  1.0000
  H   H878      1.0  0.41396  0.54216  0.52208  1.0000
  H   H879      1.0  0.46481  0.63735  0.65759  1.0000
  C   C729      1.0  0.06615  0.35933  0.73537  1.0000
  H   H880      1.0  0.34540  0.61360  0.65628  1.0000
  H   H881      1.0  0.34857  0.54544  0.50435  1.0000
  H   H882      1.0  0.23883  0.39687  0.64893  1.0000
  H   H883      1.0  0.07931  0.41298  0.54885  1.0000
  C   C730      1.0  0.40549  0.48608  0.60272  1.0000
  C   C731      1.0  0.06499  0.34994  0.50734  1.0000
  S   S206      1.0  0.14742  0.55167  0.72986  1.0000
  H   H884      1.0  0.47301  0.62017  0.51587  1.0000
  C   C732      1.0  0.03854  0.35758  0.51030  1.0000
  S   S207      1.0  0.14699  0.62299  0.72955  1.0000
  H   H885      1.0  0.43052  0.60474  0.64872  1.0000
  C   C733      1.0  0.23172  0.44114  0.51769  1.0000
  C   C734      1.0  0.18978  0.37321  0.55285  1.0000
  C   C735      1.0  0.18913  0.38170  0.56580  1.0000
  C   C736      1.0  0.21045  0.38920  0.56785  1.0000
  C   C737      1.0  0.23248  0.38823  0.55694  1.0000
  C   C738      1.0  0.23329  0.37915  0.54418  1.0000
  C   C739      1.0  0.21199  0.37171  0.54212  1.0000
  H   H886      1.0  0.17202  0.38281  0.57416  1.0000
  H   H887      1.0  0.20971  0.39615  0.57773  1.0000
  H   H888      1.0  0.25032  0.37809  0.53577  1.0000
  H   H889      1.0  0.21268  0.36522  0.53212  1.0000
  C   C740      1.0  0.42107  0.58427  0.53631  1.0000
  C   C741      1.0  0.42213  0.57552  0.55131  1.0000
  C   C742      1.0  0.40066  0.58114  0.56217  1.0000
  C   C743      1.0  0.37810  0.59540  0.55800  1.0000
  C   C744      1.0  0.01468  0.37495  0.55487  1.0000
  C   C745      1.0  0.03820  0.38025  0.57676  1.0000
  H   H890      1.0  0.43965  0.56472  0.55454  1.0000
  H   H891      1.0  0.40171  0.57477  0.57373  1.0000
  H   H892      1.0  0.27504  0.40936  0.52360  1.0000
  C   C746      1.0  0.04217  0.51169  0.63806  1.0000
  H   H893      1.0  0.27679  0.37968  0.48900  1.0000
  C   C747      1.0  0.03383  0.64199  0.72622  1.0000
  H   H894      1.0  0.08391  0.39157  0.53649  1.0000
  H   H895      1.0  0.25169  0.41840  0.66443  1.0000
  H   H896      1.0  0.27326  0.62515  0.69166  1.0000
  C   C748      1.0  0.02165  0.35620  0.68712  1.0000
  S   S208      1.0  0.05839  0.51954  0.71116  1.0000
  H   H897      1.0  0.28997  0.63922  0.67428  1.0000
  H   H898      1.0  0.01396  0.48790  0.66116  1.0000
  S   S209      1.0  0.41145  0.59719  0.48867  1.0000
  C   C749      1.0  0.22184  0.43341  0.50727  1.0000
  C   C750      1.0  0.27631  0.42278  0.51277  1.0000
  S   S210      1.0  0.15573  0.34023  0.49155  1.0000
  H   H899      1.0  0.28351  0.40229  0.65909  1.0000
  H   H900      1.0  0.04188  0.44973  0.64061  1.0000
  C   C751      1.0  0.07739  0.37702  0.72408  1.0000
  Fe  Fe104     1.0  0.09035  0.43074  0.69862  1.0000
  N   N50       1.0  0.33630  0.53952  0.55558  1.0000
  C   C752      1.0  0.35073  0.53427  0.56772  1.0000
  C   C753      1.0  0.31859  0.56409  0.55622  1.0000
  C   C754      1.0  0.32135  0.51918  0.55860  1.0000
  C   C755      1.0  0.35263  0.54071  0.54066  1.0000
  C   C756      1.0  0.37907  0.54067  0.53810  1.0000
  C   C757      1.0  0.34200  0.54283  0.52804  1.0000
  C   C758      1.0  0.39388  0.54188  0.52385  1.0000
  C   C759      1.0  0.35702  0.54392  0.51385  1.0000
  C   C760      1.0  0.38293  0.54332  0.51178  1.0000
  H   H901      1.0  0.36070  0.54986  0.56702  1.0000
  H   H902      1.0  0.33805  0.53267  0.57881  1.0000
  H   H903      1.0  0.36476  0.51625  0.56765  1.0000
  H   H904      1.0  0.32917  0.57992  0.55355  1.0000
  H   H905      1.0  0.30664  0.56452  0.56745  1.0000
  H   H906      1.0  0.30557  0.56843  0.54825  1.0000
  H   H907      1.0  0.33394  0.50068  0.55712  1.0000
  H   H908      1.0  0.31024  0.51657  0.57012  1.0000
  H   H909      1.0  0.30716  0.52321  0.55138  1.0000
  H   H910      1.0  0.38876  0.54023  0.54683  1.0000
  H   H911      1.0  0.32193  0.54394  0.52901  1.0000
  C   C761      1.0  0.05360  0.37591  0.56292  1.0000
  S   S211      1.0  0.31803  0.64235  0.63307  1.0000
  H   H912      1.0  0.48537  0.58586  0.53638  1.0000
  N   N51       1.0  0.41650  0.48617  0.62741  1.0000
  C   C762      1.0  0.40518  0.50840  0.63455  1.0000
  C   C763      1.0  0.40012  0.46701  0.63384  1.0000
  C   C764      1.0  0.44182  0.47513  0.63135  1.0000
  C   C765      1.0  0.41916  0.49426  0.61114  1.0000
  C   C766      1.0  0.00394  0.49599  0.59746  1.0000
  C   C767      1.0  0.43549  0.51130  0.60323  1.0000
  C   C768      1.0  0.10380  0.37447  0.72057  1.0000
  C   C769      1.0  0.41640  0.64033  0.65656  1.0000
  H   H913      1.0  0.40305  0.50332  0.64680  1.0000
  H   H914      1.0  0.00037  0.38542  0.59001  1.0000
  H   H915      1.0  0.38604  0.51712  0.63200  1.0000
  H   H916      1.0  0.16472  0.42232  0.52761  1.0000
  H   H917      1.0  0.39875  0.46113  0.64604  1.0000
  H   H918      1.0  0.40756  0.44965  0.62899  1.0000
  H   H919      1.0  0.45422  0.48939  0.62872  1.0000
  H   H920      1.0  0.44038  0.46745  0.64343  1.0000
  H   H921      1.0  0.45184  0.45951  0.62532  1.0000
  H   H922      1.0  0.05560  0.46403  0.65099  1.0000
  H   H923      1.0  0.44592  0.51898  0.60889  1.0000
  H   H924      1.0  0.24174  0.36314  0.65300  1.0000
  H   H925      1.0  0.18072  0.43556  0.54630  1.0000
  C   C770      1.0  0.43695  0.63890  0.53940  1.0000
  C   C771      1.0  0.04928  0.46679  0.64030  1.0000
  H   H926      1.0  0.26879  0.37772  0.64446  1.0000
  C   C772      1.0  0.23174  0.35875  0.69270  1.0000
  H   H927      1.0  0.99905  0.61424  0.72896  1.0000
  H   H928      1.0  0.47496  0.65245  0.51567  1.0000
  H   H929      1.0  0.03411  0.42052  0.66876  1.0000
  C   C773      1.0  0.48381  0.63223  0.51886  1.0000
  H   H930      1.0  0.27658  0.65842  0.70249  1.0000
  H   H931      1.0  0.19101  0.42072  0.50266  1.0000
  H   H932      1.0  0.43353  0.62113  0.58187  1.0000
  H   H933      1.0  0.28407  0.35497  0.68075  1.0000
  C   C774      1.0  0.41953  0.62361  0.64672  1.0000
  Fe  Fe105     1.0  0.06608  0.48549  0.70034  1.0000
  H   H934      1.0  0.28276  0.46324  0.52155  1.0000
  H   H935      1.0  0.01944  0.52984  0.58936  1.0000
  C   C775      1.0  0.18764  0.37658  0.70098  1.0000
  H   H936      1.0  0.17038  0.37651  0.70928  1.0000
  H   H937      1.0  0.29378  0.35597  0.66136  1.0000
  C   C776      1.0  0.21014  0.39467  0.67714  1.0000
  H   H938      1.0  0.11508  0.34600  0.55443  1.0000
  Fe  Fe106     1.0  0.34109  0.60795  0.62429  1.0000
  N   N52       1.0  0.48514  0.62523  0.53484  1.0000
  H   H939      1.0  0.04193  0.35042  0.68356  1.0000
  H   H940      1.0  0.39762  0.60527  0.52056  1.0000
  C   C777      1.0  0.45562  0.62266  0.66582  1.0000
  H   H941      1.0  0.35952  0.61487  0.53973  1.0000
  H   H942      1.0  0.41887  0.59450  0.67433  1.0000
  H   H943      1.0  0.08806  0.36193  0.58207  1.0000
  H   H944      1.0  0.24629  0.48175  0.49931  1.0000
  H   H945      1.0  0.29614  0.42609  0.50924  1.0000
  S   S212      1.0  0.07439  0.43102  0.67892  1.0000
  C   C778      1.0  0.46002  0.62918  0.54476  1.0000
  C   C779      1.0  0.39851  0.59847  0.53213  1.0000
  H   H946      1.0  0.39215  0.47363  0.60772  1.0000
  S   S213      1.0  0.11827  0.39657  0.70668  1.0000
  Fe  Fe107     1.0  0.17688  0.36824  0.49446  1.0000
  S   S214      1.0  0.37379  0.61352  0.60547  1.0000
  C   C780      1.0  0.11895  0.35393  0.72816  1.0000
  H   H947      1.0  0.22224  0.44641  0.54079  1.0000
  H   H948      1.0  0.45013  0.53311  0.58224  1.0000
  H   H949      1.0  0.13936  0.35183  0.72551  1.0000
  C   C781      1.0  0.42454  0.51106  0.57999  1.0000
  H   H950      1.0  0.04593  0.38254  0.58572  1.0000
  C   C782      1.0  0.43800  0.51960  0.58792  1.0000
  C   C783      1.0  0.09183  0.37692  0.57216  1.0000
  H   H951      1.0  0.02680  0.40714  0.64719  1.0000
  C   C784      1.0  0.26359  0.45824  0.52502  1.0000
  H   H952      1.0  0.05974  0.51256  0.62945  1.0000
  C   C785      1.0  0.26137  0.46442  0.49943  1.0000
  H   H953      1.0  0.14632  0.50977  0.71739  1.0000
  C   C786      1.0  0.07591  0.32989  0.49986  1.0000
  H   H954      1.0  0.17067  0.40791  0.68607  1.0000
  C   C787      1.0  0.09403  0.34877  0.55601  1.0000
  Fe  Fe108     1.0  0.03851  0.45196  0.69078  1.0000
  C   C788      1.0  0.18295  0.42810  0.52475  1.0000
  C   C789      1.0  0.34118  0.63338  0.65704  1.0000
  H   H955      1.0  0.28008  0.47035  0.49679  1.0000
  H   H956      1.0  0.48231  0.56582  0.62579  1.0000
  S   S215      1.0  0.04795  0.49031  0.68074  1.0000
  H   H957      1.0  0.47475  0.61550  0.56528  1.0000
  C   C790      1.0  0.18793  0.39441  0.68789  1.0000
  H   H958      1.0  0.06560  0.39267  0.71816  1.0000
  H   H959      1.0  0.27211  0.34690  0.62658  1.0000
  H   H960      1.0  0.02368  0.64713  0.71680  1.0000
  N   N53       1.0  0.42787  0.63180  0.66999  1.0000
  H   H961      1.0  0.42528  0.60300  0.68983  1.0000
  C   C791      1.0  0.37697  0.60386  0.54299  1.0000
  C   C792      1.0  0.34711  0.64096  0.66877  1.0000
  C   C793      1.0  0.04097  0.37327  0.55209  1.0000
  H   H962      1.0  0.35580  0.62693  0.67705  1.0000
  H   H963      1.0  0.42646  0.51769  0.56813  1.0000
  H   H964      1.0  0.43624  0.64327  0.52776  1.0000
  S   S216      1.0  0.35094  0.60246  0.57135  1.0000
  H   H965      1.0  0.05955  0.56147  0.72357  1.0000
  S   S217      1.0  0.19825  0.34163  0.51113  1.0000
  H   H966      1.0  0.09406  0.57453  0.73105  1.0000
  C   C794      1.0  0.45810  0.62313  0.56037  1.0000
  H   H967      1.0  0.08395  0.39585  0.57517  1.0000
  C   C795      1.0  0.43461  0.62644  0.56998  1.0000
  C   C796      1.0  0.27068  0.63884  0.68120  1.0000
  C   C797      1.0  0.00462  0.34758  0.68155  1.0000
  H   H968      1.0  0.41683  0.52331  0.63073  1.0000
  C   C798      1.0  0.26567  0.40089  0.66745  1.0000
  C   C799      1.0  0.19785  0.42701  0.51077  1.0000
  H   H969      1.0  0.39792  0.48764  0.58120  1.0000
  C   C800      1.0  0.01504  0.42290  0.66702  1.0000
  C   C801      1.0  0.40841  0.49426  0.58737  1.0000
  N   N54       1.0  0.17008  0.49972  0.67059  1.0000
  C   C802      1.0  0.14631  0.50710  0.66459  1.0000
  C   C803      1.0  0.16818  0.47730  0.68270  1.0000
  C   C804      1.0  0.17183  0.52092  0.67720  1.0000
  C   C805      1.0  0.19191  0.49335  0.65868  1.0000
  C   C806      1.0  0.21248  0.50657  0.65390  1.0000
  C   C807      1.0  0.19289  0.47346  0.65133  1.0000
  C   C808      1.0  0.23243  0.50036  0.64234  1.0000
  C   C809      1.0  0.21293  0.46741  0.63982  1.0000
  C   C810      1.0  0.23254  0.48095  0.63527  1.0000
  H   H970      1.0  0.14200  0.49131  0.66083  1.0000
  H   H971      1.0  0.12950  0.51317  0.67302  1.0000
  H   H972      1.0  0.14747  0.52299  0.65491  1.0000
  H   H973      1.0  0.16375  0.46138  0.67911  1.0000
  H   H974      1.0  0.15276  0.48176  0.69221  1.0000
  H   H975      1.0  0.18619  0.47030  0.68697  1.0000
  H   H976      1.0  0.17233  0.53874  0.66882  1.0000
  H   H977      1.0  0.15509  0.52519  0.68611  1.0000
  H   H978      1.0  0.18884  0.51640  0.68242  1.0000
  H   H979      1.0  0.21353  0.52197  0.65877  1.0000
  H   H980      1.0  0.17788  0.46272  0.65424  1.0000
  H   H981      1.0  0.24782  0.51083  0.63866  1.0000
  H   H982      1.0  0.21304  0.45247  0.63417  1.0000
  H   H983      1.0  0.24772  0.47660  0.62609  1.0000
  N   N55       1.0  0.25627  0.37777  0.66783  1.0000
  H   H984      1.0  0.10975  0.39300  0.54422  1.0000
  C   C811      1.0  0.27697  0.35560  0.67059  1.0000
  C   C812      1.0  0.25110  0.37885  0.65301  1.0000
  C   C813      1.0  0.23275  0.37672  0.67917  1.0000
  H   H985      1.0  0.41050  0.61734  0.62711  1.0000
  H   H986      1.0  0.19684  0.34962  0.66209  1.0000
  C   C814      1.0  0.08884  0.39373  0.54678  1.0000
  N   N56       1.0  0.25770  0.44668  0.51388  1.0000
  H   H987      1.0  0.23280  0.43173  0.49641  1.0000
  H   H988      1.0  0.11286  0.37535  0.56928  1.0000
  C   C815      1.0  0.40817  0.63070  0.63427  1.0000
  C   C816      1.0  0.19197  0.43566  0.53525  1.0000
  C   C817      1.0  0.01189  0.38192  0.57943  1.0000
  N   N57       1.0  0.03024  0.49043  0.63783  1.0000
  C   C818      1.0  0.01084  0.41521  0.65486  1.0000
  H   H989      1.0  0.27320  0.41305  0.50454  1.0000
  C   C819      1.0  0.02301  0.34501  0.50600  1.0000
  C   C820      1.0  0.15538  0.33359  0.69372  1.0000
  H   H990      1.0  0.15366  0.36479  0.67538  1.0000
  C   C821      1.0  0.41243  0.63620  0.56435  1.0000
  C   C822      1.0  0.16503  0.34727  0.68008  1.0000
  H   H991      1.0  0.24794  0.34452  0.69533  1.0000
  H   H992      1.0  0.48478  0.36940  0.73379  1.0000
  H   H993      1.0  0.26132  0.45578  0.48997  1.0000
  C   C823      1.0  0.41362  0.64250  0.54912  1.0000
  C   C824      1.0  0.41641  0.61071  0.67987  1.0000
  C   C825      1.0  0.12743  0.52119  0.71863  1.0000
  H   H994      1.0  0.08786  0.33323  0.56497  1.0000
  H   H995      1.0  0.08999  0.34630  0.54554  1.0000
  H   H996      1.0  0.26391  0.44489  0.53584  1.0000
  H   H997      1.0  0.02522  0.59390  0.73610  1.0000
  C   C826      1.0  0.12249  0.54306  0.72469  1.0000
  H   H998      1.0  0.39415  0.63829  0.57178  1.0000
  H   H999      1.0  0.27061  0.33754  0.67158  1.0000
  C   C827      1.0  0.01270  0.37295  0.69691  1.0000
  H   H1000     1.0  0.25964  0.63094  0.67556  1.0000
  H   H1001     1.0  0.23415  0.64820  0.70399  1.0000
  H   H1002     1.0  0.27046  0.65847  0.65414  1.0000
  H   H1003     1.0  0.39571  0.61696  0.68369  1.0000
  S   S218      1.0  0.44895  0.63462  0.48941  1.0000
  C   C828      1.0  0.31060  0.33778  0.62998  1.0000
  C   C829      1.0  0.42406  0.65196  0.67867  1.0000
  C   C830      1.0  0.18936  0.33867  0.67266  1.0000
  H   H1004     1.0  0.49260  0.34465  0.72325  1.0000
  H   H1005     1.0  0.00543  0.37319  0.54635  1.0000
  C   C831      1.0  0.32881  0.65136  0.64668  1.0000
  C   C832      1.0  0.39352  0.65475  0.63116  1.0000
  H   H1006     1.0  0.43315  0.64504  0.68856  1.0000
  H   H1007     1.0  0.22026  0.65632  0.68767  1.0000
  C   C833      1.0  0.28537  0.33482  0.63314  1.0000
  H   H1008     1.0  0.01251  0.33503  0.67374  1.0000
  C   C834      1.0  0.21271  0.65820  0.73588  1.0000
  H   H1009     1.0  0.40352  0.65865  0.68292  1.0000
  H   H1010     1.0  0.02879  0.53016  0.63658  1.0000
  C   C835      1.0  0.00016  0.37931  0.56851  1.0000
  H   H1011     1.0  0.03492  0.52753  0.61166  1.0000
  S   S219      1.0  0.99944  0.44500  0.69162  1.0000
  C   C836      1.0  0.02161  0.49263  0.62383  1.0000
  C   C837      1.0  0.01653  0.51429  0.59858  1.0000
  C   C838      1.0  0.02532  0.51274  0.61154  1.0000
  C   C839      1.0  0.00830  0.48965  0.65037  1.0000
  H   H1012     1.0  0.00566  0.45822  0.63095  1.0000
  H   H1013     1.0  0.03993  0.65930  0.72706  1.0000
  H   H1014     1.0  0.99914  0.47327  0.65169  1.0000
  C   C840      1.0  0.00023  0.47594  0.60924  1.0000
  H   H1015     1.0  0.38413  0.65997  0.62173  1.0000
  N   N58       1.0  0.33589  0.64674  0.98343  1.0000
  C   C841      1.0  0.22416  0.60052  0.79344  1.0000
  H   H1016     1.0  0.45527  0.47633  0.97007  1.0000
  Fe  Fe109     1.0  0.15524  0.37575  0.88295  1.0000
  S   S220      1.0  0.18691  0.35756  0.86697  1.0000
  S   S221      1.0  0.14859  0.41441  0.88854  1.0000
  Fe  Fe110     1.0  0.15659  0.34374  0.86056  1.0000
  C   C842      1.0  0.42988  0.49553  0.98677  1.0000
  H   H1017     1.0  0.07912  0.32807  0.87504  1.0000
  H   H1018     1.0  0.44165  0.59876  0.90498  1.0000
  S   S222      1.0  0.12480  0.36506  0.87504  1.0000
  S   S223      1.0  0.15753  0.34221  0.90146  1.0000
  H   H1019     1.0  0.13972  0.62918  0.79296  1.0000
  C   C843      1.0  0.42524  0.45616  0.98150  1.0000
  C   C844      1.0  0.26827  0.64192  0.90236  1.0000
  C   C845      1.0  0.10774  0.33623  0.73939  1.0000
  S   S224      1.0  0.47082  0.57754  0.95178  1.0000
  H   H1020     1.0  0.09296  0.65029  0.92295  1.0000
  Fe  Fe111     1.0  0.17690  0.56747  0.88717  1.0000
  S   S225      1.0  0.19545  0.60000  0.87436  1.0000
  S   S226      1.0  0.14205  0.57446  0.90469  1.0000
  Fe  Fe112     1.0  0.21055  0.53078  0.86819  1.0000
  S   S227      1.0  0.23164  0.56070  0.85392  1.0000
  S   S228      1.0  0.22250  0.49225  0.86177  1.0000
  Fe  Fe113     1.0  0.23174  0.57176  0.87521  1.0000
  S   S229      1.0  0.26850  0.58028  0.87751  1.0000
  Fe  Fe114     1.0  0.19348  0.58592  0.85443  1.0000
  S   S230      1.0  0.18262  0.61496  0.83471  1.0000
  S   S231      1.0  0.21345  0.53988  0.88960  1.0000
  S   S232      1.0  0.17219  0.55537  0.86713  1.0000
  S   S233      1.0  0.39333  0.63042  0.90933  1.0000
  C   C846      1.0  0.23311  0.50751  0.80288  1.0000
  S   S234      1.0  0.15302  0.34951  0.83668  1.0000
  H   H1021     1.0  0.11188  0.61987  0.84760  1.0000
  H   H1022     1.0  0.12330  0.64381  0.95677  1.0000
  C   C847      1.0  0.31132  0.64754  0.97934  1.0000
  H   H1023     1.0  0.06569  0.57906  0.98471  1.0000
  H   H1024     1.0  0.41543  0.49463  0.95300  1.0000
  H   H1025     1.0  0.19838  0.56751  0.77691  1.0000
  H   H1026     1.0  0.16431  0.64105  0.80816  1.0000
  H   H1027     1.0  0.20346  0.41243  0.90415  1.0000
  H   H1028     1.0  0.38819  0.50533  0.96562  1.0000
  C   C848      1.0  0.10957  0.58149  0.95126  1.0000
  H   H1029     1.0  0.23648  0.48857  0.82520  1.0000
  H   H1030     1.0  0.20515  0.64358  0.84986  1.0000
  S   S235      1.0  0.10269  0.59968  0.75610  1.0000
  C   C849      1.0  0.08905  0.59892  0.95769  1.0000
  S   S236      1.0  0.11946  0.58372  0.79640  1.0000
  S   S237      1.0  0.16243  0.58185  0.75835  1.0000
  C   C850      1.0  0.13422  0.58641  0.94717  1.0000
  H   H1031     1.0  0.05434  0.64606  0.87496  1.0000
  C   C851      1.0  0.22885  0.55224  0.81285  1.0000
  Fe  Fe115     1.0  0.16757  0.62131  0.74764  1.0000
  H   H1032     1.0  0.08025  0.63560  0.96448  1.0000
  H   H1033     1.0  0.24304  0.56424  0.76715  1.0000
  H   H1034     1.0  0.23264  0.52784  0.83397  1.0000
  C   C852      1.0  0.09485  0.62136  0.95975  1.0000
  S   S238      1.0  0.41234  0.58360  0.98290  1.0000
  H   H1035     1.0  0.20075  0.37860  0.89285  1.0000
  H   H1036     1.0  0.15814  0.61279  0.94562  1.0000
  H   H1037     1.0  0.17871  0.60388  0.90478  1.0000
  C   C853      1.0  0.09170  0.64934  0.87739  1.0000
  H   H1038     1.0  0.08490  0.34741  0.82800  1.0000
  H   H1039     1.0  0.03946  0.56791  0.96238  1.0000
  H   H1040     1.0  0.23590  0.39991  0.90604  1.0000
  C   C854      1.0  0.13870  0.60355  0.90995  1.0000
  C   C855      1.0  0.11456  0.61651  0.91536  1.0000
  H   H1041     1.0  0.09809  0.60828  0.91664  1.0000
  C   C856      1.0  0.26809  0.60313  0.88778  1.0000
  C   C857      1.0  0.29084  0.61058  0.88738  1.0000
  C   C858      1.0  0.29096  0.62995  0.89463  1.0000
  H   H1042     1.0  0.02602  0.61257  0.95633  1.0000
  C   C859      1.0  0.19897  0.58199  0.78309  1.0000
  C   C860      1.0  0.24542  0.61491  0.89566  1.0000
  H   H1043     1.0  0.30842  0.60156  0.88127  1.0000
  C   C861      1.0  0.34988  0.58886  0.93435  1.0000
  Fe  Fe116     1.0  0.42570  0.39448  0.98154  1.0000
  H   H1044     1.0  0.22779  0.60927  0.89606  1.0000
  C   C862      1.0  0.16347  0.60692  0.82471  1.0000
  C   C863      1.0  0.15457  0.58416  0.82926  1.0000
  C   C864      1.0  0.14005  0.57780  0.82084  1.0000
  C   C865      1.0  0.13508  0.59371  0.80755  1.0000
  C   C866      1.0  0.14369  0.61665  0.80309  1.0000
  C   C867      1.0  0.15759  0.62335  0.81174  1.0000
  H   H1045     1.0  0.15906  0.57125  0.83914  1.0000
  H   H1046     1.0  0.13320  0.56018  0.82441  1.0000
  H   H1047     1.0  0.23379  0.36716  0.89278  1.0000
  C   C868      1.0  0.44989  0.59475  0.93996  1.0000
  C   C869      1.0  0.42784  0.61155  0.94487  1.0000
  C   C870      1.0  0.41051  0.62349  0.93542  1.0000
  C   C871      1.0  0.41534  0.61852  0.92110  1.0000
  C   C872      1.0  0.43783  0.60253  0.91608  1.0000
  C   C873      1.0  0.45515  0.59087  0.92543  1.0000
  H   H1048     1.0  0.42411  0.61541  0.95589  1.0000
  H   H1049     1.0  0.39324  0.63604  0.93926  1.0000
  H   H1050     1.0  0.07765  0.60497  0.87757  1.0000
  H   H1051     1.0  0.24249  0.59884  0.79687  1.0000
  H   H1052     1.0  0.14946  0.57325  0.94184  1.0000
  H   H1053     1.0  0.13936  0.61903  0.87902  1.0000
  C   C874      1.0  0.15993  0.61421  0.90841  1.0000
  C   C875      1.0  0.17006  0.43518  0.88145  1.0000
  C   C876      1.0  0.19354  0.42819  0.87247  1.0000
  C   C877      1.0  0.20972  0.44575  0.86665  1.0000
  C   C878      1.0  0.20252  0.47025  0.86981  1.0000
  C   C879      1.0  0.17922  0.47706  0.87895  1.0000
  C   C880      1.0  0.16306  0.45954  0.88475  1.0000
  H   H1054     1.0  0.19911  0.40948  0.86983  1.0000
  H   H1055     1.0  0.22777  0.44046  0.85956  1.0000
  H   H1056     1.0  0.17356  0.49589  0.88146  1.0000
  H   H1057     1.0  0.14493  0.46502  0.89173  1.0000
  H   H1058     1.0  0.21135  0.34634  0.90073  1.0000
  H   H1059     1.0  0.23451  0.49014  0.79910  1.0000
  H   H1060     1.0  0.13971  0.34581  0.80981  1.0000
  C   C881      1.0  0.11951  0.62616  0.95552  1.0000
  H   H1061     1.0  0.09037  0.35671  0.85119  1.0000
  C   C882      1.0  0.13916  0.60870  0.94926  1.0000
  H   H1062     1.0  0.47178  0.33444  0.95424  1.0000
  C   C883      1.0  0.23003  0.53078  0.79311  1.0000
  H   H1063     1.0  0.30855  0.63577  0.89409  1.0000
  H   H1064     1.0  0.22796  0.64320  0.90906  1.0000
  C   C884      1.0  0.04603  0.61541  0.95370  1.0000
  H   H1065     1.0  0.04321  0.63774  0.75294  1.0000
  C   C885      1.0  0.22808  0.55388  0.79774  1.0000
  H   H1066     1.0  0.26315  0.57390  0.77637  1.0000
  H   H1067     1.0  0.05341  0.61238  0.98115  1.0000
  S   S239      1.0  0.43613  0.43247  0.97077  1.0000
  Fe  Fe117     1.0  0.11222  0.63786  0.74526  1.0000
  H   H1068     1.0  0.42551  0.55403  0.92940  1.0000
  H   H1069     1.0  0.31238  0.63269  0.97302  1.0000
  H   H1070     1.0  0.22130  0.61849  0.78518  1.0000
  C   C886      1.0  0.06483  0.65580  0.87935  1.0000
  H   H1071     1.0  0.47225  0.57812  0.92153  1.0000
  C   C887      1.0  0.23418  0.50655  0.81755  1.0000
  H   H1072     1.0  0.26054  0.63291  0.84748  1.0000
  H   H1073     1.0  0.08036  0.63516  0.85403  1.0000
  H   H1074     1.0  0.05288  0.61714  0.94154  1.0000
  H   H1075     1.0  0.48291  0.62860  0.93666  1.0000
  H   H1076     1.0  0.23905  0.34412  0.95921  1.0000
  C   C888      1.0  0.15699  0.63801  0.91197  1.0000
  C   C889      1.0  0.24556  0.63415  0.90300  1.0000
  H   H1077     1.0  0.22878  0.53059  0.78192  1.0000
  H   H1078     1.0  0.04529  0.63397  0.95646  1.0000
  S   S240      1.0  0.36985  0.34459  0.97015  1.0000
  H   H1079     1.0  0.10070  0.60022  0.88900  1.0000
  C   C890      1.0  0.23198  0.52883  0.82250  1.0000
  H   H1080     1.0  0.18367  0.58055  0.79304  1.0000
  S   S241      1.0  0.43165  0.36447  0.96814  1.0000
  H   H1081     1.0  0.06524  0.56987  0.94696  1.0000
  C   C891      1.0  0.08267  0.34028  0.85149  1.0000
  Fe  Fe118     1.0  0.39569  0.35416  0.98244  1.0000
  N   N59       1.0  0.21124  0.37284  0.91415  1.0000
  C   C892      1.0  0.18444  0.37263  0.92161  1.0000
  C   C893      1.0  0.21586  0.39899  0.91147  1.0000
  C   C894      1.0  0.21454  0.36587  0.89950  1.0000
  C   C895      1.0  0.22840  0.35556  0.92367  1.0000
  C   C896      1.0  0.24711  0.33513  0.91887  1.0000
  C   C897      1.0  0.22641  0.35870  0.93839  1.0000
  H   H1082     1.0  0.23906  0.62677  0.86469  1.0000
  C   C898      1.0  0.24136  0.34179  0.94789  1.0000
  H   H1083     1.0  0.22735  0.65201  0.83361  1.0000
  H   H1084     1.0  0.18072  0.35297  0.92473  1.0000
  H   H1085     1.0  0.17922  0.38072  0.93182  1.0000
  H   H1086     1.0  0.38527  0.50398  0.94730  1.0000
  S   S242      1.0  0.20714  0.62808  0.74531  1.0000
  H   H1087     1.0  0.17355  0.64603  0.91085  1.0000
  H   H1088     1.0  0.21200  0.40642  0.92186  1.0000
  Fe  Fe119     1.0  0.12990  0.32975  0.89217  1.0000
  H   H1089     1.0  0.34724  0.60313  0.92448  1.0000
  S   S243      1.0  0.13362  0.63980  0.76229  1.0000
  H   H1090     1.0  0.44020  0.51066  0.98441  1.0000
  H   H1091     1.0  0.21296  0.37402  0.94274  1.0000
  H   H1092     1.0  0.14133  0.64203  0.86179  1.0000
  C   C899      1.0  0.35589  0.64753  0.96989  1.0000
  H   H1093     1.0  0.48019  0.41444  0.94215  1.0000
  N   N60       1.0  0.40165  0.53515  0.94815  1.0000
  C   C900      1.0  0.41927  0.53556  0.93361  1.0000
  C   C901      1.0  0.41437  0.54188  0.95840  1.0000
  C   C902      1.0  0.39734  0.50878  0.95374  1.0000
  C   C903      1.0  0.37723  0.55310  0.94737  1.0000
  C   C904      1.0  0.37315  0.57219  0.93471  1.0000
  C   C905      1.0  0.35694  0.55256  0.95978  1.0000
  H   H1094     1.0  0.05042  0.60721  0.74842  1.0000
  C   C906      1.0  0.33363  0.56918  0.95924  1.0000
  H   H1095     1.0  0.38761  0.57482  0.92489  1.0000
  H   H1096     1.0  0.20850  0.60298  0.80308  1.0000
  H   H1097     1.0  0.35761  0.63174  0.96412  1.0000
  H   H1098     1.0  0.41033  0.53164  0.92522  1.0000
  H   H1099     1.0  0.40332  0.53967  0.96992  1.0000
  H   H1100     1.0  0.41684  0.56189  0.95493  1.0000
  H   H1101     1.0  0.43359  0.52996  0.95871  1.0000
  C   C907      1.0  0.24387  0.57819  0.77366  1.0000
  H   H1102     1.0  0.22687  0.56872  0.81758  1.0000
  C   C908      1.0  0.03435  0.62255  0.75161  1.0000
  H   H1103     1.0  0.02360  0.61470  0.76256  1.0000
  C   C909      1.0  0.09792  0.60460  0.87732  1.0000
  C   C910      1.0  0.33008  0.58723  0.94651  1.0000
  C   C911      1.0  0.43837  0.47605  0.97861  1.0000
  H   H1104     1.0  0.48039  0.38955  0.96735  1.0000
  N   N61       1.0  0.14312  0.43792  0.83769  1.0000
  C   C912      1.0  0.12503  0.43875  0.85196  1.0000
  C   C913      1.0  0.13051  0.43057  0.82754  1.0000
  C   C914      1.0  0.16549  0.41764  0.84019  1.0000
  C   C915      1.0  0.15117  0.46269  0.83197  1.0000
  C   C916      1.0  0.14597  0.47861  0.81843  1.0000
  C   C917      1.0  0.16435  0.47178  0.84019  1.0000
  C   C918      1.0  0.15384  0.50193  0.81348  1.0000
  C   C919      1.0  0.17232  0.49497  0.83509  1.0000
  C   C920      1.0  0.16716  0.50998  0.82173  1.0000
  H   H1105     1.0  0.10813  0.45408  0.85066  1.0000
  H   H1106     1.0  0.11831  0.42054  0.85659  1.0000
  H   H1107     1.0  0.13367  0.44225  0.86060  1.0000
  H   H1108     1.0  0.11260  0.44414  0.82579  1.0000
  H   H1109     1.0  0.12528  0.41157  0.83204  1.0000
  H   H1110     1.0  0.14327  0.42920  0.81662  1.0000
  H   H1111     1.0  0.17431  0.41982  0.84909  1.0000
  H   H1112     1.0  0.16034  0.39854  0.84365  1.0000
  H   H1113     1.0  0.18030  0.41738  0.82994  1.0000
  H   H1114     1.0  0.13572  0.47363  0.81148  1.0000
  H   H1115     1.0  0.16844  0.46107  0.85072  1.0000
  H   H1116     1.0  0.14939  0.51403  0.80322  1.0000
  H   H1117     1.0  0.18242  0.50139  0.84162  1.0000
  H   H1118     1.0  0.17330  0.52800  0.81782  1.0000
  H   H1119     1.0  0.35899  0.53923  0.96998  1.0000
  Fe  Fe120     1.0  0.45442  0.57610  0.97588  1.0000
  N   N62       1.0  0.22395  0.57830  0.78726  1.0000
  Fe  Fe121     1.0  0.45050  0.33857  0.98604  1.0000
  C   C921      1.0  0.10056  0.63449  0.85414  1.0000
  H   H1120     1.0  0.03362  0.59094  0.98174  1.0000
  H   H1121     1.0  0.10713  0.56412  0.94897  1.0000
  H   H1122     1.0  0.49064  0.65578  0.96691  1.0000
  N   N63       1.0  0.06262  0.59461  0.96199  1.0000
  H   H1123     1.0  0.24168  0.59683  0.76590  1.0000
  H   H1124     1.0  0.43701  0.52115  0.93438  1.0000
  H   H1125     1.0  0.07094  0.55384  0.96525  1.0000
  H   H1126     1.0  0.10538  0.65303  0.84799  1.0000
  S   S244      1.0  0.32425  0.65957  0.93062  1.0000
  C   C922      1.0  0.05959  0.57046  0.95898  1.0000
  Fe  Fe122     1.0  0.12717  0.60024  0.77193  1.0000
  N   N64       1.0  0.10588  0.62876  0.86936  1.0000
  H   H1127     1.0  0.14384  0.60940  0.86180  1.0000
  H   H1128     1.0  0.34065  0.59789  0.98000  1.0000
  H   H1129     1.0  0.19406  0.60082  0.77591  1.0000
  C   C923      1.0  0.13379  0.62481  0.86798  1.0000
  C   C924      1.0  0.05349  0.59420  0.97807  1.0000
  H   H1130     1.0  0.31819  0.56796  0.96871  1.0000
  H   H1131     1.0  0.10916  0.58833  0.87211  1.0000
  C   C925      1.0  0.08133  0.33907  0.74312  1.0000
  H   H1132     1.0  0.17092  0.38410  0.91437  1.0000
  C   C926      1.0  0.11163  0.64030  0.91899  1.0000
  C   C927      1.0  0.13873  0.32797  0.81741  1.0000
  H   H1133     1.0  0.37475  0.64628  0.97260  1.0000
  H   H1134     1.0  0.12397  0.65908  0.88327  1.0000
  H   H1135     1.0  0.49185  0.62214  0.95422  1.0000
  C   C928      1.0  0.13283  0.65121  0.91717  1.0000
  C   C929      1.0  0.24926  0.64134  0.85714  1.0000
  Fe  Fe123     1.0  0.13891  0.58483  0.74154  1.0000
  H   H1136     1.0  0.26311  0.64438  0.86306  1.0000
  H   H1137     1.0  0.04571  0.36156  0.73822  1.0000
  C   C930      1.0  0.07960  0.33498  0.83843  1.0000
  H   H1138     1.0  0.45134  0.64991  0.96418  1.0000
  H   H1139     1.0  0.44248  0.65530  0.94667  1.0000
  C   C931      1.0  0.49236  0.63584  0.94349  1.0000
  H   H1140     1.0  0.31198  0.60003  0.94601  1.0000
  H   H1141     1.0  0.00503  0.65671  0.76477  1.0000
  C   C932      1.0  0.01147  0.65640  0.98052  1.0000
  H   H1142     1.0  0.25013  0.33108  0.90791  1.0000
  N   N65       1.0  0.01791  0.63191  0.74033  1.0000
  C   C933      1.0  0.49473  0.38360  0.95821  1.0000
  C   C934      1.0  0.49468  0.39759  0.94394  1.0000
  C   C935      1.0  0.00910  0.60977  0.73840  1.0000
  H   H1143     1.0  0.25187  0.64934  0.73818  1.0000
  C   C936      1.0  0.21553  0.65897  0.84365  1.0000
  H   H1144     1.0  0.48923  0.32707  0.92885  1.0000
  S   S245      1.0  0.21119  0.78923  0.03588  1.0000
  H   H1145     1.0  0.18763  0.87232  0.17252  1.0000
  S   S246      1.0  0.33817  0.75458  0.17726  1.0000
  S   S247      1.0  0.19323  0.78229  0.00048  1.0000
  S   S248      1.0  0.15118  0.89674  0.99365  1.0000
  C   C937      1.0  0.18557  0.91160  0.00543  1.0000
  H   H1146     1.0  0.38770  0.77378  0.17305  1.0000
  Fe  Fe124     1.0  0.01403  0.67728  0.09560  1.0000
  C   C938      1.0  0.19811  0.88760  0.17175  1.0000
  H   H1147     1.0  0.41125  0.75541  0.16143  1.0000
  S   S249      1.0  0.14915  0.95947  0.17084  1.0000
  H   H1148     1.0  0.09259  0.68365  0.03534  1.0000
  Fe  Fe125     1.0  0.09293  0.94076  0.20141  1.0000
  S   S250      1.0  0.13011  0.91372  0.19758  1.0000
  S   S251      1.0  0.05892  0.93061  0.21831  1.0000
  Fe  Fe126     1.0  0.14730  0.94758  0.19527  1.0000
  S   S252      1.0  0.18150  0.94153  0.20555  1.0000
  Fe  Fe127     1.0  0.12934  0.92724  0.17344  1.0000
  S   S253      1.0  0.14557  0.90339  0.15591  1.0000
  H   H1149     1.0  0.00280  0.71299  0.99147  1.0000
  S   S254      1.0  0.09031  0.95093  0.17735  1.0000
  Fe  Fe128     1.0  0.14141  0.76702  0.11798  1.0000
  S   S255      1.0  0.10612  0.76836  0.13560  1.0000
  S   S256      1.0  0.13306  0.79100  0.09631  1.0000
  Fe  Fe129     1.0  0.17354  0.73034  0.13857  1.0000
  S   S257      1.0  0.14072  0.72938  0.15756  1.0000
  S   S258      1.0  0.20849  0.70277  0.14431  1.0000
  Fe  Fe130     1.0  0.11887  0.72640  0.14114  1.0000
  S   S259      1.0  0.09286  0.69813  0.14708  1.0000
  Fe  Fe131     1.0  0.13145  0.77136  0.15017  1.0000
  S   S260      1.0  0.11893  0.79425  0.16835  1.0000
  S   S261      1.0  0.15232  0.72461  0.12250  1.0000
  S   S262      1.0  0.16616  0.77287  0.13226  1.0000
  H   H1150     1.0  0.18345  0.89340  0.19910  1.0000
  C   C939      1.0  0.08243  0.69347  0.13193  1.0000
  H   H1151     1.0  0.23533  0.74972  0.19192  1.0000
  H   H1152     1.0  0.22627  0.77723  0.17079  1.0000
  H   H1153     1.0  0.23847  0.89996  0.18994  1.0000
  H   H1154     1.0  0.42965  0.78655  0.19401  1.0000
  H   H1155     1.0  0.37640  0.83194  0.22436  1.0000
  C   C940      1.0  0.15181  0.94442  0.99699  1.0000
  C   C941      1.0  0.22993  0.71774  0.14831  1.0000
  C   C942      1.0  0.23357  0.74160  0.14024  1.0000
  C   C943      1.0  0.24993  0.75395  0.14393  1.0000
  C   C944      1.0  0.26271  0.74244  0.15563  1.0000
  H   H1156     1.0  0.26905  0.70955  0.17273  1.0000
  H   H1157     1.0  0.00805  0.67638  0.01090  1.0000
  H   H1158     1.0  0.22367  0.75060  0.13121  1.0000
  H   H1159     1.0  0.25254  0.77254  0.13774  1.0000
  C   C945      1.0  0.09584  0.69966  0.11753  1.0000
  Fe  Fe132     1.0  0.11014  0.98207  0.17680  1.0000
  C   C946      1.0  0.06114  0.79584  0.10825  1.0000
  C   C947      1.0  0.16640  0.78739  0.19054  1.0000
  H   H1160     1.0  0.17925  0.68242  0.17362  1.0000
  H   H1161     1.0  0.40784  0.75325  0.22445  1.0000
  C   C948      1.0  0.06553  0.76960  0.11020  1.0000
  C   C949      1.0  0.13758  0.87332  0.15940  1.0000
  C   C950      1.0  0.14674  0.85815  0.14861  1.0000
  C   C951      1.0  0.14075  0.83403  0.15113  1.0000
  C   C952      1.0  0.12569  0.82491  0.16450  1.0000
  C   C953      1.0  0.11673  0.84000  0.17534  1.0000
  C   C954      1.0  0.12262  0.86418  0.17280  1.0000
  H   H1162     1.0  0.15826  0.86518  0.13820  1.0000
  H   H1163     1.0  0.14766  0.82261  0.14268  1.0000
  H   H1164     1.0  0.10502  0.83305  0.18571  1.0000
  H   H1165     1.0  0.11537  0.87580  0.18115  1.0000
  H   H1166     1.0  0.25077  0.85699  0.19999  1.0000
  H   H1167     1.0  0.11289  0.70715  0.11561  1.0000
  H   H1168     1.0  0.33753  0.82672  0.21759  1.0000
  N   N66       1.0  0.00975  0.71396  0.01284  1.0000
  C   C955      1.0  0.25814  0.87918  0.99175  1.0000
  S   S263      1.0  0.43195  0.86554  0.22605  1.0000
  C   C956      1.0  0.41774  0.78881  0.18561  1.0000
  S   S264      1.0  0.32334  0.78432  0.21152  1.0000
  H   H1169     1.0  0.25925  0.81316  0.15863  1.0000
  C   C957      1.0  0.37055  0.76638  0.21896  1.0000
  C   C958      1.0  0.22041  0.73884  0.19598  1.0000
  C   C959      1.0  0.35073  0.78710  0.21695  1.0000
  H   H1170     1.0  0.15962  0.73596  0.19518  1.0000
  C   C960      1.0  0.20916  0.78723  0.17747  1.0000
  C   C961      1.0  0.47126  0.68195  0.99250  1.0000
  H   H1171     1.0  0.21319  0.92439  0.01324  1.0000
  S   S265      1.0  0.15242  0.82609  0.01685  1.0000
  C   C962      1.0  0.06480  0.68693  0.10778  1.0000
  H   H1172     1.0  0.15073  0.95885  0.13754  1.0000
  H   H1173     1.0  0.05402  0.98509  0.20242  1.0000
  C   C963      1.0  0.32366  0.71041  0.13826  1.0000
  C   C964      1.0  0.32475  0.94940  0.23167  1.0000
  H   H1174     1.0  0.00945  0.70743  0.04256  1.0000
  S   S266      1.0  0.29016  0.73736  0.20209  1.0000
  C   C965      1.0  0.19105  0.79166  0.05312  1.0000
  C   C966      1.0  0.16827  0.80922  0.05401  1.0000
  C   C967      1.0  0.15109  0.80932  0.06749  1.0000
  C   C968      1.0  0.15665  0.79202  0.08023  1.0000
  C   C969      1.0  0.17989  0.77504  0.07956  1.0000
  C   C970      1.0  0.19713  0.77493  0.06599  1.0000
  H   H1175     1.0  0.16390  0.82288  0.04435  1.0000
  H   H1176     1.0  0.13332  0.82276  0.06802  1.0000
  H   H1177     1.0  0.18432  0.76167  0.08938  1.0000
  H   H1178     1.0  0.21485  0.76142  0.06538  1.0000
  H   H1179     1.0  0.16529  0.75890  0.17169  1.0000
  C   C971      1.0  0.48476  0.66154  0.05127  1.0000
  H   H1180     1.0  0.03444  0.67286  0.12407  1.0000
  C   C972      1.0  0.01967  0.77029  0.11518  1.0000
  H   H1181     1.0  0.42537  0.72700  0.18367  1.0000
  H   H1182     1.0  0.43862  0.68736  0.14635  1.0000
  H   H1183     1.0  0.36882  0.74806  0.21764  1.0000
  C   C973      1.0  0.18467  0.70746  0.20701  1.0000
  C   C974      1.0  0.16203  0.96280  0.00048  1.0000
  Fe  Fe133     1.0  0.16727  0.85450  0.99743  1.0000
  H   H1184     1.0  0.32437  0.67935  0.12030  1.0000
  C   C975      1.0  0.06049  0.68339  0.13427  1.0000
  Fe  Fe134     1.0  0.31431  0.69840  0.20473  1.0000
  H   H1185     1.0  0.17094  0.69513  0.21126  1.0000
  C   C976      1.0  0.39470  0.79294  0.22491  1.0000
  C   C977      1.0  0.20141  0.98977  0.22475  1.0000
  S   S267      1.0  0.34912  0.71129  0.20642  1.0000
  C   C978      1.0  0.03381  0.73175  0.04280  1.0000
  S   S268      1.0  0.39748  0.70744  0.16775  1.0000
  H   H1186     1.0  0.19472  0.89190  0.00741  1.0000
  H   H1187     1.0  0.28752  0.79688  0.17683  1.0000
  H   H1188     1.0  0.43496  0.73994  0.19672  1.0000
  H   H1189     1.0  0.36210  0.68935  0.15254  1.0000
  S   S269      1.0  0.20836  0.83754  0.99753  1.0000
  C   C979      1.0  0.42195  0.74395  0.18874  1.0000
  C   C980      1.0  0.18433  0.95573  0.00623  1.0000
  C   C981      1.0  0.18471  0.96930  0.21010  1.0000
  C   C982      1.0  0.45188  0.76450  0.16925  1.0000
  N   N67       1.0  0.12262  0.75291  0.05572  1.0000
  C   C983      1.0  0.11007  0.75589  0.07109  1.0000
  C   C984      1.0  0.15031  0.74525  0.05536  1.0000
  C   C985      1.0  0.11753  0.77805  0.04597  1.0000
  C   C986      1.0  0.11395  0.73394  0.05039  1.0000
  C   C987      1.0  0.09627  0.71901  0.05941  1.0000
  C   C988      1.0  0.12370  0.72954  0.03577  1.0000
  C   C989      1.0  0.08898  0.70092  0.05400  1.0000
  C   C990      1.0  0.11587  0.71182  0.03038  1.0000
  C   C991      1.0  0.09860  0.69746  0.03950  1.0000
  H   H1190     1.0  0.11458  0.73817  0.07922  1.0000
  H   H1191     1.0  0.11664  0.77070  0.07462  1.0000
  H   H1192     1.0  0.08914  0.76178  0.07218  1.0000
  H   H1193     1.0  0.15523  0.72576  0.06175  1.0000
  H   H1194     1.0  0.15727  0.75804  0.06025  1.0000
  H   H1195     1.0  0.16153  0.74593  0.04391  1.0000
  H   H1196     1.0  0.09711  0.78395  0.04525  1.0000
  H   H1197     1.0  0.12297  0.79298  0.05000  1.0000
  H   H1198     1.0  0.12850  0.77833  0.03449  1.0000
  H   H1199     1.0  0.08781  0.72079  0.07070  1.0000
  H   H1200     1.0  0.13751  0.73988  0.02835  1.0000
  H   H1201     1.0  0.01487  0.67798  0.02804  1.0000
  H   H1202     1.0  0.12333  0.70926  0.01906  1.0000
  H   H1203     1.0  0.28016  0.67512  0.19478  1.0000
  H   H1204     1.0  0.32602  0.95385  0.21980  1.0000
  C   C992      1.0  0.48481  0.69046  0.02778  1.0000
  H   H1205     1.0  0.40220  0.74547  0.19515  1.0000
  C   C993      1.0  0.34253  0.67763  0.12393  1.0000
  H   H1206     1.0  0.28870  0.97441  0.23611  1.0000
  C   C994      1.0  0.20852  0.69992  0.21084  1.0000
  C   C995      1.0  0.04516  0.75698  0.11363  1.0000
  C   C996      1.0  0.04935  0.74862  0.03457  1.0000
  H   H1207     1.0  0.46164  0.79806  0.17350  1.0000
  C   C997      1.0  0.14757  0.98738  0.10202  1.0000
  Fe  Fe135     1.0  0.30456  0.73835  0.17787  1.0000
  H   H1208     1.0  0.01842  0.72678  0.10651  1.0000
  C   C998      1.0  0.39256  0.76932  0.22288  1.0000
  S   S270      1.0  0.37154  0.91943  0.22601  1.0000
  C   C999      1.0  0.47376  0.67273  0.03886  1.0000
  C   C1000     1.0  0.05538  0.96895  0.23322  1.0000
  S   S271      1.0  0.32576  0.69824  0.18036  1.0000
  H   H1209     1.0  0.46798  0.90235  0.22045  1.0000
  C   C1001     1.0  0.22633  0.71556  0.20534  1.0000
  H   H1210     1.0  0.20856  0.89230  0.16020  1.0000
  H   H1211     1.0  0.21331  0.68181  0.21801  1.0000
  H   H1212     1.0  0.37385  0.69786  0.13326  1.0000
  H   H1213     1.0  0.03162  0.72719  0.05476  1.0000
  C   C1002     1.0  0.22777  0.90227  0.18097  1.0000
  C   C1003     1.0  0.19904  0.87682  0.19764  1.0000
  C   C1004     1.0  0.23473  0.85753  0.18088  1.0000
  C   C1005     1.0  0.23794  0.84442  0.16913  1.0000
  C   C1006     1.0  0.25167  0.84778  0.19096  1.0000
  C   C1007     1.0  0.25685  0.82283  0.16774  1.0000
  C   C1008     1.0  0.27032  0.82607  0.18953  1.0000
  C   C1009     1.0  0.27289  0.81361  0.17795  1.0000
  H   H1214     1.0  0.24128  0.90476  0.17022  1.0000
  H   H1215     1.0  0.20967  0.87457  0.20661  1.0000
  H   H1216     1.0  0.19022  0.85992  0.19964  1.0000
  H   H1217     1.0  0.22626  0.85055  0.16078  1.0000
  C   C1010     1.0  0.46229  0.74409  0.16157  1.0000
  H   H1218     1.0  0.01713  0.72375  0.13284  1.0000
  H   H1219     1.0  0.28307  0.81891  0.19738  1.0000
  H   H1220     1.0  0.06462  0.76734  0.01289  1.0000
  N   N68       1.0  0.42541  0.76731  0.17760  1.0000
  H   H1221     1.0  0.15671  0.99330  0.19800  1.0000
  C   C1011     1.0  0.40787  0.77153  0.16720  1.0000
  C   C1012     1.0  0.42632  0.66456  0.99518  1.0000
  C   C1013     1.0  0.25936  0.71843  0.16360  1.0000
  H   H1222     1.0  0.21477  0.79161  0.18699  1.0000
  H   H1223     1.0  0.14849  0.68065  0.18511  1.0000
  H   H1224     1.0  0.29021  0.67711  0.14014  1.0000
  H   H1225     1.0  0.25889  0.88662  0.00123  1.0000
  Fe  Fe136     1.0  0.35850  0.71443  0.18175  1.0000
  H   H1226     1.0  0.16992  0.78934  0.20127  1.0000
  H   H1227     1.0  0.31911  0.71561  0.14937  1.0000
  S   S272      1.0  0.12507  0.77757  0.00346  1.0000
  N   N69       1.0  0.18879  0.77207  0.18246  1.0000
  C   C1014     1.0  0.18212  0.76796  0.16906  1.0000
  H   H1228     1.0  0.19797  0.75549  0.16310  1.0000
  H   H1229     1.0  0.07429  0.97059  0.22735  1.0000
  C   C1015     1.0  0.16713  0.66916  0.18094  1.0000
  H   H1230     1.0  0.08486  0.75898  0.10930  1.0000
  H   H1231     1.0  0.49385  0.80647  0.20933  1.0000
  H   H1232     1.0  0.14285  0.95050  0.11477  1.0000
  H   H1233     1.0  0.10489  0.74052  0.99572  1.0000
  H   H1234     1.0  0.09785  0.70070  0.09446  1.0000
  C   C1016     1.0  0.24291  0.70609  0.15993  1.0000
  C   C1017     1.0  0.37477  0.81358  0.22303  1.0000
  H   H1235     1.0  0.03312  0.83002  0.10818  1.0000
  H   H1236     1.0  0.21375  0.92035  0.18136  1.0000
  Fe  Fe137     1.0  0.15322  0.80296  0.00018  1.0000
  H   H1237     1.0  0.41862  0.80728  0.17791  1.0000
  H   H1238     1.0  0.21359  0.95045  0.22295  1.0000
  Fe  Fe138     1.0  0.32584  0.75033  0.20175  1.0000
  C   C1018     1.0  0.35282  0.81063  0.21911  1.0000
  H   H1239     1.0  0.16732  0.67658  0.15204  1.0000
  H   H1240     1.0  0.16132  0.80672  0.18398  1.0000
  H   H1241     1.0  0.33422  0.72461  0.13054  1.0000
  H   H1242     1.0  0.23975  0.68782  0.16632  1.0000
  N   N70       1.0  0.21519  0.88060  0.18267  1.0000
  H   H1243     1.0  0.49724  0.76402  0.20499  1.0000
  S   S273      1.0  0.28199  0.75904  0.16033  1.0000
  H   H1244     1.0  0.47611  0.69931  0.01824  1.0000
  H   H1245     1.0  0.39774  0.79032  0.19173  1.0000
  H   H1246     1.0  0.03332  0.97967  0.18267  1.0000
  H   H1247     1.0  0.15283  0.98249  0.99853  1.0000
  C   C1019     1.0  0.29943  0.66496  0.14886  1.0000
  C   C1020     1.0  0.04377  0.95056  0.23109  1.0000
  C   C1021     1.0  0.27215  0.85535  0.98983  1.0000
  S   S274      1.0  0.11023  0.97361  0.20112  1.0000
  H   H1248     1.0  0.05927  0.75720  0.04009  1.0000
  C   C1022     1.0  0.40838  0.67670  0.16411  1.0000
  C   C1023     1.0  0.00453  0.99226  0.20678  1.0000
  C   C1024     1.0  0.08723  0.69608  0.10553  1.0000
  Fe  Fe139     1.0  0.19341  0.80753  0.01583  1.0000
  C   C1025     1.0  0.46776  0.78200  0.16806  1.0000
  H   H1249     1.0  0.20303  0.80563  0.17024  1.0000
  H   H1250     1.0  0.48117  0.84887  0.20255  1.0000
  H   H1251     1.0  0.49007  0.92649  0.19744  1.0000
  C   C1026     1.0  0.14707  0.96867  0.11476  1.0000
  C   C1027     1.0  0.17842  0.73083  0.19780  1.0000
  C   C1028     1.0  0.32433  0.66627  0.14985  1.0000
  H   H1252     1.0  0.14908  0.77906  0.19289  1.0000
  H   H1253     1.0  0.35157  0.67182  0.99161  1.0000
  H   H1254     1.0  0.35375  0.69023  0.11526  1.0000
  C   C1029     1.0  0.19606  0.74732  0.19205  1.0000
  H   H1255     1.0  0.13564  0.67742  0.16218  1.0000
  C   C1030     1.0  0.19603  0.93006  0.00870  1.0000
  H   H1256     1.0  0.17738  0.78606  0.16123  1.0000
  H   H1257     1.0  0.18337  0.90473  0.17360  1.0000
  H   H1258     1.0  0.30535  0.71315  0.13460  1.0000
  H   H1259     1.0  0.12604  0.99182  0.22636  1.0000
  H   H1260     1.0  0.04949  0.73664  0.11521  1.0000
  C   C1031     1.0  0.15412  0.66453  0.15944  1.0000
  N   N71       1.0  0.33847  0.68421  0.13871  1.0000
  C   C1032     1.0  0.20142  0.96820  0.21939  1.0000
  H   H1261     1.0  0.07565  0.68957  0.06112  1.0000
  H   H1262     1.0  0.24494  0.70950  0.20829  1.0000
  C   C1033     1.0  0.16353  0.91877  0.99942  1.0000
  S   S275      1.0  0.42279  0.79657  0.22919  1.0000
  C   C1034     1.0  0.01828  0.68610  0.01601  1.0000
  C   C1035     1.0  0.02119  0.72051  0.03568  1.0000
  H   H1263     1.0  0.01400  0.97195  0.20777  1.0000
  C   C1036     1.0  0.00096  0.74165  0.10720  1.0000
  H   H1264     1.0  0.03891  0.68060  0.01160  1.0000
  H   H1265     1.0  0.45131  0.73019  0.16174  1.0000
  H   H1266     1.0  0.37655  0.66518  0.14155  1.0000
  C   C1037     1.0  0.03981  0.74313  0.01197  1.0000
  S   S276      1.0  0.19870  0.97860  0.00971  1.0000
  C   C1038     1.0  0.02362  0.72596  0.02004  1.0000
  H   H1267     1.0  0.00133  0.75419  0.09613  1.0000
  H   H1268     1.0  0.07703  0.80552  0.10582  1.0000
  C   C1039     1.0  0.05155  0.68031  0.12220  1.0000
  H   H1269     1.0  0.49346  0.87697  0.19478  1.0000
  C   C1040     1.0  0.05239  0.75425  0.01922  1.0000
  H   H1270     1.0  0.31863  0.67054  0.99960  1.0000
  C   C1041     1.0  0.42907  0.67213  0.15263  1.0000
  C   C1042     1.0  0.03637  0.80958  0.10962  1.0000
  H   H1271     1.0  0.48949  0.85805  0.18279  1.0000
  S   S277      1.0  0.05333  0.68539  0.09227  1.0000
  H   H1272     1.0  0.41002  0.78876  0.15855  1.0000
  C   C1043     1.0  0.01358  0.72230  0.99650  1.0000
  C   C1044     1.0  0.36377  0.68402  0.14169  1.0000
  H   H1273     1.0  0.28376  0.84432  0.99777  1.0000
  H   H1274     1.0  0.04312  0.74837  0.00005  1.0000
  H   H1275     1.0  0.45656  0.66759  0.03784  1.0000
  C   C1045     1.0  0.15162  0.97341  0.12760  1.0000
  S   S278      1.0  0.30014  0.66629  0.22168  1.0000
  H   H1276     1.0  0.05016  0.67837  0.14542  1.0000
  C   C1046     1.0  0.48779  0.90294  0.21922  1.0000
  C   C1047     1.0  0.16921  0.99226  0.20542  1.0000
  H   H1277     1.0  0.49480  0.72532  0.14778  1.0000
  C   C1048     1.0  0.40610  0.97951  0.21624  1.0000
  C   C1049     1.0  0.11069  0.77898  0.98854  1.0000
  C   C1050     1.0  0.01583  0.79712  0.11301  1.0000
  H   H1278     1.0  0.13477  0.95013  0.99234  1.0000
  H   H1279     1.0  0.36848  0.97424  0.22544  1.0000
  H   H1280     1.0  0.21352  0.98862  0.23245  1.0000
  C   C1051     1.0  0.49236  0.77918  0.15961  1.0000
  C   C1052     1.0  0.48708  0.74122  0.15342  1.0000
  H   H1281     1.0  0.03385  0.71709  0.99120  1.0000
  C   C1053     1.0  0.49530  0.85718  0.19340  1.0000
  H   H1282     1.0  0.49398  0.68312  0.07873  1.0000
  H   H1283     1.0  0.41236  0.96016  0.21446  1.0000
  C   C1054     1.0  0.38089  0.98776  0.22263  1.0000
  H   H1284     1.0  0.13662  0.94850  0.23169  1.0000
  H   H1285     1.0  0.14366  0.98375  0.09209  1.0000
  C   C1055     1.0  0.10236  0.75759  0.98744  1.0000
  H   H1286     1.0  0.38034  0.66034  0.18120  1.0000
  C   C1056     1.0  0.27131  0.66099  0.20293  1.0000
  H   H1287     1.0  0.11966  0.91160  0.23190  1.0000
  H   H1288     1.0  0.00707  0.74307  0.99326  1.0000
  C   C1057     1.0  0.33330  0.67004  0.98932  1.0000
  C   C1058     1.0  0.99952  0.73841  0.13321  1.0000
  H   H1289     1.0  0.44266  0.98955  0.20712  1.0000
  H   H1290     1.0  0.99869  0.74855  0.14222  1.0000
  C   C1059     1.0  0.46622  0.66029  0.00282  1.0000
  H   H1291     1.0  0.45869  0.89399  0.40311  1.0000
  H   H1292     1.0  0.24424  0.67449  0.24348  1.0000
  H   H1293     1.0  0.25402  0.92072  0.27384  1.0000
  C   C1060     1.0  0.26361  0.67744  0.26000  1.0000
  H   H1294     1.0  0.40917  0.92937  0.42857  1.0000
  H   H1295     1.0  0.43383  0.93281  0.44440  1.0000
  H   H1296     1.0  0.31699  0.67637  0.40640  1.0000
  S   S279      1.0  0.27684  0.97101  0.26800  1.0000
  N   N72       1.0  0.11912  0.98299  0.25024  1.0000
  C   C1061     1.0  0.32823  0.78872  0.46750  1.0000
  C   C1062     1.0  0.11128  0.92285  0.24040  1.0000
  C   C1063     1.0  0.24278  0.66613  0.28597  1.0000
  H   H1297     1.0  0.07843  0.96336  0.27025  1.0000
  C   C1064     1.0  0.43303  0.82872  0.32539  1.0000
  H   H1298     1.0  0.44970  0.90055  0.31661  1.0000
  Fe  Fe140     1.0  0.41782  0.83073  0.23945  1.0000
  H   H1299     1.0  0.28326  0.86837  0.44250  1.0000
  H   H1300     1.0  0.33427  0.81569  0.42613  1.0000
  C   C1065     1.0  0.22364  0.66359  0.26554  1.0000
  C   C1066     1.0  0.40139  0.84063  0.30452  1.0000
  C   C1067     1.0  0.36073  0.79696  0.32932  1.0000
  Fe  Fe141     1.0  0.39386  0.88345  0.36844  1.0000
  S   S280      1.0  0.40508  0.84128  0.37335  1.0000
  S   S281      1.0  0.35294  0.90047  0.36737  1.0000
  Fe  Fe142     1.0  0.42822  0.84840  0.38783  1.0000
  S   S282      1.0  0.42990  0.82386  0.41010  1.0000
  S   S283      1.0  0.41478  0.89042  0.38429  1.0000
  H   H1301     1.0  0.39028  0.96921  0.45740  1.0000
  C   C1068     1.0  0.13157  0.80551  0.47706  1.0000
  S   S284      1.0  0.17521  0.87024  0.45516  1.0000
  H   H1302     1.0  0.43666  0.87561  0.30536  1.0000
  N   N73       1.0  0.44218  0.89965  0.42541  1.0000
  H   H1303     1.0  0.35961  0.77153  0.38569  1.0000
  C   C1069     1.0  0.38632  0.78593  0.32823  1.0000
  Fe  Fe143     1.0  0.44802  0.89105  0.36542  1.0000
  H   H1304     1.0  0.08261  0.90052  0.25063  1.0000
  C   C1070     1.0  0.01137  0.66565  0.39402  1.0000
  Fe  Fe144     1.0  0.29107  0.78177  0.39095  1.0000
  S   S285      1.0  0.30644  0.77845  0.41134  1.0000
  S   S286      1.0  0.28891  0.81666  0.37292  1.0000
  Fe  Fe145     1.0  0.27903  0.72851  0.39975  1.0000
  S   S287      1.0  0.29291  0.72125  0.42117  1.0000
  S   S288      1.0  0.27159  0.69472  0.39274  1.0000
  Fe  Fe146     1.0  0.27265  0.76100  0.42297  1.0000
  S   S289      1.0  0.25434  0.76944  0.44564  1.0000
  Fe  Fe147     1.0  0.32542  0.73923  0.40793  1.0000
  S   S290      1.0  0.36635  0.72290  0.40974  1.0000
  S   S291      1.0  0.25555  0.76685  0.40280  1.0000
  S   S292      1.0  0.31326  0.74407  0.38630  1.0000
  H   H1305     1.0  0.39810  0.78463  0.31742  1.0000
  H   H1306     1.0  0.12368  0.86761  0.46356  1.0000
  C   C1071     1.0  0.01939  0.94823  0.23911  1.0000
  H   H1307     1.0  0.42838  0.90846  0.29676  1.0000
  S   S293      1.0  0.34720  0.85934  0.46329  1.0000
  Fe  Fe148     1.0  0.32735  0.95556  0.44744  1.0000
  H   H1308     1.0  0.04338  0.90487  0.48222  1.0000
  S   S294      1.0  0.36322  0.93022  0.45350  1.0000
  S   S295      1.0  0.30432  0.92499  0.45507  1.0000
  C   C1072     1.0  0.24360  0.97900  0.36561  1.0000
  C   C1073     1.0  0.44161  0.82029  0.31193  1.0000
  H   H1309     1.0  0.42840  0.88368  0.28757  1.0000
  C   C1074     1.0  0.14648  0.97634  0.25100  1.0000
  C   C1075     1.0  0.38211  0.77894  0.35523  1.0000
  H   H1310     1.0  0.21404  0.93388  0.43771  1.0000
  H   H1311     1.0  0.12097  0.85991  0.43957  1.0000
  C   C1076     1.0  0.08856  0.95252  0.26185  1.0000
  H   H1312     1.0  0.27867  0.97749  0.44632  1.0000
  C   C1077     1.0  0.48314  0.90888  0.31979  1.0000
  H   H1313     1.0  0.45049  0.87103  0.44428  1.0000
  H   H1314     1.0  0.28142  0.89439  0.25626  1.0000
  C   C1078     1.0  0.35585  0.69474  0.45389  1.0000
  C   C1079     1.0  0.35142  0.70720  0.43974  1.0000
  C   C1080     1.0  0.37159  0.70801  0.42767  1.0000
  C   C1081     1.0  0.39938  0.97742  0.46354  1.0000
  H   H1315     1.0  0.47016  0.86887  0.41749  1.0000
  S   S296      1.0  0.17267  0.68544  0.37270  1.0000
  H   H1316     1.0  0.33240  0.71618  0.43820  1.0000
  H   H1317     1.0  0.43270  0.82019  0.29097  1.0000
  H   H1318     1.0  0.25065  0.94802  0.43020  1.0000
  C   C1082     1.0  0.48003  0.89663  0.29706  1.0000
  C   C1083     1.0  0.34552  0.79868  0.34317  1.0000
  H   H1319     1.0  0.37358  0.79963  0.37972  1.0000
  C   C1084     1.0  0.22342  0.67120  0.37483  1.0000
  S   S297      1.0  0.32558  0.98311  0.42591  1.0000
  C   C1085     1.0  0.24523  0.67390  0.37911  1.0000
  C   C1086     1.0  0.24457  0.69397  0.38602  1.0000
  C   C1087     1.0  0.22209  0.71171  0.38828  1.0000
  C   C1088     1.0  0.20029  0.70907  0.38394  1.0000
  H   H1320     1.0  0.26829  0.93138  0.37295  1.0000
  C   C1089     1.0  0.48502  0.91343  0.41853  1.0000
  H   H1321     1.0  0.22134  0.72719  0.39362  1.0000
  H   H1322     1.0  0.18288  0.72272  0.38587  1.0000
  C   C1090     1.0  0.19851  0.84315  0.45208  1.0000
  C   C1091     1.0  0.20659  0.83731  0.43786  1.0000
  C   C1092     1.0  0.22443  0.81510  0.43555  1.0000
  C   C1093     1.0  0.23398  0.79863  0.44750  1.0000
  C   C1094     1.0  0.22664  0.80504  0.46153  1.0000
  C   C1095     1.0  0.20924  0.82733  0.46376  1.0000
  H   H1323     1.0  0.19866  0.84965  0.42871  1.0000
  H   H1324     1.0  0.23016  0.81034  0.42465  1.0000
  H   H1325     1.0  0.23418  0.79255  0.47079  1.0000
  H   H1326     1.0  0.20422  0.83217  0.47459  1.0000
  C   C1096     1.0  0.40845  0.84269  0.32854  1.0000
  N   N74       1.0  0.24171  0.66254  0.30210  1.0000
  H   H1327     1.0  0.42616  0.77174  0.37675  1.0000
  H   H1328     1.0  0.24093  0.86570  0.45055  1.0000
  Fe  Fe149     1.0  0.39593  0.88638  0.23805  1.0000
  C   C1097     1.0  0.40633  0.83413  0.42457  1.0000
  C   C1098     1.0  0.40484  0.81899  0.43869  1.0000
  C   C1099     1.0  0.38637  0.82675  0.45048  1.0000
  C   C1100     1.0  0.36993  0.85014  0.44832  1.0000
  C   C1101     1.0  0.37145  0.86550  0.43425  1.0000
  C   C1102     1.0  0.38929  0.85720  0.42230  1.0000
  H   H1329     1.0  0.41783  0.80107  0.44049  1.0000
  H   H1330     1.0  0.38516  0.81481  0.46135  1.0000
  H   H1331     1.0  0.35856  0.88350  0.43255  1.0000
  H   H1332     1.0  0.38985  0.86869  0.41140  1.0000
  C   C1103     1.0  0.33477  0.87719  0.36966  1.0000
  C   C1104     1.0  0.33846  0.85452  0.37996  1.0000
  C   C1105     1.0  0.32412  0.83592  0.38132  1.0000
  C   C1106     1.0  0.30622  0.83991  0.37230  1.0000
  C   C1107     1.0  0.30227  0.86277  0.36223  1.0000
  C   C1108     1.0  0.31629  0.88145  0.36102  1.0000
  H   H1333     1.0  0.35206  0.85149  0.38703  1.0000
  H   H1334     1.0  0.32707  0.81849  0.38923  1.0000
  H   H1335     1.0  0.28829  0.86598  0.35536  1.0000
  H   H1336     1.0  0.31323  0.89902  0.35317  1.0000
  Fe  Fe150     1.0  0.16170  0.87169  0.47950  1.0000
  Fe  Fe151     1.0  0.29482  0.93755  0.47679  1.0000
  H   H1337     1.0  0.25527  0.87178  0.46448  1.0000
  H   H1338     1.0  0.06265  0.92646  0.26975  1.0000
  H   H1339     1.0  0.34315  0.95003  0.37723  1.0000
  N   N75       1.0  0.32228  0.78418  0.45398  1.0000
  C   C1109     1.0  0.30665  0.91392  0.41604  1.0000
  C   C1110     1.0  0.39638  0.74092  0.37193  1.0000
  C   C1111     1.0  0.30370  0.96115  0.24088  1.0000
  C   C1112     1.0  0.32609  0.96428  0.37612  1.0000
  H   H1340     1.0  0.36573  0.74782  0.45506  1.0000
  S   S298      1.0  0.45356  0.82266  0.33788  1.0000
  H   H1341     1.0  0.42162  0.87080  0.43879  1.0000
  C   C1113     1.0  0.39691  0.77692  0.34095  1.0000
  H   H1342     1.0  0.49251  0.90170  0.41030  1.0000
  C   C1114     1.0  0.45255  0.93087  0.43752  1.0000
  S   S299      1.0  0.38135  0.84856  0.29162  1.0000
  H   H1343     1.0  0.42256  0.89453  0.44831  1.0000
  C   C1115     1.0  0.09050  0.91646  0.25101  1.0000
  H   H1344     1.0  0.18797  0.76585  0.46873  1.0000
  C   C1116     1.0  0.37776  0.77859  0.38189  1.0000
  Fe  Fe152     1.0  0.43845  0.84692  0.35514  1.0000
  C   C1117     1.0  0.43862  0.88939  0.29472  1.0000
  S   S300      1.0  0.43694  0.82822  0.25838  1.0000
  C   C1118     1.0  0.39255  0.84838  0.31817  1.0000
  H   H1345     1.0  0.32546  0.80687  0.34412  1.0000
  C   C1119     1.0  0.42594  0.82659  0.30139  1.0000
  H   H1346     1.0  0.37349  0.85900  0.32072  1.0000
  C   C1120     1.0  0.12076  0.94412  0.24037  1.0000
  C   C1121     1.0  0.34242  0.92602  0.25310  1.0000
  C   C1122     1.0  0.32145  0.93788  0.26229  1.0000
  C   C1123     1.0  0.30216  0.95560  0.25621  1.0000
  H   H1347     1.0  0.41197  0.69708  0.42056  1.0000
  H   H1348     1.0  0.32028  0.87437  0.42340  1.0000
  H   H1349     1.0  0.35730  0.91251  0.25789  1.0000
  H   H1350     1.0  0.32030  0.93349  0.27412  1.0000
  H   H1351     1.0  0.40163  0.84905  0.33898  1.0000
  H   H1352     1.0  0.40849  0.73227  0.36255  1.0000
  N   N76       1.0  0.30687  0.88791  0.30895  1.0000
  C   C1124     1.0  0.32905  0.90037  0.30567  1.0000
  C   C1125     1.0  0.28675  0.90078  0.31966  1.0000
  C   C1126     1.0  0.31419  0.86121  0.31642  1.0000
  C   C1127     1.0  0.29888  0.88903  0.29488  1.0000
  C   C1128     1.0  0.31427  0.87448  0.28438  1.0000
  C   C1129     1.0  0.27675  0.90568  0.29070  1.0000
  C   C1130     1.0  0.30781  0.87616  0.27073  1.0000
  C   C1131     1.0  0.27045  0.90720  0.27701  1.0000
  C   C1132     1.0  0.34885  0.79965  0.42895  1.0000
  H   H1353     1.0  0.34505  0.89146  0.29781  1.0000
  H   H1354     1.0  0.32415  0.92067  0.30046  1.0000
  H   H1355     1.0  0.33634  0.89931  0.31585  1.0000
  H   H1356     1.0  0.26912  0.89291  0.32207  1.0000
  H   H1357     1.0  0.28214  0.92157  0.31555  1.0000
  H   H1358     1.0  0.29279  0.89847  0.33040  1.0000
  H   H1359     1.0  0.33174  0.85106  0.31022  1.0000
  H   H1360     1.0  0.31841  0.85984  0.32756  1.0000
  H   H1361     1.0  0.29880  0.85050  0.31786  1.0000
  H   H1362     1.0  0.33188  0.86215  0.28641  1.0000
  H   H1363     1.0  0.26436  0.91837  0.29755  1.0000
  C   C1133     1.0  0.30470  0.89025  0.42486  1.0000
  H   H1364     1.0  0.42513  0.92975  0.40973  1.0000
  H   H1365     1.0  0.30332  0.93673  0.38062  1.0000
  C   C1134     1.0  0.04269  0.98493  0.24326  1.0000
  C   C1135     1.0  0.46003  0.91452  0.42708  1.0000
  H   H1366     1.0  0.34290  0.79118  0.36631  1.0000
  C   C1136     1.0  0.28697  0.93450  0.41807  1.0000
  N   N77       1.0  0.39350  0.76881  0.36864  1.0000
  C   C1137     1.0  0.40059  0.68334  0.44394  1.0000
  Fe  Fe153     1.0  0.44786  0.86499  0.24585  1.0000
  H   H1367     1.0  0.45468  0.90314  0.26652  1.0000
  S   S301      1.0  0.41317  0.88910  0.25664  1.0000
  H   H1368     1.0  0.37761  0.73514  0.37420  1.0000
  H   H1369     1.0  0.43370  0.76444  0.35883  1.0000
  H   H1370     1.0  0.28414  0.80585  0.45808  1.0000
  H   H1371     1.0  0.41682  0.76845  0.33943  1.0000
  H   H1372     1.0  0.40503  0.73235  0.38192  1.0000
  C   C1138     1.0  0.41960  0.91710  0.42049  1.0000
  H   H1373     1.0  0.34015  0.69414  0.46320  1.0000
  H   H1374     1.0  0.10791  0.98500  0.27339  1.0000
  S   S302      1.0  0.38047  0.85162  0.25000  1.0000
  C   C1139     1.0  0.15288  0.78658  0.47918  1.0000
  C   C1140     1.0  0.35590  0.78964  0.35597  1.0000
  H   H1375     1.0  0.40579  0.90658  0.41901  1.0000
  H   H1376     1.0  0.22175  0.87728  0.46633  1.0000
  H   H1377     1.0  0.38732  0.77193  0.39161  1.0000
  C   C1141     1.0  0.41891  0.77547  0.36626  1.0000
  H   H1378     1.0  0.23402  0.99104  0.44324  1.0000
  S   S303      1.0  0.00874  0.88201  0.47440  1.0000
  C   C1142     1.0  0.01823  0.98276  0.25113  1.0000
  C   C1143     1.0  0.01198  0.68904  0.39759  1.0000
  C   C1144     1.0  0.20078  0.68871  0.37734  1.0000
  S   S304      1.0  0.46313  0.84936  0.37016  1.0000
  H   H1379     1.0  0.25462  0.91497  0.46631  1.0000
  C   C1145     1.0  0.41729  0.99258  0.45601  1.0000
  C   C1146     1.0  0.17116  0.78012  0.46708  1.0000
  H   H1380     1.0  0.32508  0.74399  0.46299  1.0000
  H   H1381     1.0  0.41831  0.79583  0.36126  1.0000
  H   H1382     1.0  0.46054  0.80927  0.30955  1.0000
  H   H1383     1.0  0.10581  0.85287  0.48031  1.0000
  H   H1384     1.0  0.40475  0.74420  0.43670  1.0000
  C   C1147     1.0  0.30284  0.95688  0.37807  1.0000
  H   H1385     1.0  0.43956  0.87174  0.41353  1.0000
  H   H1386     1.0  0.15817  0.96768  0.24157  1.0000
  C   C1148     1.0  0.28017  0.97511  0.37661  1.0000
  C   C1149     1.0  0.05767  0.68274  0.38968  1.0000
  H   H1387     1.0  0.29362  0.76195  0.46546  1.0000
  H   H1388     1.0  0.18264  0.78755  0.44348  1.0000
  Fe  Fe154     1.0  0.33863  0.90099  0.46328  1.0000
  H   H1389     1.0  0.34227  0.77286  0.47229  1.0000
  H   H1390     1.0  0.35276  0.80406  0.31938  1.0000
  S   S305      1.0  0.42564  0.88881  0.34892  1.0000
  N   N78       1.0  0.10561  0.83918  0.46079  1.0000
  C   C1150     1.0  0.10619  0.85963  0.46827  1.0000
  C   C1151     1.0  0.10434  0.85077  0.44509  1.0000
  C   C1152     1.0  0.08198  0.82919  0.46753  1.0000
  C   C1153     1.0  0.12802  0.81873  0.46268  1.0000
  C   C1154     1.0  0.14703  0.81160  0.45057  1.0000
  H   H1391     1.0  0.03497  0.71513  0.39830  1.0000
  C   C1155     1.0  0.16812  0.79245  0.45283  1.0000
  H   H1392     1.0  0.21741  0.69887  0.30352  1.0000
  C   C1156     1.0  0.00654  0.96444  0.24901  1.0000
  H   H1393     1.0  0.08967  0.87547  0.46711  1.0000
  H   H1394     1.0  0.48948  0.87468  0.38214  1.0000
  C   C1157     1.0  0.39335  0.97293  0.47901  1.0000
  C   C1158     1.0  0.46642  0.90725  0.27342  1.0000
  H   H1395     1.0  0.08713  0.86589  0.44412  1.0000
  Fe  Fe155     1.0  0.34867  0.94312  0.47526  1.0000
  H   H1396     1.0  0.45928  0.92713  0.27501  1.0000
  H   H1397     1.0  0.06469  0.84395  0.46592  1.0000
  H   H1398     1.0  0.29615  0.80280  0.43930  1.0000
  H   H1399     1.0  0.14637  0.82079  0.43925  1.0000
  H   H1400     1.0  0.33639  0.80620  0.46505  1.0000
  C   C1159     1.0  0.24382  0.67210  0.25523  1.0000
  H   H1401     1.0  0.23690  0.93578  0.38379  1.0000
  H   H1402     1.0  0.30918  0.75555  0.44753  1.0000
  C   C1160     1.0  0.10953  0.95981  0.25101  1.0000
  C   C1161     1.0  0.27432  0.98844  0.43587  1.0000
  H   H1403     1.0  0.21688  0.90205  0.43506  1.0000
  H   H1404     1.0  0.32022  0.86524  0.26280  1.0000
  C   C1162     1.0  0.28595  0.89252  0.26704  1.0000
  C   C1163     1.0  0.46910  0.94504  0.43932  1.0000
  H   H1405     1.0  0.22088  0.91978  0.46973  1.0000
  Fe  Fe156     1.0  0.40089  0.85236  0.26771  1.0000
  H   H1406     1.0  0.32364  0.91642  0.40778  1.0000
  H   H1407     1.0  0.08126  0.81304  0.46264  1.0000
  H   H1408     1.0  0.10343  0.83650  0.43879  1.0000
  H   H1409     1.0  0.25661  0.97324  0.35556  1.0000
  C   C1164     1.0  0.23809  0.97850  0.39170  1.0000
  H   H1410     1.0  0.30736  0.82387  0.44736  1.0000
  H   H1411     1.0  0.22526  0.97307  0.36667  1.0000
  C   C1165     1.0  0.31223  0.76040  0.45766  1.0000
  H   H1412     1.0  0.41962  0.67434  0.44553  1.0000
  C   C1166     1.0  0.03487  0.69730  0.39546  1.0000
  H   H1413     1.0  0.46307  0.95732  0.44741  1.0000
  S   S306      1.0  0.47391  0.91917  0.36066  1.0000
  C   C1167     1.0  0.30169  0.80520  0.44939  1.0000
  S   S307      1.0  0.31464  0.97051  0.46851  1.0000
  C   C1168     1.0  0.40522  0.98355  0.48691  1.0000
  H   H1414     1.0  0.19910  0.91194  0.45183  1.0000
  C   C1169     1.0  0.34569  0.78196  0.44252  1.0000
  C   C1170     1.0  0.36656  0.76192  0.44498  1.0000
  H   H1415     1.0  0.14986  0.96263  0.26133  1.0000
  C   C1171     1.0  0.38908  0.75965  0.43453  1.0000
  C   C1172     1.0  0.37150  0.79718  0.41857  1.0000
  C   C1173     1.0  0.39156  0.77725  0.42137  1.0000
  H   H1416     1.0  0.46640  0.85665  0.27892  1.0000
  H   H1417     1.0  0.28895  0.95307  0.41152  1.0000
  H   H1418     1.0  0.23695  0.94143  0.45571  1.0000
  C   C1174     1.0  0.39623  0.69633  0.42984  1.0000
  H   H1419     1.0  0.21888  0.97376  0.39397  1.0000
  N   N79       1.0  0.46572  0.88935  0.28783  1.0000
  H   H1420     1.0  0.20077  0.67315  0.30791  1.0000
  C   C1175     1.0  0.25604  0.94037  0.38220  1.0000
  H   H1421     1.0  0.47876  0.84976  0.29570  1.0000
  H   H1422     1.0  0.08014  0.82252  0.47967  1.0000
  H   H1423     1.0  0.40931  0.77580  0.41347  1.0000
  N   N80       1.0  0.23973  0.90514  0.44986  1.0000
  C   C1176     1.0  0.23798  0.92107  0.46078  1.0000
  C   C1177     1.0  0.21660  0.91368  0.44324  1.0000
  C   C1178     1.0  0.23962  0.87879  0.45810  1.0000
  C   C1179     1.0  0.26262  0.90764  0.43816  1.0000
  C   C1180     1.0  0.26520  0.93144  0.42887  1.0000
  C   C1181     1.0  0.28315  0.88705  0.43582  1.0000
  H   H1424     1.0  0.26332  0.93109  0.39256  1.0000
  C   C1182     1.0  0.21835  0.67859  0.30886  1.0000
  H   H1425     1.0  0.31103  0.79107  0.47633  1.0000
  C   C1183     1.0  0.45327  0.88290  0.41440  1.0000
  H   H1426     1.0  0.47444  0.91275  0.33077  1.0000
  H   H1427     1.0  0.35163  0.66705  0.41988  1.0000
  H   H1428     1.0  0.26481  0.68944  0.30131  1.0000
  H   H1429     1.0  0.49691  0.86250  0.27828  1.0000
  C   C1184     1.0  0.47748  0.86348  0.28510  1.0000
  S   S308      1.0  0.38496  0.66668  0.47390  1.0000
  N   N81       1.0  0.25504  0.96813  0.37899  1.0000
  H   H1430     1.0  0.34173  0.98400  0.24580  1.0000
  C   C1185     1.0  0.07927  0.93116  0.26176  1.0000
  C   C1186     1.0  0.46908  0.90184  0.31146  1.0000
  C   C1187     1.0  0.38038  0.68256  0.45602  1.0000
  C   C1188     1.0  0.43388  0.88339  0.43981  1.0000
  H   H1431     1.0  0.21728  0.67706  0.32093  1.0000
  H   H1432     1.0  0.37387  0.81123  0.40849  1.0000
  H   H1433     1.0  0.27942  0.68375  0.25185  1.0000
  S   S309      1.0  0.48685  0.87041  0.24611  1.0000
  H   H1434     1.0  0.07541  0.68911  0.38808  1.0000
  H   H1435     1.0  0.24608  0.97122  0.40197  1.0000
  H   H1436     1.0  0.27923  0.67905  0.27800  1.0000
  H   H1437     1.0  0.26206  0.66651  0.31807  1.0000
  C   C1189     1.0  0.32757  0.98981  0.37260  1.0000
  C   C1190     1.0  0.26364  0.66921  0.30586  1.0000
  C   C1191     1.0  0.49347  0.94344  0.43079  1.0000
  S   S310      1.0  0.32749  0.91157  0.48566  1.0000
  H   H1438     1.0  0.48582  0.90605  0.26654  1.0000
  C   C1192     1.0  0.26324  0.67456  0.27514  1.0000
  C   C1193     1.0  0.34426  0.93204  0.23776  1.0000
  C   C1194     1.0  0.22305  0.66071  0.28067  1.0000
  H   H1439     1.0  0.15432  0.99333  0.25063  1.0000
  H   H1440     1.0  0.01031  0.93397  0.23759  1.0000
  H   H1441     1.0  0.11816  0.81012  0.48684  1.0000
  Fe  Fe157     1.0  0.14646  0.90292  0.50448  1.0000
  S   S311      1.0  0.14408  0.86829  0.52214  1.0000
  S   S312      1.0  0.14426  0.93880  0.51242  1.0000
  S   S313      1.0  0.08992  0.83811  0.51528  1.0000
  Fe  Fe158     1.0  0.18031  0.85173  0.50852  1.0000
  S   S314      1.0  0.21739  0.83803  0.51635  1.0000
  S   S315      1.0  0.16781  0.91434  0.61443  1.0000
  H   H1442     1.0  0.48789  0.72948  0.71258  1.0000
  H   H1443     1.0  0.24398  0.83853  0.71867  1.0000
  S   S316      1.0  0.22214  0.89368  0.59421  1.0000
  S   S317      1.0  0.43681  0.79092  0.71956  1.0000
  Fe  Fe159     1.0  0.18399  0.91651  0.59029  1.0000
  H   H1444     1.0  0.18182  0.94002  0.55454  1.0000
  C   C1195     1.0  0.01653  0.92447  0.52838  1.0000
  C   C1196     1.0  0.18305  0.84658  0.55635  1.0000
  C   C1197     1.0  0.24903  0.72110  0.64454  1.0000
  C   C1198     1.0  0.40146  0.77320  0.71086  1.0000
  S   S318      1.0  0.20686  0.86069  0.63706  1.0000
  H   H1445     1.0  0.18402  0.71447  0.71781  1.0000
  H   H1446     1.0  0.04037  0.78056  0.71876  1.0000
  H   H1447     1.0  0.32987  0.81861  0.71620  1.0000
  H   H1448     1.0  0.22738  0.82226  0.54571  1.0000
  S   S319      1.0  0.15686  0.98286  0.62187  1.0000
  H   H1449     1.0  0.12330  0.89633  0.56387  1.0000
  Fe  Fe160     1.0  0.31682  0.75241  0.70867  1.0000
  S   S320      1.0  0.28261  0.77595  0.69978  1.0000
  H   H1450     1.0  0.22252  0.97985  0.66755  1.0000
  Fe  Fe161     1.0  0.32404  0.71353  0.68936  1.0000
  S   S321      1.0  0.29073  0.73424  0.67872  1.0000
  C   C1199     1.0  0.25928  0.69601  0.64333  1.0000
  Fe  Fe162     1.0  0.30534  0.76920  0.67767  1.0000
  S   S322      1.0  0.30919  0.80107  0.65791  1.0000
  Fe  Fe163     1.0  0.27086  0.73894  0.70176  1.0000
  S   S323      1.0  0.22977  0.73461  0.70912  1.0000
  S   S324      1.0  0.34058  0.74810  0.68637  1.0000
  S   S325      1.0  0.30314  0.71588  0.71254  1.0000
  C   C1200     1.0  0.37760  0.76701  0.71239  1.0000
  C   C1201     1.0  0.35887  0.77106  0.72485  1.0000
  H   H1451     1.0  0.23312  0.74719  0.65941  1.0000
  N   N82       1.0  0.08180  0.95208  0.61736  1.0000
  H   H1452     1.0  0.28887  0.83246  0.71841  1.0000
  Fe  Fe164     1.0  0.18135  0.95016  0.61197  1.0000
  C   C1202     1.0  0.22320  0.70559  0.72007  1.0000
  H   H1453     1.0  0.07461  0.88833  0.49862  1.0000
  H   H1454     1.0  0.12640  0.86979  0.62998  1.0000
  N   N83       1.0  0.47747  0.71202  0.73539  1.0000
  C   C1203     1.0  0.23828  0.95907  0.64340  1.0000
  C   C1204     1.0  0.21840  0.99263  0.65707  1.0000
  C   C1205     1.0  0.30063  0.84071  0.69419  1.0000
  H   H1455     1.0  0.08636  0.81051  0.72781  1.0000
  C   C1206     1.0  0.24332  0.70911  0.67119  1.0000
  C   C1207     1.0  0.28313  0.94916  0.63162  1.0000
  C   C1208     1.0  0.32955  0.68449  0.65932  1.0000
  S   S326      1.0  0.01372  0.97934  0.69988  1.0000
  H   H1456     1.0  0.37861  0.69042  0.63809  1.0000
  H   H1457     1.0  0.37939  0.99109  0.53484  1.0000
  H   H1458     1.0  0.43235  0.66844  0.67190  1.0000
  H   H1459     1.0  0.32564  0.70431  0.65985  1.0000
  S   S327      1.0  0.08027  0.94762  0.67993  1.0000
  C   C1209     1.0  0.24220  0.68718  0.72595  1.0000
  C   C1210     1.0  0.07882  0.92688  0.64377  1.0000
  C   C1211     1.0  0.40156  0.66488  0.65297  1.0000
  H   H1460     1.0  0.10965  0.86786  0.65677  1.0000
  C   C1212     1.0  0.23560  0.84422  0.64249  1.0000
  C   C1213     1.0  0.23519  0.82342  0.65426  1.0000
  C   C1214     1.0  0.25772  0.80990  0.65895  1.0000
  C   C1215     1.0  0.28082  0.81716  0.65189  1.0000
  C   C1216     1.0  0.28126  0.83800  0.64011  1.0000
  C   C1217     1.0  0.25869  0.85150  0.63539  1.0000
  H   H1461     1.0  0.21736  0.81775  0.65980  1.0000
  H   H1462     1.0  0.25720  0.79396  0.66809  1.0000
  H   H1463     1.0  0.29911  0.84366  0.63461  1.0000
  H   H1464     1.0  0.25916  0.86749  0.62628  1.0000
  C   C1218     1.0  0.45601  0.98218  0.72669  1.0000
  H   H1465     1.0  0.31248  0.95975  0.58720  1.0000
  H   H1466     1.0  0.30274  0.84731  0.67027  1.0000
  H   H1467     1.0  0.18787  0.84920  0.54406  1.0000
  H   H1468     1.0  0.22134  0.94669  0.53304  1.0000
  C   C1219     1.0  0.40674  0.78336  0.72180  1.0000
  C   C1220     1.0  0.26282  0.88875  0.49636  1.0000
  H   H1469     1.0  0.15628  0.93463  0.64193  1.0000
  H   H1470     1.0  0.07777  0.93156  0.60153  1.0000
  C   C1221     1.0  0.29534  0.97302  0.59039  1.0000
  H   H1471     1.0  0.41585  0.77015  0.70117  1.0000
  C   C1222     1.0  0.23051  0.86552  0.51153  1.0000
  H   H1472     1.0  0.18718  0.83049  0.62259  1.0000
  Fe  Fe165     1.0  0.20659  0.89442  0.61827  1.0000
  C   C1223     1.0  0.24686  0.91161  0.49901  1.0000
  C   C1224     1.0  0.22332  0.91126  0.50849  1.0000
  C   C1225     1.0  0.21524  0.88830  0.51482  1.0000
  N   N84       1.0  0.32840  0.83623  0.69341  1.0000
  H   H1473     1.0  0.06591  0.94215  0.64849  1.0000
  H   H1474     1.0  0.21077  0.92886  0.51046  1.0000
  H   H1475     1.0  0.19640  0.88847  0.52148  1.0000
  C   C1226     1.0  0.04718  0.83698  0.50553  1.0000
  H   H1476     1.0  0.04870  0.81777  0.51172  1.0000
  C   C1227     1.0  0.14709  0.93147  0.53119  1.0000
  C   C1228     1.0  0.13200  0.91579  0.54137  1.0000
  C   C1229     1.0  0.13495  0.90869  0.55615  1.0000
  C   C1230     1.0  0.16472  0.94068  0.53602  1.0000
  H   H1477     1.0  0.11785  0.90924  0.53785  1.0000
  H   H1478     1.0  0.31920  0.97982  0.49941  1.0000
  C   C1231     1.0  0.29587  0.95654  0.54126  1.0000
  H   H1479     1.0  0.23151  0.98290  0.59270  1.0000
  C   C1232     1.0  0.11470  0.99050  0.64340  1.0000
  H   H1480     1.0  0.35638  0.83237  0.70684  1.0000
  H   H1481     1.0  0.04923  0.94025  0.61449  1.0000
  C   C1233     1.0  0.33964  0.85664  0.68253  1.0000
  H   H1482     1.0  0.33911  0.85618  0.67095  1.0000
  N   N85       1.0  0.25768  0.66445  0.68402  1.0000
  H   H1483     1.0  0.28219  0.95994  0.50739  1.0000
  H   H1484     1.0  0.08324  0.73047  0.73569  1.0000
  C   C1234     1.0  0.49353  0.92576  0.69826  1.0000
  H   H1485     1.0  0.32954  0.87561  0.68485  1.0000
  C   C1235     1.0  0.33546  0.83507  0.70780  1.0000
  H   H1486     1.0  0.29990  0.90974  0.63264  1.0000
  H   H1487     1.0  0.33638  0.81155  0.67762  1.0000
  S   S328      1.0  0.32820  0.76504  0.72684  1.0000
  C   C1236     1.0  0.34005  0.81181  0.68864  1.0000
  S   S329      1.0  0.34762  0.67577  0.68499  1.0000
  H   H1488     1.0  0.08440  0.88602  0.53040  1.0000
  N   N86       1.0  0.26030  0.94016  0.53574  1.0000
  C   C1237     1.0  0.26780  0.91595  0.53032  1.0000
  C   C1238     1.0  0.25162  0.93425  0.55203  1.0000
  C   C1239     1.0  0.23823  0.95586  0.52936  1.0000
  H   H1489     1.0  0.46997  0.90350  0.69388  1.0000
  H   H1490     1.0  0.23684  0.71518  0.68173  1.0000
  H   H1491     1.0  0.40077  0.97992  0.49888  1.0000
  H   H1492     1.0  0.03788  0.70515  0.73138  1.0000
  H   H1493     1.0  0.39747  0.67880  0.65991  1.0000
  C   C1240     1.0  0.31235  0.97373  0.51113  1.0000
  C   C1241     1.0  0.11281  0.88562  0.63380  1.0000
  C   C1242     1.0  0.34114  0.66652  0.66997  1.0000
  H   H1494     1.0  0.31400  0.69091  0.63967  1.0000
  Fe  Fe166     1.0  0.03966  0.96665  0.67980  1.0000
  H   H1495     1.0  0.01759  0.77144  0.73493  1.0000
  H   H1496     1.0  0.11314  0.90725  0.61204  1.0000
  C   C1243     1.0  0.10518  0.96023  0.60799  1.0000
  C   C1244     1.0  0.27309  0.67251  0.69231  1.0000
  C   C1245     1.0  0.02764  0.87105  0.48796  1.0000
  H   H1497     1.0  0.01309  0.85115  0.55114  1.0000
  H   H1498     1.0  0.37373  0.75915  0.70394  1.0000
  H   H1499     1.0  0.24630  0.95171  0.55686  1.0000
  S   S330      1.0  0.18336  0.88678  0.49134  1.0000
  C   C1246     1.0  0.13999  0.94818  0.64588  1.0000
  C   C1247     1.0  0.03726  0.93675  0.52437  1.0000
  H   H1500     1.0  0.00613  0.90247  0.70367  1.0000
  C   C1248     1.0  0.19353  0.67669  0.73022  1.0000
  H   H1501     1.0  0.26594  0.69091  0.63249  1.0000
  S   S331      1.0  0.15736  0.90529  0.57931  1.0000
  C   C1249     1.0  0.25700  0.84127  0.70816  1.0000
  C   C1250     1.0  0.39046  0.67188  0.64039  1.0000
  H   H1502     1.0  0.11798  0.96224  0.61495  1.0000
  C   C1251     1.0  0.27179  0.96876  0.58940  1.0000
  C   C1252     1.0  0.24776  0.84729  0.69503  1.0000
  H   H1503     1.0  0.26229  0.98660  0.63185  1.0000
  H   H1504     1.0  0.18888  0.95550  0.64580  1.0000
  S   S332      1.0  0.01454  0.94240  0.67695  1.0000
  C   C1253     1.0  0.23909  0.93256  0.64810  1.0000
  C   C1254     1.0  0.09458  0.79082  0.72773  1.0000
  H   H1505     1.0  0.25733  0.85385  0.67132  1.0000
  H   H1506     1.0  0.24753  0.73555  0.63467  1.0000
  C   C1255     1.0  0.00418  0.85727  0.54117  1.0000
  C   C1256     1.0  0.25436  0.68346  0.67036  1.0000
  C   C1257     1.0  0.26121  0.96679  0.63543  1.0000
  H   H1507     1.0  0.30015  0.95564  0.62510  1.0000
  H   H1508     1.0  0.43942  0.92682  0.72774  1.0000
  C   C1258     1.0  0.28207  0.95343  0.53109  1.0000
  C   C1259     1.0  0.02855  0.84677  0.49669  1.0000
  H   H1509     1.0  0.28110  0.88884  0.48907  1.0000
  S   S333      1.0  0.12443  0.89269  0.49028  1.0000
  N   N87       1.0  0.20591  0.84265  0.56294  1.0000
  C   C1260     1.0  0.21760  0.86534  0.55687  1.0000
  C   C1261     1.0  0.22384  0.82036  0.55797  1.0000
  C   C1262     1.0  0.20035  0.83867  0.57932  1.0000
  C   C1263     1.0  0.17525  0.84086  0.58777  1.0000
  C   C1264     1.0  0.22040  0.83320  0.58731  1.0000
  C   C1265     1.0  0.17069  0.83778  0.60319  1.0000
  C   C1266     1.0  0.21560  0.83009  0.60274  1.0000
  C   C1267     1.0  0.19080  0.83241  0.61065  1.0000
  H   H1510     1.0  0.23583  0.86325  0.56047  1.0000
  H   H1511     1.0  0.20470  0.88239  0.56055  1.0000
  H   H1512     1.0  0.22161  0.86922  0.54454  1.0000
  H   H1513     1.0  0.21621  0.80272  0.56291  1.0000
  H   H1514     1.0  0.15872  0.84575  0.58272  1.0000
  H   H1515     1.0  0.23994  0.83184  0.58167  1.0000
  H   H1516     1.0  0.15140  0.84011  0.60936  1.0000
  H   H1517     1.0  0.23111  0.82654  0.60864  1.0000
  H   H1518     1.0  0.16937  0.86397  0.55881  1.0000
  C   C1268     1.0  0.28302  0.83792  0.70782  1.0000
  Fe  Fe167     1.0  0.12437  0.85669  0.50728  1.0000
  H   H1519     1.0  0.28391  0.90334  0.53517  1.0000
  H   H1520     1.0  0.24273  0.81763  0.56088  1.0000
  H   H1521     1.0  0.22273  0.92475  0.65430  1.0000
  H   H1522     1.0  0.01414  0.85561  0.70720  1.0000
  C   C1269     1.0  0.01970  0.89783  0.53316  1.0000
  C   C1270     1.0  0.11906  0.74087  0.72645  1.0000
  C   C1271     1.0  0.48456  0.88591  0.71384  1.0000
  H   H1523     1.0  0.12856  0.72146  0.72595  1.0000
  H   H1524     1.0  0.36007  0.85486  0.68274  1.0000
  H   H1525     1.0  0.06109  0.96367  0.59947  1.0000
  H   H1526     1.0  0.25178  0.90565  0.53298  1.0000
  S   S334      1.0  0.19472  0.95424  0.58740  1.0000
  C   C1272     1.0  0.03828  0.76895  0.73015  1.0000
  H   H1527     1.0  0.26097  0.69105  0.72439  1.0000
  C   C1273     1.0  0.26186  0.67737  0.65600  1.0000
  H   H1528     1.0  0.45428  0.96247  0.71010  1.0000
  C   C1274     1.0  0.12063  0.78518  0.72208  1.0000
  C   C1275     1.0  0.06229  0.87644  0.49790  1.0000
  C   C1276     1.0  0.23699  0.66354  0.73378  1.0000
  H   H1529     1.0  0.32656  0.85264  0.71225  1.0000
  C   C1277     1.0  0.04481  0.88436  0.53402  1.0000
  C   C1278     1.0  0.10170  0.95786  0.66400  1.0000
  C   C1279     1.0  0.29106  0.96236  0.51585  1.0000
  C   C1280     1.0  0.06462  0.85157  0.50577  1.0000
  H   H1530     1.0  0.47542  0.86983  0.71600  1.0000
  C   C1281     1.0  0.08623  0.90495  0.65383  1.0000
  C   C1282     1.0  0.15316  0.91703  0.56091  1.0000
  H   H1531     1.0  0.17615  0.95313  0.52819  1.0000
  C   C1283     1.0  0.16794  0.93329  0.55088  1.0000
  C   C1284     1.0  0.38807  0.78728  0.73429  1.0000
  H   H1532     1.0  0.17333  0.83012  0.56033  1.0000
  H   H1533     1.0  0.04480  0.74887  0.72905  1.0000
  H   H1534     1.0  0.33218  0.79606  0.69662  1.0000
  H   H1535     1.0  0.23464  0.92522  0.55515  1.0000
  C   C1285     1.0  0.07997  0.77142  0.73303  1.0000
  H   H1536     1.0  0.24190  0.95901  0.51711  1.0000
  C   C1286     1.0  0.10341  0.88450  0.64888  1.0000
  C   C1287     1.0  0.32324  0.67690  0.64778  1.0000
  C   C1288     1.0  0.10528  0.90732  0.62363  1.0000
  S   S335      1.0  0.21878  0.93034  0.61797  1.0000
  Fe  Fe168     1.0  0.23148  0.93144  0.59358  1.0000
  S   S336      1.0  0.26965  0.94184  0.58333  1.0000
  C   C1289     1.0  0.13286  0.76027  0.72150  1.0000
  H   H1537     1.0  0.12665  0.92144  0.66499  1.0000
  C   C1290     1.0  0.28304  0.92335  0.63590  1.0000
  C   C1291     1.0  0.12325  0.94072  0.65896  1.0000
  H   H1538     1.0  0.23283  0.97475  0.53260  1.0000
  C   C1292     1.0  0.29053  0.84646  0.68105  1.0000
  C   C1293     1.0  0.06537  0.89683  0.53000  1.0000
  H   H1539     1.0  0.15546  0.77723  0.49028  1.0000
  H   H1540     1.0  0.49556  0.74322  0.73407  1.0000
  C   C1294     1.0  0.24970  0.98582  0.59361  1.0000
  H   H1541     1.0  0.26643  0.84818  0.49993  1.0000
  H   H1542     1.0  0.26111  0.89495  0.64749  1.0000
  C   C1295     1.0  0.25463  0.86569  0.50262  1.0000
  C   C1296     1.0  0.26449  0.84994  0.68152  1.0000
  C   C1297     1.0  0.06166  0.92293  0.52512  1.0000
  H   H1543     1.0  0.22767  0.84930  0.69532  1.0000
  C   C1298     1.0  0.08858  0.92892  0.62833  1.0000
  H   H1544     1.0  0.03443  0.95708  0.52059  1.0000
  H   H1545     1.0  0.45475  0.73731  0.72024  1.0000
  H   H1546     1.0  0.11623  0.94671  0.60073  1.0000
  C   C1299     1.0  0.24093  0.72762  0.65846  1.0000
  H   H1547     1.0  0.27424  0.91890  0.51811  1.0000
  C   C1300     1.0  0.06644  0.97375  0.62421  1.0000
  H   H1548     1.0  0.07778  0.93241  0.52187  1.0000
  C   C1301     1.0  0.13583  0.97313  0.63813  1.0000
  H   H1549     1.0  0.36098  0.80740  0.68789  1.0000
  H   H1550     1.0  0.26646  0.92078  0.55764  1.0000
  H   H1551     1.0  0.06221  0.99111  0.61577  1.0000
  C   C1302     1.0  0.26117  0.91507  0.64426  1.0000
  C   C1303     1.0  0.47175  0.72174  0.72030  1.0000
  H   H1552     1.0  0.10094  0.97879  0.60048  1.0000
  C   C1304     1.0  0.19877  0.70037  0.72237  1.0000
  C   C1305     1.0  0.06686  0.94662  0.60778  1.0000
  H   H1553     1.0  0.07916  0.90424  0.66560  1.0000
  C   C1306     1.0  0.48157  0.90492  0.70129  1.0000
  H   H1554     1.0  0.29088  0.94997  0.55301  1.0000
  H   H1555     1.0  0.13149  0.80020  0.71812  1.0000
  S   S337      1.0  0.16064  0.83532  0.49587  1.0000
  H   H1556     1.0  0.26383  0.69065  0.69595  1.0000
  H   H1557     1.0  0.04930  0.86406  0.53744  1.0000
  H   H1558     1.0  0.15308  0.75602  0.71718  1.0000
  C   C1307     1.0  0.09743  0.98278  0.65620  1.0000
  H   H1559     1.0  0.34262  0.98427  0.51750  1.0000
  H   H1560     1.0  0.01586  0.83510  0.49599  1.0000
  C   C1308     1.0  0.09303  0.74628  0.73208  1.0000
  H   H1561     1.0  0.29183  0.67522  0.68538  1.0000
  S   S338      1.0  0.37084  0.95445  0.48880  1.0000
  C   C1309     1.0  0.19195  0.96700  0.65317  1.0000
  H   H1562     1.0  0.04769  0.96973  0.63061  1.0000
  S   S339      1.0  0.08308  0.66939  0.73572  1.0000
  C   C1310     1.0  0.23251  0.66223  0.69351  1.0000
  H   H1563     1.0  0.04329  0.81581  0.72891  1.0000
  C   C1311     1.0  0.31730  0.96776  0.53638  1.0000
  H   H1564     1.0  0.22219  0.68042  0.69682  1.0000
  H   H1565     1.0  0.01732  0.84915  0.53186  1.0000
  H   H1566     1.0  0.17443  0.98176  0.65467  1.0000
  S   S340      1.0  0.25564  0.94089  0.49049  1.0000
  N   N88       1.0  0.21496  0.97819  0.64659  1.0000
  H   H1567     1.0  0.21046  0.98575  0.62390  1.0000
  H   H1568     1.0  0.32792  0.96924  0.54430  1.0000
  C   C1312     1.0  0.36422  0.78114  0.73580  1.0000
  H   H1569     1.0  0.46765  0.70698  0.71555  1.0000
  H   H1570     1.0  0.19309  0.95500  0.66428  1.0000
  C   C1313     1.0  0.45090  0.96237  0.72187  1.0000
  H   H1571     1.0  0.17474  0.67267  0.73179  1.0000
  C   C1314     1.0  0.32557  0.97627  0.52134  1.0000
  C   C1315     1.0  0.04421  0.88597  0.48882  1.0000
  C   C1316     1.0  0.44213  0.94214  0.73211  1.0000
  S   S341      1.0  0.48884  0.94943  0.68258  1.0000
  H   H1572     1.0  0.07657  0.97862  0.63170  1.0000
  H   H1573     1.0  0.48516  0.66691  0.72598  1.0000
  H   H1574     1.0  0.99944  0.97872  0.73512  1.0000
  H   H1575     1.0  0.49258  0.66116  0.53571  1.0000
  Fe  Fe169     1.0  0.36008  0.66187  0.91366  1.0000
  Fe  Fe170     1.0  0.46701  0.87198  0.85928  1.0000
  S   S342      1.0  0.42755  0.89318  0.86549  1.0000
  H   H1576     1.0  0.47363  0.68047  0.86904  1.0000
  Fe  Fe171     1.0  0.44940  0.82128  0.86552  1.0000
  S   S343      1.0  0.40881  0.83963  0.87205  1.0000
  S   S344      1.0  0.45664  0.77861  0.86824  1.0000
  Fe  Fe172     1.0  0.41739  0.86972  0.85222  1.0000
  S   S345      1.0  0.38916  0.88707  0.83728  1.0000
  Fe  Fe173     1.0  0.42395  0.86041  0.88445  1.0000
  S   S346      1.0  0.40378  0.86484  0.90747  1.0000
  S   S347      1.0  0.45716  0.85020  0.84473  1.0000
  S   S348      1.0  0.46420  0.84054  0.87922  1.0000
  H   H1577     1.0  0.15553  0.68619  0.88642  1.0000
  S   S349      1.0  0.16411  0.83286  0.98075  1.0000
  C   C1317     1.0  0.40077  0.78662  0.90635  1.0000
  Fe  Fe174     1.0  0.34084  0.71485  0.89869  1.0000
  S   S350      1.0  0.36330  0.69979  0.91679  1.0000
  S   S351      1.0  0.34954  0.74755  0.88035  1.0000
  H   H1578     1.0  0.34479  0.81698  0.92367  1.0000
  Fe  Fe175     1.0  0.32520  0.69942  0.93178  1.0000
  S   S352      1.0  0.31541  0.71174  0.95383  1.0000
  H   H1579     1.0  0.37541  0.82508  0.92022  1.0000
  S   S353      1.0  0.30284  0.71747  0.91394  1.0000
  C   C1318     1.0  0.21755  0.72924  0.94151  1.0000
  H   H1580     1.0  0.45794  0.92604  0.86816  1.0000
  C   C1319     1.0  0.44346  0.73867  0.82325  1.0000
  C   C1320     1.0  0.24259  0.89323  0.98177  1.0000
  H   H1581     1.0  0.05241  0.70211  0.89960  1.0000
  H   H1582     1.0  0.44312  0.68169  0.95436  1.0000
  H   H1583     1.0  0.38719  0.79507  0.83472  1.0000
  H   H1584     1.0  0.48465  0.68808  0.95798  1.0000
  S   S354      1.0  0.22979  0.80964  0.96013  1.0000
  C   C1321     1.0  0.48168  0.71295  0.90329  1.0000
  C   C1322     1.0  0.06330  0.68771  0.89333  1.0000
  H   H1585     1.0  0.14900  0.77905  0.94256  1.0000
  S   S355      1.0  0.26748  0.66725  0.91086  1.0000
  N   N89       1.0  0.23117  0.66485  0.85274  1.0000
  C   C1323     1.0  0.43300  0.70676  0.84486  1.0000
  Fe  Fe176     1.0  0.03624  0.72304  0.93168  1.0000
  S   S356      1.0  0.02856  0.73286  0.95418  1.0000
  Fe  Fe177     1.0  0.09145  0.69855  0.93282  1.0000
  S   S357      1.0  0.08839  0.70605  0.95548  1.0000
  H   H1586     1.0  0.40824  0.93986  0.77573  1.0000
  Fe  Fe178     1.0  0.05081  0.69391  0.96052  1.0000
  C   C1324     1.0  0.36604  0.75522  0.93986  1.0000
  Fe  Fe179     1.0  0.06668  0.74426  0.94700  1.0000
  S   S358      1.0  0.07404  0.78111  0.94963  1.0000
  S   S359      1.0  0.05574  0.68301  0.93857  1.0000
  S   S360      1.0  0.07251  0.73776  0.92381  1.0000
  H   H1587     1.0  0.23289  0.70247  0.84032  1.0000
  H   H1588     1.0  0.44034  0.96320  0.76363  1.0000
  C   C1325     1.0  0.44788  0.89649  0.75683  1.0000
  C   C1326     1.0  0.42285  0.92266  0.77390  1.0000
  Fe  Fe180     1.0  0.47720  0.83654  0.74541  1.0000
  H   H1589     1.0  0.25636  0.67796  0.83265  1.0000
  C   C1327     1.0  0.24049  0.88356  0.96956  1.0000
  Fe  Fe181     1.0  0.47241  0.78445  0.76397  1.0000
  S   S361      1.0  0.43191  0.78887  0.76198  1.0000
  H   H1590     1.0  0.44027  0.92355  0.77759  1.0000
  H   H1591     1.0  0.45788  0.74429  0.81392  1.0000
  H   H1592     1.0  0.20162  0.67591  0.83976  1.0000
  Fe  Fe182     1.0  0.42787  0.82838  0.76554  1.0000
  S   S362      1.0  0.39303  0.84752  0.77920  1.0000
  C   C1328     1.0  0.05851  0.68361  0.74838  1.0000
  S   S363      1.0  0.46702  0.82246  0.76986  1.0000
  H   H1593     1.0  0.14554  0.76093  0.96126  1.0000
  H   H1594     1.0  0.42371  0.80372  0.79656  1.0000
  H   H1595     1.0  0.00904  0.83052  0.92410  1.0000
  C   C1329     1.0  0.21458  0.69102  0.88830  1.0000
  C   C1330     1.0  0.27082  0.84550  0.97786  1.0000
  C   C1331     1.0  0.08963  0.68198  0.89154  1.0000
  H   H1596     1.0  0.35316  0.74825  0.93551  1.0000
  H   H1597     1.0  0.24524  0.69895  0.93300  1.0000
  H   H1598     1.0  0.07415  0.66424  0.76772  1.0000
  C   C1332     1.0  0.22524  0.70734  0.93544  1.0000
  H   H1599     1.0  0.45621  0.71341  0.97667  1.0000
  H   H1600     1.0  0.05806  0.76680  0.76189  1.0000
  Fe  Fe183     1.0  0.20429  0.81384  0.98226  1.0000
  Fe  Fe184     1.0  0.30431  0.67774  0.91155  1.0000
  C   C1333     1.0  0.03943  0.80267  0.88865  1.0000
  H   H1601     1.0  0.46672  0.86629  0.92939  1.0000
  S   S364      1.0  0.34002  0.67703  0.89440  1.0000
  C   C1334     1.0  0.03884  0.68993  0.77332  1.0000
  C   C1335     1.0  0.04769  0.76168  0.75463  1.0000
  H   H1602     1.0  0.47273  0.72629  0.85953  1.0000
  C   C1336     1.0  0.46908  0.67591  0.92021  1.0000
  H   H1603     1.0  0.32757  0.68749  0.98128  1.0000
  H   H1604     1.0  0.35934  0.72871  0.96036  1.0000
  C   C1337     1.0  0.17374  0.72888  0.94155  1.0000
  C   C1338     1.0  0.19155  0.74084  0.94465  1.0000
  C   C1339     1.0  0.20999  0.92276  0.96206  1.0000
  H   H1605     1.0  0.08456  0.74157  0.97482  1.0000
  H   H1606     1.0  0.28275  0.72931  0.97936  1.0000
  H   H1607     1.0  0.03073  0.81836  0.85939  1.0000
  C   C1340     1.0  0.40291  0.79847  0.82521  1.0000
  H   H1608     1.0  0.36748  0.75673  0.90959  1.0000
  H   H1609     1.0  0.41910  0.80053  0.82967  1.0000
  C   C1341     1.0  0.22830  0.68186  0.87561  1.0000
  C   C1342     1.0  0.00408  0.82768  0.90267  1.0000
  S   S365      1.0  0.45370  0.80971  0.96307  1.0000
  H   H1610     1.0  0.36159  0.82553  0.90499  1.0000
  C   C1343     1.0  0.40147  0.74391  0.83856  1.0000
  C   C1344     1.0  0.36381  0.81501  0.91633  1.0000
  C   C1345     1.0  0.38555  0.75152  0.96087  1.0000
  C   C1346     1.0  0.08755  0.78015  0.96485  1.0000
  C   C1347     1.0  0.09546  0.80168  0.96611  1.0000
  C   C1348     1.0  0.10711  0.80108  0.97791  1.0000
  H   H1611     1.0  0.21354  0.67928  0.92764  1.0000
  C   C1349     1.0  0.48961  0.71405  0.86299  1.0000
  H   H1612     1.0  0.09268  0.81883  0.95790  1.0000
  H   H1613     1.0  0.15144  0.79230  0.95749  1.0000
  C   C1350     1.0  0.29169  0.73903  0.95555  1.0000
  C   C1351     1.0  0.28613  0.75700  0.94308  1.0000
  C   C1352     1.0  0.26735  0.77872  0.94468  1.0000
  C   C1353     1.0  0.25380  0.78253  0.95874  1.0000
  C   C1354     1.0  0.25936  0.76462  0.97124  1.0000
  C   C1355     1.0  0.27842  0.74301  0.96965  1.0000
  H   H1614     1.0  0.29660  0.75443  0.93221  1.0000
  H   H1615     1.0  0.26329  0.79260  0.93497  1.0000
  H   H1616     1.0  0.45619  0.90859  0.90384  1.0000
  H   H1617     1.0  0.19745  0.92163  0.97317  1.0000
  H   H1618     1.0  0.01796  0.78984  0.86786  1.0000
  H   H1619     1.0  0.39189  0.79525  0.74273  1.0000
  H   H1620     1.0  0.45924  0.68995  0.89866  1.0000
  H   H1621     1.0  0.43807  0.71656  0.74614  1.0000
  N   N90       1.0  0.41054  0.77812  0.81640  1.0000
  C   C1356     1.0  0.46731  0.88990  0.90155  1.0000
  H   H1622     1.0  0.44741  0.78797  0.80732  1.0000
  H   H1623     1.0  0.25438  0.85053  0.95901  1.0000
  C   C1357     1.0  0.41830  0.84824  0.92251  1.0000
  C   C1358     1.0  0.40744  0.85441  0.93639  1.0000
  C   C1359     1.0  0.41846  0.84221  0.94869  1.0000
  C   C1360     1.0  0.44035  0.82352  0.94728  1.0000
  C   C1361     1.0  0.45105  0.81671  0.93348  1.0000
  C   C1362     1.0  0.44012  0.82924  0.92104  1.0000
  H   H1624     1.0  0.39057  0.86898  0.93762  1.0000
  H   H1625     1.0  0.41006  0.84743  0.95934  1.0000
  H   H1626     1.0  0.46779  0.80199  0.93239  1.0000
  H   H1627     1.0  0.44847  0.82406  0.91041  1.0000
  C   C1363     1.0  0.42783  0.76844  0.87057  1.0000
  C   C1364     1.0  0.42393  0.74522  0.87968  1.0000
  C   C1365     1.0  0.40005  0.73832  0.88266  1.0000
  C   C1366     1.0  0.38009  0.75462  0.87647  1.0000
  C   C1367     1.0  0.38429  0.77740  0.86703  1.0000
  C   C1368     1.0  0.40812  0.78415  0.86398  1.0000
  H   H1628     1.0  0.43911  0.73295  0.88476  1.0000
  H   H1629     1.0  0.39707  0.72050  0.88977  1.0000
  H   H1630     1.0  0.36894  0.79005  0.86219  1.0000
  H   H1631     1.0  0.41118  0.80170  0.85658  1.0000
  C   C1369     1.0  0.39201  0.87622  0.82083  1.0000
  C   C1370     1.0  0.41515  0.86401  0.81349  1.0000
  C   C1371     1.0  0.41620  0.85582  0.80028  1.0000
  C   C1372     1.0  0.39394  0.85927  0.79474  1.0000
  C   C1373     1.0  0.37111  0.87177  0.80201  1.0000
  C   C1374     1.0  0.37021  0.88041  0.81488  1.0000
  H   H1632     1.0  0.43217  0.86109  0.81791  1.0000
  H   H1633     1.0  0.43401  0.84646  0.79466  1.0000
  H   H1634     1.0  0.35388  0.87462  0.79776  1.0000
  H   H1635     1.0  0.35235  0.89000  0.82042  1.0000
  H   H1636     1.0  0.18611  0.77689  0.97028  1.0000
  H   H1637     1.0  0.39660  0.90060  0.76312  1.0000
  H   H1638     1.0  0.47766  0.96740  0.83978  1.0000
  C   C1375     1.0  0.43756  0.94147  0.74759  1.0000
  H   H1639     1.0  0.46936  0.70454  0.83026  1.0000
  H   H1640     1.0  0.39585  0.81704  0.81851  1.0000
  H   H1641     1.0  0.23220  0.73709  0.94365  1.0000
  C   C1376     1.0  0.47557  0.93167  0.86762  1.0000
  C   C1377     1.0  0.49018  0.68830  0.86834  1.0000
  H   H1642     1.0  0.15354  0.73607  0.94366  1.0000
  C   C1378     1.0  0.17585  0.68526  0.88317  1.0000
  C   C1379     1.0  0.39485  0.78273  0.93877  1.0000
  N   N91       1.0  0.18403  0.76436  0.95076  1.0000
  H   H1643     1.0  0.35765  0.78685  0.89865  1.0000
  H   H1644     1.0  0.00121  0.81503  0.85614  1.0000
  H   H1645     1.0  0.46230  0.74889  0.74116  1.0000
  N   N92       1.0  0.37562  0.78803  0.91640  1.0000
  H   H1646     1.0  0.43695  0.77119  0.79630  1.0000
  C   C1380     1.0  0.39823  0.77103  0.95314  1.0000
  H   H1647     1.0  0.02714  0.76479  0.75975  1.0000
  H   H1648     1.0  0.45172  0.89192  0.74561  1.0000
  H   H1649     1.0  0.38994  0.93364  0.75486  1.0000
  C   C1381     1.0  0.15631  0.77448  0.95306  1.0000
  C   C1382     1.0  0.24573  0.68401  0.84317  1.0000
  H   H1650     1.0  0.03911  0.68563  0.78504  1.0000
  C   C1383     1.0  0.18842  0.69270  0.89208  1.0000
  H   H1651     1.0  0.21269  0.75387  0.96442  1.0000
  S   S366      1.0  0.49220  0.74414  0.95407  1.0000
  H   H1652     1.0  0.26116  0.99054  0.97854  1.0000
  H   H1653     1.0  0.18294  0.74444  0.97329  1.0000
  H   H1654     1.0  0.09913  0.69184  0.89659  1.0000
  H   H1655     1.0  0.38256  0.79484  0.80256  1.0000
  H   H1656     1.0  0.25372  0.90997  0.94257  1.0000
  H   H1657     1.0  0.39311  0.76118  0.80413  1.0000
  H   H1658     1.0  0.34976  0.78440  0.74544  1.0000
  H   H1659     1.0  0.45437  0.87612  0.90535  1.0000
  C   C1384     1.0  0.25529  0.85935  0.96785  1.0000
  H   H1660     1.0  0.33971  0.77846  0.91670  1.0000
  C   C1385     1.0  0.49428  0.71650  0.91353  1.0000
  C   C1386     1.0  0.40468  0.91605  0.75486  1.0000
  H   H1661     1.0  0.47270  0.89171  0.88937  1.0000
  C   C1387     1.0  0.36947  0.74368  0.95426  1.0000
  C   C1388     1.0  0.01764  0.82308  0.91408  1.0000
  C   C1389     1.0  0.48610  0.97975  0.82962  1.0000
  C   C1390     1.0  0.41866  0.75359  0.82598  1.0000
  C   C1391     1.0  0.37879  0.77514  0.93163  1.0000
  C   C1392     1.0  0.40860  0.72089  0.84783  1.0000
  C   C1393     1.0  0.04180  0.80354  0.74011  1.0000
  C   C1394     1.0  0.19181  0.75960  0.96529  1.0000
  H   H1662     1.0  0.00789  0.67865  0.95889  1.0000
  C   C1395     1.0  0.09090  0.75813  0.97559  1.0000
  H   H1663     1.0  0.30492  0.66583  0.97210  1.0000
  H   H1664     1.0  0.24868  0.68016  0.87350  1.0000
  H   H1665     1.0  0.41289  0.79796  0.90880  1.0000
  H   H1666     1.0  0.28132  0.82673  0.97653  1.0000
  C   C1396     1.0  0.43062  0.78544  0.80363  1.0000
  C   C1397     1.0  0.20738  0.69623  0.93240  1.0000
  C   C1398     1.0  0.19670  0.78436  0.94051  1.0000
  C   C1399     1.0  0.05868  0.67784  0.76354  1.0000
  H   H1667     1.0  0.24913  0.76749  0.98214  1.0000
  H   H1668     1.0  0.26013  0.68741  0.84856  1.0000
  C   C1400     1.0  0.43023  0.68747  0.98570  1.0000
  H   H1669     1.0  0.00923  0.85885  0.86820  1.0000
  C   C1401     1.0  0.45312  0.66220  0.95298  1.0000
  H   H1670     1.0  0.45854  0.95871  0.88199  1.0000
  H   H1671     1.0  0.43836  0.68886  0.85205  1.0000
  C   C1402     1.0  0.48124  0.67931  0.93106  1.0000
  H   H1672     1.0  0.07162  0.78650  0.89935  1.0000
  H   H1673     1.0  0.07099  0.98973  0.96997  1.0000
  H   H1674     1.0  0.19733  0.93263  0.95404  1.0000
  H   H1675     1.0  0.03039  0.67917  0.88875  1.0000
  H   H1676     1.0  0.46631  0.89858  0.75881  1.0000
  H   H1677     1.0  0.05117  0.81056  0.74711  1.0000
  C   C1403     1.0  0.49281  0.66859  0.95590  1.0000
  H   H1678     1.0  0.22539  0.91173  0.93578  1.0000
  H   H1679     1.0  0.23203  0.91136  0.98408  1.0000
  H   H1680     1.0  0.41060  0.77735  0.95832  1.0000
  C   C1404     1.0  0.03830  0.70100  0.74308  1.0000
  C   C1405     1.0  0.01889  0.70783  0.76796  1.0000
  H   H1681     1.0  0.19215  0.78781  0.92929  1.0000
  H   H1682     1.0  0.40775  0.91049  0.74394  1.0000
  C   C1406     1.0  0.35940  0.77695  0.91016  1.0000
  Fe  Fe185     1.0  0.48936  0.78023  0.96171  1.0000
  C   C1407     1.0  0.18936  0.67614  0.87040  1.0000
  H   H1683     1.0  0.17787  0.69930  0.90210  1.0000
  S   S367      1.0  0.03787  0.66788  0.98161  1.0000
  H   H1684     1.0  0.37154  0.77417  0.81912  1.0000
  H   H1685     1.0  0.41531  0.90632  0.78152  1.0000
  H   H1686     1.0  0.39507  0.71410  0.85744  1.0000
  C   C1408     1.0  0.45038  0.71562  0.83260  1.0000
  C   C1409     1.0  0.18169  0.70692  0.93549  1.0000
  H   H1687     1.0  0.41132  0.76675  0.90703  1.0000
  H   H1688     1.0  0.39896  0.79421  0.89460  1.0000
  H   H1689     1.0  0.17846  0.67039  0.86415  1.0000
  H   H1690     1.0  0.19088  0.80261  0.94456  1.0000
  S   S368      1.0  0.12974  0.68146  0.92095  1.0000
  C   C1410     1.0  0.38849  0.77695  0.81033  1.0000
  H   H1691     1.0  0.40477  0.79800  0.93333  1.0000
  H   H1692     1.0  0.38802  0.74265  0.97207  1.0000
  C   C1411     1.0  0.01863  0.71319  0.75282  1.0000
  H   H1693     1.0  0.49542  0.91939  0.90721  1.0000
  H   H1694     1.0  0.00330  0.72666  0.74857  1.0000
  C   C1412     1.0  0.47587  0.95043  0.87532  1.0000
  C   C1413     1.0  0.01455  0.81762  0.88958  1.0000
  H   H1695     1.0  0.21766  0.77947  0.93933  1.0000
  C   C1414     1.0  0.46917  0.69263  0.90660  1.0000
  H   H1696     1.0  0.45088  0.68656  0.74091  1.0000
  H   H1697     1.0  0.11309  0.81779  0.97884  1.0000
  N   N93       1.0  0.42837  0.91972  0.75820  1.0000
  C   C1415     1.0  0.23760  0.90034  0.94377  1.0000
  H   H1698     1.0  0.22369  0.93507  0.96128  1.0000
  N   N94       1.0  0.22318  0.89720  0.95921  1.0000
  N   N95       1.0  0.48003  0.66191  0.94561  1.0000
  C   C1416     1.0  0.20343  0.88231  0.96056  1.0000
  H   H1699     1.0  0.16782  0.69813  0.93317  1.0000
  H   H1700     1.0  0.04888  0.79391  0.87927  1.0000
  H   H1701     1.0  0.05372  0.74099  0.75506  1.0000
  H   H1702     1.0  0.22447  0.69620  0.89545  1.0000
  C   C1417     1.0  0.04191  0.80828  0.91286  1.0000
  C   C1418     1.0  0.21612  0.67434  0.86617  1.0000
  C   C1419     1.0  0.05280  0.79820  0.90016  1.0000
  H   H1703     1.0  0.24551  0.88195  0.94009  1.0000
  H   H1704     1.0  0.38233  0.75418  0.84146  1.0000
  H   H1705     1.0  0.41653  0.69770  0.97887  1.0000
  H   H1706     1.0  0.21153  0.86349  0.95747  1.0000
  H   H1707     1.0  0.18930  0.89221  0.95344  1.0000
  S   S369      1.0  0.00655  0.72943  0.91781  1.0000
  H   H1708     1.0  0.44197  0.87969  0.76481  1.0000
  C   C1420     1.0  0.00108  0.66412  0.96771  1.0000
  C   C1421     1.0  0.01314  0.81084  0.86477  1.0000
  H   H1709     1.0  0.19280  0.87888  0.97215  1.0000
  H   H1710     1.0  0.47915  0.97641  0.82030  1.0000
  H   H1711     1.0  0.00049  0.77054  0.93321  1.0000
  H   H1712     1.0  0.45951  0.69342  0.75648  1.0000
  S   S370      1.0  0.43738  0.84516  0.74140  1.0000
  Fe  Fe186     1.0  0.44503  0.80496  0.73812  1.0000
  H   H1713     1.0  0.05216  0.80436  0.92187  1.0000
  C   C1422     1.0  0.45557  0.70164  0.74514  1.0000
  H   H1714     1.0  0.48149  0.72614  0.89282  1.0000
  C   C1423     1.0  0.05093  0.67469  0.88722  1.0000
  C   C1424     1.0  0.45275  0.69624  0.98438  1.0000
  S   S371      1.0  0.48606  0.79795  0.73977  1.0000
  H   H1715     1.0  0.02116  0.80650  0.74503  1.0000
  N   N96       1.0  0.05247  0.77651  0.73934  1.0000
  H   H1716     1.0  0.45910  0.66043  0.92225  1.0000
  H   H1717     1.0  0.48303  0.72835  0.75271  1.0000
  H   H1718     1.0  0.35199  0.66543  0.96175  1.0000
  C   C1425     1.0  0.10374  0.66304  0.88376  1.0000
  C   C1426     1.0  0.44285  0.96210  0.75214  1.0000
  S   S372      1.0  0.48980  0.74870  0.77801  1.0000
  H   H1719     1.0  0.46963  0.89817  0.92777  1.0000
  C   C1427     1.0  0.48021  0.87959  0.92502  1.0000
  C   C1428     1.0  0.49824  0.91946  0.85989  1.0000
  C   C1429     1.0  0.47983  0.73397  0.74110  1.0000
  N   N97       1.0  0.48966  0.88140  0.90883  1.0000
  N   N98       1.0  0.99951  0.82236  0.87782  1.0000
  C   C1430     1.0  0.45199  0.98206  0.74177  1.0000
  C   C1431     1.0  0.49405  0.70007  0.92723  1.0000
  H   H1720     1.0  0.49610  0.87331  0.93123  1.0000
  H   H1721     1.0  0.70588  0.23590  0.19194  1.0000
  H   H1722     1.0  0.91422  0.29005  0.09498  1.0000
  Fe  Fe187     1.0  0.70266  0.08870  0.02218  1.0000
  S   S373      1.0  0.66697  0.08819  0.03926  1.0000
  Fe  Fe188     1.0  0.65145  0.12269  0.02377  1.0000
  S   S374      1.0  0.63358  0.16124  0.02882  1.0000
  Fe  Fe189     1.0  0.65677  0.06598  0.02513  1.0000
  C   C1432     1.0  0.62072  0.03107  0.14643  1.0000
  H   H1723     1.0  0.59734  0.02388  0.09015  1.0000
  S   S375      1.0  0.98179  0.32584  0.15796  1.0000
  C   C1433     1.0  0.63280  0.03069  0.07620  1.0000
  Fe  Fe190     1.0  0.65740  0.10325  0.12468  1.0000
  H   H1724     1.0  0.56698  0.21682  0.07595  1.0000
  N   N99       1.0  0.59052  0.18077  0.07217  1.0000
  C   C1434     1.0  0.61341  0.10351  0.09387  1.0000
  S   S376      1.0  0.72961  0.21284  0.01173  1.0000
  H   H1725     1.0  0.64520  0.30711  0.19741  1.0000
  C   C1435     1.0  0.84936  0.26844  0.12002  1.0000
  C   C1436     1.0  0.63574  0.06319  0.17716  1.0000
  C   C1437     1.0  0.74552  0.20301  0.04584  1.0000
  S   S377      1.0  0.51885  0.29946  0.10231  1.0000
  S   S378      1.0  0.52443  0.22973  0.12764  1.0000
  H   H1726     1.0  0.81535  0.28610  0.20364  1.0000
  N   N100      1.0  0.69057  0.04074  0.08830  1.0000
  C   C1438     1.0  0.95901  0.32244  0.07203  1.0000
  N   N101      1.0  0.91845  0.27146  0.11743  1.0000
  C   C1439     1.0  0.68727  0.06439  0.09389  1.0000
  C   C1440     1.0  0.71358  0.28178  0.17739  1.0000
  H   H1727     1.0  0.62012  0.06133  0.18697  1.0000
  C   C1441     1.0  0.64348  0.01013  0.02271  1.0000
  C   C1442     1.0  0.65707  0.03492  0.07551  1.0000
  H   H1728     1.0  0.70063  0.11772  0.07342  1.0000
  H   H1729     1.0  0.80785  0.16648  0.99543  1.0000
  H   H1730     1.0  0.63748  0.09259  0.19563  1.0000
  C   C1443     1.0  0.78660  0.17502  0.04370  1.0000
  Fe  Fe191     1.0  0.65967  0.15878  0.11308  1.0000
  S   S379      1.0  0.70003  0.15328  0.11575  1.0000
  S   S380      1.0  0.64133  0.19704  0.10186  1.0000
  Fe  Fe192     1.0  0.70580  0.11854  0.10617  1.0000
  S   S381      1.0  0.74146  0.10689  0.09025  1.0000
  Fe  Fe193     1.0  0.68816  0.12854  0.13756  1.0000
  S   S382      1.0  0.69782  0.12858  0.15950  1.0000
  S   S383      1.0  0.66647  0.12589  0.10178  1.0000
  S   S384      1.0  0.64704  0.13687  0.13576  1.0000
  Fe  Fe194     1.0  0.81071  0.17355  0.20582  1.0000
  S   S385      1.0  0.77528  0.19414  0.19723  1.0000
  C   C1444     1.0  0.71794  0.10381  0.05323  1.0000
  Fe  Fe195     1.0  0.84437  0.20556  0.18276  1.0000
  S   S386      1.0  0.81201  0.22880  0.17215  1.0000
  S   S387      1.0  0.88543  0.20866  0.17480  1.0000
  Fe  Fe196     1.0  0.79075  0.22899  0.19550  1.0000
  S   S388      1.0  0.76481  0.26512  0.20082  1.0000
  Fe  Fe197     1.0  0.79946  0.19198  0.17482  1.0000
  S   S389      1.0  0.78998  0.18154  0.15540  1.0000
  S   S390      1.0  0.82427  0.20855  0.20597  1.0000
  S   S391      1.0  0.83374  0.16862  0.18348  1.0000
  C   C1445     1.0  0.66132  0.99751  0.99893  1.0000
  C   C1446     1.0  0.61614  0.02706  0.08972  1.0000
  C   C1447     1.0  0.76723  0.27451  0.21685  1.0000
  C   C1448     1.0  0.71794  0.10877  0.06712  1.0000
  C   C1449     1.0  0.79578  0.12402  0.98949  1.0000
  C   C1450     1.0  0.88218  0.10723  0.21737  1.0000
  C   C1451     1.0  0.85925  0.12436  0.21631  1.0000
  H   H1731     1.0  0.68438  0.04977  0.16364  1.0000
  H   H1732     1.0  0.89934  0.11106  0.20969  1.0000
  H   H1733     1.0  0.85890  0.14142  0.20795  1.0000
  C   C1452     1.0  0.72318  0.14365  0.15840  1.0000
  C   C1453     1.0  0.72676  0.15034  0.17108  1.0000
  C   C1454     1.0  0.74696  0.16235  0.17034  1.0000
  C   C1455     1.0  0.76387  0.16732  0.15694  1.0000
  C   C1456     1.0  0.76036  0.16042  0.14435  1.0000
  C   C1457     1.0  0.74008  0.14870  0.14506  1.0000
  H   H1734     1.0  0.71371  0.14651  0.18144  1.0000
  H   H1735     1.0  0.74939  0.16776  0.18008  1.0000
  H   H1736     1.0  0.77342  0.16415  0.13397  1.0000
  H   H1737     1.0  0.73775  0.14332  0.13528  1.0000
  S   S392      1.0  0.69754  0.09309  0.12818  1.0000
  S   S393      1.0  0.63865  0.03168  0.03467  1.0000
  H   H1738     1.0  0.79627  0.05012  0.19446  1.0000
  H   H1739     1.0  0.71075  0.02639  0.06857  1.0000
  C   C1458     1.0  0.55709  0.22141  0.12060  1.0000
  C   C1459     1.0  0.57046  0.23860  0.11033  1.0000
  C   C1460     1.0  0.59648  0.23117  0.10482  1.0000
  C   C1461     1.0  0.60920  0.20653  0.10957  1.0000
  C   C1462     1.0  0.59582  0.18935  0.11979  1.0000
  C   C1463     1.0  0.56986  0.19679  0.12530  1.0000
  H   H1740     1.0  0.56082  0.25761  0.10666  1.0000
  H   H1741     1.0  0.60670  0.24452  0.09686  1.0000
  H   H1742     1.0  0.60530  0.17021  0.12332  1.0000
  H   H1743     1.0  0.55960  0.18340  0.13322  1.0000
  C   C1464     1.0  0.59890  0.12130  0.10223  1.0000
  H   H1744     1.0  0.78640  0.13630  0.18953  1.0000
  C   C1465     1.0  0.65776  0.01463  0.00839  1.0000
  C   C1466     1.0  0.62450  0.29570  0.18493  1.0000
  S   S394      1.0  0.95692  0.30846  0.00410  1.0000
  H   H1745     1.0  0.80557  0.16981  0.03751  1.0000
  H   H1746     1.0  0.84928  0.27517  0.98869  1.0000
  H   H1747     1.0  0.63217  0.09690  0.07214  1.0000
  H   H1748     1.0  0.86940  0.31801  0.19015  1.0000
  S   S395      1.0  0.83122  0.31405  0.02229  1.0000
  H   H1749     1.0  0.77403  0.09421  0.00012  1.0000
  S   S396      1.0  0.74063  0.08308  0.02835  1.0000
  C   C1467     1.0  0.62080  0.11076  0.07864  1.0000
  H   H1750     1.0  0.98595  0.99376  0.20367  1.0000
  H   H1751     1.0  0.90432  0.23087  0.13993  1.0000
  C   C1468     1.0  0.59136  0.14640  0.09541  1.0000
  S   S397      1.0  0.98580  0.31761  0.09377  1.0000
  H   H1752     1.0  0.94189  0.23447  0.12192  1.0000
  C   C1469     1.0  0.69426  0.21646  0.06066  1.0000
  H   H1753     1.0  0.82793  0.24157  0.13476  1.0000
  C   C1470     1.0  0.90371  0.28798  0.16375  1.0000
  C   C1471     1.0  0.87869  0.28491  0.16540  1.0000
  C   C1472     1.0  0.87281  0.26062  0.16904  1.0000
  C   C1473     1.0  0.89207  0.23929  0.17080  1.0000
  C   C1474     1.0  0.91718  0.24235  0.16884  1.0000
  H   H1754     1.0  0.86394  0.30134  0.16354  1.0000
  H   H1755     1.0  0.85351  0.25836  0.17020  1.0000
  H   H1756     1.0  0.92715  0.25669  0.09734  1.0000
  C   C1475     1.0  0.98437  0.04534  0.20234  1.0000
  C   C1476     1.0  0.86704  0.26221  0.98949  1.0000
  H   H1757     1.0  0.59032  0.17169  0.05114  1.0000
  C   C1477     1.0  0.63920  0.04599  0.13999  1.0000
  C   C1478     1.0  0.84304  0.07709  0.19895  1.0000
  Fe  Fe198     1.0  0.50292  0.26837  0.11911  1.0000
  H   H1758     1.0  0.68604  0.31459  0.19443  1.0000
  C   C1479     1.0  0.83704  0.11961  0.22623  1.0000
  H   H1759     1.0  0.58029  0.15914  0.10263  1.0000
  C   C1480     1.0  0.82640  0.03120  0.20559  1.0000
  C   C1481     1.0  0.65905  0.17726  0.02457  1.0000
  C   C1482     1.0  0.67881  0.16824  0.03247  1.0000
  C   C1483     1.0  0.70022  0.17952  0.02848  1.0000
  C   C1484     1.0  0.70224  0.19957  0.01638  1.0000
  C   C1485     1.0  0.68255  0.20864  0.00839  1.0000
  C   C1486     1.0  0.66080  0.19763  0.01259  1.0000
  H   H1760     1.0  0.67769  0.15230  0.04156  1.0000
  H   H1761     1.0  0.71555  0.17225  0.03456  1.0000
  C   C1487     1.0  0.65292  0.09176  0.18571  1.0000
  C   C1488     1.0  0.59819  0.15439  0.07984  1.0000
  H   H1762     1.0  0.58177  0.19926  0.09089  1.0000
  C   C1489     1.0  0.76261  0.08530  0.05073  1.0000
  C   C1490     1.0  0.76271  0.09061  0.06444  1.0000
  C   C1491     1.0  0.74036  0.10198  0.07278  1.0000
  H   H1763     1.0  0.77988  0.07590  0.04455  1.0000
  H   H1764     1.0  0.78011  0.08540  0.06874  1.0000
  C   C1492     1.0  0.88980  0.24176  0.13383  1.0000
  H   H1765     1.0  0.94234  0.26885  0.16421  1.0000
  S   S398      1.0  0.97518  0.29028  0.13605  1.0000
  C   C1493     1.0  0.83211  0.31738  0.21486  1.0000
  N   N102      1.0  0.80716  0.09948  0.18562  1.0000
  H   H1766     1.0  0.94602  0.27907  0.09734  1.0000
  H   H1767     1.0  0.72385  0.18691  0.08943  1.0000
  H   H1768     1.0  0.69218  0.21221  0.05013  1.0000
  H   H1769     1.0  0.69700  0.07059  0.17064  1.0000
  H   H1770     1.0  0.66926  0.01574  0.18070  1.0000
  C   C1494     1.0  0.97371  0.07116  0.20027  1.0000
  C   C1495     1.0  0.75332  0.14636  0.99807  1.0000
  S   S399      1.0  0.63678  0.10055  0.01174  1.0000
  H   H1771     1.0  0.84919  0.30298  0.21727  1.0000
  N   N103      1.0  0.78057  0.14243  0.99880  1.0000
  H   H1772     1.0  0.97808  0.10851  0.18835  1.0000
  H   H1773     1.0  0.61247  0.99623  0.16084  1.0000
  C   C1496     1.0  0.80301  0.29571  0.00861  1.0000
  C   C1497     1.0  0.78549  0.09520  0.18037  1.0000
  H   H1774     1.0  0.65276  0.03203  0.11244  1.0000
  H   H1775     1.0  0.81994  0.01330  0.20837  1.0000
  C   C1498     1.0  0.74019  0.09155  0.04517  1.0000
  H   H1776     1.0  0.67862  0.04769  0.13685  1.0000
  C   C1499     1.0  0.66411  0.03672  0.14212  1.0000
  C   C1500     1.0  0.57282  0.19723  0.08202  1.0000
  C   C1501     1.0  0.78805  0.16759  0.99424  1.0000
  H   H1777     1.0  0.60144  0.03806  0.14468  1.0000
  C   C1502     1.0  0.70444  0.01963  0.09801  1.0000
  C   C1503     1.0  0.66533  0.03565  0.08852  1.0000
  H   H1778     1.0  0.79181  0.08102  0.17301  1.0000
  H   H1779     1.0  0.70074  0.10926  0.04882  1.0000
  H   H1780     1.0  0.69856  0.16579  0.06250  1.0000
  C   C1504     1.0  0.82459  0.11028  0.17240  1.0000
  C   C1505     1.0  0.61345  0.19207  0.06583  1.0000
  H   H1781     1.0  0.62688  0.03021  0.06613  1.0000
  H   H1782     1.0  0.60730  0.30875  0.18847  1.0000
  C   C1506     1.0  0.95522  0.29240  0.99051  1.0000
  H   H1783     1.0  0.57054  0.20077  0.05448  1.0000
  H   H1784     1.0  0.74954  0.15630  0.07646  1.0000
  C   C1507     1.0  0.67168  0.01998  0.19078  1.0000
  C   C1508     1.0  0.78273  0.25904  0.22649  1.0000
  C   C1509     1.0  0.82101  0.07629  0.19392  1.0000
  S   S400      1.0  0.63086  0.07592  0.12911  1.0000
  H   H1785     1.0  0.64613  0.25114  0.16345  1.0000
  H   H1786     1.0  0.70796  0.15703  0.08020  1.0000
  C   C1510     1.0  0.98644  0.08852  0.18986  1.0000
  C   C1511     1.0  0.70682  0.04381  0.07331  1.0000
  H   H1787     1.0  0.61998  0.14061  0.05989  1.0000
  H   H1788     1.0  0.72399  0.02234  0.09753  1.0000
  H   H1789     1.0  0.74235  0.31057  0.21222  1.0000
  C   C1512     1.0  0.84809  0.03266  0.21018  1.0000
  H   H1790     1.0  0.63927  0.14175  0.98949  1.0000
  H   H1791     1.0  0.63908  0.04608  0.17226  1.0000
  H   H1792     1.0  0.95775  0.26013  0.11978  1.0000
  H   H1793     1.0  0.64660  0.10731  0.17670  1.0000
  C   C1513     1.0  0.64791  0.03167  0.10210  1.0000
  H   H1794     1.0  0.61073  0.02481  0.11321  1.0000
  S   S401      1.0  0.91245  0.06542  0.23002  1.0000
  S   S402      1.0  0.69390  0.06397  0.00911  1.0000
  H   H1795     1.0  0.69352  0.20723  0.08939  1.0000
  H   H1796     1.0  0.77584  0.18121  0.00116  1.0000
  C   C1514     1.0  0.62436  0.28021  0.17534  1.0000
  H   H1797     1.0  0.90899  0.24547  0.01286  1.0000
  H   H1798     1.0  0.71868  0.26715  0.17039  1.0000
  C   C1515     1.0  0.61498  0.07428  0.98753  1.0000
  H   H1799     1.0  0.70585  0.06916  0.09373  1.0000
  H   H1800     1.0  0.67254  0.00103  0.98791  1.0000
  H   H1801     1.0  0.83354  0.09620  0.16513  1.0000
  H   H1802     1.0  0.74155  0.16146  0.00406  1.0000
  H   H1803     1.0  0.66998  0.09661  0.18790  1.0000
  H   H1804     1.0  0.67709  0.29127  0.21054  1.0000
  H   H1805     1.0  0.70765  0.30044  0.17035  1.0000
  C   C1516     1.0  0.67976  0.99946  0.20148  1.0000
  H   H1806     1.0  0.66603  0.03131  0.00455  1.0000
  C   C1517     1.0  0.67032  0.01311  0.15117  1.0000
  H   H1807     1.0  0.62483  0.06177  0.99638  1.0000
  H   H1808     1.0  0.55426  0.30157  0.15525  1.0000
  C   C1518     1.0  0.66696  0.04527  0.19301  1.0000
  Fe  Fe199     1.0  0.98316  0.32226  0.11718  1.0000
  C   C1519     1.0  0.67110  0.04871  0.20662  1.0000
  H   H1809     1.0  0.77607  0.11285  0.17378  1.0000
  C   C1520     1.0  0.79293  0.29398  0.99666  1.0000
  H   H1810     1.0  0.60855  0.21216  0.06028  1.0000
  H   H1811     1.0  0.72192  0.21912  0.07996  1.0000
  H   H1812     1.0  0.78038  0.28089  0.99819  1.0000
  C   C1521     1.0  0.89389  0.26280  0.12222  1.0000
  C   C1522     1.0  0.73687  0.18873  0.05993  1.0000
  H   H1813     1.0  0.66827  0.06717  0.20930  1.0000
  C   C1523     1.0  0.85639  0.05554  0.20686  1.0000
  C   C1524     1.0  0.84612  0.24750  0.13128  1.0000
  C   C1525     1.0  0.78353  0.13253  0.01439  1.0000
  N   N104      1.0  0.71099  0.19518  0.06863  1.0000
  H   H1814     1.0  0.67846  0.17747  0.07833  1.0000
  C   C1526     1.0  0.71265  0.20242  0.08243  1.0000
  H   H1815     1.0  0.67392  0.08326  0.15902  1.0000
  H   H1816     1.0  0.67651  0.08063  0.08705  1.0000
  H   H1817     1.0  0.72556  0.04791  0.07346  1.0000
  H   H1818     1.0  0.95544  0.07773  0.20687  1.0000
  C   C1527     1.0  0.62371  0.02751  0.10266  1.0000
  C   C1528     1.0  0.65168  0.99859  0.15809  1.0000
  H   H1819     1.0  0.84899  0.28248  0.19799  1.0000
  H   H1820     1.0  0.67482  0.22037  0.06744  1.0000
  C   C1529     1.0  0.77883  0.16080  0.05757  1.0000
  H   H1821     1.0  0.67677  0.06310  0.10552  1.0000
  H   H1822     1.0  0.62677  0.18191  0.05738  1.0000
  H   H1823     1.0  0.79169  0.14441  0.06220  1.0000
  C   C1530     1.0  0.54439  0.32083  0.15225  1.0000
  H   H1824     1.0  0.97642  0.31266  0.06618  1.0000
  H   H1825     1.0  0.84005  0.11667  0.17534  1.0000
  C   C1531     1.0  0.64636  0.26332  0.17085  1.0000
  S   S403      1.0  0.68793  0.12447  0.00759  1.0000
  C   C1532     1.0  0.62693  0.00738  0.15552  1.0000
  C   C1533     1.0  0.67923  0.02798  0.21727  1.0000
  N   N105      1.0  0.69337  0.27640  0.19047  1.0000
  H   H1826     1.0  0.68608  0.24550  0.20843  1.0000
  H   H1827     1.0  0.66888  0.03751  0.06463  1.0000
  C   C1534     1.0  0.69133  0.29465  0.20017  1.0000
  C   C1535     1.0  0.66948  0.27784  0.18551  1.0000
  C   C1536     1.0  0.66861  0.26206  0.17585  1.0000
  Fe  Fe200     1.0  0.67461  0.10010  0.99649  1.0000
  H   H1828     1.0  0.86360  0.21827  0.14717  1.0000
  H   H1829     1.0  0.77185  0.14564  0.02180  1.0000
  C   C1537     1.0  0.79702  0.11848  0.19529  1.0000
  H   H1830     1.0  0.80368  0.12951  0.01549  1.0000
  H   H1831     1.0  0.74505  0.12919  0.00331  1.0000
  H   H1832     1.0  0.55516  0.18972  0.08729  1.0000
  H   H1833     1.0  0.81234  0.12383  0.19895  1.0000
  H   H1834     1.0  0.73148  0.28231  0.18069  1.0000
  H   H1835     1.0  0.70160  0.23437  0.05813  1.0000
  C   C1538     1.0  0.91330  0.23026  0.99330  1.0000
  H   H1836     1.0  0.93362  0.30309  0.11877  1.0000
  C   C1539     1.0  0.88315  0.08565  0.22859  1.0000
  H   H1837     1.0  0.68517  0.24861  0.17209  1.0000
  H   H1838     1.0  0.61736  0.02630  0.99018  1.0000
  H   H1839     1.0  0.71863  0.24904  0.20335  1.0000
  C   C1540     1.0  0.77001  0.19611  0.03787  1.0000
  H   H1840     1.0  0.68956  0.00618  0.15302  1.0000
  C   C1541     1.0  0.57758  0.18112  0.06003  1.0000
  H   H1841     1.0  0.81451  0.12734  0.16566  1.0000
  H   H1842     1.0  0.77598  0.20727  0.02707  1.0000
  S   S404      1.0  0.80832  0.14124  0.22530  1.0000
  H   H1843     1.0  0.69795  0.05995  0.06552  1.0000
  C   C1542     1.0  0.75447  0.16766  0.06564  1.0000
  H   H1844     1.0  0.93567  0.25272  0.13639  1.0000
  N   N106      1.0  0.65884  0.06665  0.18132  1.0000
  H   H1845     1.0  0.74956  0.32658  0.23289  1.0000
  H   H1846     1.0  0.93166  0.21851  0.99451  1.0000
  H   H1847     1.0  0.78413  0.11112  0.20552  1.0000
  H   H1848     1.0  0.73371  0.21951  0.04059  1.0000
  H   H1849     1.0  0.77053  0.08895  0.18976  1.0000
  C   C1543     1.0  0.86626  0.23429  0.13820  1.0000
  H   H1850     1.0  0.93215  0.22588  0.17015  1.0000
  H   H1851     1.0  0.69500  0.01786  0.10985  1.0000
  H   H1852     1.0  0.90156  0.31115  0.11597  1.0000
  S   S405      1.0  0.89349  0.31249  0.03326  1.0000
  H   H1853     1.0  0.52909  0.31245  0.13541  1.0000
  H   H1854     1.0  0.62394  0.19156  0.07465  1.0000
  H   H1855     1.0  0.56110  0.17139  0.06428  1.0000
  C   C1544     1.0  0.92670  0.27437  0.10111  1.0000
  C   C1545     1.0  0.81296  0.05261  0.19757  1.0000
  H   H1856     1.0  0.70965  0.29311  0.20365  1.0000
  C   C1546     1.0  0.70127  0.25060  0.19888  1.0000
  C   C1547     1.0  0.67941  0.06750  0.16809  1.0000
  C   C1548     1.0  0.81920  0.31272  0.00686  1.0000
  H   H1857     1.0  0.90841  0.29512  0.13372  1.0000
  H   H1858     1.0  0.87423  0.29279  0.10700  1.0000
  C   C1549     1.0  0.92299  0.26666  0.16540  1.0000
  C   C1550     1.0  0.78954  0.09983  0.99156  1.0000
  H   H1859     1.0  0.83358  0.27886  0.11473  1.0000
  C   C1551     1.0  0.93924  0.25382  0.12420  1.0000
  C   C1552     1.0  0.87280  0.27613  0.11559  1.0000
  C   C1553     1.0  0.91536  0.29627  0.12162  1.0000
  C   C1554     1.0  0.61351  0.13584  0.07171  1.0000
  Fe  Fe201     1.0  0.74194  0.23179  0.98820  1.0000
  H   H1860     1.0  0.62875  0.07933  0.16865  1.0000
  C   C1555     1.0  0.64660  0.29459  0.18999  1.0000
  H   H1861     1.0  0.70604  0.00123  0.09469  1.0000
  C   C1556     1.0  0.69851  0.17292  0.07255  1.0000
  N   N107      1.0  0.82926  0.32088  0.19926  1.0000
  H   H1862     1.0  0.59359  0.11560  0.11414  1.0000
  H   H1863     1.0  0.64564  0.20441  0.00637  1.0000
  H   H1864     1.0  0.61905  0.08411  0.09928  1.0000
  H   H1865     1.0  0.68406  0.22423  0.99910  1.0000
  H   H1866     1.0  0.60709  0.28135  0.17144  1.0000
  C   C1557     1.0  0.87751  0.26131  0.00173  1.0000
  H   H1867     1.0  0.97346  0.03309  0.21072  1.0000
  C   C1558     1.0  0.90064  0.24548  0.00359  1.0000
  C   C1559     1.0  0.68354  0.00343  0.21471  1.0000
  H   H1868     1.0  0.81534  0.31099  0.22265  1.0000
  H   H1869     1.0  0.77736  0.11407  0.01880  1.0000
  H   H1870     1.0  0.78780  0.31389  0.18891  1.0000
  C   C1560     1.0  0.83071  0.29541  0.19622  1.0000
  H   H1871     1.0  0.85845  0.01604  0.21640  1.0000
  H   H1872     1.0  0.99452  0.27396  0.98815  1.0000
  H   H1873     1.0  0.82937  0.29636  0.18458  1.0000
  H   H1874     1.0  0.84998  0.09450  0.19697  1.0000
  H   H1875     1.0  0.87319  0.05661  0.21057  1.0000
  S   S406      1.0  0.91044  0.31864  0.15929  1.0000
  Fe  Fe202     1.0  0.95078  0.32091  0.14776  1.0000
  H   H1876     1.0  0.79822  0.28383  0.01930  1.0000
  H   H1877     1.0  0.86783  0.27334  0.00970  1.0000
  C   C1561     1.0  0.75459  0.29857  0.21950  1.0000
  H   H1878     1.0  0.68225  0.03088  0.22761  1.0000
  H   H1879     1.0  0.93749  0.32448  0.05531  1.0000
  H   H1880     1.0  0.79212  0.24030  0.22475  1.0000
  C   C1562     1.0  0.75853  0.30765  0.23125  1.0000
  H   H1881     1.0  0.91561  0.30731  0.99043  1.0000
  H   H1882     1.0  0.59463  0.07916  0.99270  1.0000
  C   C1563     1.0  0.82311  0.19406  0.26233  1.0000
  Fe  Fe203     1.0  0.91649  0.03959  0.25191  1.0000
  H   H1883     1.0  0.62696  0.00214  0.41709  1.0000
  H   H1884     1.0  0.65326  0.03500  0.47325  1.0000
  H   H1885     1.0  0.72527  0.19697  0.43512  1.0000
  C   C1564     1.0  0.88183  0.05146  0.43796  1.0000
  H   H1886     1.0  0.56380  0.03607  0.44679  1.0000
  N   N108      1.0  0.87786  0.12404  0.26726  1.0000
  C   C1565     1.0  0.93056  0.26719  0.46647  1.0000
  Fe  Fe204     1.0  0.86584  0.16876  0.45697  1.0000
  Fe  Fe205     1.0  0.68570  0.32236  0.37153  1.0000
  C   C1566     1.0  0.86691  0.27405  0.48666  1.0000
  C   C1567     1.0  0.98482  0.15565  0.39527  1.0000
  Fe  Fe206     1.0  0.95408  0.05331  0.36896  1.0000
  S   S407      1.0  0.95376  0.09341  0.35704  1.0000
  Fe  Fe207     1.0  0.95359  0.06621  0.39874  1.0000
  S   S408      1.0  0.95347  0.10709  0.38905  1.0000
  S   S409      1.0  0.95034  0.05321  0.42330  1.0000
  Fe  Fe208     1.0  0.92475  0.10330  0.37690  1.0000
  S   S410      1.0  0.88449  0.12417  0.37857  1.0000
  S   S411      1.0  0.92329  0.06324  0.38781  1.0000
  C   C1568     1.0  0.85874  0.06683  0.44245  1.0000
  S   S412      1.0  0.95280  0.02227  0.35755  1.0000
  S   S413      1.0  0.52792  0.30154  0.36747  1.0000
  S   S414      1.0  0.66222  0.13643  0.45842  1.0000
  H   H1887     1.0  0.80941  0.21163  0.26094  1.0000
  H   H1888     1.0  0.93647  0.18793  0.44795  1.0000
  C   C1569     1.0  0.97372  0.05609  0.30583  1.0000
  S   S415      1.0  0.83962  0.25423  0.47298  1.0000
  H   H1889     1.0  0.90740  0.01644  0.44338  1.0000
  S   S416      1.0  0.69526  0.28012  0.42469  1.0000
  H   H1890     1.0  0.90442  0.22141  0.45141  1.0000
  C   C1570     1.0  0.90858  0.06520  0.32863  1.0000
  H   H1891     1.0  0.55102  0.08907  0.43910  1.0000
  H   H1892     1.0  0.86895  0.16495  0.28208  1.0000
  H   H1893     1.0  0.71034  0.17080  0.45802  1.0000
  Fe  Fe209     1.0  0.82048  0.19947  0.44367  1.0000
  S   S417      1.0  0.80480  0.21171  0.42251  1.0000
  H   H1894     1.0  0.77617  0.18038  0.44604  1.0000
  S   S418      1.0  0.90559  0.14594  0.45576  1.0000
  S   S419      1.0  0.83087  0.15823  0.45384  1.0000
  S   S420      1.0  0.85728  0.20885  0.44484  1.0000
  C   C1571     1.0  0.88911  0.02808  0.44673  1.0000
  Fe  Fe210     1.0  0.80187  0.02053  0.40021  1.0000
  S   S421      1.0  0.78335  0.03768  0.42026  1.0000
  S   S422      1.0  0.83269  0.03262  0.38167  1.0000
  C   C1572     1.0  0.91788  0.18312  0.47669  1.0000
  H   H1895     1.0  0.95873  0.16517  0.45724  1.0000
  Fe  Fe211     1.0  0.68429  0.30750  0.40446  1.0000
  Fe  Fe212     1.0  0.74705  0.03704  0.41366  1.0000
  S   S423      1.0  0.71575  0.07058  0.40970  1.0000
  H   H1896     1.0  0.84225  0.13953  0.24939  1.0000
  H   H1897     1.0  0.97509  0.07543  0.29938  1.0000
  S   S424      1.0  0.76581  0.02245  0.39283  1.0000
  C   C1573     1.0  0.96314  0.14658  0.42058  1.0000
  C   C1574     1.0  0.93406  0.03205  0.34380  1.0000
  H   H1898     1.0  0.71612  0.99443  0.40181  1.0000
  C   C1575     1.0  0.91235  0.23361  0.45569  1.0000
  H   H1899     1.0  0.92314  0.01054  0.31549  1.0000
  H   H1900     1.0  0.96377  0.04745  0.29990  1.0000
  H   H1901     1.0  0.98605  0.01606  0.32786  1.0000
  H   H1902     1.0  0.59226  0.04983  0.45795  1.0000
  C   C1576     1.0  0.77535  0.09484  0.47894  1.0000
  H   H1903     1.0  0.90576  0.13727  0.27455  1.0000
  C   C1577     1.0  0.77859  0.09463  0.43758  1.0000
  C   C1578     1.0  0.95075  0.18582  0.45492  1.0000
  C   C1579     1.0  0.99540  0.01519  0.31615  1.0000
  Fe  Fe213     1.0  0.78136  0.99741  0.43166  1.0000
  H   H1904     1.0  0.60559  0.30299  0.38339  1.0000
  H   H1905     1.0  0.88371  0.12178  0.28933  1.0000
  C   C1580     1.0  0.76093  0.11460  0.44293  1.0000
  S   S425      1.0  0.74310  0.99849  0.42699  1.0000
  C   C1581     1.0  0.72629  0.26251  0.42352  1.0000
  C   C1582     1.0  0.74138  0.25759  0.41004  1.0000
  C   C1583     1.0  0.76562  0.24215  0.40977  1.0000
  C   C1584     1.0  0.77489  0.23190  0.42293  1.0000
  C   C1585     1.0  0.75981  0.23720  0.43631  1.0000
  C   C1586     1.0  0.73562  0.25234  0.43661  1.0000
  H   H1906     1.0  0.73424  0.26543  0.39988  1.0000
  H   H1907     1.0  0.77725  0.23837  0.39933  1.0000
  H   H1908     1.0  0.76662  0.22966  0.44647  1.0000
  H   H1909     1.0  0.72418  0.25655  0.44700  1.0000
  C   C1587     1.0  0.67858  0.11866  0.44480  1.0000
  C   C1588     1.0  0.67162  0.12502  0.43095  1.0000
  C   C1589     1.0  0.68345  0.11021  0.42023  1.0000
  C   C1590     1.0  0.70253  0.08916  0.42323  1.0000
  C   C1591     1.0  0.71022  0.08321  0.43689  1.0000
  C   C1592     1.0  0.69817  0.09796  0.44769  1.0000
  H   H1910     1.0  0.65657  0.14103  0.42864  1.0000
  H   H1911     1.0  0.67748  0.11486  0.40966  1.0000
  H   H1912     1.0  0.72512  0.06706  0.43921  1.0000
  H   H1913     1.0  0.70419  0.09339  0.45821  1.0000
  C   C1593     1.0  0.86440  0.10243  0.27243  1.0000
  C   C1594     1.0  0.86768  0.10042  0.37963  1.0000
  C   C1595     1.0  0.86840  0.09179  0.36680  1.0000
  C   C1596     1.0  0.85716  0.07125  0.36760  1.0000
  C   C1597     1.0  0.84491  0.05933  0.38121  1.0000
  C   C1598     1.0  0.84403  0.06793  0.39413  1.0000
  C   C1599     1.0  0.85560  0.08840  0.39334  1.0000
  H   H1914     1.0  0.87823  0.10059  0.35626  1.0000
  H   H1915     1.0  0.85840  0.06430  0.35764  1.0000
  H   H1916     1.0  0.83537  0.05816  0.40470  1.0000
  H   H1917     1.0  0.85594  0.09445  0.40333  1.0000
  C   C1600     1.0  0.93528  0.07818  0.43276  1.0000
  C   C1601     1.0  0.94056  0.07734  0.44661  1.0000
  C   C1602     1.0  0.93052  0.09791  0.45381  1.0000
  C   C1603     1.0  0.91427  0.11905  0.44753  1.0000
  C   C1604     1.0  0.90789  0.11946  0.43400  1.0000
  C   C1605     1.0  0.91868  0.09916  0.42652  1.0000
  H   H1918     1.0  0.95311  0.06109  0.45156  1.0000
  H   H1919     1.0  0.93557  0.09754  0.46423  1.0000
  H   H1920     1.0  0.89563  0.13588  0.42897  1.0000
  H   H1921     1.0  0.91417  0.09980  0.41592  1.0000
  H   H1922     1.0  0.77462  0.07561  0.44086  1.0000
  C   C1606     1.0  0.80945  0.29652  0.44038  1.0000
  C   C1607     1.0  0.63880  0.06984  0.44985  1.0000
  H   H1923     1.0  0.77941  0.08853  0.46855  1.0000
  C   C1608     1.0  0.92248  0.02357  0.32245  1.0000
  H   H1924     1.0  0.65128  0.07642  0.45522  1.0000
  C   C1609     1.0  0.75903  0.17335  0.45280  1.0000
  C   C1610     1.0  0.69703  0.21707  0.47317  1.0000
  S   S426      1.0  0.93453  0.99643  0.28801  1.0000
  H   H1925     1.0  0.57891  0.28500  0.37227  1.0000
  S   S427      1.0  0.94030  0.04979  0.26491  1.0000
  S   S428      1.0  0.79985  0.21152  0.46501  1.0000
  H   H1926     1.0  0.81497  0.08339  0.42420  1.0000
  C   C1611     1.0  0.62117  0.30658  0.34106  1.0000
  Fe  Fe214     1.0  0.83734  0.21778  0.46706  1.0000
  H   H1927     1.0  0.79653  0.12491  0.47045  1.0000
  H   H1928     1.0  0.86153  0.06403  0.24708  1.0000
  C   C1612     1.0  0.73954  0.18055  0.43156  1.0000
  S   S429      1.0  0.78106  0.30409  0.25476  1.0000
  C   C1613     1.0  0.77529  0.32126  0.42163  1.0000
  H   H1929     1.0  0.71082  0.22894  0.47133  1.0000
  C   C1614     1.0  0.55773  0.06809  0.48454  1.0000
  H   H1930     1.0  0.71333  0.14611  0.44837  1.0000
  H   H1931     1.0  0.91975  0.06982  0.34804  1.0000
  H   H1932     1.0  0.50183  0.18573  0.43273  1.0000
  C   C1615     1.0  0.58600  0.31197  0.38323  1.0000
  H   H1933     1.0  0.80949  0.01318  0.46628  1.0000
  H   H1934     1.0  0.94760  0.15171  0.42939  1.0000
  C   C1616     1.0  0.89437  0.12166  0.25264  1.0000
  C   C1617     1.0  0.78486  0.11558  0.48000  1.0000
  H   H1935     1.0  0.79692  0.04452  0.46981  1.0000
  H   H1936     1.0  0.82428  0.12675  0.41700  1.0000
  H   H1937     1.0  0.94755  0.99865  0.42560  1.0000
  H   H1938     1.0  0.65001  0.32649  0.35111  1.0000
  H   H1939     1.0  0.81903  0.06314  0.48374  1.0000
  H   H1940     1.0  0.97692  0.11195  0.43381  1.0000
  Fe  Fe215     1.0  0.98283  0.09263  0.37047  1.0000
  H   H1941     1.0  0.82070  0.09400  0.24496  1.0000
  H   H1942     1.0  0.83807  0.20404  0.27867  1.0000
  H   H1943     1.0  0.72808  0.14036  0.46431  1.0000
  C   C1618     1.0  0.96533  0.16248  0.40676  1.0000
  H   H1944     1.0  0.96112  0.05771  0.31671  1.0000
  H   H1945     1.0  0.72283  0.30779  0.31909  1.0000
  C   C1619     1.0  0.80196  0.28313  0.43185  1.0000
  C   C1620     1.0  0.91300  0.27646  0.45715  1.0000
  H   H1946     1.0  0.77913  0.28511  0.41592  1.0000
  H   H1947     1.0  0.92456  0.01265  0.40548  1.0000
  C   C1621     1.0  0.91024  0.04878  0.31906  1.0000
  C   C1622     1.0  0.53811  0.10293  0.43283  1.0000
  H   H1948     1.0  0.51808  0.11799  0.45169  1.0000
  C   C1623     1.0  0.63643  0.02052  0.43226  1.0000
  C   C1624     1.0  0.82448  0.17575  0.25417  1.0000
  S   S430      1.0  0.98497  0.05162  0.38115  1.0000
  H   H1949     1.0  0.65636  0.01543  0.42769  1.0000
  H   H1950     1.0  0.67765  0.01340  0.44638  1.0000
  Fe  Fe216     1.0  0.91268  0.03626  0.28498  1.0000
  H   H1951     1.0  0.97595  0.19667  0.47284  1.0000
  S   S431      1.0  0.66196  0.29897  0.38980  1.0000
  C   C1625     1.0  0.89746  0.01084  0.38760  1.0000
  C   C1626     1.0  0.72381  0.15425  0.45420  1.0000
  C   C1627     1.0  0.84902  0.03444  0.46456  1.0000
  H   H1952     1.0  0.68555  0.23623  0.45240  1.0000
  Fe  Fe217     1.0  0.96018  0.00933  0.26680  1.0000
  H   H1953     1.0  0.74397  0.10971  0.45030  1.0000
  N   N109      1.0  0.83127  0.02586  0.47823  1.0000
  N   N110      1.0  0.93941  0.19576  0.46876  1.0000
  Fe  Fe218     1.0  0.81283  0.17117  0.47531  1.0000
  C   C1628     1.0  0.93033  0.22348  0.46511  1.0000
  C   C1629     1.0  0.95883  0.18834  0.47829  1.0000
  H   H1954     1.0  0.67653  0.04314  0.43328  1.0000
  H   H1955     1.0  0.98281  0.08394  0.32103  1.0000
  H   H1956     1.0  0.93699  0.28023  0.47103  1.0000
  H   H1957     1.0  0.80931  0.26300  0.43251  1.0000
  H   H1958     1.0  0.82256  0.28574  0.44743  1.0000
  H   H1959     1.0  0.90596  0.29663  0.45441  1.0000
  C   C1630     1.0  0.80131  0.09897  0.42824  1.0000
  H   H1960     1.0  0.87791  0.08403  0.27393  1.0000
  C   C1631     1.0  0.90381  0.25969  0.45183  1.0000
  C   C1632     1.0  0.92055  0.05687  0.34095  1.0000
  H   H1961     1.0  0.75581  0.18855  0.42428  1.0000
  H   H1962     1.0  0.73110  0.17219  0.42471  1.0000
  C   C1633     1.0  0.89468  0.12182  0.27783  1.0000
  H   H1963     1.0  0.64323  0.00933  0.46902  1.0000
  H   H1964     1.0  0.74578  0.18995  0.45675  1.0000
  H   H1965     1.0  0.79391  0.16197  0.42600  1.0000
  H   H1966     1.0  0.89878  0.08462  0.32625  1.0000
  H   H1967     1.0  0.79875  0.25617  0.24564  1.0000
  C   C1634     1.0  0.86096  0.08085  0.23853  1.0000
  S   S432      1.0  0.84850  0.17843  0.47937  1.0000
  C   C1635     1.0  0.52379  0.12126  0.40980  1.0000
  C   C1636     1.0  0.54549  0.31331  0.37671  1.0000
  H   H1968     1.0  0.58020  0.09477  0.47073  1.0000
  H   H1969     1.0  0.76481  0.15980  0.46265  1.0000
  H   H1970     1.0  0.89433  0.05780  0.42777  1.0000
  C   C1637     1.0  0.84244  0.05847  0.45550  1.0000
  H   H1971     1.0  0.95160  0.17987  0.40486  1.0000
  Fe  Fe219     1.0  0.66553  0.11362  0.48097  1.0000
  C   C1638     1.0  0.62736  0.03410  0.44409  1.0000
  H   H1972     1.0  0.96526  0.16744  0.48082  1.0000
  C   C1639     1.0  0.80652  0.12332  0.42423  1.0000
  C   C1640     1.0  0.66419  0.20723  0.46365  1.0000
  N   N111      1.0  0.64441  0.04191  0.45141  1.0000
  C   C1641     1.0  0.64023  0.03031  0.46738  1.0000
  H   H1973     1.0  0.61905  0.07712  0.45507  1.0000
  H   H1974     1.0  0.57313  0.32010  0.34447  1.0000
  C   C1642     1.0  0.82583  0.32280  0.45799  1.0000
  S   S433      1.0  0.53736  0.07378  0.47183  1.0000
  N   N112      1.0  0.74723  0.16142  0.44437  1.0000
  H   H1975     1.0  0.98334  0.00700  0.31132  1.0000
  H   H1976     1.0  0.90230  0.18770  0.47038  1.0000
  H   H1977     1.0  0.90873  0.10366  0.27837  1.0000
  S   S434      1.0  0.89865  0.06062  0.30244  1.0000
  H   H1978     1.0  0.99655  0.07173  0.43295  1.0000
  H   H1979     1.0  0.81187  0.17904  0.24639  1.0000
  C   C1643     1.0  0.93904  0.24113  0.47053  1.0000
  H   H1980     1.0  0.85370  0.08543  0.43584  1.0000
  S   S435      1.0  0.93836  0.99986  0.25230  1.0000
  C   C1644     1.0  0.59362  0.01840  0.43117  1.0000
  C   C1645     1.0  0.69318  0.19815  0.48613  1.0000
  C   C1646     1.0  0.85708  0.16709  0.27414  1.0000
  C   C1647     1.0  0.65981  0.18875  0.47626  1.0000
  H   H1981     1.0  0.74272  0.20214  0.48432  1.0000
  N   N113      1.0  0.76744  0.11888  0.38495  1.0000
  C   C1648     1.0  0.77277  0.09697  0.39695  1.0000
  C   C1649     1.0  0.73976  0.12410  0.38506  1.0000
  C   C1650     1.0  0.78079  0.11161  0.37056  1.0000
  C   C1651     1.0  0.77660  0.14054  0.38717  1.0000
  C   C1652     1.0  0.80294  0.13943  0.38580  1.0000
  C   C1653     1.0  0.76002  0.16289  0.39104  1.0000
  C   C1654     1.0  0.81222  0.15934  0.38801  1.0000
  C   C1655     1.0  0.76951  0.18284  0.39314  1.0000
  C   C1656     1.0  0.79554  0.18100  0.39171  1.0000
  H   H1982     1.0  0.79330  0.09133  0.39732  1.0000
  H   H1983     1.0  0.76248  0.10119  0.40797  1.0000
  H   H1984     1.0  0.76675  0.08006  0.39545  1.0000
  H   H1985     1.0  0.72835  0.12743  0.39604  1.0000
  H   H1986     1.0  0.73362  0.10764  0.38300  1.0000
  H   H1987     1.0  0.73434  0.14061  0.37635  1.0000
  H   H1988     1.0  0.80128  0.10348  0.37033  1.0000
  H   H1989     1.0  0.77293  0.09662  0.36809  1.0000
  H   H1990     1.0  0.77927  0.12819  0.36129  1.0000
  H   H1991     1.0  0.81664  0.12309  0.38297  1.0000
  H   H1992     1.0  0.73968  0.16553  0.39239  1.0000
  H   H1993     1.0  0.83254  0.15795  0.38680  1.0000
  H   H1994     1.0  0.75667  0.19995  0.39581  1.0000
  H   H1995     1.0  0.80287  0.19639  0.39344  1.0000
  C   C1657     1.0  0.78896  0.14343  0.42949  1.0000
  C   C1658     1.0  0.57094  0.30185  0.37693  1.0000
  C   C1659     1.0  0.57821  0.08072  0.48080  1.0000
  C   C1660     1.0  0.76559  0.13974  0.43903  1.0000
  C   C1661     1.0  0.58411  0.03187  0.44263  1.0000
  C   C1662     1.0  0.67179  0.03431  0.44519  1.0000
  C   C1663     1.0  0.78635  0.26798  0.23838  1.0000
  H   H1996     1.0  0.65314  0.21061  0.45507  1.0000
  H   H1997     1.0  0.85147  0.10372  0.28330  1.0000
  C   C1664     1.0  0.93419  0.01519  0.33484  1.0000
  C   C1665     1.0  0.87312  0.01963  0.45987  1.0000
  H   H1998     1.0  0.88949  0.26686  0.44500  1.0000
  C   C1666     1.0  0.85912  0.14809  0.26587  1.0000
  C   C1667     1.0  0.84209  0.15310  0.25594  1.0000
  H   H1999     1.0  0.92373  0.16212  0.47879  1.0000
  H   H2000     1.0  0.81802  0.30733  0.46633  1.0000
  S   S436      1.0  0.88666  0.02978  0.27180  1.0000
  C   C1668     1.0  0.68263  0.22148  0.46215  1.0000
  H   H2001     1.0  0.90851  0.10356  0.25314  1.0000
  C   C1669     1.0  0.54055  0.10361  0.41779  1.0000
  H   H2002     1.0  0.62072  0.03692  0.47328  1.0000
  H   H2003     1.0  0.64160  0.07929  0.43798  1.0000
  H   H2004     1.0  0.82471  0.07103  0.45851  1.0000
  H   H2005     1.0  0.61024  0.30048  0.35228  1.0000
  H   H2006     1.0  0.55541  0.09034  0.41234  1.0000
  S   S437      1.0  0.70308  0.31034  0.34961  1.0000
  H   H2007     1.0  0.64073  0.29510  0.34090  1.0000
  H   H2008     1.0  0.88720  0.01583  0.37819  1.0000
  C   C1670     1.0  0.78493  0.29549  0.42250  1.0000
  H   H2009     1.0  0.68403  0.04046  0.45096  1.0000
  H   H2010     1.0  0.88011  0.00130  0.46606  1.0000
  C   C1671     1.0  0.77448  0.29240  0.24067  1.0000
  C   C1672     1.0  0.60065  0.03966  0.44899  1.0000
  C   C1673     1.0  0.61969  0.01280  0.42598  1.0000
  C   C1674     1.0  0.98027  0.12366  0.42297  1.0000
  C   C1675     1.0  0.85979  0.25214  0.48528  1.0000
  C   C1676     1.0  0.83931  0.18972  0.27231  1.0000
  H   H2011     1.0  0.91608  0.01650  0.38287  1.0000
  H   H2012     1.0  0.85291  0.10134  0.26452  1.0000
  H   H2013     1.0  0.58081  0.01210  0.42634  1.0000
  H   H2014     1.0  0.99328  0.07120  0.40834  1.0000
  H   H2015     1.0  0.94416  0.99582  0.33715  1.0000
  C   C1677     1.0  0.84066  0.00007  0.48619  1.0000
  H   H2016     1.0  0.88347  0.12178  0.24418  1.0000
  H   H2017     1.0  0.96616  0.19578  0.44816  1.0000
  S   S438      1.0  0.67420  0.07143  0.48407  1.0000
  H   H2018     1.0  0.98622  0.16771  0.38439  1.0000
  H   H2019     1.0  0.85936  0.29225  0.48054  1.0000
  H   H2020     1.0  0.79311  0.01822  0.48440  1.0000
  H   H2021     1.0  0.52571  0.12172  0.39809  1.0000
  C   C1678     1.0  0.51888  0.11982  0.43999  1.0000
  H   H2022     1.0  0.61315  0.30123  0.33276  1.0000
  H   H2023     1.0  0.90486  0.13755  0.24833  1.0000
  H   H2024     1.0  0.64539  0.17770  0.47738  1.0000
  C   C1679     1.0  0.50131  0.13794  0.43222  1.0000
  H   H2025     1.0  0.95194  0.23541  0.47820  1.0000
  H   H2026     1.0  0.67102  0.00071  0.39974  1.0000
  C   C1680     1.0  0.80675  0.02549  0.47450  1.0000
  H   H2027     1.0  0.69245  0.00280  0.35038  1.0000
  C   C1681     1.0  0.50444  0.13821  0.41687  1.0000
  H   H2028     1.0  0.88658  0.02275  0.39582  1.0000
  C   C1682     1.0  0.80004  0.32291  0.43971  1.0000
  H   H2029     1.0  0.84374  0.31438  0.45117  1.0000
  H   H2030     1.0  0.61187  0.08514  0.48693  1.0000
  C   C1683     1.0  0.83788  0.09775  0.23728  1.0000
  H   H2031     1.0  0.74507  0.11680  0.58331  1.0000
  S   S439      1.0  0.63590  0.11537  0.50164  1.0000
  Fe  Fe220     1.0  0.73025  0.11314  0.62193  1.0000
  S   S440      1.0  0.70780  0.09355  0.64262  1.0000
  S   S441      1.0  0.75710  0.13909  0.62041  1.0000
  Fe  Fe221     1.0  0.71656  0.08458  0.60200  1.0000
  S   S442      1.0  0.69321  0.06244  0.62086  1.0000
  S   S443      1.0  0.72553  0.07482  0.57935  1.0000
  Fe  Fe222     1.0  0.67839  0.09916  0.62871  1.0000
  S   S444      1.0  0.63638  0.10961  0.63698  1.0000
  Fe  Fe223     1.0  0.72433  0.05847  0.63309  1.0000
  S   S445      1.0  0.73939  0.02178  0.64704  1.0000
  S   S446      1.0  0.69931  0.12209  0.60866  1.0000
  S   S447      1.0  0.74923  0.07734  0.61358  1.0000
  C   C1684     1.0  0.68484  0.13700  0.69164  1.0000
  H   H2032     1.0  0.69140  0.30100  0.70208  1.0000
  H   H2033     1.0  0.85610  0.26283  0.67460  1.0000
  H   H2034     1.0  0.99231  0.29854  0.56716  1.0000
  H   H2035     1.0  0.56034  0.27616  0.72902  1.0000
  H   H2036     1.0  0.67172  0.05560  0.54989  1.0000
  H   H2037     1.0  0.63181  0.05063  0.54574  1.0000
  S   S448      1.0  0.94307  0.30998  0.49493  1.0000
  H   H2038     1.0  0.60798  0.09954  0.71600  1.0000
  H   H2039     1.0  0.62514  0.10565  0.66898  1.0000
  Fe  Fe224     1.0  0.54340  0.01742  0.67059  1.0000
  N   N114      1.0  0.93641  0.13194  0.67838  1.0000
  H   H2040     1.0  0.82454  0.02808  0.60390  1.0000
  H   H2041     1.0  0.64684  0.28173  0.72536  1.0000
  C   C1685     1.0  0.86200  0.00987  0.61961  1.0000
  H   H2042     1.0  0.93505  0.16968  0.66545  1.0000
  C   C1686     1.0  0.53254  0.09508  0.72149  1.0000
  S   S449      1.0  0.90496  0.30914  0.52783  1.0000
  H   H2043     1.0  0.79899  0.14131  0.58653  1.0000
  C   C1687     1.0  0.75995  0.08280  0.49121  1.0000
  H   H2044     1.0  0.63769  0.07656  0.68058  1.0000
  C   C1688     1.0  0.96090  0.00805  0.72333  1.0000
  Fe  Fe225     1.0  0.82416  0.19313  0.69254  1.0000
  S   S450      1.0  0.85532  0.16175  0.70023  1.0000
  Fe  Fe226     1.0  0.77503  0.20380  0.68082  1.0000
  S   S451      1.0  0.74369  0.18816  0.67655  1.0000
  S   S452      1.0  0.81581  0.20279  0.66950  1.0000
  S   S453      1.0  0.78400  0.19071  0.70363  1.0000
  Fe  Fe227     1.0  0.64709  0.07308  0.50568  1.0000
  S   S454      1.0  0.61677  0.04952  0.51430  1.0000
  Fe  Fe228     1.0  0.70357  0.07429  0.49605  1.0000
  H   H2045     1.0  0.95918  0.16406  0.71379  1.0000
  Fe  Fe229     1.0  0.66810  0.11350  0.51278  1.0000
  S   S455      1.0  0.66443  0.13742  0.52974  1.0000
  S   S456      1.0  0.67754  0.07113  0.51827  1.0000
  H   H2046     1.0  0.70071  0.19739  0.52090  1.0000
  C   C1689     1.0  0.66394  0.05427  0.56193  1.0000
  H   H2047     1.0  0.67757  0.01471  0.64126  1.0000
  C   C1690     1.0  0.72251  0.28159  0.73674  1.0000
  H   H2048     1.0  0.82265  0.19934  0.54568  1.0000
  H   H2049     1.0  0.92866  0.15936  0.70028  1.0000
  C   C1691     1.0  0.60206  0.04235  0.60471  1.0000
  S   S457      1.0  0.96380  0.27730  0.52479  1.0000
  H   H2050     1.0  0.70241  0.12035  0.67251  1.0000
  C   C1692     1.0  0.68435  0.99404  0.64456  1.0000
  C   C1693     1.0  0.82818  0.99845  0.63930  1.0000
  H   H2051     1.0  0.66937  0.03423  0.56744  1.0000
  H   H2052     1.0  0.72232  0.22783  0.49284  1.0000
  C   C1694     1.0  0.82065  0.01435  0.61442  1.0000
  H   H2053     1.0  0.64015  0.00437  0.63566  1.0000
  H   H2054     1.0  0.96166  0.31161  0.69477  1.0000
  C   C1695     1.0  0.98985  0.05968  0.70243  1.0000
  H   H2055     1.0  0.76757  0.10905  0.56751  1.0000
  S   S458      1.0  0.81939  0.27587  0.65500  1.0000
  C   C1696     1.0  0.89856  0.15836  0.72990  1.0000
  H   H2056     1.0  0.68136  0.22099  0.50941  1.0000
  C   C1697     1.0  0.79854  0.17366  0.55912  1.0000
  C   C1698     1.0  0.88687  0.22712  0.50237  1.0000
  C   C1699     1.0  0.75449  0.09118  0.50459  1.0000
  C   C1700     1.0  0.76367  0.11205  0.50563  1.0000
  S   S459      1.0  0.76740  0.24494  0.68210  1.0000
  H   H2057     1.0  0.74069  0.13487  0.56555  1.0000
  H   H2058     1.0  0.64254  0.21532  0.69583  1.0000
  H   H2059     1.0  0.74291  0.08164  0.51411  1.0000
  H   H2060     1.0  0.75888  0.11870  0.51599  1.0000
  H   H2061     1.0  0.63922  0.10241  0.56114  1.0000
  H   H2062     1.0  0.60377  0.05393  0.55955  1.0000
  N   N115      1.0  0.70775  0.19313  0.49814  1.0000
  H   H2063     1.0  0.73945  0.17515  0.57439  1.0000
  N   N116      1.0  0.63605  0.06302  0.56494  1.0000
  H   H2064     1.0  0.63656  0.02069  0.66020  1.0000
  Fe  Fe230     1.0  0.93020  0.28106  0.51446  1.0000
  S   S460      1.0  0.51618  0.05385  0.67344  1.0000
  C   C1701     1.0  0.89516  0.24873  0.50305  1.0000
  C   C1702     1.0  0.85973  0.27950  0.66649  1.0000
  H   H2065     1.0  0.82604  0.99497  0.61178  1.0000
  H   H2066     1.0  0.59146  0.13837  0.70025  1.0000
  C   C1703     1.0  0.67963  0.01203  0.61219  1.0000
  H   H2067     1.0  0.63417  0.08318  0.61053  1.0000
  H   H2068     1.0  0.62519  0.13531  0.71089  1.0000
  H   H2069     1.0  0.63620  0.09239  0.54529  1.0000
  C   C1704     1.0  0.70995  0.09432  0.56541  1.0000
  C   C1705     1.0  0.69108  0.11541  0.56810  1.0000
  C   C1706     1.0  0.67779  0.12944  0.55689  1.0000
  C   C1707     1.0  0.68306  0.12205  0.54313  1.0000
  C   C1708     1.0  0.70237  0.10146  0.54039  1.0000
  C   C1709     1.0  0.71592  0.08773  0.55144  1.0000
  H   H2070     1.0  0.68635  0.12060  0.57887  1.0000
  H   H2071     1.0  0.66282  0.14543  0.55906  1.0000
  H   H2072     1.0  0.70672  0.09598  0.52975  1.0000
  H   H2073     1.0  0.73063  0.07154  0.54926  1.0000
  S   S461      1.0  0.74517  0.05920  0.48953  1.0000
  H   H2074     1.0  0.95059  0.31175  0.67832  1.0000
  H   H2075     1.0  0.89077  0.28918  0.49612  1.0000
  H   H2076     1.0  0.77949  0.11831  0.59398  1.0000
  C   C1710     1.0  0.84494  0.28929  0.65556  1.0000
  C   C1711     1.0  0.94808  0.15007  0.69732  1.0000
  H   H2077     1.0  0.74222  0.02038  0.61638  1.0000
  H   H2078     1.0  0.59788  0.08016  0.70700  1.0000
  H   H2079     1.0  0.68921  0.20539  0.68789  1.0000
  H   H2080     1.0  0.66917  0.17035  0.49717  1.0000
  C   C1712     1.0  0.75327  0.15304  0.63590  1.0000
  C   C1713     1.0  0.77313  0.16300  0.63783  1.0000
  C   C1714     1.0  0.77054  0.17382  0.65026  1.0000
  C   C1715     1.0  0.74784  0.17522  0.66063  1.0000
  C   C1716     1.0  0.72777  0.16594  0.65843  1.0000
  C   C1717     1.0  0.73056  0.15455  0.64623  1.0000
  H   H2081     1.0  0.79064  0.16218  0.62977  1.0000
  H   H2082     1.0  0.78602  0.18118  0.65179  1.0000
  H   H2083     1.0  0.70991  0.16781  0.66612  1.0000
  H   H2084     1.0  0.71495  0.14747  0.64465  1.0000
  C   C1718     1.0  0.59909  0.04080  0.65760  1.0000
  C   C1719     1.0  0.62524  0.03871  0.65629  1.0000
  C   C1720     1.0  0.63673  0.05979  0.65004  1.0000
  C   C1721     1.0  0.62205  0.08322  0.64519  1.0000
  C   C1722     1.0  0.59571  0.08563  0.64704  1.0000
  C   C1723     1.0  0.65468  0.21843  0.70245  1.0000
  C   C1724     1.0  0.89280  0.20120  0.71596  1.0000
  C   C1725     1.0  0.75536  0.12530  0.57238  1.0000
  C   C1726     1.0  0.78894  0.12879  0.58337  1.0000
  C   C1727     1.0  0.98144  0.08509  0.72139  1.0000
  H   H2085     1.0  0.56405  0.06621  0.65411  1.0000
  H   H2086     1.0  0.76255  0.17501  0.58504  1.0000
  C   C1728     1.0  0.69660  0.21715  0.70628  1.0000
  H   H2087     1.0  0.53927  0.04035  0.50064  1.0000
  H   H2088     1.0  0.87364  0.01001  0.62771  1.0000
  C   C1729     1.0  0.97290  0.07547  0.71143  1.0000
  S   S462      1.0  0.55090  0.11619  0.72272  1.0000
  C   C1730     1.0  0.90309  0.18299  0.72708  1.0000
  H   H2089     1.0  0.95316  0.08070  0.71057  1.0000
  C   C1731     1.0  0.82680  0.04342  0.48862  1.0000
  C   C1732     1.0  0.99076  0.14103  0.70204  1.0000
  C   C1733     1.0  0.57297  0.04479  0.50693  1.0000
  C   C1734     1.0  0.59367  0.05721  0.50304  1.0000
  H   H2090     1.0  0.63072  0.07470  0.70822  1.0000
  H   H2091     1.0  0.98648  0.26652  0.55598  1.0000
  H   H2092     1.0  0.57100  0.03072  0.51699  1.0000
  C   C1735     1.0  0.50221  0.06334  0.71820  1.0000
  H   H2093     1.0  0.66260  0.15186  0.71064  1.0000
  H   H2094     1.0  0.77591  0.31233  0.66521  1.0000
  S   S463      1.0  0.52042  0.00542  0.65767  1.0000
  H   H2095     1.0  0.92801  0.09763  0.69302  1.0000
  H   H2096     1.0  0.89639  0.22025  0.71366  1.0000
  C   C1736     1.0  0.65944  0.23274  0.72415  1.0000
  C   C1737     1.0  0.85014  0.31068  0.64496  1.0000
  C   C1738     1.0  0.88450  0.31283  0.65628  1.0000
  H   H2097     1.0  0.94596  0.02542  0.72204  1.0000
  Fe  Fe231     1.0  0.93960  0.30779  0.53669  1.0000
  H   H2098     1.0  0.58423  0.10378  0.64342  1.0000
  C   C1739     1.0  0.87944  0.29128  0.66686  1.0000
  H   H2099     1.0  0.72986  0.26755  0.70278  1.0000
  C   C1740     1.0  0.62184  0.09321  0.68008  1.0000
  C   C1741     1.0  0.87344  0.17024  0.71056  1.0000
  C   C1742     1.0  0.70012  0.29569  0.71175  1.0000
  H   H2100     1.0  0.77375  0.13540  0.54494  1.0000
  S   S464      1.0  0.91975  0.24517  0.51266  1.0000
  H   H2101     1.0  0.80345  0.11472  0.57770  1.0000
  C   C1743     1.0  0.71871  0.16575  0.50165  1.0000
  C   C1744     1.0  0.73340  0.26985  0.72454  1.0000
  H   H2102     1.0  0.90272  0.11573  0.68376  1.0000
  C   C1745     1.0  0.79731  0.16100  0.53250  1.0000
  C   C1746     1.0  0.81112  0.17905  0.53247  1.0000
  H   H2103     1.0  0.79708  0.15601  0.52213  1.0000
  H   H2104     1.0  0.82144  0.18809  0.52212  1.0000
  H   H2105     1.0  0.60227  0.03318  0.58423  1.0000
  H   H2106     1.0  0.62973  0.02737  0.56234  1.0000
  H   H2107     1.0  0.65690  0.05800  0.64920  1.0000
  H   H2108     1.0  0.60022  0.14231  0.68043  1.0000
  C   C1747     1.0  0.78982  0.30139  0.69189  1.0000
  H   H2109     1.0  0.70143  0.14425  0.69170  1.0000
  C   C1748     1.0  0.59609  0.07536  0.49001  1.0000
  N   N117      1.0  0.83443  0.01693  0.62550  1.0000
  H   H2110     1.0  0.93635  0.31057  0.59034  1.0000
  H   H2111     1.0  0.79982  0.01759  0.61837  1.0000
  H   H2112     1.0  0.69954  0.23009  0.72494  1.0000
  C   C1749     1.0  0.82661  0.04294  0.62861  1.0000
  C   C1750     1.0  0.84402  0.05939  0.62632  1.0000
  C   C1751     1.0  0.80075  0.05260  0.63407  1.0000
  C   C1752     1.0  0.83580  0.08399  0.62917  1.0000
  C   C1753     1.0  0.79278  0.07719  0.63688  1.0000
  C   C1754     1.0  0.81023  0.09288  0.63439  1.0000
  C   C1755     1.0  0.75559  0.99917  0.63619  1.0000
  H   H2113     1.0  0.55827  0.08229  0.70259  1.0000
  H   H2114     1.0  0.80414  0.29224  0.68336  1.0000
  H   H2115     1.0  0.95706  0.09852  0.66975  1.0000
  H   H2116     1.0  0.86334  0.21198  0.49284  1.0000
  H   H2117     1.0  0.84361  0.21377  0.73238  1.0000
  H   H2118     1.0  0.95883  0.99557  0.71619  1.0000
  H   H2119     1.0  0.70409  0.15398  0.50675  1.0000
  H   H2120     1.0  0.62354  0.23284  0.71818  1.0000
  H   H2121     1.0  0.86409  0.05373  0.62235  1.0000
  H   H2122     1.0  0.78641  0.04121  0.63619  1.0000
  H   H2123     1.0  0.84930  0.09629  0.62733  1.0000
  H   H2124     1.0  0.77288  0.08424  0.64093  1.0000
  H   H2125     1.0  0.80385  0.11198  0.63651  1.0000
  C   C1756     1.0  0.72202  0.27680  0.71210  1.0000
  N   N118      1.0  0.77042  0.14318  0.57388  1.0000
  H   H2126     1.0  0.93310  0.11700  0.65993  1.0000
  H   H2127     1.0  0.79980  0.17902  0.56915  1.0000
  C   C1757     1.0  0.68921  0.30739  0.72395  1.0000
  C   C1758     1.0  0.68092  0.21284  0.69795  1.0000
  H   H2128     1.0  0.96194  0.12828  0.65762  1.0000
  S   S465      1.0  0.78610  0.15304  0.49441  1.0000
  S   S466      1.0  0.76118  0.24662  0.72509  1.0000
  H   H2129     1.0  0.86803  0.02248  0.60896  1.0000
  H   H2130     1.0  0.90893  0.15541  0.66545  1.0000
  C   C1759     1.0  0.95547  0.13513  0.68618  1.0000
  C   C1760     1.0  0.50935  0.09317  0.73114  1.0000
  C   C1761     1.0  0.55494  0.05029  0.49773  1.0000
  Fe  Fe232     1.0  0.80893  0.24302  0.67276  1.0000
  H   H2131     1.0  0.96831  0.09796  0.72778  1.0000
  H   H2132     1.0  0.89074  0.28372  0.67537  1.0000
  C   C1762     1.0  0.94773  0.11841  0.66586  1.0000
  S   S467      1.0  0.94014  0.30274  0.56098  1.0000
  C   C1763     1.0  0.88468  0.27235  0.49549  1.0000
  C   C1764     1.0  0.96547  0.15292  0.70512  1.0000
  H   H2133     1.0  0.89440  0.20899  0.50859  1.0000
  S   S468      1.0  0.58612  0.01321  0.66401  1.0000
  C   C1765     1.0  0.92202  0.15704  0.67236  1.0000
  H   H2134     1.0  0.98349  0.30975  0.67749  1.0000
  H   H2135     1.0  0.82775  0.32263  0.68028  1.0000
  C   C1766     1.0  0.75388  0.00334  0.62128  1.0000
  H   H2136     1.0  0.61813  0.27038  0.72758  1.0000
  C   C1767     1.0  0.58424  0.06440  0.65318  1.0000
  C   C1768     1.0  0.96429  0.31877  0.68262  1.0000
  H   H2137     1.0  0.84477  0.04374  0.49190  1.0000
  H   H2138     1.0  0.90957  0.16685  0.68120  1.0000
  N   N119      1.0  0.61896  0.10733  0.69209  1.0000
  H   H2139     1.0  0.49975  0.02071  0.54618  1.0000
  S   S469      1.0  0.82020  0.23324  0.69496  1.0000
  H   H2140     1.0  0.60446  0.08577  0.68072  1.0000
  Fe  Fe233     1.0  0.97448  0.30900  0.50648  1.0000
  C   C1769     1.0  0.59666  0.12820  0.69083  1.0000
  C   C1770     1.0  0.64165  0.13176  0.70230  1.0000
  C   C1771     1.0  0.75261  0.16277  0.58156  1.0000
  C   C1772     1.0  0.60991  0.04440  0.58937  1.0000
  H   H2141     1.0  0.82675  0.99404  0.49627  1.0000
  C   C1773     1.0  0.61083  0.05624  0.61227  1.0000
  H   H2142     1.0  0.87084  0.20881  0.69884  1.0000
  Fe  Fe234     1.0  0.77926  0.23174  0.70408  1.0000
  C   C1774     1.0  0.87809  0.19482  0.70767  1.0000
  H   H2143     1.0  0.74422  0.32073  0.70397  1.0000
  H   H2144     1.0  0.73005  0.15871  0.49156  1.0000
  C   C1775     1.0  0.88370  0.15202  0.72169  1.0000
  H   H2145     1.0  0.66470  0.02521  0.61757  1.0000
  H   H2146     1.0  0.79966  0.30450  0.70011  1.0000
  H   H2147     1.0  0.74087  0.15419  0.59195  1.0000
  H   H2148     1.0  0.90911  0.12602  0.69872  1.0000
  S   S470      1.0  0.52690  0.99531  0.69250  1.0000
  C   C1776     1.0  0.78394  0.14925  0.54579  1.0000
  C   C1777     1.0  0.62756  0.07223  0.60458  1.0000
  C   C1778     1.0  0.68537  0.12350  0.68084  1.0000
  C   C1779     1.0  0.62693  0.06062  0.58114  1.0000
  C   C1780     1.0  0.62479  0.04802  0.55796  1.0000
  C   C1781     1.0  0.63558  0.07440  0.58926  1.0000
  C   C1782     1.0  0.81176  0.18535  0.54575  1.0000
  H   H2149     1.0  0.66581  0.10400  0.67190  1.0000
  S   S471      1.0  0.97880  0.05017  0.68901  1.0000
  C   C1783     1.0  0.66409  0.11409  0.68066  1.0000
  C   C1784     1.0  0.86934  0.22878  0.49345  1.0000
  H   H2150     1.0  0.57941  0.12106  0.69085  1.0000
  C   C1785     1.0  0.61376  0.08970  0.70641  1.0000
  C   C1786     1.0  0.62987  0.08988  0.55754  1.0000
  H   H2151     1.0  0.67397  0.06575  0.56589  1.0000
  H   H2152     1.0  0.60908  0.09734  0.55984  1.0000
  H   H2153     1.0  0.64868  0.08700  0.58382  1.0000
  C   C1787     1.0  0.78410  0.15533  0.55956  1.0000
  H   H2154     1.0  0.68551  0.04031  0.59239  1.0000
  C   C1788     1.0  0.98144  0.12315  0.68335  1.0000
  C   C1789     1.0  0.64157  0.11778  0.69152  1.0000
  H   H2155     1.0  0.83875  0.99919  0.64780  1.0000
  C   C1790     1.0  0.63389  0.26979  0.73317  1.0000
  C   C1791     1.0  0.66297  0.14125  0.70230  1.0000
  C   C1792     1.0  0.76183  0.31914  0.67468  1.0000
  H   H2156     1.0  0.81288  0.03799  0.49885  1.0000
  H   H2157     1.0  0.73140  0.16162  0.50983  1.0000
  C   C1793     1.0  0.68618  0.22698  0.71918  1.0000
  C   C1794     1.0  0.52557  0.06485  0.70869  1.0000
  H   H2158     1.0  0.80766  0.00179  0.64425  1.0000
  C   C1795     1.0  0.54065  0.08076  0.71029  1.0000
  C   C1796     1.0  0.91832  0.11720  0.68893  1.0000
  H   H2159     1.0  0.83876  0.31824  0.63650  1.0000
  H   H2160     1.0  0.75073  0.30397  0.68018  1.0000
  H   H2161     1.0  0.53204  0.05382  0.70005  1.0000
  C   C1797     1.0  0.64402  0.22835  0.71530  1.0000
  H   H2162     1.0  0.88006  0.13299  0.72403  1.0000
  H   H2163     1.0  0.58885  0.03010  0.61080  1.0000
  C   C1798     1.0  0.69048  0.20063  0.51160  1.0000
  S   S472      1.0  0.53750  0.23324  0.73294  1.0000
  H   H2164     1.0  0.95112  0.19444  0.48916  1.0000
  H   H2165     1.0  0.53630  0.32143  0.71810  1.0000
  C   C1799     1.0  0.86993  0.32234  0.64525  1.0000
  H   H2166     1.0  0.71704  0.21299  0.70258  1.0000
  H   H2167     1.0  0.97941  0.01403  0.71863  1.0000
  H   H2168     1.0  0.79748  0.19832  0.73001  1.0000
  H   H2169     1.0  0.77769  0.28728  0.69790  1.0000
  C   C1800     1.0  0.69132  0.02087  0.59771  1.0000
  S   S473      1.0  0.50557  0.17863  0.73039  1.0000
  H   H2170     1.0  0.60448  0.05473  0.62412  1.0000
  H   H2171     1.0  0.90972  0.18876  0.48755  1.0000
  H   H2172     1.0  0.95948  0.24237  0.73614  1.0000
  H   H2173     1.0  0.98530  0.30728  0.54096  1.0000
  S   S474      1.0  0.69636  0.11655  0.49158  1.0000
  Fe  Fe235     1.0  0.99662  0.01145  0.68363  1.0000
  H   H2174     1.0  0.67499  0.18954  0.51569  1.0000
  C   C1801     1.0  0.71139  0.00522  0.59034  1.0000
  H   H2175     1.0  0.81221  0.23210  0.73378  1.0000
  C   C1802     1.0  0.77838  0.12467  0.49325  1.0000
  H   H2176     1.0  0.85867  0.99894  0.48988  1.0000
  H   H2177     1.0  0.82725  0.17659  0.72974  1.0000
  C   C1803     1.0  0.98545  0.26840  0.72959  1.0000
  H   H2178     1.0  0.72097  0.01244  0.57930  1.0000
  H   H2179     1.0  0.74037  0.20192  0.50341  1.0000
  H   H2180     1.0  0.98879  0.11057  0.67555  1.0000
  C   C1804     1.0  0.70037  0.30028  0.73649  1.0000
  H   H2181     1.0  0.97384  0.28206  0.72247  1.0000
  C   C1805     1.0  0.72911  0.20698  0.49443  1.0000
  N   N120      1.0  0.77470  0.32538  0.68507  1.0000
  H   H2182     1.0  0.50052  0.14938  0.69048  1.0000
  C   C1806     1.0  0.67382  0.18443  0.48742  1.0000
  C   C1807     1.0  0.80963  0.18414  0.73713  1.0000
  Fe  Fe236     1.0  0.86074  0.09779  0.90467  1.0000
  S   S475      1.0  0.89967  0.07649  0.90790  1.0000
  S   S476      1.0  0.82694  0.10402  0.92312  1.0000
  Fe  Fe237     1.0  0.87500  0.10542  0.87128  1.0000
  S   S477      1.0  0.91474  0.08422  0.87163  1.0000
  S   S478      1.0  0.86180  0.12710  0.85038  1.0000
  Fe  Fe238     1.0  0.89739  0.05647  0.89028  1.0000
  H   H2183     1.0  0.94771  0.03238  0.86302  1.0000
  Fe  Fe239     1.0  0.91386  0.10595  0.88897  1.0000
  S   S479      1.0  0.94655  0.12617  0.88481  1.0000
  S   S480      1.0  0.85737  0.07571  0.88832  1.0000
  S   S481      1.0  0.87510  0.12906  0.88739  1.0000
  H   H2184     1.0  0.73122  0.27631  0.74641  1.0000
  S   S482      1.0  0.72699  0.27144  0.97719  1.0000
  S   S483      1.0  0.67615  0.10916  0.97190  1.0000
  H   H2185     1.0  0.54299  0.18100  0.82949  1.0000
  S   S484      1.0  0.82034  0.19641  0.95339  1.0000
  Fe  Fe240     1.0  0.59739  0.21483  0.90464  1.0000
  S   S485      1.0  0.56085  0.23383  0.89692  1.0000
  S   S486      1.0  0.63507  0.21151  0.88890  1.0000
  Fe  Fe241     1.0  0.57186  0.20130  0.93633  1.0000
  S   S487      1.0  0.53312  0.21919  0.93167  1.0000
  S   S488      1.0  0.57554  0.18591  0.95995  1.0000
  Fe  Fe242     1.0  0.54513  0.20085  0.91178  1.0000
  H   H2186     1.0  0.51561  0.11991  0.86141  1.0000
  Fe  Fe243     1.0  0.55154  0.25052  0.91734  1.0000
  S   S489      1.0  0.53044  0.29036  0.91724  1.0000
  S   S490      1.0  0.58259  0.17990  0.91772  1.0000
  S   S491      1.0  0.58939  0.23457  0.92384  1.0000
  C   C1808     1.0  0.67595  0.30359  0.94687  1.0000
  C   C1809     1.0  0.51032  0.31200  0.74691  1.0000
  H   H2187     1.0  0.90915  0.02515  0.86104  1.0000
  C   C1810     1.0  0.51742  0.29470  0.93540  1.0000
  S   S492      1.0  0.70797  0.25900  0.94070  1.0000
  C   C1811     1.0  0.57105  0.26136  0.76431  1.0000
  C   C1812     1.0  0.94574  0.17224  0.83686  1.0000
  S   S493      1.0  0.51015  0.04333  0.86486  1.0000
  C   C1813     1.0  0.59290  0.24399  0.82970  1.0000
  C   C1814     1.0  0.61775  0.22159  0.97312  1.0000
  H   H2188     1.0  0.89389  0.27379  0.95217  1.0000
  Fe  Fe244     1.0  0.73284  0.25366  0.95731  1.0000
  H   H2189     1.0  0.81197  0.05808  0.92009  1.0000
  H   H2190     1.0  0.61245  0.22949  0.74272  1.0000
  Fe  Fe245     1.0  0.94884  0.11541  0.77642  1.0000
  C   C1815     1.0  0.60914  0.03762  0.98044  1.0000
  S   S494      1.0  0.93051  0.08689  0.79415  1.0000
  Fe  Fe246     1.0  0.98994  0.11682  0.74895  1.0000
  C   C1816     1.0  0.84311  0.13471  0.77262  1.0000
  C   C1817     1.0  0.94019  0.02144  0.75914  1.0000
  C   C1818     1.0  0.95341  0.26801  0.96799  1.0000
  C   C1819     1.0  0.98830  0.12910  0.84396  1.0000
  C   C1820     1.0  0.62402  0.26033  0.95638  1.0000
  C   C1821     1.0  0.99457  0.13169  0.81751  1.0000
  C   C1822     1.0  0.91020  0.01689  0.85125  1.0000
  S   S495      1.0  0.94161  0.15726  0.77507  1.0000
  S   S496      1.0  0.77270  0.25989  0.94874  1.0000
  H   H2191     1.0  0.99281  0.25209  0.96839  1.0000
  H   H2192     1.0  0.80894  0.14830  0.76420  1.0000
  C   C1823     1.0  0.94249  0.15363  0.81710  1.0000
  S   S497      1.0  0.99416  0.18634  0.96067  1.0000
  H   H2193     1.0  0.88288  0.20834  0.96483  1.0000
  H   H2194     1.0  0.50816  0.00112  0.84427  1.0000
  C   C1824     1.0  0.50107  0.15724  0.83864  1.0000
  H   H2195     1.0  0.93780  0.11255  0.83875  1.0000
  H   H2196     1.0  0.64615  0.29818  0.83816  1.0000
  S   S498      1.0  0.98798  0.21081  0.92582  1.0000
  H   H2197     1.0  0.50531  0.30733  0.73765  1.0000
  C   C1825     1.0  0.58011  0.10710  0.93958  1.0000
  H   H2198     1.0  0.52044  0.06566  0.78122  1.0000
  C   C1826     1.0  0.96366  0.03435  0.82566  1.0000
  H   H2199     1.0  0.52571  0.27089  0.97087  1.0000
  H   H2200     1.0  0.50269  0.10424  0.73967  1.0000
  H   H2201     1.0  0.82343  0.14704  0.97581  1.0000
  C   C1827     1.0  0.87632  0.99918  0.88510  1.0000
  H   H2202     1.0  0.62288  0.30363  0.82033  1.0000
  S   S499      1.0  0.69488  0.30185  0.87283  1.0000
  H   H2203     1.0  0.64851  0.29310  0.89408  1.0000
  C   C1828     1.0  0.61434  0.28702  0.82341  1.0000
  C   C1829     1.0  0.67856  0.27636  0.87827  1.0000
  H   H2204     1.0  0.86357  0.19829  0.75281  1.0000
  S   S500      1.0  0.74456  0.21361  0.96896  1.0000
  C   C1830     1.0  0.53166  0.11119  0.89106  1.0000
  H   H2205     1.0  0.91419  0.28669  0.97033  1.0000
  C   C1831     1.0  0.67889  0.17956  0.94617  1.0000
  C   C1832     1.0  0.52117  0.15759  0.90064  1.0000
  C   C1833     1.0  0.54594  0.14361  0.89876  1.0000
  C   C1834     1.0  0.55117  0.12046  0.89393  1.0000
  C   C1835     1.0  0.63375  0.14437  0.97898  1.0000
  C   C1836     1.0  0.79158  0.20356  0.75849  1.0000
  H   H2206     1.0  0.56109  0.15069  0.90091  1.0000
  H   H2207     1.0  0.57038  0.10974  0.89239  1.0000
  H   H2208     1.0  0.61477  0.04880  0.94917  1.0000
  C   C1837     1.0  0.94231  0.03854  0.76738  1.0000
  H   H2209     1.0  0.80844  0.99979  0.91026  1.0000
  H   H2210     1.0  0.92230  0.01526  0.76162  1.0000
  H   H2211     1.0  0.97298  0.06540  0.85619  1.0000
  C   C1838     1.0  0.52751  0.27871  0.94729  1.0000
  H   H2212     1.0  0.67744  0.22572  0.74993  1.0000
  H   H2213     1.0  0.68901  0.16068  0.95001  1.0000
  H   H2214     1.0  0.85383  0.05015  0.92320  1.0000
  H   H2215     1.0  0.54320  0.26322  0.94535  1.0000
  H   H2216     1.0  0.61309  0.25296  0.86737  1.0000
  C   C1839     1.0  0.68844  0.25484  0.87192  1.0000
  C   C1840     1.0  0.67513  0.23489  0.87543  1.0000
  C   C1841     1.0  0.65191  0.23624  0.88537  1.0000
  C   C1842     1.0  0.64237  0.25737  0.89209  1.0000
  C   C1843     1.0  0.65576  0.27727  0.88861  1.0000
  H   H2217     1.0  0.70612  0.25387  0.86398  1.0000
  H   H2218     1.0  0.68266  0.21854  0.87023  1.0000
  H   H2219     1.0  0.62460  0.25851  0.89988  1.0000
  C   C1844     1.0  0.62934  0.22831  0.74750  1.0000
  C   C1845     1.0  0.67635  0.29159  0.92385  1.0000
  C   C1846     1.0  0.68547  0.28677  0.93701  1.0000
  H   H2220     1.0  0.51556  0.03759  0.82744  1.0000
  H   H2221     1.0  0.68339  0.27870  0.91619  1.0000
  C   C1847     1.0  0.64930  0.13186  0.96794  1.0000
  N   N121      1.0  0.52363  0.15352  0.84539  1.0000
  C   C1848     1.0  0.61096  0.16052  0.97645  1.0000
  C   C1849     1.0  0.60441  0.16568  0.96253  1.0000
  C   C1850     1.0  0.62067  0.15441  0.95113  1.0000
  C   C1851     1.0  0.64286  0.13703  0.95394  1.0000
  C   C1852     1.0  0.50741  0.29488  0.76035  1.0000
  H   H2222     1.0  0.59109  0.11236  0.97216  1.0000
  H   H2223     1.0  0.61581  0.15844  0.94030  1.0000
  H   H2224     1.0  0.65496  0.12761  0.94528  1.0000
  C   C1853     1.0  0.83043  0.11173  0.96936  1.0000
  C   C1854     1.0  0.95590  0.12997  0.90057  1.0000
  C   C1855     1.0  0.94787  0.11600  0.91456  1.0000
  C   C1856     1.0  0.95622  0.11871  0.92690  1.0000
  C   C1857     1.0  0.97219  0.13578  0.92539  1.0000
  S   S501      1.0  0.99674  0.17562  0.78286  1.0000
  C   C1858     1.0  0.61035  0.27743  0.81194  1.0000
  H   H2225     1.0  0.93548  0.10287  0.91584  1.0000
  H   H2226     1.0  0.95013  0.10768  0.93767  1.0000
  C   C1859     1.0  0.93172  0.28370  0.97424  1.0000
  H   H2227     1.0  0.61443  0.02508  0.97217  1.0000
  C   C1860     1.0  0.82441  0.13081  0.93075  1.0000
  C   C1861     1.0  0.80145  0.14045  0.93948  1.0000
  C   C1862     1.0  0.79953  0.16137  0.94600  1.0000
  C   C1863     1.0  0.82078  0.17228  0.94406  1.0000
  C   C1864     1.0  0.84358  0.16272  0.93524  1.0000
  C   C1865     1.0  0.84533  0.14226  0.92846  1.0000
  H   H2228     1.0  0.78524  0.13155  0.94133  1.0000
  H   H2229     1.0  0.78198  0.16835  0.95298  1.0000
  H   H2230     1.0  0.86012  0.17099  0.93376  1.0000
  H   H2231     1.0  0.86313  0.13492  0.92180  1.0000
  H   H2232     1.0  0.94525  0.13609  0.81262  1.0000
  S   S502      1.0  0.94808  0.11838  0.75254  1.0000
  C   C1866     1.0  0.59177  0.10293  0.96327  1.0000
  H   H2233     1.0  0.77805  0.21832  0.75248  1.0000
  C   C1867     1.0  0.88828  0.25593  0.95183  1.0000
  H   H2234     1.0  0.86685  0.01879  0.88354  1.0000
  H   H2235     1.0  0.59639  0.24878  0.80610  1.0000
  C   C1868     1.0  0.88030  0.11596  0.83463  1.0000
  C   C1869     1.0  0.89299  0.09081  0.83579  1.0000
  C   C1870     1.0  0.90790  0.08210  0.82317  1.0000
  C   C1871     1.0  0.91110  0.09863  0.80952  1.0000
  C   C1872     1.0  0.89864  0.12390  0.80837  1.0000
  C   C1873     1.0  0.88290  0.13246  0.82089  1.0000
  H   H2236     1.0  0.89086  0.07801  0.84635  1.0000
  H   H2237     1.0  0.91710  0.06257  0.82391  1.0000
  H   H2238     1.0  0.90072  0.13672  0.79783  1.0000
  H   H2239     1.0  0.87301  0.15194  0.81999  1.0000
  N   N122      1.0  0.83285  0.02023  0.92656  1.0000
  H   H2240     1.0  0.53509  0.11399  0.84422  1.0000
  N   N123      1.0  0.75118  0.21655  0.90940  1.0000
  C   C1874     1.0  0.76481  0.23456  0.91216  1.0000
  C   C1875     1.0  0.72856  0.23159  0.90329  1.0000
  C   C1876     1.0  0.74193  0.20064  0.92374  1.0000
  C   C1877     1.0  0.76877  0.20026  0.89951  1.0000
  C   C1878     1.0  0.76505  0.20009  0.88516  1.0000
  C   C1879     1.0  0.79062  0.18393  0.90414  1.0000
  C   C1880     1.0  0.78212  0.18425  0.87621  1.0000
  C   C1881     1.0  0.80737  0.16806  0.89517  1.0000
  C   C1882     1.0  0.80319  0.16822  0.88121  1.0000
  H   H2241     1.0  0.77295  0.24615  0.90158  1.0000
  H   H2242     1.0  0.75201  0.24785  0.91910  1.0000
  H   H2243     1.0  0.78064  0.22482  0.91809  1.0000
  H   H2244     1.0  0.73387  0.24526  0.89293  1.0000
  H   H2245     1.0  0.71556  0.24318  0.91117  1.0000
  H   H2246     1.0  0.71721  0.21924  0.90107  1.0000
  H   H2247     1.0  0.75723  0.19152  0.93015  1.0000
  H   H2248     1.0  0.72706  0.21191  0.93107  1.0000
  H   H2249     1.0  0.73364  0.18536  0.92200  1.0000
  H   H2250     1.0  0.74917  0.21203  0.88058  1.0000
  H   H2251     1.0  0.79497  0.18328  0.91478  1.0000
  H   H2252     1.0  0.77902  0.18436  0.86531  1.0000
  H   H2253     1.0  0.82368  0.15551  0.89911  1.0000
  H   H2254     1.0  0.81637  0.15593  0.87425  1.0000
  Fe  Fe247     1.0  0.78400  0.22140  0.96197  1.0000
  C   C1883     1.0  0.97208  0.14689  0.89903  1.0000
  S   S503      1.0  0.50366  0.13197  0.75946  1.0000
  H   H2255     1.0  0.86592  0.02847  0.91059  1.0000
  N   N124      1.0  0.93659  0.00594  0.84491  1.0000
  H   H2256     1.0  0.78154  0.18766  0.76398  1.0000
  H   H2257     1.0  0.57018  0.13678  0.95218  1.0000
  H   H2258     1.0  0.95304  0.16726  0.80877  1.0000
  H   H2259     1.0  0.60517  0.21712  0.96685  1.0000
  H   H2260     1.0  0.60243  0.32513  0.83851  1.0000
  C   C1884     1.0  0.50172  0.14837  0.89769  1.0000
  H   H2261     1.0  0.54781  0.12307  0.85747  1.0000
  H   H2262     1.0  0.87109  0.01952  0.92918  1.0000
  H   H2263     1.0  0.53939  0.10868  0.81983  1.0000
  C   C1885     1.0  0.98501  0.03979  0.75408  1.0000
  C   C1886     1.0  0.65745  0.32531  0.94340  1.0000
  H   H2264     1.0  0.68674  0.17520  0.92348  1.0000
  C   C1887     1.0  0.65846  0.31335  0.92031  1.0000
  H   H2265     1.0  0.97676  0.13197  0.85459  1.0000
  C   C1888     1.0  0.87299  0.16269  0.76636  1.0000
  N   N125      1.0  0.61104  0.28669  0.85042  1.0000
  C   C1889     1.0  0.63836  0.28684  0.84887  1.0000
  C   C1890     1.0  0.60237  0.27280  0.86554  1.0000
  C   C1891     1.0  0.60737  0.27555  0.83848  1.0000
  C   C1892     1.0  0.59672  0.25348  0.84130  1.0000
  H   H2266     1.0  0.59119  0.24317  0.85235  1.0000
  C   C1893     1.0  0.85691  0.02994  0.92223  1.0000
  H   H2267     1.0  0.64193  0.29509  0.85767  1.0000
  H   H2268     1.0  0.64985  0.26730  0.84959  1.0000
  H   H2269     1.0  0.92572  0.18230  0.83702  1.0000
  S   S504      1.0  0.55193  0.16122  0.74912  1.0000
  C   C1894     1.0  0.51399  0.12103  0.80442  1.0000
  H   H2270     1.0  0.59319  0.07450  0.92931  1.0000
  C   C1895     1.0  0.86628  0.13954  0.77348  1.0000
  H   H2271     1.0  0.98558  0.06040  0.81047  1.0000
  C   C1896     1.0  0.85678  0.18102  0.75822  1.0000
  H   H2272     1.0  0.50176  0.16388  0.86594  1.0000
  H   H2273     1.0  0.54397  0.21269  0.76318  1.0000
  Fe  Fe248     1.0  0.98396  0.15302  0.76998  1.0000
  C   C1897     1.0  0.65168  0.22757  0.93640  1.0000
  Fe  Fe249     1.0  0.52396  0.19653  0.74300  1.0000
  C   C1898     1.0  0.66427  0.21169  0.92636  1.0000
  C   C1899     1.0  0.96067  0.01306  0.74802  1.0000
  C   C1900     1.0  0.65441  0.23900  0.97178  1.0000
  C   C1901     1.0  0.59270  0.08234  0.93887  1.0000
  C   C1902     1.0  0.83317  0.17657  0.75691  1.0000
  H   H2274     1.0  0.53079  0.32325  0.78087  1.0000
  H   H2275     1.0  0.55168  0.14932  0.82557  1.0000
  H   H2276     1.0  0.94951  0.31291  0.94123  1.0000
  H   H2277     1.0  0.65670  0.25260  0.75653  1.0000
  H   H2278     1.0  0.58815  0.04099  0.98400  1.0000
  H   H2279     1.0  0.67943  0.25756  0.73997  1.0000
  C   C1903     1.0  0.67766  0.18768  0.93124  1.0000
  H   H2280     1.0  0.83789  0.11671  0.77823  1.0000
  H   H2281     1.0  0.79509  0.03360  0.92170  1.0000
  H   H2282     1.0  0.66316  0.21782  0.91475  1.0000
  S   S505      1.0  0.78271  0.23606  0.98227  1.0000
  H   H2283     1.0  0.98534  0.21149  0.75285  1.0000
  C   C1904     1.0  0.82296  0.02012  0.94253  1.0000
  H   H2284     1.0  0.56311  0.15682  0.83990  1.0000
  H   H2285     1.0  0.92199  0.16233  0.81801  1.0000
  H   H2286     1.0  0.61560  0.28675  0.80053  1.0000
  C   C1905     1.0  0.97769  0.05367  0.82197  1.0000
  C   C1906     1.0  0.79866  0.30959  0.98289  1.0000
  Fe  Fe250     1.0  0.53091  0.14257  0.73853  1.0000
  C   C1907     1.0  0.56160  0.23886  0.76903  1.0000
  C   C1908     1.0  0.60491  0.06776  0.95032  1.0000
  H   H2287     1.0  0.63843  0.20801  0.75002  1.0000
  H   H2288     1.0  0.62166  0.23487  0.75823  1.0000
  H   H2289     1.0  0.92648  0.04506  0.77570  1.0000
  N   N126      1.0  0.86959  0.24826  0.96527  1.0000
  H   H2290     1.0  0.98830  0.31212  0.95003  1.0000
  C   C1909     1.0  0.51765  0.16915  0.85695  1.0000
  H   H2291     1.0  0.50934  0.08626  0.83945  1.0000
  C   C1910     1.0  0.51765  0.28310  0.96172  1.0000
  C   C1911     1.0  0.50962  0.03698  0.81748  1.0000
  N   N127      1.0  0.64762  0.24364  0.73759  1.0000
  H   H2292     1.0  0.65309  0.07422  0.96329  1.0000
  C   C1912     1.0  0.50404  0.09566  0.82897  1.0000
  C   C1913     1.0  0.55087  0.24349  0.74500  1.0000
  H   H2293     1.0  0.83669  0.00825  0.94947  1.0000
  S   S506      1.0  0.63961  0.30677  0.76611  1.0000
  H   H2294     1.0  0.88071  0.25889  0.94153  1.0000
  H   H2295     1.0  0.51700  0.17440  0.81589  1.0000
  C   C1914     1.0  0.54630  0.16054  0.83458  1.0000
  H   H2296     1.0  0.68284  0.29994  0.95710  1.0000
  S   S507      1.0  0.53871  0.08262  0.88453  1.0000
  Fe  Fe251     1.0  0.76830  0.27417  0.96968  1.0000
  H   H2297     1.0  0.90599  0.24143  0.95061  1.0000
  H   H2298     1.0  0.63767  0.27153  0.94864  1.0000
  C   C1915     1.0  0.65185  0.21954  0.95182  1.0000
  H   H2299     1.0  0.57091  0.11848  0.93061  1.0000
  C   C1916     1.0  0.51280  0.05334  0.79117  1.0000
  H   H2300     1.0  0.62545  0.27909  0.74290  1.0000
  H   H2301     1.0  0.57762  0.29213  0.74613  1.0000
  C   C1917     1.0  0.56076  0.26571  0.74017  1.0000
  N   N128      1.0  0.81552  0.19546  0.74835  1.0000
  H   H2302     1.0  0.93780  0.12771  0.85361  1.0000
  S   S508      1.0  0.58377  0.27195  0.77659  1.0000
  C   C1918     1.0  0.98004  0.14998  0.91144  1.0000
  H   H2303     1.0  0.61372  0.27172  0.96497  1.0000
  S   S509      1.0  0.53455  0.13887  0.79143  1.0000
  C   C1919     1.0  0.97775  0.13606  0.83094  1.0000
  H   H2304     1.0  0.95831  0.18508  0.82958  1.0000
  H   H2305     1.0  0.85769  0.22315  0.95513  1.0000
  H   H2306     1.0  0.69214  0.30940  0.74590  1.0000
  H   H2307     1.0  0.59937  0.32242  0.85791  1.0000
  C   C1920     1.0  0.95605  0.03761  0.85146  1.0000
  C   C1921     1.0  0.59956  0.25603  0.81507  1.0000
  H   H2308     1.0  0.80506  0.01257  0.94629  1.0000
  C   C1922     1.0  0.57065  0.27473  0.74984  1.0000
  C   C1923     1.0  0.51466  0.29902  0.77256  1.0000
  H   H2309     1.0  0.83008  0.26154  0.97392  1.0000
  S   S510      1.0  0.51377  0.18678  0.90645  1.0000
  H   H2310     1.0  0.82064  0.03931  0.90607  1.0000
  C   C1924     1.0  0.99185  0.22868  0.74666  1.0000
  C   C1925     1.0  0.86521  0.22295  0.96509  1.0000
  H   H2311     1.0  0.79528  0.21161  0.76732  1.0000
  H   H2312     1.0  0.96623  0.06094  0.77121  1.0000
  H   H2313     1.0  0.59856  0.16933  0.98527  1.0000
  Fe  Fe252     1.0  0.59808  0.30855  0.76835  1.0000
  S   S511      1.0  0.98695  0.15897  0.74540  1.0000
  S   S512      1.0  0.95187  0.25420  0.95341  1.0000
  N   N129      1.0  0.95064  0.14803  0.83160  1.0000
  H   H2314     1.0  0.83795  0.26668  0.95427  1.0000
  S   S513      1.0  0.78621  0.30783  0.96771  1.0000
  H   H2315     1.0  0.56195  0.22834  0.78018  1.0000
  H   H2316     1.0  0.60537  0.28173  0.87421  1.0000
  C   C1926     1.0  0.82671  0.15292  0.76451  1.0000
  N   N130      1.0  0.63727  0.23502  0.96296  1.0000
  C   C1927     1.0  0.82329  0.08850  0.97140  1.0000
  Fe  Fe253     1.0  0.98574  0.22485  0.94659  1.0000
  C   C1928     1.0  0.55147  0.22995  0.75941  1.0000
  H   H2317     1.0  0.87911  0.12530  0.77962  1.0000
  C   C1929     1.0  0.60475  0.07756  0.96292  1.0000
  S   S514      1.0  0.98277  0.13824  0.94103  1.0000
  H   H2318     1.0  0.58175  0.27250  0.86771  1.0000
  Fe  Fe254     1.0  0.50608  0.06705  0.88187  1.0000
  H   H2319     1.0  0.79918  0.16842  0.74209  1.0000
  H   H2320     1.0  0.91397  0.21946  0.97310  1.0000
  C   C1930     1.0  0.52461  0.32041  0.77142  1.0000
  H   H2321     1.0  0.60548  0.23301  0.98128  1.0000
  H   H2322     1.0  0.81887  0.03958  0.94497  1.0000
  Fe  Fe255     1.0  0.94500  0.16005  0.75072  1.0000
  H   H2323     1.0  0.91393  0.13958  0.84276  1.0000
  Fe  Fe256     1.0  0.52219  0.15380  0.76947  1.0000
  C   C1931     1.0  0.97600  0.26420  0.97315  1.0000
  H   H2324     1.0  0.96144  0.02705  0.81653  1.0000
  H   H2325     1.0  0.66664  0.18736  0.96788  1.0000
  H   H2326     1.0  0.94901  0.16936  0.84835  1.0000
  C   C1932     1.0  0.84526  0.26646  0.96431  1.0000
  H   H2327     1.0  0.97837  0.15773  0.88823  1.0000
  H   H2328     1.0  0.65210  0.31706  0.90998  1.0000
  H   H2329     1.0  0.58469  0.22722  0.83206  1.0000
  C   C1933     1.0  0.95226  0.02578  0.84059  1.0000
  C   C1934     1.0  0.53075  0.12657  0.85239  1.0000
  C   C1935     1.0  0.96470  0.04758  0.76489  1.0000
  C   C1936     1.0  0.57962  0.11733  0.95176  1.0000
  C   C1937     1.0  0.81431  0.03845  0.91821  1.0000
  N   N131      1.0  0.95925  0.99509  0.73900  1.0000
  H   H2330     1.0  0.50046  0.27777  0.76112  1.0000
  H   H2331     1.0  0.83347  0.07526  0.96424  1.0000
  C   C1938     1.0  0.66601  0.19507  0.95635  1.0000
  H   H2332     1.0  0.64162  0.24585  0.93181  1.0000
  C   C1939     1.0  0.59659  0.31307  0.84935  1.0000
  H   H2333     1.0  0.66968  0.24859  0.96455  1.0000
  H   H2334     1.0  0.64409  0.25092  0.98010  1.0000
  H   H2335     1.0  0.89112  0.16640  0.76688  1.0000
  C   C1940     1.0  0.93448  0.13118  0.84211  1.0000
  C   C1941     1.0  0.81489  0.32660  0.98110  1.0000
  H   H2336     1.0  0.79754  0.06430  0.98427  1.0000
  H   H2337     1.0  0.65710  0.04620  0.97721  1.0000
  H   H2338     1.0  0.53411  0.16682  0.86239  1.0000
  C   C1942     1.0  0.66621  0.24480  0.74636  1.0000
  H   H2339     1.0  0.65042  0.04444  0.95997  1.0000
  H   H2340     1.0  0.60962  0.25870  0.95034  1.0000
  S   S515      1.0  0.91464  0.01465  0.89282  1.0000
  H   H2341     1.0  0.53320  0.06362  0.80479  1.0000
  C   C1943     1.0  0.51997  0.05215  0.80448  1.0000
  H   H2342     1.0  0.92653  0.00889  0.82379  1.0000
  H   H2343     1.0  0.57591  0.31371  0.85068  1.0000
  C   C1944     1.0  0.64587  0.05639  0.96851  1.0000
  H   H2344     1.0  0.99223  0.07946  0.83004  1.0000
  C   C1945     1.0  0.52094  0.10840  0.81793  1.0000
  C   C1946     1.0  0.50696  0.12523  0.89294  1.0000
  N   N132      1.0  0.61833  0.06188  0.97471  1.0000
  H   H2345     1.0  0.62627  0.20344  0.97964  1.0000
  C   C1947     1.0  0.93255  0.29561  0.98558  1.0000
  H   H2346     1.0  0.62326  0.09171  0.98424  1.0000
  H   H2347     1.0  0.89799  0.00235  0.85490  1.0000
  H   H2348     1.0  0.82930  0.22899  0.74812  1.0000
  S   S516      1.0  0.92089  0.19177  0.73749  1.0000
  C   C1948     1.0  0.98300  0.02311  0.74560  1.0000
  C   C1949     1.0  0.97041  0.05666  0.84766  1.0000
  S   S517      1.0  0.99103  0.11070  0.77317  1.0000
  H   H2349     1.0  0.98839  0.13612  0.80705  1.0000
  H   H2350     1.0  0.91854  1.00000  0.74201  1.0000
  C   C1950     1.0  0.80302  0.08246  0.98258  1.0000
  C   C1951     1.0  0.98120  0.06466  0.83295  1.0000
  C   C1952     1.0  0.82572  0.21854  0.74036  1.0000
  H   H2351     1.0  0.90136  0.03218  0.84305  1.0000
  H   H2352     1.0  0.84734  0.28618  0.96377  1.0000
  H   H2353     1.0  0.51328  0.28523  0.78280  1.0000
  H   H2354     1.0  0.51209  0.18958  0.85221  1.0000
  H   H2355     1.0  0.84615  0.11644  0.96059  1.0000
  H   H2356     1.0  0.55951  0.32052  0.92982  1.0000
  H   H2357     1.0  0.99245  0.16310  0.91017  1.0000
  H   H2358     1.0  0.66376  0.22099  0.97800  1.0000
  C   C1953     1.0  0.90298  0.23099  0.98103  1.0000
  C   C1954     1.0  0.87961  0.24716  0.97866  1.0000
  C   C1955     1.0  0.97695  0.27658  0.98432  1.0000
  C   C1956     1.0  0.81701  0.12929  0.97824  1.0000
  H   H2359     1.0  0.85122  0.21644  0.97499  1.0000
  H   H2360     1.0  0.72612  0.31604  0.92951  1.0000
  H   H2361     1.0  0.74832  0.31655  0.94922  1.0000
  C   C1957     1.0  0.97725  0.24614  0.73731  1.0000
  C   C1958     1.0  0.93553  0.99456  0.83239  1.0000
  C   C1959     1.0  0.50069  0.16845  0.82352  1.0000
  H   H2362     1.0  0.78634  0.17605  0.98255  1.0000
  H   H2363     1.0  0.90610  0.14428  0.73858  1.0000
  C   C1960     1.0  0.83745  0.99414  0.92378  1.0000
  H   H2364     1.0  0.75045  0.15188  0.98641  1.0000
  H   H2365     1.0  0.77409  0.39882  0.20118  1.0000
  Fe  Fe257     1.0  0.88588  0.38261  0.01291  1.0000
  S   S518      1.0  0.85651  0.36845  0.03188  1.0000
  S   S519      1.0  0.87960  0.42389  0.00163  1.0000
  H   H2366     1.0  0.58404  0.65264  0.10003  1.0000
  C   C1961     1.0  0.87048  0.43222  0.06665  1.0000
  H   H2367     1.0  0.56074  0.59194  0.00908  1.0000
  C   C1962     1.0  0.67716  0.40640  0.20761  1.0000
  S   S520      1.0  0.91860  0.36365  0.02430  1.0000
  S   S521      1.0  0.88890  0.35103  0.00097  1.0000
  Fe  Fe258     1.0  0.57090  0.36209  0.18289  1.0000
  C   C1963     1.0  0.77771  0.38028  0.19831  1.0000
  Fe  Fe259     1.0  0.93194  0.53637  0.00866  1.0000
  S   S522      1.0  0.89939  0.54778  0.02644  1.0000
  S   S523      1.0  0.94913  0.49508  0.00848  1.0000
  C   C1964     1.0  0.51546  0.49905  0.17830  1.0000
  Fe  Fe260     1.0  0.92111  0.57680  0.02738  1.0000
  S   S524      1.0  0.92323  0.58262  0.04982  1.0000
  C   C1965     1.0  0.96187  0.52789  0.22737  1.0000
  C   C1966     1.0  0.51941  0.37058  0.14417  1.0000
  S   S525      1.0  0.95521  0.56311  0.01098  1.0000
  Fe  Fe261     1.0  0.55152  0.39251  0.20732  1.0000
  S   S526      1.0  0.96254  0.61087  0.12509  1.0000
  Fe  Fe262     1.0  0.58277  0.41411  0.17843  1.0000
  S   S527      1.0  0.60742  0.37644  0.17557  1.0000
  S   S528      1.0  0.59040  0.44966  0.16230  1.0000
  Fe  Fe263     1.0  0.60773  0.37066  0.19972  1.0000
  H   H2368     1.0  0.98376  0.37328  0.16744  1.0000
  S   S529      1.0  0.54604  0.40025  0.18383  1.0000
  S   S530      1.0  0.58625  0.40969  0.20211  1.0000
  C   C1967     1.0  0.80522  0.61766  0.99564  1.0000
  H   H2369     1.0  0.84974  0.62829  0.01161  1.0000
  H   H2370     1.0  0.51292  0.36933  0.20790  1.0000
  C   C1968     1.0  0.82659  0.61257  0.00215  1.0000
  C   C1969     1.0  0.98256  0.56714  0.14197  1.0000
  H   H2371     1.0  0.95873  0.38118  0.06133  1.0000
  Fe  Fe264     1.0  0.91950  0.33073  0.01393  1.0000
  H   H2372     1.0  0.55046  0.47438  0.18270  1.0000
  S   S531      1.0  0.95674  0.35262  0.12827  1.0000
  C   C1970     1.0  0.53306  0.43925  0.10656  1.0000
  C   C1971     1.0  0.75922  0.37327  0.19322  1.0000
  C   C1972     1.0  0.53817  0.41293  0.10990  1.0000
  C   C1973     1.0  0.93882  0.54273  0.23278  1.0000
  H   H2373     1.0  0.86902  0.59465  0.20926  1.0000
  Fe  Fe265     1.0  0.51486  0.60076  0.11233  1.0000
  H   H2374     1.0  0.83423  0.63322  0.19187  1.0000
  H   H2375     1.0  0.89446  0.64872  0.16565  1.0000
  S   S532      1.0  0.88616  0.34889  0.06654  1.0000
  H   H2376     1.0  0.87286  0.47797  0.99731  1.0000
  C   C1974     1.0  0.91429  0.34100  0.07362  1.0000
  H   H2377     1.0  0.85348  0.46538  0.04396  1.0000
  C   C1975     1.0  0.52396  0.62773  0.06773  1.0000
  C   C1976     1.0  0.89589  0.41628  0.22902  1.0000
  H   H2378     1.0  0.52554  0.51097  0.16920  1.0000
  H   H2379     1.0  0.87584  0.44432  0.07282  1.0000
  H   H2380     1.0  0.98736  0.38650  0.19006  1.0000
  C   C1977     1.0  0.83817  0.65847  0.23330  1.0000
  H   H2381     1.0  0.98499  0.41383  0.04971  1.0000
  C   C1978     1.0  0.87732  0.41808  0.04359  1.0000
  H   H2382     1.0  0.52541  0.40241  0.10795  1.0000
  S   S533      1.0  0.50489  0.57402  0.13375  1.0000
  H   H2383     1.0  0.96681  0.43109  0.22128  1.0000
  H   H2384     1.0  0.96490  0.45688  0.03851  1.0000
  C   C1979     1.0  0.94115  0.59415  0.18456  1.0000
  H   H2385     1.0  0.88863  0.41850  0.03222  1.0000
  H   H2386     1.0  0.93666  0.63443  0.15181  1.0000
  H   H2387     1.0  0.68525  0.33434  0.22318  1.0000
  H   H2388     1.0  0.85694  0.42272  0.04271  1.0000
  C   C1980     1.0  0.80525  0.33865  0.19692  1.0000
  C   C1981     1.0  0.96149  0.64564  0.05256  1.0000
  H   H2389     1.0  0.93444  0.41404  0.21806  1.0000
  C   C1982     1.0  0.66308  0.36670  0.21127  1.0000
  H   H2390     1.0  0.57510  0.57179  0.99570  1.0000
  H   H2391     1.0  0.58257  0.37769  0.23582  1.0000
  S   S534      1.0  0.64193  0.34901  0.20938  1.0000
  H   H2392     1.0  0.63320  0.37308  0.11964  1.0000
  C   C1983     1.0  0.66030  0.39267  0.20556  1.0000
  H   H2393     1.0  0.64520  0.40217  0.19958  1.0000
  C   C1984     1.0  0.56657  0.46577  0.15215  1.0000
  C   C1985     1.0  0.56678  0.49086  0.14481  1.0000
  C   C1986     1.0  0.54810  0.50393  0.13649  1.0000
  C   C1987     1.0  0.52944  0.49174  0.13529  1.0000
  C   C1988     1.0  0.52922  0.46668  0.14263  1.0000
  C   C1989     1.0  0.54773  0.45373  0.15105  1.0000
  H   H2394     1.0  0.58141  0.50022  0.14557  1.0000
  H   H2395     1.0  0.54845  0.52324  0.13077  1.0000
  H   H2396     1.0  0.95372  0.49873  0.20570  1.0000
  H   H2397     1.0  0.54765  0.43430  0.15640  1.0000
  H   H2398     1.0  0.53446  0.37882  0.16115  1.0000
  Fe  Fe266     1.0  0.93505  0.59112  0.99414  1.0000
  H   H2399     1.0  0.88320  0.65927  0.20165  1.0000
  H   H2400     1.0  0.92378  0.60493  0.07381  1.0000
  H   H2401     1.0  0.53368  0.61818  0.07720  1.0000
  H   H2402     1.0  0.96459  0.46645  0.19133  1.0000
  S   S535      1.0  0.71603  0.41209  0.21924  1.0000
  C   C1990     1.0  0.54838  0.64483  0.11340  1.0000
  C   C1991     1.0  0.94740  0.63302  0.06520  1.0000
  S   S536      1.0  0.51924  0.40184  0.22586  1.0000
  H   H2403     1.0  0.50652  0.61971  0.06980  1.0000
  H   H2404     1.0  0.89658  0.39621  0.23014  1.0000
  C   C1992     1.0  0.98397  0.53610  0.10404  1.0000
  H   H2405     1.0  0.87947  0.61701  0.21657  1.0000
  C   C1993     1.0  0.53332  0.36434  0.15558  1.0000
  H   H2406     1.0  0.95761  0.38484  0.99296  1.0000
  H   H2407     1.0  0.63560  0.45968  0.23623  1.0000
  C   C1994     1.0  0.93711  0.60777  0.05038  1.0000
  S   S537      1.0  0.54839  0.62023  0.10457  1.0000
  C   C1995     1.0  0.97805  0.49316  0.11672  1.0000
  C   C1996     1.0  0.95848  0.32805  0.08581  1.0000
  H   H2408     1.0  0.85672  0.60824  0.18402  1.0000
  C   C1997     1.0  0.89940  0.44360  0.00309  1.0000
  C   C1998     1.0  0.92310  0.43341  0.00703  1.0000
  C   C1999     1.0  0.93844  0.44945  0.00824  1.0000
  C   C2000     1.0  0.92997  0.47575  0.00591  1.0000
  C   C2001     1.0  0.90629  0.48601  0.00193  1.0000
  C   C2002     1.0  0.89119  0.46996  0.00035  1.0000
  H   H2409     1.0  0.92963  0.41320  0.00920  1.0000
  H   H2410     1.0  0.95673  0.44142  0.01133  1.0000
  H   H2411     1.0  0.89959  0.50628  0.00012  1.0000
  C   C2003     1.0  0.81978  0.65698  0.00343  1.0000
  C   C2004     1.0  0.78612  0.33225  0.19150  1.0000
  Fe  Fe267     1.0  0.97468  0.64436  0.10895  1.0000
  H   H2412     1.0  0.95826  0.54476  0.08051  1.0000
  H   H2413     1.0  0.93238  0.56120  0.22648  1.0000
  C   C2005     1.0  0.87426  0.46191  0.04364  1.0000
  H   H2414     1.0  0.55731  0.65848  0.05689  1.0000
  H   H2415     1.0  0.93550  0.34570  0.10371  1.0000
  C   C2006     1.0  0.91387  0.34704  0.08725  1.0000
  C   C2007     1.0  0.87345  0.43159  0.23453  1.0000
  H   H2416     1.0  0.95460  0.51732  0.10217  1.0000
  C   C2008     1.0  0.94819  0.60583  0.16990  1.0000
  C   C2009     1.0  0.96307  0.63953  0.03876  1.0000
  C   C2010     1.0  0.91693  0.60179  0.19263  1.0000
  H   H2417     1.0  0.97584  0.61212  0.99925  1.0000
  N   N133      1.0  0.59841  0.39900  0.12570  1.0000
  C   C2011     1.0  0.59013  0.38194  0.13975  1.0000
  C   C2012     1.0  0.61581  0.38351  0.11528  1.0000
  C   C2013     1.0  0.61306  0.41554  0.12908  1.0000
  C   C2014     1.0  0.57612  0.41318  0.11913  1.0000
  C   C2015     1.0  0.55945  0.40002  0.11599  1.0000
  C   C2016     1.0  0.57050  0.44006  0.11542  1.0000
  C   C2017     1.0  0.53019  0.32697  0.14101  1.0000
  H   H2418     1.0  0.93237  0.46526  0.19125  1.0000
  Fe  Fe268     1.0  0.99004  0.35483  0.13743  1.0000
  H   H2419     1.0  0.58133  0.36700  0.13810  1.0000
  H   H2420     1.0  0.60629  0.37165  0.14530  1.0000
  H   H2421     1.0  0.57609  0.39276  0.14766  1.0000
  C   C2018     1.0  0.85403  0.62790  0.18586  1.0000
  C   C2019     1.0  0.96082  0.45177  0.22108  1.0000
  H   H2422     1.0  0.97019  0.57241  0.07133  1.0000
  H   H2423     1.0  0.60096  0.42765  0.13691  1.0000
  H   H2424     1.0  0.62915  0.40442  0.13450  1.0000
  H   H2425     1.0  0.62129  0.42797  0.11892  1.0000
  H   H2426     1.0  0.71468  0.35871  0.22686  1.0000
  H   H2427     1.0  0.58173  0.45188  0.11753  1.0000
  H   H2428     1.0  0.96313  0.56496  0.14646  1.0000
  H   H2429     1.0  0.74889  0.34393  0.18593  1.0000
  S   S538      1.0  0.91500  0.56318  0.99026  1.0000
  Fe  Fe269     1.0  0.49911  0.54968  0.11941  1.0000
  H   H2430     1.0  0.94586  0.63773  0.07584  1.0000
  C   C2020     1.0  0.94798  0.45791  0.19762  1.0000
  C   C2021     1.0  0.68288  0.35448  0.21885  1.0000
  H   H2431     1.0  0.51287  0.64164  0.12841  1.0000
  C   C2022     1.0  0.54933  0.45274  0.10915  1.0000
  C   C2023     1.0  0.91741  0.42670  0.22210  1.0000
  H   H2432     1.0  0.54507  0.47328  0.10669  1.0000
  C   C2024     1.0  0.80048  0.36337  0.20005  1.0000
  H   H2433     1.0  0.94145  0.36068  0.99235  1.0000
  H   H2434     1.0  0.95019  0.57450  0.11243  1.0000
  H   H2435     1.0  0.85289  0.34929  0.19201  1.0000
  H   H2436     1.0  0.85518  0.64071  0.17486  1.0000
  Fe  Fe270     1.0  0.88406  0.57687  0.00821  1.0000
  C   C2025     1.0  0.69943  0.36828  0.22107  1.0000
  S   S539      1.0  0.90271  0.60706  0.01069  1.0000
  H   H2437     1.0  0.92114  0.50152  0.20494  1.0000
  C   C2026     1.0  0.51786  0.35188  0.13687  1.0000
  H   H2438     1.0  0.85797  0.65978  0.22965  1.0000
  C   C2027     1.0  0.99376  0.38832  0.16649  1.0000
  C   C2028     1.0  0.93612  0.49135  0.21143  1.0000
  H   H2439     1.0  0.97815  0.45994  0.21595  1.0000
  C   C2029     1.0  0.95099  0.62052  0.03767  1.0000
  H   H2440     1.0  0.91287  0.59193  0.20394  1.0000
  H   H2441     1.0  0.95261  0.61556  0.02706  1.0000
  H   H2442     1.0  0.88087  0.39818  0.04955  1.0000
  C   C2030     1.0  0.69643  0.39431  0.21565  1.0000
  C   C2031     1.0  0.86707  0.61507  0.20933  1.0000
  H   H2443     1.0  0.89641  0.35661  0.09317  1.0000
  H   H2444     1.0  0.56712  0.63047  0.99190  1.0000
  H   H2445     1.0  0.56248  0.37958  0.11839  1.0000
  H   H2446     1.0  0.84892  0.33554  0.17759  1.0000
  C   C2032     1.0  0.93500  0.61439  0.06406  1.0000
  C   C2033     1.0  0.96473  0.41841  0.04996  1.0000
  N   N134      1.0  0.97553  0.56002  0.09404  1.0000
  C   C2034     1.0  0.93598  0.34084  0.09325  1.0000
  N   N135      1.0  0.87294  0.63001  0.19412  1.0000
  H   H2447     1.0  0.50781  0.65458  0.08988  1.0000
  H   H2448     1.0  0.94390  0.59152  0.09472  1.0000
  C   C2035     1.0  0.86958  0.65684  0.19535  1.0000
  C   C2036     1.0  0.89892  0.62155  0.18610  1.0000
  C   C2037     1.0  0.90692  0.63329  0.17123  1.0000
  S   S540      1.0  0.51297  0.57441  0.09802  1.0000
  C   C2038     1.0  0.97394  0.55475  0.07964  1.0000
  H   H2449     1.0  0.99196  0.54307  0.07484  1.0000
  H   H2450     1.0  0.54348  0.57100  0.00598  1.0000
  H   H2451     1.0  0.93096  0.49685  0.22249  1.0000
  C   C2039     1.0  0.76348  0.34940  0.18973  1.0000
  H   H2452     1.0  0.60679  0.36905  0.11321  1.0000
  H   H2453     1.0  0.54987  0.65418  0.07657  1.0000
  N   N136      1.0  0.88395  0.43575  0.05101  1.0000
  H   H2454     1.0  0.51632  0.44930  0.10209  1.0000
  H   H2455     1.0  0.95463  0.57902  0.18970  1.0000
  C   C2040     1.0  0.95012  0.57227  0.10105  1.0000
  C   C2041     1.0  0.91168  0.43027  0.05049  1.0000
  C   C2042     1.0  0.92726  0.44865  0.04408  1.0000
  C   C2043     1.0  0.92388  0.40586  0.05670  1.0000
  C   C2044     1.0  0.95340  0.44263  0.04377  1.0000
  C   C2045     1.0  0.94997  0.40006  0.05646  1.0000
  C   C2046     1.0  0.52995  0.47798  0.18586  1.0000
  H   H2456     1.0  0.62180  0.39559  0.10440  1.0000
  H   H2457     1.0  0.84723  0.62150  0.21492  1.0000
  C   C2047     1.0  0.54614  0.33949  0.15949  1.0000
  H   H2458     1.0  0.98806  0.49266  0.23157  1.0000
  H   H2459     1.0  0.50019  0.39241  0.07280  1.0000
  H   H2460     1.0  0.95419  0.43732  0.19760  1.0000
  C   C2048     1.0  0.91701  0.45293  0.22045  1.0000
  C   C2049     1.0  0.89389  0.46796  0.22644  1.0000
  H   H2461     1.0  0.50861  0.60590  0.00091  1.0000
  H   H2462     1.0  0.91992  0.46774  0.03896  1.0000
  H   H2463     1.0  0.91323  0.39104  0.06181  1.0000
  H   H2464     1.0  0.74145  0.38634  0.19212  1.0000
  H   H2465     1.0  0.53640  0.62196  0.05754  1.0000
  Fe  Fe271     1.0  0.88961  0.34720  0.04251  1.0000
  C   C2050     1.0  0.56860  0.65789  0.10883  1.0000
  C   C2051     1.0  0.99274  0.57840  0.09082  1.0000
  C   C2052     1.0  0.83371  0.63220  0.00620  1.0000
  C   C2053     1.0  0.51818  0.46134  0.19733  1.0000
  H   H2466     1.0  0.93529  0.56117  0.10199  1.0000
  C   C2054     1.0  0.97081  0.51576  0.10709  1.0000
  S   S541      1.0  0.84424  0.58162  0.00462  1.0000
  H   H2467     1.0  0.51264  0.55355  0.04831  1.0000
  S   S542      1.0  0.57316  0.35304  0.20692  1.0000
  H   H2468     1.0  0.88340  0.46554  0.03174  1.0000
  H   H2469     1.0  0.67498  0.42649  0.20318  1.0000
  C   C2055     1.0  0.52852  0.65163  0.12482  1.0000
  C   C2056     1.0  0.93112  0.62540  0.16325  1.0000
  S   S543      1.0  0.97917  0.53909  0.21000  1.0000
  H   H2470     1.0  0.84952  0.43701  0.06751  1.0000
  H   H2471     1.0  0.87490  0.41226  0.07255  1.0000
  H   H2472     1.0  0.87758  0.47632  0.04905  1.0000
  N   N137      1.0  0.93995  0.46350  0.21280  1.0000
  C   C2057     1.0  0.79172  0.64249  0.99250  1.0000
  H   H2473     1.0  0.95515  0.45465  0.23274  1.0000
  C   C2058     1.0  0.99571  0.39592  0.17928  1.0000
  H   H2474     1.0  0.52473  0.62833  0.00339  1.0000
  H   H2475     1.0  0.83776  0.34120  0.99158  1.0000
  H   H2476     1.0  0.81417  0.36971  0.20409  1.0000
  H   H2477     1.0  0.51592  0.57029  0.99138  1.0000
  H   H2478     1.0  0.66172  0.43697  0.22914  1.0000
  C   C2059     1.0  0.87248  0.45732  0.23332  1.0000
  C   C2060     1.0  0.55710  0.58378  0.00028  1.0000
  C   C2061     1.0  0.97018  0.50408  0.23559  1.0000
  Fe  Fe272     1.0  0.86254  0.33495  0.02105  1.0000
  H   H2479     1.0  0.97387  0.64926  0.02892  1.0000
  S   S544      1.0  0.56545  0.33131  0.17282  1.0000
  H   H2480     1.0  0.96694  0.59976  0.16367  1.0000
  H   H2481     1.0  0.52952  0.44494  0.20307  1.0000
  H   H2482     1.0  0.50992  0.38991  0.14097  1.0000
  H   H2483     1.0  0.96779  0.47781  0.11887  1.0000
  N   N138      1.0  0.51830  0.65565  0.06634  1.0000
  H   H2484     1.0  0.50270  0.55035  0.16879  1.0000
  H   H2485     1.0  0.98636  0.59583  0.08289  1.0000
  C   C2062     1.0  0.98286  0.62659  0.99045  1.0000
  C   C2063     1.0  0.93699  0.32904  0.06589  1.0000
  H   H2486     1.0  0.99314  0.58502  0.10096  1.0000
  H   H2487     1.0  0.79921  0.60228  0.99306  1.0000
  C   C2064     1.0  0.98774  0.58843  0.13133  1.0000
  C   C2065     1.0  0.99836  0.49025  0.12371  1.0000
  H   H2488     1.0  0.89179  0.48797  0.22605  1.0000
  C   C2066     1.0  0.52256  0.61819  0.99504  1.0000
  S   S545      1.0  0.50649  0.50707  0.12443  1.0000
  S   S546      1.0  0.77722  0.37566  0.23661  1.0000
  H   H2489     1.0  0.51489  0.45714  0.14164  1.0000
  S   S547      1.0  0.49989  0.35973  0.12292  1.0000
  C   C2067     1.0  0.85099  0.33140  0.18938  1.0000
  H   H2490     1.0  0.83404  0.33502  0.21777  1.0000
  N   N139      1.0  0.54717  0.60377  0.98845  1.0000
  H   H2491     1.0  0.99831  0.53198  0.15480  1.0000
  C   C2068     1.0  0.82531  0.32804  0.99302  1.0000
  H   H2492     1.0  0.77532  0.64642  0.98738  1.0000
  H   H2493     1.0  0.56967  0.42295  0.23724  1.0000
  C   C2069     1.0  0.93607  0.59513  0.27226  1.0000
  Fe  Fe273     1.0  0.77603  0.39561  0.25498  1.0000
  H   H2494     1.0  0.58001  0.56282  0.47856  1.0000
  S   S548      1.0  0.73596  0.41593  0.25492  1.0000
  Fe  Fe274     1.0  0.81921  0.53413  0.27814  1.0000
  S   S549      1.0  0.84552  0.51475  0.29387  1.0000
  S   S550      1.0  0.78545  0.51804  0.27777  1.0000
  Fe  Fe275     1.0  0.84689  0.57804  0.26590  1.0000
  S   S551      1.0  0.87523  0.56230  0.28085  1.0000
  C   C2070     1.0  0.95891  0.40582  0.45907  1.0000
  Fe  Fe276     1.0  0.87626  0.52532  0.27496  1.0000
  S   S552      1.0  0.91318  0.49814  0.27110  1.0000
  Fe  Fe277     1.0  0.84216  0.55334  0.29851  1.0000
  S   S553      1.0  0.83920  0.55522  0.32240  1.0000
  S   S554      1.0  0.85046  0.54139  0.25858  1.0000
  S   S555      1.0  0.81327  0.57241  0.28422  1.0000
  S   S556      1.0  0.65825  0.35876  0.37347  1.0000
  S   S557      1.0  0.68935  0.40163  0.38611  1.0000
  Fe  Fe278     1.0  0.81379  0.47274  0.41516  1.0000
  S   S558      1.0  0.83144  0.46634  0.43504  1.0000
  S   S559      1.0  0.82312  0.50429  0.39607  1.0000
  Fe  Fe279     1.0  0.78112  0.43271  0.42916  1.0000
  S   S560      1.0  0.79624  0.42404  0.45016  1.0000
  S   S561      1.0  0.75503  0.40575  0.43153  1.0000
  Fe  Fe280     1.0  0.79162  0.46595  0.44767  1.0000
  S   S562      1.0  0.77645  0.48519  0.46735  1.0000
  Fe  Fe281     1.0  0.83402  0.42526  0.43536  1.0000
  S   S563      1.0  0.86687  0.39315  0.43881  1.0000
  S   S564      1.0  0.77356  0.47476  0.42776  1.0000
  S   S565      1.0  0.81946  0.43147  0.41436  1.0000
  Fe  Fe282     1.0  0.92000  0.61588  0.35219  1.0000
  S   S566      1.0  0.95328  0.58389  0.34975  1.0000
  S   S567      1.0  0.89692  0.63235  0.33425  1.0000
  Fe  Fe283     1.0  0.92741  0.62009  0.38226  1.0000
  S   S568      1.0  0.96111  0.58834  0.38238  1.0000
  S   S569      1.0  0.91267  0.63618  0.40298  1.0000
  H   H2495     1.0  0.59766  0.44458  0.24419  1.0000
  Fe  Fe284     1.0  0.93792  0.56885  0.37361  1.0000
  S   S570      1.0  0.93381  0.52838  0.38347  1.0000
  S   S571      1.0  0.94081  0.63986  0.35927  1.0000
  S   S572      1.0  0.90333  0.59933  0.37536  1.0000
  N   N140      1.0  0.80716  0.33778  0.44870  1.0000
  S   S573      1.0  0.69309  0.58545  0.46230  1.0000
  H   H2496     1.0  0.78919  0.53719  0.46091  1.0000
  C   C2071     1.0  0.72353  0.54608  0.47743  1.0000
  C   C2072     1.0  0.75152  0.51169  0.46621  1.0000
  C   C2073     1.0  0.74281  0.52238  0.45296  1.0000
  C   C2074     1.0  0.72487  0.54502  0.45188  1.0000
  C   C2075     1.0  0.71533  0.55698  0.46407  1.0000
  H   H2497     1.0  0.83557  0.35210  0.43092  1.0000
  H   H2498     1.0  0.56711  0.41305  0.33154  1.0000
  H   H2499     1.0  0.75015  0.51354  0.44346  1.0000
  H   H2500     1.0  0.71844  0.55333  0.44154  1.0000
  H   H2501     1.0  0.86445  0.64339  0.36948  1.0000
  C   C2076     1.0  0.58772  0.41249  0.24001  1.0000
  C   C2077     1.0  0.85400  0.51060  0.39266  1.0000
  C   C2078     1.0  0.87294  0.49411  0.39964  1.0000
  C   C2079     1.0  0.89743  0.49961  0.39668  1.0000
  C   C2080     1.0  0.90307  0.52164  0.38681  1.0000
  C   C2081     1.0  0.88416  0.53794  0.37974  1.0000
  C   C2082     1.0  0.85971  0.53245  0.38265  1.0000
  H   H2502     1.0  0.86890  0.47695  0.40715  1.0000
  H   H2503     1.0  0.91205  0.48677  0.40206  1.0000
  H   H2504     1.0  0.88849  0.55460  0.37189  1.0000
  H   H2505     1.0  0.84520  0.54522  0.37715  1.0000
  Fe  Fe285     1.0  0.68093  0.36269  0.38916  1.0000
  H   H2506     1.0  0.91082  0.51449  0.29889  1.0000
  H   H2507     1.0  0.64194  0.35944  0.32082  1.0000
  C   C2083     1.0  0.70840  0.40278  0.39830  1.0000
  C   C2084     1.0  0.71154  0.38310  0.41039  1.0000
  C   C2085     1.0  0.72589  0.38444  0.42045  1.0000
  C   C2086     1.0  0.73773  0.40512  0.41830  1.0000
  C   C2087     1.0  0.73506  0.42466  0.40603  1.0000
  C   C2088     1.0  0.72015  0.42359  0.39610  1.0000
  H   H2508     1.0  0.70250  0.36703  0.41218  1.0000
  H   H2509     1.0  0.72764  0.36943  0.43001  1.0000
  H   H2510     1.0  0.74403  0.44073  0.40440  1.0000
  H   H2511     1.0  0.71769  0.43887  0.38675  1.0000
  H   H2512     1.0  0.63539  0.35903  0.34707  1.0000
  H   H2513     1.0  0.94073  0.53173  0.27935  1.0000
  H   H2514     1.0  0.68858  0.49966  0.46924  1.0000
  C   C2089     1.0  0.95527  0.49503  0.24913  1.0000
  C   C2090     1.0  0.85509  0.57692  0.32550  1.0000
  C   C2091     1.0  0.86230  0.59667  0.31420  1.0000
  C   C2092     1.0  0.87476  0.61393  0.31701  1.0000
  C   C2093     1.0  0.88080  0.61096  0.33097  1.0000
  C   C2094     1.0  0.87384  0.59105  0.34219  1.0000
  C   C2095     1.0  0.86070  0.57426  0.33953  1.0000
  H   H2515     1.0  0.85792  0.59884  0.30338  1.0000
  H   H2516     1.0  0.88007  0.62935  0.30831  1.0000
  H   H2517     1.0  0.87819  0.58887  0.35299  1.0000
  H   H2518     1.0  0.85518  0.55901  0.34831  1.0000
  H   H2519     1.0  0.92809  0.61866  0.28853  1.0000
  N   N141      1.0  0.62118  0.33415  0.33790  1.0000
  C   C2096     1.0  0.59491  0.38694  0.23922  1.0000
  H   H2520     1.0  0.58557  0.64102  0.48226  1.0000
  Fe  Fe286     1.0  0.72557  0.38248  0.27180  1.0000
  C   C2097     1.0  0.62922  0.57750  0.45124  1.0000
  H   H2521     1.0  0.80028  0.61955  0.25630  1.0000
  H   H2522     1.0  0.92741  0.45204  0.42721  1.0000
  C   C2098     1.0  0.96423  0.43054  0.45350  1.0000
  H   H2523     1.0  0.97179  0.52020  0.30615  1.0000
  H   H2524     1.0  0.58197  0.59046  0.46468  1.0000
  C   C2099     1.0  0.66802  0.40790  0.25576  1.0000
  C   C2100     1.0  0.80145  0.44223  0.26259  1.0000
  C   C2101     1.0  0.77696  0.45687  0.26422  1.0000
  C   C2102     1.0  0.77224  0.48011  0.26889  1.0000
  C   C2103     1.0  0.79201  0.48901  0.27175  1.0000
  C   C2104     1.0  0.81648  0.47434  0.27018  1.0000
  C   C2105     1.0  0.82112  0.45094  0.26571  1.0000
  H   H2525     1.0  0.76170  0.45048  0.26176  1.0000
  H   H2526     1.0  0.75329  0.49145  0.27006  1.0000
  H   H2527     1.0  0.83183  0.48098  0.27246  1.0000
  C   C2106     1.0  0.66810  0.50479  0.47027  1.0000
  H   H2528     1.0  0.85622  0.42542  0.46026  1.0000
  H   H2529     1.0  0.55212  0.44894  0.39960  1.0000
  S   S574      1.0  0.51464  0.62912  0.46327  1.0000
  N   N142      1.0  0.64446  0.42472  0.25173  1.0000
  C   C2107     1.0  0.59281  0.37700  0.33401  1.0000
  C   C2108     1.0  0.68781  0.37667  0.32106  1.0000
  C   C2109     1.0  0.56887  0.39266  0.33418  1.0000
  C   C2110     1.0  0.93339  0.55404  0.29666  1.0000
  H   H2530     1.0  0.52851  0.39423  0.33835  1.0000
  C   C2111     1.0  0.80569  0.63590  0.24843  1.0000
  C   C2112     1.0  0.54926  0.35600  0.34155  1.0000
  H   H2531     1.0  0.66850  0.54407  0.46471  1.0000
  N   N143      1.0  0.93127  0.53229  0.30915  1.0000
  C   C2113     1.0  0.60388  0.42464  0.24401  1.0000
  H   H2532     1.0  0.89252  0.34914  0.45609  1.0000
  H   H2533     1.0  0.97686  0.43749  0.45803  1.0000
  C   C2114     1.0  0.69859  0.36986  0.30731  1.0000
  H   H2534     1.0  0.82430  0.37031  0.44533  1.0000
  C   C2115     1.0  0.55438  0.63569  0.47389  1.0000
  H   H2535     1.0  0.90630  0.50549  0.31858  1.0000
  H   H2536     1.0  0.72005  0.33978  0.29599  1.0000
  H   H2537     1.0  0.97209  0.62261  0.40699  1.0000
  H   H2538     1.0  0.97484  0.35067  0.48373  1.0000
  H   H2539     1.0  0.92693  0.52232  0.33302  1.0000
  N   N144      1.0  0.81887  0.54183  0.44165  1.0000
  C   C2116     1.0  0.80587  0.53273  0.43246  1.0000
  C   C2117     1.0  0.83591  0.51992  0.44891  1.0000
  C   C2118     1.0  0.79921  0.55207  0.45356  1.0000
  C   C2119     1.0  0.83385  0.56054  0.43210  1.0000
  C   C2120     1.0  0.82893  0.58624  0.43375  1.0000
  C   C2121     1.0  0.85415  0.55322  0.42066  1.0000
  C   C2122     1.0  0.84384  0.60322  0.42465  1.0000
  C   C2123     1.0  0.86891  0.57033  0.41168  1.0000
  C   C2124     1.0  0.86371  0.59527  0.41364  1.0000
  H   H2540     1.0  0.81937  0.52369  0.42363  1.0000
  H   H2541     1.0  0.94403  0.54739  0.32457  1.0000
  C   C2125     1.0  0.93614  0.43930  0.43601  1.0000
  H   H2542     1.0  0.84678  0.52609  0.45547  1.0000
  H   H2543     1.0  0.84980  0.50943  0.44084  1.0000
  H   H2544     1.0  0.82507  0.50579  0.45656  1.0000
  H   H2545     1.0  0.95750  0.46568  0.43794  1.0000
  C   C2126     1.0  0.61828  0.37347  0.24239  1.0000
  H   H2546     1.0  0.78429  0.56724  0.44902  1.0000
  H   H2547     1.0  0.81377  0.59369  0.44201  1.0000
  H   H2548     1.0  0.85884  0.53414  0.41855  1.0000
  H   H2549     1.0  0.84018  0.62265  0.42618  1.0000
  C   C2127     1.0  0.89380  0.36006  0.47627  1.0000
  H   H2550     1.0  0.66389  0.39222  0.26521  1.0000
  C   C2128     1.0  0.58680  0.40657  0.37785  1.0000
  H   H2551     1.0  0.68212  0.36433  0.34461  1.0000
  C   C2129     1.0  0.95444  0.51236  0.30742  1.0000
  H   H2552     1.0  0.76186  0.33082  0.41444  1.0000
  C   C2130     1.0  0.83134  0.63722  0.24343  1.0000
  C   C2131     1.0  0.57061  0.63043  0.48414  1.0000
  C   C2132     1.0  0.63841  0.33982  0.32344  1.0000
  C   C2133     1.0  0.53742  0.43195  0.38654  1.0000
  H   H2553     1.0  0.95419  0.49646  0.31713  1.0000
  H   H2554     1.0  0.64346  0.57571  0.47670  1.0000
  H   H2555     1.0  0.62987  0.40211  0.40796  1.0000
  C   C2134     1.0  0.90904  0.52161  0.30920  1.0000
  H   H2556     1.0  0.80769  0.55936  0.46088  1.0000
  H   H2557     1.0  0.77478  0.35474  0.42897  1.0000
  C   C2135     1.0  0.93111  0.59951  0.28666  1.0000
  C   C2136     1.0  0.92797  0.53907  0.32386  1.0000
  C   C2137     1.0  0.65641  0.53026  0.46764  1.0000
  H   H2558     1.0  0.71614  0.55515  0.48692  1.0000
  H   H2559     1.0  0.93681  0.61080  0.26294  1.0000
  H   H2560     1.0  0.95652  0.50369  0.29763  1.0000
  H   H2561     1.0  0.86880  0.41842  0.48459  1.0000
  C   C2138     1.0  0.74168  0.52352  0.47847  1.0000
  H   H2562     1.0  0.64046  0.43707  0.38621  1.0000
  C   C2139     1.0  0.63081  0.43630  0.26473  1.0000
  C   C2140     1.0  0.99031  0.62957  0.40436  1.0000
  C   C2141     1.0  0.93201  0.50973  0.25438  1.0000
  S   S575      1.0  0.71028  0.32774  0.38592  1.0000
  C   C2142     1.0  0.53444  0.62257  0.47640  1.0000
  C   C2143     1.0  0.71160  0.34514  0.30661  1.0000
  C   C2144     1.0  0.93846  0.55030  0.28183  1.0000
  H   H2563     1.0  0.97140  0.35375  0.46508  1.0000
  C   C2145     1.0  0.54712  0.38215  0.33800  1.0000
  H   H2564     1.0  0.80498  0.37266  0.43238  1.0000
  C   C2146     1.0  0.87382  0.40322  0.47844  1.0000
  C   C2147     1.0  0.93025  0.41532  0.44133  1.0000
  C   C2148     1.0  0.87375  0.38781  0.45654  1.0000
  C   C2149     1.0  0.68985  0.35871  0.33411  1.0000
  C   C2150     1.0  0.55729  0.43604  0.39198  1.0000
  C   C2151     1.0  0.62288  0.57728  0.47729  1.0000
  C   C2152     1.0  0.86668  0.40719  0.46469  1.0000
  C   C2153     1.0  0.78696  0.65590  0.24322  1.0000
  C   C2154     1.0  0.71316  0.32705  0.31968  1.0000
  C   C2155     1.0  0.62970  0.53782  0.46896  1.0000
  C   C2156     1.0  0.56678  0.40244  0.37260  1.0000
  C   C2157     1.0  0.59003  0.56985  0.46720  1.0000
  H   H2565     1.0  0.93566  0.38063  0.45633  1.0000
  S   S576      1.0  0.85568  0.61295  0.24939  1.0000
  H   H2566     1.0  0.79914  0.63759  0.40907  1.0000
  C   C2158     1.0  0.92385  0.53363  0.24623  1.0000
  H   H2567     1.0  0.78882  0.35939  0.46583  1.0000
  H   H2568     1.0  0.87518  0.60846  0.40665  1.0000
  Fe  Fe287     1.0  0.63656  0.33613  0.39295  1.0000
  H   H2569     1.0  0.67813  0.39591  0.32165  1.0000
  S   S577      1.0  0.69539  0.39244  0.29113  1.0000
  Fe  Fe288     1.0  0.76348  0.34505  0.25477  1.0000
  H   H2570     1.0  0.84005  0.43958  0.26468  1.0000
  H   H2571     1.0  0.88462  0.56410  0.40321  1.0000
  H   H2572     1.0  0.62379  0.42174  0.27412  1.0000
  S   S578      1.0  0.72201  0.36089  0.25542  1.0000
  H   H2573     1.0  0.54155  0.36086  0.39475  1.0000
  C   C2159     1.0  0.78419  0.34833  0.45874  1.0000
  C   C2160     1.0  0.96502  0.36311  0.47487  1.0000
  S   S579      1.0  0.59391  0.34731  0.39707  1.0000
  C   C2161     1.0  0.88720  0.36421  0.46235  1.0000
  N   N145      1.0  0.60400  0.42578  0.39407  1.0000
  C   C2162     1.0  0.58266  0.42319  0.38788  1.0000
  H   H2574     1.0  0.77475  0.33301  0.46609  1.0000
  H   H2575     1.0  0.59889  0.39379  0.41177  1.0000
  C   C2163     1.0  0.62471  0.43361  0.38190  1.0000
  C   C2164     1.0  0.61402  0.40105  0.40284  1.0000
  H   H2576     1.0  0.82479  0.64278  0.38415  1.0000
  H   H2577     1.0  0.99703  0.64463  0.37490  1.0000
  C   C2165     1.0  0.59681  0.44459  0.40393  1.0000
  H   H2578     1.0  0.96170  0.47661  0.25548  1.0000
  H   H2579     1.0  0.64336  0.44529  0.26868  1.0000
  Fe  Fe289     1.0  0.73576  0.39291  0.23840  1.0000
  H   H2580     1.0  0.52656  0.41120  0.37323  1.0000
  H   H2581     1.0  0.61981  0.59770  0.44855  1.0000
  H   H2582     1.0  0.90603  0.54520  0.25031  1.0000
  H   H2583     1.0  0.61340  0.44625  0.40820  1.0000
  C   C2166     1.0  0.54987  0.34449  0.38967  1.0000
  H   H2584     1.0  0.94346  0.56719  0.25865  1.0000
  C   C2167     1.0  0.94138  0.39875  0.45268  1.0000
  Fe  Fe290     1.0  0.97318  0.60648  0.35872  1.0000
  H   H2585     1.0  0.91674  0.40957  0.43672  1.0000
  H   H2586     1.0  0.79258  0.54851  0.42695  1.0000
  H   H2587     1.0  0.79474  0.51827  0.43923  1.0000
  C   C2168     1.0  0.54213  0.41504  0.37697  1.0000
  H   H2588     1.0  0.72886  0.37366  0.36540  1.0000
  H   H2589     1.0  0.61431  0.45136  0.26225  1.0000
  H   H2590     1.0  0.58243  0.43897  0.41386  1.0000
  H   H2591     1.0  0.90997  0.55276  0.32634  1.0000
  H   H2592     1.0  0.63056  0.33713  0.31425  1.0000
  H   H2593     1.0  0.76711  0.65495  0.24715  1.0000
  H   H2594     1.0  0.61762  0.45123  0.37438  1.0000
  H   H2595     1.0  0.63373  0.41879  0.37514  1.0000
  H   H2596     1.0  0.94441  0.36336  0.47906  1.0000
  H   H2597     1.0  0.60537  0.39550  0.37463  1.0000
  Fe  Fe291     1.0  0.67691  0.60013  0.48346  1.0000
  H   H2598     1.0  0.62169  0.38635  0.39594  1.0000
  S   S580      1.0  0.76573  0.36336  0.27303  1.0000
  N   N146      1.0  0.75401  0.41739  0.30798  1.0000
  C   C2169     1.0  0.77486  0.43110  0.30634  1.0000
  C   C2170     1.0  0.76269  0.39941  0.29760  1.0000
  C   C2171     1.0  0.73172  0.43570  0.30328  1.0000
  C   C2172     1.0  0.74707  0.40496  0.32363  1.0000
  C   C2173     1.0  0.73905  0.41957  0.33495  1.0000
  C   C2174     1.0  0.74795  0.37842  0.32813  1.0000
  C   C2175     1.0  0.73261  0.40830  0.34982  1.0000
  H   H2599     1.0  0.65750  0.32734  0.32327  1.0000
  C   C2176     1.0  0.74154  0.36737  0.34305  1.0000
  H   H2600     1.0  0.78153  0.43951  0.29457  1.0000
  H   H2601     1.0  0.76900  0.44703  0.31241  1.0000
  H   H2602     1.0  0.79152  0.41811  0.31043  1.0000
  H   H2603     1.0  0.76797  0.40924  0.28594  1.0000
  H   H2604     1.0  0.74743  0.38929  0.29779  1.0000
  H   H2605     1.0  0.77984  0.38528  0.30019  1.0000
  H   H2606     1.0  0.72522  0.45127  0.30964  1.0000
  H   H2607     1.0  0.73604  0.44478  0.29138  1.0000
  H   H2608     1.0  0.71547  0.42609  0.30472  1.0000
  H   H2609     1.0  0.73760  0.43985  0.33238  1.0000
  H   H2610     1.0  0.75320  0.36570  0.32037  1.0000
  H   H2611     1.0  0.72637  0.41973  0.35835  1.0000
  H   H2612     1.0  0.62751  0.56775  0.44260  1.0000
  H   H2613     1.0  0.61844  0.33717  0.36048  1.0000
  N   N147      1.0  0.81023  0.49971  0.35552  1.0000
  C   C2177     1.0  0.83787  0.49624  0.35495  1.0000
  C   C2178     1.0  0.79842  0.52545  0.35859  1.0000
  C   C2179     1.0  0.79950  0.48122  0.36814  1.0000
  C   C2180     1.0  0.80590  0.49544  0.34152  1.0000
  C   C2181     1.0  0.81492  0.47131  0.33748  1.0000
  C   C2182     1.0  0.79305  0.51470  0.33152  1.0000
  C   C2183     1.0  0.81105  0.46668  0.32437  1.0000
  C   C2184     1.0  0.78912  0.50979  0.31848  1.0000
  C   C2185     1.0  0.79807  0.48586  0.31493  1.0000
  H   H2614     1.0  0.84189  0.50003  0.36512  1.0000
  H   H2615     1.0  0.84800  0.47670  0.35395  1.0000
  H   H2616     1.0  0.84662  0.50942  0.34534  1.0000
  H   H2617     1.0  0.77754  0.52936  0.35926  1.0000
  H   H2618     1.0  0.80672  0.54034  0.35000  1.0000
  H   H2619     1.0  0.80169  0.52783  0.36931  1.0000
  H   H2620     1.0  0.80970  0.46145  0.36790  1.0000
  H   H2621     1.0  0.80074  0.48492  0.37897  1.0000
  H   H2622     1.0  0.77913  0.48203  0.36830  1.0000
  H   H2623     1.0  0.82538  0.45594  0.34435  1.0000
  H   H2624     1.0  0.78643  0.53391  0.33328  1.0000
  H   H2625     1.0  0.81863  0.44829  0.32134  1.0000
  H   H2626     1.0  0.77982  0.52486  0.31078  1.0000
  H   H2627     1.0  0.79570  0.48253  0.30455  1.0000
  C   C2186     1.0  0.82170  0.65777  0.39027  1.0000
  H   H2628     1.0  0.51811  0.44145  0.39006  1.0000
  H   H2629     1.0  0.58929  0.46378  0.39800  1.0000
  S   S581      1.0  0.80810  0.41285  0.25689  1.0000
  H   H2630     1.0  0.66560  0.45467  0.24169  1.0000
  H   H2631     1.0  0.57024  0.38843  0.36571  1.0000
  H   H2632     1.0  0.76996  0.36154  0.45259  1.0000
  C   C2187     1.0  0.92981  0.57936  0.29872  1.0000
  H   H2633     1.0  0.59492  0.52204  0.47476  1.0000
  H   H2634     1.0  0.60909  0.38601  0.33133  1.0000
  C   C2188     1.0  0.93986  0.57057  0.26986  1.0000
  S   S582      1.0  0.65700  0.34315  0.40899  1.0000
  H   H2635     1.0  0.85500  0.46908  0.23780  1.0000
  C   C2189     1.0  0.81846  0.35903  0.43887  1.0000
  H   H2636     1.0  0.89133  0.53620  0.31016  1.0000
  S   S583      1.0  0.64499  0.63385  0.48291  1.0000
  H   H2637     1.0  0.92572  0.58423  0.30954  1.0000
  H   H2638     1.0  0.58486  0.56115  0.45914  1.0000
  C   C2190     1.0  0.95309  0.44692  0.44208  1.0000
  H   H2639     1.0  0.99660  0.62770  0.41497  1.0000
  H   H2640     1.0  0.61465  0.59784  0.47556  1.0000
  C   C2191     1.0  0.65203  0.44494  0.23921  1.0000
  N   N148      1.0  0.97067  0.38900  0.47132  1.0000
  C   C2192     1.0  0.62776  0.41141  0.24747  1.0000
  H   H2641     1.0  0.85677  0.42346  0.23985  1.0000
  C   C2193     1.0  0.63461  0.38540  0.24639  1.0000
  H   H2642     1.0  0.64965  0.57776  0.45017  1.0000
  N   N149      1.0  0.61794  0.56503  0.46622  1.0000
  H   H2643     1.0  0.68004  0.39975  0.24619  1.0000
  H   H2644     1.0  0.74207  0.34712  0.34625  1.0000
  C   C2194     1.0  0.73394  0.38227  0.35385  1.0000
  H   H2645     1.0  0.65270  0.37388  0.24826  1.0000
  H   H2646     1.0  0.67999  0.41826  0.25918  1.0000
  H   H2647     1.0  0.66270  0.46628  0.47637  1.0000
  H   H2648     1.0  0.82205  0.64477  0.27425  1.0000
  H   H2649     1.0  0.96614  0.41877  0.48350  1.0000
  H   H2650     1.0  0.55708  0.65017  0.46407  1.0000
  H   H2651     1.0  0.51522  0.34336  0.38322  1.0000
  C   C2195     1.0  0.80708  0.65454  0.40456  1.0000
  H   H2652     1.0  0.62413  0.35378  0.24127  1.0000
  C   C2196     1.0  0.70212  0.33374  0.33347  1.0000
  H   H2653     1.0  0.53227  0.34782  0.34479  1.0000
  H   H2654     1.0  0.70236  0.65957  0.47116  1.0000
  C   C2197     1.0  0.88755  0.37973  0.48420  1.0000
  H   H2655     1.0  0.86129  0.63855  0.28381  1.0000
  C   C2198     1.0  0.61535  0.51820  0.47324  1.0000
  C   C2199     1.0  0.59569  0.35022  0.33755  1.0000
  C   C2200     1.0  0.57310  0.34016  0.34132  1.0000
  H   H2656     1.0  0.61598  0.47802  0.47910  1.0000
  C   C2201     1.0  0.85261  0.65741  0.27894  1.0000
  H   H2657     1.0  0.83120  0.33470  0.46432  1.0000
  H   H2658     1.0  0.96389  0.65030  0.38266  1.0000
  C   C2202     1.0  0.96103  0.40002  0.48487  1.0000
  C   C2203     1.0  0.78277  0.33481  0.43004  1.0000
  C   C2204     1.0  0.65354  0.48603  0.47431  1.0000
  H   H2659     1.0  0.51067  0.33154  0.25848  1.0000
  C   C2205     1.0  0.62724  0.49271  0.47582  1.0000
  N   N150      1.0  0.98758  0.65617  0.39615  1.0000
  C   C2206     1.0  0.98190  0.65694  0.38150  1.0000
  C   C2207     1.0  0.57553  0.33347  0.38950  1.0000
  C   C2208     1.0  0.53489  0.33453  0.38322  1.0000
  H   H2660     1.0  0.90387  0.34176  0.48077  1.0000
  C   C2209     1.0  0.63169  0.33948  0.34961  1.0000
  H   H2661     1.0  0.87442  0.66028  0.42375  1.0000
  H   H2662     1.0  0.98505  0.34771  0.65755  1.0000
  H   H2663     1.0  0.76422  0.64598  0.69676  1.0000
  H   H2664     1.0  0.55264  0.36918  0.73410  1.0000
  H   H2665     1.0  0.77900  0.61566  0.64491  1.0000
  H   H2666     1.0  0.56119  0.33006  0.72390  1.0000
  H   H2667     1.0  0.97995  0.39485  0.70841  1.0000
  Fe  Fe292     1.0  0.94368  0.40598  0.63443  1.0000
  S   S584      1.0  0.91925  0.43249  0.61920  1.0000
  S   S585      1.0  0.98214  0.41128  0.63606  1.0000
  Fe  Fe293     1.0  0.91130  0.36559  0.64200  1.0000
  S   S586      1.0  0.88457  0.38824  0.62714  1.0000
  N   N151      1.0  0.59703  0.49822  0.73176  1.0000
  Fe  Fe294     1.0  0.91931  0.39769  0.61096  1.0000
  S   S587      1.0  0.92394  0.40243  0.58627  1.0000
  Fe  Fe295     1.0  0.88632  0.42119  0.63652  1.0000
  S   S588      1.0  0.84795  0.44430  0.64411  1.0000
  S   S589      1.0  0.94612  0.37190  0.62487  1.0000
  S   S590      1.0  0.91073  0.39789  0.65267  1.0000
  S   S591      1.0  0.74572  0.56746  0.60225  1.0000
  H   H2668     1.0  0.70588  0.55965  0.58741  1.0000
  Fe  Fe296     1.0  0.77473  0.57418  0.61323  1.0000
  S   S592      1.0  0.81568  0.55483  0.60816  1.0000
  N   N152      1.0  0.66901  0.55020  0.59094  1.0000
  C   C2210     1.0  0.60957  0.51599  0.73564  1.0000
  Fe  Fe297     1.0  0.55552  0.56173  0.66844  1.0000
  S   S593      1.0  0.57665  0.58554  0.64908  1.0000
  S   S594      1.0  0.57252  0.54251  0.68839  1.0000
  H   H2669     1.0  0.82435  0.36788  0.62624  1.0000
  H   H2670     1.0  0.63990  0.59667  0.58246  1.0000
  S   S595      1.0  0.63668  0.58876  0.73201  1.0000
  C   C2211     1.0  0.93424  0.32890  0.58308  1.0000
  N   N153      1.0  0.64447  0.61954  0.66681  1.0000
  S   S596      1.0  0.66150  0.33054  0.72327  1.0000
  C   C2212     1.0  0.70867  0.60169  0.71105  1.0000
  C   C2213     1.0  0.73150  0.61117  0.70534  1.0000
  H   H2671     1.0  0.50154  0.37437  0.71493  1.0000
  C   C2214     1.0  0.73831  0.64406  0.50814  1.0000
  C   C2215     1.0  0.58304  0.41301  0.72793  1.0000
  S   S597      1.0  0.65774  0.57733  0.50402  1.0000
  C   C2216     1.0  0.53349  0.37421  0.73118  1.0000
  S   S598      1.0  0.51968  0.58127  0.68121  1.0000
  C   C2217     1.0  0.65955  0.65306  0.69993  1.0000
  H   H2672     1.0  0.75158  0.65990  0.53753  1.0000
  H   H2673     1.0  0.73304  0.56035  0.55368  1.0000
  H   H2674     1.0  0.85110  0.35584  0.66746  1.0000
  C   C2218     1.0  0.56950  0.45111  0.71050  1.0000
  C   C2219     1.0  0.58235  0.58096  0.71242  1.0000
  C   C2220     1.0  0.66135  0.55352  0.63798  1.0000
  C   C2221     1.0  0.64513  0.53860  0.64794  1.0000
  C   C2222     1.0  0.61905  0.54828  0.65142  1.0000
  C   C2223     1.0  0.60909  0.57282  0.64478  1.0000
  C   C2224     1.0  0.62521  0.58757  0.63461  1.0000
  C   C2225     1.0  0.65129  0.57799  0.63127  1.0000
  H   H2675     1.0  0.60664  0.53662  0.65909  1.0000
  H   H2676     1.0  0.61747  0.60642  0.62929  1.0000
  H   H2677     1.0  0.66340  0.58951  0.62337  1.0000
  C   C2226     1.0  0.60295  0.55570  0.61557  1.0000
  C   C2227     1.0  0.92791  0.37459  0.57951  1.0000
  C   C2228     1.0  0.92866  0.37626  0.56443  1.0000
  C   C2229     1.0  0.93203  0.35430  0.55870  1.0000
  S   S599      1.0  0.64403  0.62839  0.51844  1.0000
  C   C2230     1.0  0.57152  0.51213  0.72909  1.0000
  C   C2231     1.0  0.93060  0.35090  0.58886  1.0000
  H   H2678     1.0  0.92648  0.39459  0.55717  1.0000
  H   H2679     1.0  0.93220  0.35580  0.54711  1.0000
  H   H2680     1.0  0.61476  0.59996  0.68005  1.0000
  H   H2681     1.0  0.92988  0.34951  0.60053  1.0000
  C   C2232     1.0  0.83934  0.47516  0.63420  1.0000
  C   C2233     1.0  0.81390  0.48755  0.63662  1.0000
  C   C2234     1.0  0.80640  0.51198  0.62866  1.0000
  C   C2235     1.0  0.82438  0.52418  0.61828  1.0000
  C   C2236     1.0  0.84981  0.51174  0.61583  1.0000
  C   C2237     1.0  0.85730  0.48732  0.62380  1.0000
  H   H2682     1.0  0.79993  0.47824  0.64468  1.0000
  H   H2683     1.0  0.78676  0.52140  0.63058  1.0000
  H   H2684     1.0  0.86379  0.52117  0.60785  1.0000
  H   H2685     1.0  0.87698  0.47804  0.62197  1.0000
  H   H2686     1.0  0.84903  0.33794  0.60998  1.0000
  C   C2238     1.0  0.64907  0.63131  0.67822  1.0000
  H   H2687     1.0  0.57240  0.58787  0.61465  1.0000
  H   H2688     1.0  0.52043  0.63865  0.52993  1.0000
  H   H2689     1.0  0.50141  0.59182  0.54924  1.0000
  C   C2239     1.0  0.75085  0.64662  0.65222  1.0000
  C   C2240     1.0  0.59158  0.58005  0.60968  1.0000
  C   C2241     1.0  0.93496  0.33057  0.56799  1.0000
  H   H2690     1.0  0.60375  0.63177  0.67055  1.0000
  H   H2691     1.0  0.70661  0.57404  0.68299  1.0000
  H   H2692     1.0  0.74833  0.33562  0.66998  1.0000
  H   H2693     1.0  0.60433  0.47552  0.71512  1.0000
  H   H2694     1.0  0.78285  0.40617  0.65776  1.0000
  C   C2242     1.0  0.98618  0.41844  0.65237  1.0000
  C   C2243     1.0  0.96557  0.42840  0.66245  1.0000
  C   C2244     1.0  0.96978  0.43599  0.67469  1.0000
  H   H2695     1.0  0.51597  0.59346  0.49108  1.0000
  H   H2696     1.0  0.80957  0.44672  0.58779  1.0000
  H   H2697     1.0  0.94647  0.43103  0.66057  1.0000
  H   H2698     1.0  0.95385  0.44425  0.68230  1.0000
  C   C2245     1.0  0.79009  0.34477  0.67706  1.0000
  C   C2246     1.0  0.70431  0.59084  0.54573  1.0000
  C   C2247     1.0  0.96950  0.37268  0.69565  1.0000
  H   H2699     1.0  0.60438  0.42440  0.70613  1.0000
  H   H2700     1.0  0.59249  0.54483  0.62513  1.0000
  Fe  Fe298     1.0  0.53544  0.55942  0.70120  1.0000
  H   H2701     1.0  0.82927  0.39756  0.65609  1.0000
  C   C2248     1.0  0.71324  0.58458  0.68910  1.0000
  N   N154      1.0  0.84762  0.43831  0.59193  1.0000
  C   C2249     1.0  0.86010  0.44581  0.57628  1.0000
  C   C2250     1.0  0.82126  0.45312  0.59377  1.0000
  C   C2251     1.0  0.86142  0.44567  0.60138  1.0000
  C   C2252     1.0  0.84752  0.41083  0.59647  1.0000
  C   C2253     1.0  0.86159  0.39299  0.58750  1.0000
  C   C2254     1.0  0.83401  0.40099  0.61058  1.0000
  C   C2255     1.0  0.86194  0.36707  0.59237  1.0000
  C   C2256     1.0  0.83438  0.37502  0.61531  1.0000
  H   H2702     1.0  0.96870  0.38755  0.49453  1.0000
  H   H2703     1.0  0.71783  0.65981  0.70637  1.0000
  H   H2704     1.0  0.85103  0.44015  0.56856  1.0000
  H   H2705     1.0  0.88071  0.43724  0.57441  1.0000
  C   C2257     1.0  0.93319  0.35668  0.68468  1.0000
  H   H2706     1.0  0.76160  0.61430  0.68554  1.0000
  H   H2707     1.0  0.81168  0.45163  0.60557  1.0000
  H   H2708     1.0  0.88135  0.43513  0.60027  1.0000
  H   H2709     1.0  0.86196  0.46623  0.59842  1.0000
  H   H2710     1.0  0.85257  0.44162  0.61328  1.0000
  H   H2711     1.0  0.87309  0.39843  0.57681  1.0000
  H   H2712     1.0  0.82383  0.41321  0.61829  1.0000
  Fe  Fe299     1.0  0.50482  0.54654  0.68207  1.0000
  H   H2713     1.0  0.72883  0.65365  0.49861  1.0000
  C   C2258     1.0  0.61841  0.61425  0.66977  1.0000
  C   C2259     1.0  0.99456  0.43372  0.67683  1.0000
  C   C2260     1.0  0.50155  0.64073  0.53751  1.0000
  S   S600      1.0  0.70579  0.61094  0.61898  1.0000
  S   S601      1.0  0.53950  0.52854  0.66761  1.0000
  C   C2261     1.0  0.60737  0.58636  0.72897  1.0000
  Fe  Fe300     1.0  0.73393  0.60972  0.59773  1.0000
  H   H2714     1.0  0.57274  0.52882  0.71997  1.0000
  Fe  Fe301     1.0  0.66524  0.64691  0.49687  1.0000
  S   S602      1.0  0.81076  0.65678  0.67539  1.0000
  H   H2715     1.0  0.63586  0.52714  0.61520  1.0000
  C   C2262     1.0  0.63014  0.58471  0.59170  1.0000
  H   H2716     1.0  0.92782  0.35059  0.69686  1.0000
  H   H2717     1.0  0.61048  0.50683  0.70807  1.0000
  H   H2718     1.0  0.74539  0.59174  0.67196  1.0000
  C   C2263     1.0  0.64245  0.56005  0.59754  1.0000
  H   H2719     1.0  0.74095  0.35156  0.69289  1.0000
  Fe  Fe302     1.0  0.67644  0.59560  0.51623  1.0000
  S   S603      1.0  0.69403  0.54116  0.63424  1.0000
  H   H2720     1.0  0.68633  0.64759  0.55696  1.0000
  C   C2264     1.0  0.62806  0.54578  0.60973  1.0000
  C   C2265     1.0  0.58721  0.42902  0.71407  1.0000
  C   C2266     1.0  0.74436  0.60742  0.69092  1.0000
  C   C2267     1.0  0.76565  0.63189  0.70716  1.0000
  H   H2721     1.0  0.54693  0.35029  0.70899  1.0000
  Fe  Fe303     1.0  0.92052  0.33803  0.50908  1.0000
  H   H2722     1.0  0.75654  0.58892  0.72704  1.0000
  H   H2723     1.0  0.74211  0.63255  0.53565  1.0000
  H   H2724     1.0  0.51606  0.59438  0.53024  1.0000
  H   H2725     1.0  0.77252  0.63912  0.52595  1.0000
  C   C2268     1.0  0.67080  0.54979  0.57511  1.0000
  C   C2269     1.0  0.68569  0.56683  0.59199  1.0000
  C   C2270     1.0  0.67914  0.52418  0.59832  1.0000
  H   H2726     1.0  0.66606  0.56903  0.56841  1.0000
  H   H2727     1.0  0.69033  0.54167  0.56982  1.0000
  H   H2728     1.0  0.65768  0.53840  0.57376  1.0000
  H   H2729     1.0  0.68464  0.56790  0.60370  1.0000
  H   H2730     1.0  0.68079  0.58646  0.58582  1.0000
  H   H2731     1.0  0.66799  0.51037  0.59760  1.0000
  H   H2732     1.0  0.69916  0.51744  0.59313  1.0000
  H   H2733     1.0  0.67924  0.52342  0.61019  1.0000
  S   S604      1.0  0.95304  0.33927  0.51913  1.0000
  H   H2734     1.0  0.61468  0.56866  0.48878  1.0000
  H   H2735     1.0  0.50541  0.63522  0.54894  1.0000
  C   C2271     1.0  0.73524  0.59435  0.68297  1.0000
  Fe  Fe304     1.0  0.62688  0.61201  0.50432  1.0000
  C   C2272     1.0  0.97798  0.35562  0.68559  1.0000
  C   C2273     1.0  0.60555  0.58327  0.71504  1.0000
  C   C2274     1.0  0.54288  0.33771  0.71997  1.0000
  H   H2736     1.0  0.78077  0.61537  0.70466  1.0000
  H   H2737     1.0  0.52304  0.63352  0.72492  1.0000
  S   S605      1.0  0.51727  0.52621  0.70346  1.0000
  S   S606      1.0  0.72115  0.63363  0.57696  1.0000
  C   C2275     1.0  0.54735  0.45693  0.72082  1.0000
  H   H2738     1.0  0.68261  0.59798  0.66226  1.0000
  N   N155      1.0  0.52410  0.35139  0.73081  1.0000
  Fe  Fe305     1.0  0.73789  0.61416  0.62867  1.0000
  C   C2276     1.0  0.56716  0.61178  0.49687  1.0000
  N   N156      1.0  0.74088  0.62431  0.71428  1.0000
  C   C2277     1.0  0.60512  0.59452  0.59775  1.0000
  H   H2739     1.0  0.72628  0.63050  0.51521  1.0000
  H   H2740     1.0  0.92048  0.34976  0.67960  1.0000
  H   H2741     1.0  0.68724  0.63642  0.66696  1.0000
  C   C2278     1.0  0.66263  0.59524  0.66609  1.0000
  C   C2279     1.0  0.75234  0.64803  0.52941  1.0000
  C   C2280     1.0  0.79297  0.63421  0.65818  1.0000
  S   S607      1.0  0.58654  0.60490  0.51026  1.0000
  H   H2742     1.0  0.85909  0.46664  0.57304  1.0000
  H   H2743     1.0  0.63216  0.48373  0.71780  1.0000
  H   H2744     1.0  0.99344  0.50702  0.64886  1.0000
  C   C2281     1.0  0.54305  0.44079  0.73466  1.0000
  C   C2282     1.0  0.69665  0.62860  0.55618  1.0000
  C   C2283     1.0  0.72284  0.57941  0.55437  1.0000
  C   C2284     1.0  0.77824  0.36898  0.67026  1.0000
  S   S608      1.0  0.53230  0.57644  0.72110  1.0000
  S   S609      1.0  0.69685  0.57332  0.53465  1.0000
  H   H2745     1.0  0.76405  0.34165  0.70467  1.0000
  H   H2746     1.0  0.82076  0.47374  0.58952  1.0000
  H   H2747     1.0  0.75693  0.63247  0.50408  1.0000
  H   H2748     1.0  0.74838  0.51541  0.48875  1.0000
  H   H2749     1.0  0.70409  0.64341  0.72417  1.0000
  H   H2750     1.0  0.62215  0.58259  0.70631  1.0000
  H   H2751     1.0  0.77250  0.64114  0.71433  1.0000
  H   H2752     1.0  0.97973  0.38089  0.57062  1.0000
  H   H2753     1.0  0.87383  0.33867  0.63694  1.0000
  C   C2285     1.0  0.79227  0.38775  0.66280  1.0000
  S   S610      1.0  0.76506  0.61667  0.60691  1.0000
  C   C2286     1.0  0.81843  0.38299  0.66185  1.0000
  C   C2287     1.0  0.98671  0.38106  0.70120  1.0000
  C   C2288     1.0  0.83067  0.35946  0.66833  1.0000
  H   H2754     1.0  0.66837  0.63907  0.64811  1.0000
  H   H2755     1.0  0.75800  0.37358  0.67069  1.0000
  C   C2289     1.0  0.96538  0.35511  0.66286  1.0000
  H   H2756     1.0  0.66121  0.58239  0.67710  1.0000
  H   H2757     1.0  0.61293  0.62920  0.69391  1.0000
  C   C2290     1.0  0.74412  0.60742  0.72868  1.0000
  C   C2291     1.0  0.77467  0.63068  0.65116  1.0000
  H   H2758     1.0  0.59625  0.61354  0.59326  1.0000
  C   C2292     1.0  0.54435  0.65279  0.73339  1.0000
  C   C2293     1.0  0.69982  0.58847  0.70305  1.0000
  S   S611      1.0  0.89770  0.37595  0.50095  1.0000
  C   C2294     1.0  0.63116  0.63473  0.69145  1.0000
  H   H2759     1.0  0.81136  0.62176  0.65736  1.0000
  Fe  Fe306     1.0  0.55320  0.51084  0.68901  1.0000
  C   C2295     1.0  0.72219  0.64760  0.71696  1.0000
  S   S612      1.0  0.57617  0.47124  0.69325  1.0000
  H   H2760     1.0  0.65277  0.51957  0.65308  1.0000
  H   H2761     1.0  0.96242  0.37605  0.65984  1.0000
  C   C2296     1.0  0.54748  0.59843  0.49924  1.0000
  C   C2297     1.0  0.75519  0.33531  0.69712  1.0000
  H   H2762     1.0  0.64391  0.62856  0.64339  1.0000
  H   H2763     1.0  0.56112  0.63797  0.73281  1.0000
  H   H2764     1.0  0.74289  0.58372  0.57033  1.0000
  C   C2298     1.0  0.72830  0.59253  0.56388  1.0000
  Fe  Fe307     1.0  0.71986  0.56923  0.62427  1.0000
  H   H2765     1.0  0.59693  0.39612  0.73059  1.0000
  H   H2766     1.0  0.58090  0.57923  0.70157  1.0000
  H   H2767     1.0  0.54504  0.58362  0.50889  1.0000
  H   H2768     1.0  0.99041  0.46162  0.60844  1.0000
  S   S613      1.0  0.74988  0.57225  0.63584  1.0000
  H   H2769     1.0  0.72945  0.65921  0.72254  1.0000
  H   H2770     1.0  0.53548  0.38729  0.72024  1.0000
  H   H2771     1.0  0.65901  0.58509  0.65819  1.0000
  C   C2299     1.0  0.69135  0.61556  0.54656  1.0000
  C   C2300     1.0  0.67746  0.65003  0.68709  1.0000
  C   C2301     1.0  0.64837  0.63642  0.65208  1.0000
  H   H2772     1.0  0.61516  0.60629  0.66078  1.0000
  H   H2773     1.0  0.67690  0.62444  0.54001  1.0000
  H   H2774     1.0  0.69554  0.65578  0.68537  1.0000
  H   H2775     1.0  0.62288  0.64710  0.71233  1.0000
  C   C2302     1.0  0.71496  0.61702  0.56495  1.0000
  H   H2776     1.0  0.68239  0.58130  0.70775  1.0000
  H   H2777     1.0  0.63615  0.65547  0.65232  1.0000
  S   S614      1.0  0.72740  0.64273  0.64365  1.0000
  C   C2303     1.0  0.67246  0.63906  0.67649  1.0000
  H   H2778     1.0  0.53344  0.47374  0.71811  1.0000
  C   C2304     1.0  0.56108  0.58102  0.72385  1.0000
  H   H2779     1.0  0.87328  0.35380  0.58545  1.0000
  H   H2780     1.0  0.92858  0.37772  0.68181  1.0000
  S   S615      1.0  0.69873  0.61503  0.49553  1.0000
  C   C2305     1.0  0.52290  0.65043  0.72891  1.0000
  C   C2306     1.0  0.81688  0.34051  0.67578  1.0000
  C   C2307     1.0  0.84835  0.35811  0.60622  1.0000
  C   C2308     1.0  0.49971  0.36027  0.72548  1.0000
  H   H2781     1.0  0.72580  0.60358  0.73578  1.0000
  C   C2309     1.0  0.61168  0.49075  0.71765  1.0000
  H   H2782     1.0  0.69745  0.60436  0.72179  1.0000
  C   C2310     1.0  0.78758  0.65365  0.66628  1.0000
  N   N157      1.0  0.96039  0.34679  0.67915  1.0000
  H   H2783     1.0  0.94972  0.38044  0.69914  1.0000
  C   C2311     1.0  0.63654  0.64526  0.70214  1.0000
  H   H2784     1.0  0.97949  0.65511  0.72493  1.0000
  H   H2785     1.0  0.50295  0.62960  0.51170  1.0000
  H   H2786     1.0  0.61101  0.53297  0.72673  1.0000
  H   H2787     1.0  0.75284  0.61584  0.73534  1.0000
  C   C2312     1.0  0.53108  0.60389  0.48912  1.0000
  S   S616      1.0  0.90852  0.32797  0.65742  1.0000
  H   H2788     1.0  0.95255  0.34880  0.65758  1.0000
  H   H2789     1.0  0.56118  0.49997  0.72583  1.0000
  H   H2790     1.0  0.79741  0.64953  0.61797  1.0000
  H   H2791     1.0  0.93992  0.40269  0.48788  1.0000
  H   H2792     1.0  0.99701  0.49733  0.58745  1.0000
  H   H2793     1.0  0.56784  0.64206  0.89687  1.0000
  C   C2313     1.0  0.52639  0.57499  0.98027  1.0000
  H   H2794     1.0  0.71626  0.43011  0.92582  1.0000
  Fe  Fe308     1.0  0.66844  0.39714  0.87519  1.0000
  S   S617      1.0  0.62659  0.40296  0.88407  1.0000
  S   S618      1.0  0.68867  0.43030  0.86847  1.0000
  Fe  Fe309     1.0  0.63627  0.36625  0.89968  1.0000
  S   S619      1.0  0.62739  0.35808  0.92457  1.0000
  Fe  Fe310     1.0  0.62614  0.37880  0.86806  1.0000
  S   S620      1.0  0.59895  0.38742  0.85230  1.0000
  S   S621      1.0  0.67821  0.36179  0.89165  1.0000
  S   S622      1.0  0.66763  0.37498  0.85841  1.0000
  C   C2314     1.0  0.64290  0.48046  0.83007  1.0000
  H   H2795     1.0  0.93059  0.41767  0.97889  1.0000
  C   C2315     1.0  0.82136  0.57736  0.96690  1.0000
  C   C2316     1.0  0.53157  0.35400  0.94894  1.0000
  C   C2317     1.0  0.62178  0.44912  0.82519  1.0000
  C   C2318     1.0  0.62756  0.44777  0.84966  1.0000
  Fe  Fe311     1.0  0.68076  0.60079  0.89455  1.0000
  S   S623      1.0  0.65651  0.57840  0.91292  1.0000
  S   S624      1.0  0.71866  0.60891  0.89514  1.0000
  Fe  Fe312     1.0  0.64181  0.61494  0.87481  1.0000
  S   S625      1.0  0.61415  0.59397  0.89140  1.0000
  H   H2796     1.0  0.72009  0.65534  0.78223  1.0000
  Fe  Fe313     1.0  0.62459  0.61056  0.90795  1.0000
  S   S626      1.0  0.59427  0.62418  0.92631  1.0000
  Fe  Fe314     1.0  0.64808  0.56312  0.89495  1.0000
  S   S627      1.0  0.64011  0.52327  0.90103  1.0000
  S   S628      1.0  0.67521  0.58288  0.87673  1.0000
  H   H2797     1.0  0.55973  0.51979  0.73891  1.0000
  H   H2798     1.0  0.56332  0.58819  0.94000  1.0000
  C   C2319     1.0  0.58238  0.65674  0.92432  1.0000
  C   C2320     1.0  0.61829  0.64400  0.82797  1.0000
  H   H2799     1.0  0.89809  0.63679  0.97181  1.0000
  C   C2321     1.0  0.84123  0.55904  0.97191  1.0000
  C   C2322     1.0  0.54016  0.35796  0.90966  1.0000
  C   C2323     1.0  0.73800  0.33403  0.94376  1.0000
  S   S629      1.0  0.62805  0.36898  0.75607  1.0000
  Fe  Fe315     1.0  0.63629  0.33519  0.74523  1.0000
  H   H2800     1.0  0.60240  0.46073  0.82748  1.0000
  H   H2801     1.0  0.62947  0.45284  0.81308  1.0000
  H   H2802     1.0  0.51134  0.65285  0.87713  1.0000
  H   H2803     1.0  0.68542  0.61098  0.92360  1.0000
  H   H2804     1.0  0.54489  0.33675  0.95170  1.0000
  C   C2324     1.0  0.64685  0.34805  0.82243  1.0000
  H   H2805     1.0  0.61448  0.57308  0.83539  1.0000
  C   C2325     1.0  0.92884  0.36400  0.95806  1.0000
  H   H2806     1.0  0.99594  0.60249  0.74853  1.0000
  H   H2807     1.0  0.60826  0.64623  0.80701  1.0000
  H   H2808     1.0  0.61932  0.42901  0.82820  1.0000
  H   H2809     1.0  0.60032  0.37413  0.80242  1.0000
  H   H2810     1.0  0.91232  0.39494  0.97952  1.0000
  H   H2811     1.0  0.50924  0.55081  0.97240  1.0000
  H   H2812     1.0  0.62528  0.53889  0.80877  1.0000
  H   H2813     1.0  0.65408  0.55026  0.82131  1.0000
  C   C2326     1.0  0.65108  0.53094  0.82374  1.0000
  S   S630      1.0  0.58623  0.33973  0.78141  1.0000
  H   H2814     1.0  0.67545  0.51789  0.83976  1.0000
  C   C2327     1.0  0.63486  0.52443  0.81663  1.0000
  C   C2328     1.0  0.62196  0.60279  0.84399  1.0000
  C   C2329     1.0  0.71910  0.62295  0.90992  1.0000
  H   H2815     1.0  0.72444  0.39636  0.94453  1.0000
  C   C2330     1.0  0.52250  0.56360  0.96952  1.0000
  C   C2331     1.0  0.53220  0.36793  0.93422  1.0000
  H   H2816     1.0  0.79078  0.53778  0.95781  1.0000
  H   H2817     1.0  0.62335  0.42833  0.85272  1.0000
  C   C2332     1.0  0.52738  0.33780  0.75807  1.0000
  H   H2818     1.0  0.66896  0.47438  0.84524  1.0000
  H   H2819     1.0  0.53596  0.64297  0.89554  1.0000
  C   C2333     1.0  0.54351  0.59194  0.97680  1.0000
  C   C2334     1.0  0.82442  0.52651  0.96658  1.0000
  H   H2820     1.0  0.60949  0.46116  0.85251  1.0000
  H   H2821     1.0  0.52894  0.37603  0.90468  1.0000
  C   C2335     1.0  0.76122  0.58038  0.95296  1.0000
  C   C2336     1.0  0.71804  0.61331  0.80667  1.0000
  C   C2337     1.0  0.56974  0.33661  0.92551  1.0000
  C   C2338     1.0  0.72132  0.64391  0.93385  1.0000
  H   H2822     1.0  0.68309  0.64090  0.79117  1.0000
  C   C2339     1.0  0.67482  0.45660  0.87711  1.0000
  C   C2340     1.0  0.68455  0.47903  0.87221  1.0000
  C   C2341     1.0  0.67392  0.49995  0.87923  1.0000
  C   C2342     1.0  0.65375  0.49832  0.89130  1.0000
  C   C2343     1.0  0.64421  0.47584  0.89620  1.0000
  C   C2344     1.0  0.65458  0.45515  0.88910  1.0000
  H   H2823     1.0  0.70038  0.48021  0.86302  1.0000
  H   H2824     1.0  0.68151  0.51715  0.87546  1.0000
  H   H2825     1.0  0.62865  0.47448  0.90555  1.0000
  H   H2826     1.0  0.64715  0.43797  0.89310  1.0000
  C   C2345     1.0  0.61231  0.37439  0.83623  1.0000
  C   C2346     1.0  0.59950  0.38027  0.82432  1.0000
  C   C2347     1.0  0.61031  0.36975  0.81153  1.0000
  S   S631      1.0  0.71003  0.62625  0.76314  1.0000
  H   H2827     1.0  0.87751  0.65689  0.98410  1.0000
  C   C2348     1.0  0.63572  0.35780  0.83531  1.0000
  H   H2828     1.0  0.58118  0.39282  0.82500  1.0000
  Fe  Fe316     1.0  0.66880  0.62879  0.76342  1.0000
  C   C2349     1.0  0.59613  0.43163  0.76634  1.0000
  C   C2350     1.0  0.66313  0.51271  0.83405  1.0000
  Fe  Fe317     1.0  0.63355  0.60933  0.75039  1.0000
  C   C2351     1.0  0.99583  0.65188  0.74434  1.0000
  C   C2352     1.0  0.63419  0.35379  0.81055  1.0000
  H   H2829     1.0  0.79980  0.59997  0.93471  1.0000
  S   S632      1.0  0.64943  0.63425  0.89115  1.0000
  H   H2830     1.0  0.55988  0.65294  0.94628  1.0000
  H   H2831     1.0  0.52588  0.44534  0.74259  1.0000
  H   H2832     1.0  0.64036  0.44850  0.85696  1.0000
  H   H2833     1.0  0.51255  0.40172  0.92127  1.0000
  C   C2353     1.0  0.56510  0.64407  0.86846  1.0000
  H   H2834     1.0  0.58436  0.33168  0.91578  1.0000
  S   S633      1.0  0.55528  0.39884  0.75560  1.0000
  C   C2354     1.0  0.74558  0.65555  0.74981  1.0000
  H   H2835     1.0  0.70271  0.35509  0.91712  1.0000
  H   H2836     1.0  0.55583  0.39923  0.91099  1.0000
  H   H2837     1.0  0.66848  0.38669  0.91740  1.0000
  S   S634      1.0  0.60624  0.59517  0.80575  1.0000
  Fe  Fe318     1.0  0.58729  0.36577  0.75923  1.0000
  S   S635      1.0  0.59544  0.33451  0.74654  1.0000
  S   S636      1.0  0.95144  0.61784  0.97431  1.0000
  H   H2838     1.0  0.97172  0.40540  0.95180  1.0000
  C   C2355     1.0  0.80436  0.54467  0.96159  1.0000
  C   C2356     1.0  0.72407  0.37948  0.94084  1.0000
  C   C2357     1.0  0.62348  0.62835  0.84125  1.0000
  C   C2358     1.0  0.71214  0.35634  0.92562  1.0000
  H   H2839     1.0  0.85798  0.51950  0.97593  1.0000
  H   H2840     1.0  0.85530  0.56449  0.97622  1.0000
  H   H2841     1.0  0.62920  0.50736  0.73736  1.0000
  C   C2359     1.0  0.61170  0.60827  0.81965  1.0000
  H   H2842     1.0  0.53230  0.55985  0.94671  1.0000
  S   S637      1.0  0.64883  0.33977  0.79505  1.0000
  H   H2843     1.0  0.61783  0.49598  0.81382  1.0000
  C   C2360     1.0  0.56098  0.41891  0.73827  1.0000
  C   C2361     1.0  0.61248  0.63398  0.81717  1.0000
  C   C2362     1.0  0.97249  0.34512  0.95994  1.0000
  C   C2363     1.0  0.70052  0.62087  0.92278  1.0000
  S   S638      1.0  0.65365  0.59301  0.76944  1.0000
  C   C2364     1.0  0.84271  0.53366  0.97182  1.0000
  H   H2844     1.0  0.62567  0.59067  0.85433  1.0000
  N   N158      1.0  0.63890  0.45401  0.83374  1.0000
  S   S639      1.0  0.63211  0.64138  0.85407  1.0000
  C   C2365     1.0  0.51317  0.39002  0.93210  1.0000
  H   H2845     1.0  0.63668  0.42491  0.75990  1.0000
  C   C2366     1.0  0.66359  0.43651  0.83075  1.0000
  H   H2846     1.0  0.82095  0.59675  0.96738  1.0000
  S   S640      1.0  0.72283  0.65504  0.94951  1.0000
  H   H2847     1.0  0.81943  0.33870  0.97046  1.0000
  C   C2367     1.0  0.65921  0.48783  0.83715  1.0000
  C   C2368     1.0  0.67029  0.40143  0.92303  1.0000
  H   H2848     1.0  0.92440  0.41371  0.96198  1.0000
  H   H2849     1.0  0.67371  0.44186  0.81919  1.0000
  H   H2850     1.0  0.66111  0.41660  0.83235  1.0000
  C   C2369     1.0  0.61576  0.59283  0.83325  1.0000
  C   C2370     1.0  0.73958  0.64660  0.92086  1.0000
  C   C2371     1.0  0.70910  0.40768  0.90570  1.0000
  S   S641      1.0  0.65162  0.64341  0.74323  1.0000
  H   H2851     1.0  0.52725  0.34414  0.91396  1.0000
  H   H2852     1.0  0.57555  0.38443  0.92440  1.0000
  H   H2853     1.0  0.68591  0.44384  0.92117  1.0000
  C   C2372     1.0  0.64895  0.33031  0.92996  1.0000
  H   H2854     1.0  0.67505  0.64643  0.83053  1.0000
  C   C2373     1.0  0.79016  0.60911  0.94437  1.0000
  H   H2855     1.0  0.55836  0.63747  0.97422  1.0000
  C   C2374     1.0  0.55686  0.59635  0.96192  1.0000
  H   H2856     1.0  0.68071  0.61353  0.83043  1.0000
  C   C2375     1.0  0.56512  0.62160  0.98293  1.0000
  H   H2857     1.0  0.55460  0.35096  0.90040  1.0000
  Fe  Fe319     1.0  0.62766  0.34039  0.77733  1.0000
  H   H2858     1.0  0.69998  0.42585  0.89945  1.0000
  C   C2376     1.0  0.61919  0.45921  0.74686  1.0000
  H   H2859     1.0  0.91134  0.37732  0.96029  1.0000
  H   H2860     1.0  0.58743  0.58881  0.75119  1.0000
  Fe  Fe320     1.0  0.67156  0.34014  0.87620  1.0000
  H   H2861     1.0  0.76931  0.57119  0.94317  1.0000
  C   C2377     1.0  0.73865  0.63582  0.90900  1.0000
  H   H2862     1.0  0.70779  0.39264  0.90012  1.0000
  H   H2863     1.0  0.70545  0.62673  0.83314  1.0000
  H   H2864     1.0  0.59596  0.41445  0.77467  1.0000
  H   H2865     1.0  0.58448  0.61185  0.97841  1.0000
  H   H2866     1.0  0.66312  0.65637  0.80557  1.0000
  C   C2378     1.0  0.95108  0.36443  0.96304  1.0000
  C   C2379     1.0  0.80208  0.57073  0.96177  1.0000
  C   C2380     1.0  0.76759  0.60367  0.96970  1.0000
  C   C2381     1.0  0.98241  0.65234  0.96600  1.0000
  H   H2867     1.0  0.68763  0.62894  0.94478  1.0000
  C   C2382     1.0  0.71970  0.65465  0.75379  1.0000
  C   C2383     1.0  0.95685  0.37108  0.98629  1.0000
  H   H2868     1.0  0.74948  0.61644  0.96757  1.0000
  C   C2384     1.0  0.87894  0.64887  0.97414  1.0000
  H   H2869     1.0  0.77920  0.61590  0.97170  1.0000
  H   H2870     1.0  0.58326  0.37578  0.90655  1.0000
  C   C2385     1.0  0.51312  0.36190  0.96070  1.0000
  N   N159      1.0  0.55202  0.36079  0.92155  1.0000
  S   S642      1.0  0.63699  0.65007  0.77788  1.0000
  H   H2871     1.0  0.82568  0.50667  0.96657  1.0000
  C   C2386     1.0  0.53553  0.56863  0.95502  1.0000
  S   S643      1.0  0.62990  0.34300  0.88491  1.0000
  H   H2872     1.0  0.66112  0.39642  0.93484  1.0000
  C   C2387     1.0  0.55278  0.58482  0.95125  1.0000
  C   C2388     1.0  0.97347  0.63338  0.97728  1.0000
  H   H2873     1.0  0.65880  0.41938  0.91801  1.0000
  C   C2389     1.0  0.63073  0.49959  0.81969  1.0000
  H   H2874     1.0  0.67643  0.43627  0.83827  1.0000
  C   C2390     1.0  0.68983  0.63047  0.82688  1.0000
  H   H2875     1.0  0.68758  0.42487  0.93915  1.0000
  H   H2876     1.0  0.66520  0.33552  0.82180  1.0000
  C   C2391     1.0  0.73732  0.35676  0.94784  1.0000
  N   N160      1.0  0.95240  0.38366  0.97124  1.0000
  H   H2877     1.0  0.64507  0.35174  0.84465  1.0000
  N   N161      1.0  0.78057  0.59043  0.95725  1.0000
  C   C2392     1.0  0.57329  0.46916  0.75262  1.0000
  H   H2878     1.0  0.55490  0.48014  0.75099  1.0000
  H   H2879     1.0  0.75301  0.63754  0.89903  1.0000
  C   C2393     1.0  0.72552  0.33381  0.93265  1.0000
  C   C2394     1.0  0.69677  0.42648  0.92726  1.0000
  S   S644      1.0  0.59828  0.62829  0.76397  1.0000
  H   H2880     1.0  0.89453  0.64646  0.94503  1.0000
  H   H2881     1.0  0.54649  0.58416  0.74666  1.0000
  C   C2395     1.0  0.70184  0.63102  0.93477  1.0000
  H   H2882     1.0  0.51280  0.35085  0.97183  1.0000
  C   C2396     1.0  0.71099  0.37992  0.92947  1.0000
  Fe  Fe321     1.0  0.62022  0.61514  0.78259  1.0000
  H   H2883     1.0  0.57083  0.60834  0.95819  1.0000
  C   C2397     1.0  0.57338  0.44754  0.76377  1.0000
  C   C2398     1.0  0.92891  0.40327  0.97289  1.0000
  H   H2884     1.0  0.80391  0.61855  0.94683  1.0000
  H   H2885     1.0  0.99242  0.38399  0.96323  1.0000
  C   C2399     1.0  0.56724  0.38096  0.91559  1.0000
  H   H2886     1.0  0.97510  0.65773  0.95583  1.0000
  H   H2887     1.0  0.74528  0.59578  0.94973  1.0000
  H   H2888     1.0  0.72957  0.40819  0.90419  1.0000
  C   C2400     1.0  0.52041  0.33403  0.74533  1.0000
  C   C2401     1.0  0.87483  0.65640  0.94878  1.0000
  C   C2402     1.0  0.97193  0.32703  0.95199  1.0000
  C   C2403     1.0  0.61902  0.43750  0.75795  1.0000
  H   H2889     1.0  0.75953  0.63898  0.75293  1.0000
  H   H2890     1.0  0.58045  0.33777  0.93385  1.0000
  H   H2891     1.0  0.58294  0.63148  0.87125  1.0000
  H   H2892     1.0  0.77446  0.62445  0.94087  1.0000
  H   H2893     1.0  0.51381  0.63266  0.98644  1.0000
  C   C2404     1.0  0.67733  0.63909  0.80337  1.0000
  N   N162      1.0  0.69707  0.40355  0.92160  1.0000
  N   N163      1.0  0.69922  0.63581  0.81063  1.0000
  C   C2405     1.0  0.97364  0.39687  0.96345  1.0000
  H   H2894     1.0  0.55559  0.44247  0.77008  1.0000
  C   C2406     1.0  0.59630  0.47557  0.74372  1.0000
  H   H2895     1.0  0.65027  0.33848  0.95090  1.0000
  H   H2896     1.0  0.51261  0.63489  0.93793  1.0000
  H   H2897     1.0  0.72390  0.61456  0.79447  1.0000
  H   H2898     1.0  0.66750  0.62265  0.80730  1.0000
  H   H2899     1.0  0.75261  0.56671  0.96228  1.0000
  H   H2900     1.0  0.55099  0.63163  0.87087  1.0000
  H   H2901     1.0  0.74730  0.35664  0.95647  1.0000
  H   H2902     1.0  0.73547  0.61096  0.81121  1.0000
  C   C2407     1.0  0.58603  0.58685  0.74034  1.0000
  C   C2408     1.0  0.71087  0.65862  0.80543  1.0000
  H   H2903     1.0  0.63741  0.46294  0.74063  1.0000
  H   H2904     1.0  0.86514  0.63586  0.97731  1.0000
  H   H2905     1.0  0.71023  0.59564  0.81099  1.0000
  H   H2906     1.0  0.86229  0.64218  0.95208  1.0000
  H   H2907     1.0  0.56896  0.65132  0.85629  1.0000
  H   H2908     1.0  0.91124  0.34545  0.94667  1.0000
  H   H2909     1.0  0.97434  0.41234  0.96896  1.0000
  H   H2910     1.0  0.59874  0.52270  0.74595  1.0000
  H   H2911     1.0  0.76302  0.58997  0.98016  1.0000
  H   H2912     1.0  0.53541  0.35381  0.75800  1.0000
  H   H2913     1.0  0.52042  0.38537  0.73926  1.0000
  C   C2409     1.0  0.55088  0.65459  0.89281  1.0000
  C   C2410     1.0  0.92848  0.34573  0.95017  1.0000
  H   H2914     1.0  0.98971  0.34353  0.96390  1.0000
  H   H2915     1.0  0.75460  0.65663  0.92002  1.0000
  H   H2916     1.0  0.97487  0.35693  0.98617  1.0000
  C   C2411     1.0  0.56291  0.58411  0.73778  1.0000
  C   C2412     1.0  0.95002  0.32743  0.94704  1.0000
  C   C2413     1.0  0.63972  0.81465  0.20678  1.0000
  C   C2414     1.0  0.52261  0.84041  0.02582  1.0000
  C   C2415     1.0  0.80633  0.70242  0.10949  1.0000
  S   S645      1.0  0.65743  0.88827  0.01715  1.0000
  H   H2917     1.0  0.71940  0.78155  0.01919  1.0000
  C   C2416     1.0  0.81957  0.67802  0.22784  1.0000
  S   S646      1.0  0.62400  0.85149  0.01039  1.0000
  H   H2918     1.0  0.70120  0.69872  0.16540  1.0000
  Fe  Fe322     1.0  0.61772  0.88106  0.02412  1.0000
  S   S647      1.0  0.59659  0.87457  0.04761  1.0000
  Fe  Fe323     1.0  0.66248  0.86138  0.00178  1.0000
  C   C2417     1.0  0.52355  0.81711  0.19059  1.0000
  S   S648      1.0  0.60193  0.91295  0.00734  1.0000
  C   C2418     1.0  0.90612  0.69697  0.12926  1.0000
  H   H2919     1.0  0.58493  0.68733  0.11227  1.0000
  N   N164      1.0  0.78138  0.72659  0.12986  1.0000
  C   C2419     1.0  0.66553  0.77548  0.01431  1.0000
  Fe  Fe324     1.0  0.63443  0.73350  0.13337  1.0000
  C   C2420     1.0  0.86828  0.70546  0.14789  1.0000
  S   S649      1.0  0.66659  0.71300  0.14531  1.0000
  Fe  Fe325     1.0  0.61844  0.75516  0.10370  1.0000
  S   S650      1.0  0.57748  0.76652  0.11390  1.0000
  S   S651      1.0  0.63506  0.76315  0.07930  1.0000
  Fe  Fe326     1.0  0.59249  0.77962  0.13019  1.0000
  S   S652      1.0  0.57305  0.81587  0.13809  1.0000
  Fe  Fe327     1.0  0.61135  0.88393  0.99288  1.0000
  H   H2920     1.0  0.89096  0.75940  0.13114  1.0000
  S   S653      1.0  0.63312  0.77177  0.11865  1.0000
  S   S654      1.0  0.62289  0.71588  0.11746  1.0000
  Fe  Fe328     1.0  0.63363  0.94235  0.17778  1.0000
  S   S655      1.0  0.65625  0.90327  0.18272  1.0000
  H   H2921     1.0  0.88462  0.66888  0.14215  1.0000
  Fe  Fe329     1.0  0.58448  0.92286  0.18581  1.0000
  S   S656      1.0  0.60328  0.88219  0.19137  1.0000
  S   S657      1.0  0.54215  0.93160  0.18742  1.0000
  Fe  Fe330     1.0  0.62641  0.89680  0.20277  1.0000
  H   H2922     1.0  0.85003  0.66405  0.20101  1.0000
  Fe  Fe331     1.0  0.63166  0.89196  0.17094  1.0000
  S   S658      1.0  0.65066  0.86301  0.15695  1.0000
  S   S659      1.0  0.60518  0.93704  0.19907  1.0000
  S   S660      1.0  0.61121  0.93152  0.16406  1.0000
  Fe  Fe332     1.0  0.80518  0.77033  0.18627  1.0000
  S   S661      1.0  0.82001  0.80379  0.18794  1.0000
  C   C2421     1.0  0.54128  0.80760  0.17870  1.0000
  S   S662      1.0  0.80261  0.76310  0.16441  1.0000
  C   C2422     1.0  0.68380  0.73087  0.15091  1.0000
  C   C2423     1.0  0.68227  0.75675  0.14520  1.0000
  H   H2923     1.0  0.76689  0.72112  0.15332  1.0000
  Fe  Fe333     1.0  0.58289  0.72860  0.12892  1.0000
  C   C2424     1.0  0.71473  0.73235  0.16515  1.0000
  C   C2425     1.0  0.70006  0.71872  0.16090  1.0000
  H   H2924     1.0  0.66989  0.76624  0.13748  1.0000
  H   H2925     1.0  0.68305  0.79660  0.17754  1.0000
  C   C2426     1.0  0.70697  0.77413  0.02963  1.0000
  C   C2427     1.0  0.79391  0.67686  0.23275  1.0000
  C   C2428     1.0  0.59378  0.82792  0.14479  1.0000
  C   C2429     1.0  0.61829  0.81430  0.14562  1.0000
  C   C2430     1.0  0.63560  0.82505  0.14959  1.0000
  C   C2431     1.0  0.62817  0.84904  0.15328  1.0000
  C   C2432     1.0  0.60324  0.86221  0.15321  1.0000
  C   C2433     1.0  0.58617  0.85181  0.14870  1.0000
  H   H2926     1.0  0.62403  0.79555  0.14309  1.0000
  H   H2927     1.0  0.65478  0.81479  0.14977  1.0000
  H   H2928     1.0  0.59748  0.88088  0.15597  1.0000
  H   H2929     1.0  0.56731  0.86252  0.14788  1.0000
  Fe  Fe334     1.0  0.64227  0.91793  0.99903  1.0000
  H   H2930     1.0  0.68995  0.73945  0.05232  1.0000
  H   H2931     1.0  0.52840  0.85894  0.21039  1.0000
  H   H2932     1.0  0.54356  0.88110  0.01978  1.0000
  H   H2933     1.0  0.61215  0.75367  0.03240  1.0000
  H   H2934     1.0  0.64390  0.92589  0.21553  1.0000
  C   C2434     1.0  0.81824  0.83016  0.20943  1.0000
  C   C2435     1.0  0.81137  0.80974  0.20600  1.0000
  H   H2935     1.0  0.65610  0.78246  0.18771  1.0000
  H   H2936     1.0  0.82973  0.84184  0.20099  1.0000
  H   H2937     1.0  0.86906  0.69552  0.09364  1.0000
  H   H2938     1.0  0.55923  0.84865  0.18244  1.0000
  C   C2436     1.0  0.82919  0.69449  0.10020  1.0000
  C   C2437     1.0  0.50735  0.66763  0.05294  1.0000
  C   C2438     1.0  0.78887  0.79987  0.23123  1.0000
  S   S663      1.0  0.54981  0.70827  0.13641  1.0000
  H   H2939     1.0  0.73362  0.78753  0.99173  1.0000
  H   H2940     1.0  0.81040  0.74934  0.23629  1.0000
  H   H2941     1.0  0.75754  0.76174  0.13481  1.0000
  H   H2942     1.0  0.56474  0.85826  0.00993  1.0000
  C   C2439     1.0  0.50111  0.88980  0.23045  1.0000
  H   H2943     1.0  0.55672  0.77635  0.16730  1.0000
  C   C2440     1.0  0.53897  0.85779  0.18252  1.0000
  C   C2441     1.0  0.68169  0.74241  0.04225  1.0000
  H   H2944     1.0  0.53687  0.87700  0.18498  1.0000
  H   H2945     1.0  0.51574  0.71034  0.02013  1.0000
  C   C2442     1.0  0.52615  0.91686  0.20436  1.0000
  N   N165      1.0  0.52155  0.84267  0.19352  1.0000
  C   C2443     1.0  0.54217  0.66363  0.06633  1.0000
  H   H2946     1.0  0.79044  0.76174  0.13149  1.0000
  H   H2947     1.0  0.96953  0.78394  0.12910  1.0000
  H   H2948     1.0  0.55914  0.90467  0.21450  1.0000
  H   H2949     1.0  0.85654  0.74416  0.15090  1.0000
  H   H2950     1.0  0.66373  0.75643  0.04386  1.0000
  H   H2951     1.0  0.91998  0.68361  0.12347  1.0000
  C   C2444     1.0  0.72289  0.73074  0.02766  1.0000
  H   H2952     1.0  0.57308  0.86574  0.02533  1.0000
  H   H2953     1.0  0.71873  0.71205  0.02762  1.0000
  C   C2445     1.0  0.70912  0.74765  0.21379  1.0000
  H   H2954     1.0  0.71732  0.77099  0.03886  1.0000
  H   H2955     1.0  0.52732  0.83876  0.01396  1.0000
  H   H2956     1.0  0.83505  0.72181  0.23666  1.0000
  C   C2446     1.0  0.60722  0.84371  0.05643  1.0000
  C   C2447     1.0  0.59367  0.83375  0.07017  1.0000
  C   C2448     1.0  0.60216  0.80898  0.07729  1.0000
  C   C2449     1.0  0.62431  0.79429  0.07075  1.0000
  C   C2450     1.0  0.63801  0.80448  0.05714  1.0000
  C   C2451     1.0  0.62945  0.82911  0.04994  1.0000
  H   H2957     1.0  0.57653  0.84508  0.07526  1.0000
  H   H2958     1.0  0.59145  0.80126  0.08777  1.0000
  H   H2959     1.0  0.65552  0.79356  0.05228  1.0000
  H   H2960     1.0  0.64034  0.83694  0.03951  1.0000
  C   C2452     1.0  0.53558  0.85009  0.04598  1.0000
  C   C2453     1.0  0.97300  0.77285  0.12020  1.0000
  H   H2961     1.0  0.67569  0.81216  0.22479  1.0000
  C   C2454     1.0  0.79903  0.66216  0.99636  1.0000
  H   H2962     1.0  0.52649  0.83541  0.05428  1.0000
  H   H2963     1.0  0.71150  0.72575  0.00416  1.0000
  C   C2455     1.0  0.67792  0.87800  0.23680  1.0000
  C   C2456     1.0  0.79579  0.82012  0.23470  1.0000
  C   C2457     1.0  0.63616  0.97123  0.01795  1.0000
  S   S664      1.0  0.98811  0.70540  0.08191  1.0000
  H   H2964     1.0  0.52875  0.74849  0.18412  1.0000
  H   H2965     1.0  0.52134  0.86808  0.04528  1.0000
  H   H2966     1.0  0.53907  0.68431  0.06606  1.0000
  N   N166      1.0  0.63471  0.85517  0.09624  1.0000
  C   C2458     1.0  0.64086  0.85531  0.08009  1.0000
  C   C2459     1.0  0.65384  0.83500  0.10311  1.0000
  C   C2460     1.0  0.60936  0.84843  0.10215  1.0000
  C   C2461     1.0  0.63441  0.87985  0.09986  1.0000
  C   C2462     1.0  0.63450  0.90259  0.08907  1.0000
  C   C2463     1.0  0.63294  0.88186  0.11470  1.0000
  C   C2464     1.0  0.63391  0.92559  0.09299  1.0000
  C   C2465     1.0  0.63244  0.90486  0.11850  1.0000
  C   C2466     1.0  0.63298  0.92671  0.10766  1.0000
  H   H2967     1.0  0.65929  0.86131  0.07488  1.0000
  H   H2968     1.0  0.64238  0.83621  0.07772  1.0000
  H   H2969     1.0  0.62581  0.86793  0.07429  1.0000
  H   H2970     1.0  0.67267  0.84069  0.10039  1.0000
  H   H2971     1.0  0.65633  0.81686  0.09929  1.0000
  H   H2972     1.0  0.64830  0.83021  0.11535  1.0000
  H   H2973     1.0  0.60352  0.84795  0.11425  1.0000
  H   H2974     1.0  0.59450  0.86235  0.09680  1.0000
  H   H2975     1.0  0.60896  0.82936  0.10041  1.0000
  H   H2976     1.0  0.63489  0.90316  0.07754  1.0000
  H   H2977     1.0  0.63192  0.86562  0.12352  1.0000
  H   H2978     1.0  0.63404  0.94269  0.08458  1.0000
  H   H2979     1.0  0.63154  0.90566  0.12998  1.0000
  H   H2980     1.0  0.63249  0.94454  0.11067  1.0000
  H   H2981     1.0  0.62710  0.82809  0.19964  1.0000
  H   H2982     1.0  0.63887  0.82405  0.21610  1.0000
  C   C2467     1.0  0.69460  0.76532  0.20434  1.0000
  C   C2468     1.0  0.52764  0.84029  0.20828  1.0000
  H   H2983     1.0  0.78921  0.69450  0.14717  1.0000
  C   C2469     1.0  0.59113  0.78237  0.04480  1.0000
  H   H2984     1.0  0.56876  0.81260  0.05480  1.0000
  H   H2985     1.0  0.69049  0.78968  0.03162  1.0000
  S   S665      1.0  0.84358  0.69410  0.16130  1.0000
  C   C2470     1.0  0.50771  0.80065  0.19999  1.0000
  Fe  Fe335     1.0  0.95814  0.70074  0.10241  1.0000
  C   C2471     1.0  0.50955  0.77623  0.19763  1.0000
  H   H2986     1.0  0.52126  0.75641  0.14602  1.0000
  C   C2472     1.0  0.88620  0.68855  0.14003  1.0000
  H   H2987     1.0  0.77546  0.76369  0.11622  1.0000
  C   C2473     1.0  0.57376  0.80529  0.04470  1.0000
  C   C2474     1.0  0.49976  0.66226  0.07962  1.0000
  C   C2475     1.0  0.69017  0.91806  0.23517  1.0000
  H   H2988     1.0  0.51442  0.82370  0.03230  1.0000
  C   C2476     1.0  0.98210  0.72006  0.01872  1.0000
  H   H2989     1.0  0.95760  0.76164  0.12309  1.0000
  C   C2477     1.0  0.52729  0.76744  0.18594  1.0000
  H   H2990     1.0  0.73219  0.72786  0.03732  1.0000
  H   H2991     1.0  0.69410  0.75994  0.19418  1.0000
  C   C2478     1.0  0.55707  0.86268  0.02116  1.0000
  H   H2992     1.0  0.50411  0.79287  0.15864  1.0000
  H   H2993     1.0  0.82984  0.68240  0.09257  1.0000
  H   H2994     1.0  0.68305  0.98035  0.19946  1.0000
  S   S666      1.0  0.65976  0.97056  0.17062  1.0000
  S   S667      1.0  0.77749  0.71399  0.18355  1.0000
  H   H2995     1.0  0.53555  0.69141  0.04152  1.0000
  N   N167      1.0  0.54498  0.84232  0.03136  1.0000
  S   S668      1.0  0.64183  0.87307  0.22261  1.0000
  C   C2479     1.0  0.50206  0.75874  0.15242  1.0000
  C   C2480     1.0  0.78445  0.71554  0.14531  1.0000
  C   C2481     1.0  0.69537  0.74120  0.00421  1.0000
  N   N168      1.0  0.74467  0.87569  0.19949  1.0000
  C   C2482     1.0  0.77109  0.88000  0.19565  1.0000
  C   C2483     1.0  0.72763  0.89998  0.20212  1.0000
  C   C2484     1.0  0.74154  0.85716  0.21364  1.0000
  C   C2485     1.0  0.73955  0.86572  0.18748  1.0000
  C   C2486     1.0  0.72207  0.87960  0.17822  1.0000
  C   C2487     1.0  0.75290  0.84169  0.18443  1.0000
  C   C2488     1.0  0.71792  0.86965  0.16689  1.0000
  C   C2489     1.0  0.74878  0.83204  0.17300  1.0000
  C   C2490     1.0  0.73126  0.84594  0.16428  1.0000
  H   H2996     1.0  0.77616  0.88648  0.20467  1.0000
  H   H2997     1.0  0.78506  0.86254  0.19364  1.0000
  H   H2998     1.0  0.77401  0.89448  0.18537  1.0000
  H   H2999     1.0  0.73011  0.91551  0.19236  1.0000
  H   H3000     1.0  0.73153  0.90656  0.21149  1.0000
  H   H3001     1.0  0.70735  0.89805  0.20502  1.0000
  H   H3002     1.0  0.75575  0.83931  0.21333  1.0000
  H   H3003     1.0  0.74403  0.86464  0.22305  1.0000
  H   H3004     1.0  0.72230  0.85234  0.21649  1.0000
  H   H3005     1.0  0.71134  0.89820  0.17949  1.0000
  H   H3006     1.0  0.76694  0.83025  0.19073  1.0000
  H   H3007     1.0  0.70413  0.88033  0.16013  1.0000
  H   H3008     1.0  0.75922  0.81363  0.17091  1.0000
  H   H3009     1.0  0.72781  0.83814  0.15561  1.0000
  H   H3010     1.0  0.78999  0.69585  0.10854  1.0000
  H   H3011     1.0  0.66970  0.95038  0.22234  1.0000
  H   H3012     1.0  0.82883  0.73624  0.12778  1.0000
  S   S669      1.0  0.50188  0.68875  0.98900  1.0000
  C   C2491     1.0  0.50713  0.69674  0.02894  1.0000
  C   C2492     1.0  0.57202  0.80656  0.01924  1.0000
  H   H3013     1.0  0.71900  0.72961  0.21082  1.0000
  H   H3014     1.0  0.55407  0.81863  0.17090  1.0000
  H   H3015     1.0  0.74112  0.72638  0.13511  1.0000
  H   H3016     1.0  0.87250  0.66959  0.18437  1.0000
  H   H3017     1.0  0.67637  0.72435  0.04203  1.0000
  H   H3018     1.0  0.82514  0.69430  0.22015  1.0000
  C   C2493     1.0  0.50029  0.91661  0.20622  1.0000
  H   H3019     1.0  0.98481  0.73170  0.10930  1.0000
  S   S670      1.0  0.65409  0.95600  0.99092  1.0000
  S   S671      1.0  0.76541  0.76581  0.19699  1.0000
  S   S672      1.0  0.78308  0.69337  0.99167  1.0000
  S   S673      1.0  0.82291  0.73028  0.19463  1.0000
  H   H3020     1.0  0.65183  0.81459  0.17814  1.0000
  C   C2494     1.0  0.54305  0.78312  0.17649  1.0000
  H   H3021     1.0  0.62161  0.98471  0.03853  1.0000
  H   H3022     1.0  0.63139  0.79737  0.21143  1.0000
  H   H3023     1.0  0.99718  0.80894  0.11396  1.0000
  H   H3024     1.0  0.65793  0.78727  0.02255  1.0000
  N   N169      1.0  0.66592  0.80831  0.19839  1.0000
  H   H3025     1.0  0.72316  0.73955  0.23405  1.0000
  C   C2495     1.0  0.65748  0.91629  0.22249  1.0000
  C   C2496     1.0  0.65039  0.97590  0.00361  1.0000
  C   C2497     1.0  0.66420  0.79995  0.18492  1.0000
  C   C2498     1.0  0.67690  0.83155  0.19349  1.0000
  H   H3026     1.0  0.66663  0.84590  0.18546  1.0000
  H   H3027     1.0  0.67610  0.84093  0.20279  1.0000
  H   H3028     1.0  0.97505  0.74088  0.01708  1.0000
  C   C2499     1.0  0.85072  0.71713  0.11062  1.0000
  H   H3029     1.0  0.69708  0.82707  0.18801  1.0000
  H   H3030     1.0  0.76043  0.69817  0.12989  1.0000
  C   C2500     1.0  0.77607  0.75460  0.12796  1.0000
  C   C2501     1.0  0.68166  0.78915  0.20799  1.0000
  H   H3031     1.0  0.73721  0.73582  0.01754  1.0000
  H   H3032     1.0  0.54645  0.82786  0.20922  1.0000
  Fe  Fe336     1.0  0.81643  0.72245  0.17381  1.0000
  C   C2502     1.0  0.68696  0.75561  0.01567  1.0000
  C   C2503     1.0  0.68469  0.79428  0.22141  1.0000
  C   C2504     1.0  0.65414  0.78138  0.00192  1.0000
  H   H3033     1.0  0.72694  0.72289  0.17299  1.0000
  C   C2505     1.0  0.56351  0.81806  0.03189  1.0000
  H   H3034     1.0  0.56555  0.81539  0.00899  1.0000
  C   C2506     1.0  0.71352  0.75809  0.15919  1.0000
  S   S674      1.0  0.69672  0.82984  0.00048  1.0000
  C   C2507     1.0  0.56916  0.67750  0.11576  1.0000
  C   C2508     1.0  0.67220  0.93019  0.22632  1.0000
  C   C2509     1.0  0.69723  0.77026  0.14926  1.0000
  S   S675      1.0  0.59478  0.74272  0.14612  1.0000
  H   H3035     1.0  0.55118  0.85386  0.05027  1.0000
  H   H3036     1.0  0.63876  0.79754  0.00078  1.0000
  S   S676      1.0  0.73243  0.77565  0.16357  1.0000
  S   S677      1.0  0.94564  0.66956  0.09630  1.0000
  H   H3037     1.0  0.97035  0.78597  0.10957  1.0000
  C   C2510     1.0  0.52669  0.89098  0.22886  1.0000
  C   C2511     1.0  0.75869  0.71910  0.12754  1.0000
  H   H3038     1.0  0.69641  0.79015  0.14457  1.0000
  Fe  Fe337     1.0  0.78286  0.72490  0.20380  1.0000
  H   H3039     1.0  0.59870  0.77300  0.05472  1.0000
  H   H3040     1.0  0.68985  0.98742  0.22300  1.0000
  C   C2512     1.0  0.66013  0.89025  0.22778  1.0000
  H   H3041     1.0  0.75519  0.72683  0.11609  1.0000
  C   C2513     1.0  0.88977  0.73958  0.13368  1.0000
  Fe  Fe338     1.0  0.76402  0.75543  0.17580  1.0000
  C   C2514     1.0  0.87019  0.73099  0.14481  1.0000
  H   H3042     1.0  0.53507  0.86079  0.17116  1.0000
  C   C2515     1.0  0.90774  0.72255  0.12586  1.0000
  C   C2516     1.0  0.53925  0.90431  0.21579  1.0000
  H   H3043     1.0  0.79185  0.77855  0.21452  1.0000
  C   C2517     1.0  0.79681  0.79457  0.21696  1.0000
  C   C2518     1.0  0.80508  0.71808  0.11968  1.0000
  S   S678      1.0  0.77048  0.70211  0.22644  1.0000
  C   C2519     1.0  0.81027  0.83550  0.22377  1.0000
  C   C2520     1.0  0.58912  0.78347  0.01952  1.0000
  C   C2521     1.0  0.52910  0.67122  0.13176  1.0000
  S   S679      1.0  0.97728  0.66896  0.05385  1.0000
  C   C2522     1.0  0.82806  0.72500  0.12004  1.0000
  C   C2523     1.0  0.69947  0.77656  0.23069  1.0000
  N   N170      1.0  0.69953  0.75066  0.02853  1.0000
  C   C2524     1.0  0.59875  0.77146  0.03225  1.0000
  C   C2525     1.0  0.85133  0.70184  0.10076  1.0000
  C   C2526     1.0  0.54949  0.68410  0.12731  1.0000
  H   H3044     1.0  0.62762  0.95459  0.02163  1.0000
  H   H3045     1.0  0.97713  0.71228  0.03074  1.0000
  H   H3046     1.0  0.51385  0.67624  0.14071  1.0000
  S   S680      1.0  0.93156  0.73340  0.11149  1.0000
  H   H3047     1.0  0.82535  0.67216  0.00653  1.0000
  H   H3048     1.0  0.97104  0.71180  0.01327  1.0000
  H   H3049     1.0  0.79991  0.72185  0.14830  1.0000
  H   H3050     1.0  0.98347  0.72799  0.13651  1.0000
  H   H3051     1.0  0.50739  0.85756  0.02648  1.0000
  S   S681      1.0  0.98483  0.67539  0.11654  1.0000
  H   H3052     1.0  0.81590  0.85104  0.22647  1.0000
  C   C2527     1.0  0.71158  0.75326  0.22691  1.0000
  H   H3053     1.0  0.86802  0.72267  0.11111  1.0000
  C   C2528     1.0  0.68351  0.74707  0.99199  1.0000
  C   C2529     1.0  0.66329  0.76734  0.99073  1.0000
  H   H3054     1.0  0.59490  0.77490  0.00976  1.0000
  C   C2530     1.0  0.63273  0.98833  0.02748  1.0000
  Fe  Fe339     1.0  0.97825  0.67143  0.07714  1.0000
  C   C2531     1.0  0.51835  0.68559  0.04132  1.0000
  H   H3055     1.0  0.51325  0.83246  0.21748  1.0000
  S   S682      1.0  0.77827  0.89929  0.23664  1.0000
  N   N171      1.0  0.99854  0.75628  0.11888  1.0000
  C   C2532     1.0  0.73891  0.95475  0.36184  1.0000
  H   H3056     1.0  0.70308  0.78980  0.45740  1.0000
  H   H3057     1.0  0.72259  0.89704  0.37383  1.0000
  C   C2533     1.0  0.79757  0.96325  0.30759  1.0000
  C   C2534     1.0  0.76106  0.95650  0.29893  1.0000
  H   H3058     1.0  0.50624  0.95445  0.43223  1.0000
  C   C2535     1.0  0.58140  0.90715  0.34493  1.0000
  C   C2536     1.0  0.85303  0.96811  0.24771  1.0000
  Fe  Fe340     1.0  0.92724  0.85458  0.47385  1.0000
  S   S683      1.0  0.89289  0.95593  0.28043  1.0000
  N   N172      1.0  0.69833  0.78056  0.43747  1.0000
  C   C2537     1.0  0.79283  0.73948  0.26655  1.0000
  C   C2538     1.0  0.68945  0.93872  0.39693  1.0000
  S   S684      1.0  0.64203  0.96716  0.39530  1.0000
  C   C2539     1.0  0.87559  0.82093  0.47543  1.0000
  H   H3059     1.0  0.73359  0.75794  0.44274  1.0000
  S   S685      1.0  0.80026  0.88088  0.26777  1.0000
  H   H3060     1.0  0.78455  0.91867  0.36195  1.0000
  H   H3061     1.0  0.90522  0.97491  0.37254  1.0000
  S   S686      1.0  0.74074  0.87896  0.26779  1.0000
  H   H3062     1.0  0.75529  0.94990  0.29021  1.0000
  Fe  Fe341     1.0  0.76127  0.89690  0.27900  1.0000
  S   S687      1.0  0.75332  0.89322  0.30372  1.0000
  Fe  Fe342     1.0  0.77950  0.86552  0.25519  1.0000
  H   H3063     1.0  0.78376  0.75895  0.26176  1.0000
  S   S688      1.0  0.75789  0.93356  0.26280  1.0000
  C   C2540     1.0  0.83221  0.67986  0.38401  1.0000
  C   C2541     1.0  0.65589  0.73843  0.46523  1.0000
  C   C2542     1.0  0.71485  0.93507  0.39824  1.0000
  H   H3064     1.0  0.85252  0.74763  0.24994  1.0000
  H   H3065     1.0  0.69901  0.73854  0.42660  1.0000
  N   N173      1.0  0.58816  0.89347  0.33239  1.0000
  C   C2543     1.0  0.72458  0.95519  0.39986  1.0000
  C   C2544     1.0  0.70868  0.97878  0.40062  1.0000
  H   H3066     1.0  0.79353  0.73945  0.27821  1.0000
  C   C2545     1.0  0.57198  0.86560  0.32065  1.0000
  H   H3067     1.0  0.92003  0.68202  0.38114  1.0000
  H   H3068     1.0  0.85718  0.92782  0.47897  1.0000
  C   C2546     1.0  0.50835  0.91093  0.31413  1.0000
  H   H3069     1.0  0.81239  0.93990  0.47565  1.0000
  H   H3070     1.0  0.76091  0.90880  0.37771  1.0000
  S   S689      1.0  0.94679  0.88649  0.46136  1.0000
  Fe  Fe343     1.0  0.66039  0.88356  0.37910  1.0000
  S   S690      1.0  0.63203  0.89718  0.39816  1.0000
  S   S691      1.0  0.69300  0.85038  0.37928  1.0000
  Fe  Fe344     1.0  0.63601  0.92357  0.35615  1.0000
  S   S692      1.0  0.60533  0.94122  0.37290  1.0000
  S   S693      1.0  0.64088  0.93702  0.33156  1.0000
  Fe  Fe345     1.0  0.63668  0.93605  0.38543  1.0000
  Fe  Fe346     1.0  0.60294  0.90118  0.38418  1.0000
  S   S694      1.0  0.56702  0.88567  0.39386  1.0000
  S   S695      1.0  0.66751  0.92207  0.36756  1.0000
  S   S696      1.0  0.63104  0.88392  0.36628  1.0000
  C   C2547     1.0  0.68475  0.75947  0.44469  1.0000
  H   H3071     1.0  0.69704  0.81117  0.41861  1.0000
  H   H3072     1.0  0.74465  0.87228  0.36570  1.0000
  C   C2548     1.0  0.84264  0.94622  0.25096  1.0000
  H   H3073     1.0  0.72124  0.89251  0.35598  1.0000
  H   H3074     1.0  0.83353  0.99264  0.43588  1.0000
  N   N174      1.0  0.81860  0.73173  0.25800  1.0000
  Fe  Fe347     1.0  0.78794  0.73947  0.44350  1.0000
  S   S697      1.0  0.79283  0.76350  0.42079  1.0000
  S   S698      1.0  0.76982  0.70608  0.44566  1.0000
  Fe  Fe348     1.0  0.81699  0.76900  0.45487  1.0000
  S   S699      1.0  0.82487  0.79463  0.43289  1.0000
  S   S700      1.0  0.82731  0.77632  0.47492  1.0000
  Fe  Fe349     1.0  0.78417  0.79619  0.43248  1.0000
  S   S701      1.0  0.75762  0.83377  0.42861  1.0000
  Fe  Fe350     1.0  0.83296  0.75926  0.42339  1.0000
  S   S702      1.0  0.86385  0.75134  0.40370  1.0000
  S   S703      1.0  0.77561  0.77247  0.45507  1.0000
  S   S704      1.0  0.82869  0.73333  0.44559  1.0000
  H   H3075     1.0  0.80228  0.71916  0.24295  1.0000
  H   H3076     1.0  0.59906  0.90399  0.30856  1.0000
  C   C2549     1.0  0.77063  0.90584  0.36636  1.0000
  H   H3077     1.0  0.67733  0.70323  0.43841  1.0000
  S   S705      1.0  0.89516  0.87912  0.48636  1.0000
  C   C2550     1.0  0.69934  0.69217  0.48059  1.0000
  C   C2551     1.0  0.89541  0.71262  0.39110  1.0000
  C   C2552     1.0  0.83233  0.97163  0.31672  1.0000
  H   H3078     1.0  0.69181  0.78245  0.41553  1.0000
  H   H3079     1.0  0.86244  0.71739  0.27082  1.0000
  C   C2553     1.0  0.71163  0.84683  0.39250  1.0000
  C   C2554     1.0  0.70520  0.86287  0.40274  1.0000
  C   C2555     1.0  0.71994  0.85918  0.41354  1.0000
  C   C2556     1.0  0.74094  0.83931  0.41420  1.0000
  C   C2557     1.0  0.74771  0.82363  0.40374  1.0000
  C   C2558     1.0  0.73305  0.82740  0.39289  1.0000
  H   H3080     1.0  0.68864  0.87782  0.40250  1.0000
  H   H3081     1.0  0.71469  0.87143  0.42158  1.0000
  H   H3082     1.0  0.76414  0.80854  0.40403  1.0000
  H   H3083     1.0  0.73814  0.81508  0.38490  1.0000
  C   C2559     1.0  0.86394  0.97164  0.44714  1.0000
  H   H3084     1.0  0.95121  0.95462  0.43962  1.0000
  H   H3085     1.0  0.68201  0.92319  0.39564  1.0000
  N   N175      1.0  0.84739  0.68288  0.36877  1.0000
  H   H3086     1.0  0.56307  0.92077  0.34474  1.0000
  C   C2560     1.0  0.85280  0.70231  0.27130  1.0000
  H   H3087     1.0  0.73943  0.73427  0.46840  1.0000
  H   H3088     1.0  0.70682  0.81430  0.44143  1.0000
  H   H3089     1.0  0.85514  0.70507  0.42426  1.0000
  C   C2561     1.0  0.89567  0.81513  0.46391  1.0000
  C   C2562     1.0  0.89404  0.79846  0.45526  1.0000
  C   C2563     1.0  0.87269  0.78715  0.45830  1.0000
  C   C2564     1.0  0.85306  0.79213  0.47021  1.0000
  C   C2565     1.0  0.91737  0.95083  0.41478  1.0000
  H   H3090     1.0  0.83514  0.71545  0.38951  1.0000
  H   H3091     1.0  0.90948  0.79402  0.44627  1.0000
  H   H3092     1.0  0.87176  0.77404  0.45169  1.0000
  C   C2566     1.0  0.85444  0.80918  0.47871  1.0000
  N   N176      1.0  0.78897  0.95468  0.29624  1.0000
  C   C2567     1.0  0.85218  0.94152  0.46940  1.0000
  H   H3093     1.0  0.88093  0.66079  0.37660  1.0000
  C   C2568     1.0  0.83039  0.70650  0.26542  1.0000
  H   H3094     1.0  0.75159  0.95114  0.36952  1.0000
  S   S706      1.0  0.70924  0.93609  0.23890  1.0000
  H   H3095     1.0  0.78163  0.88608  0.36773  1.0000
  H   H3096     1.0  0.67573  0.80892  0.44990  1.0000
  H   H3097     1.0  0.52046  0.92633  0.41380  1.0000
  C   C2569     1.0  0.51648  0.92651  0.36800  1.0000
  C   C2570     1.0  0.53743  0.91920  0.37516  1.0000
  C   C2571     1.0  0.54112  0.89573  0.38469  1.0000
  C   C2572     1.0  0.52360  0.87986  0.38722  1.0000
  C   C2573     1.0  0.83193  0.68179  0.35815  1.0000
  H   H3098     1.0  0.79152  0.67051  0.42421  1.0000
  H   H3099     1.0  0.55062  0.93175  0.37337  1.0000
  H   H3100     1.0  0.52627  0.86176  0.39467  1.0000
  C   C2574     1.0  0.91464  0.96939  0.38232  1.0000
  C   C2575     1.0  0.72117  0.90354  0.31069  1.0000
  C   C2576     1.0  0.70618  0.92267  0.30217  1.0000
  C   C2577     1.0  0.68121  0.93257  0.30848  1.0000
  C   C2578     1.0  0.67123  0.92321  0.32325  1.0000
  C   C2579     1.0  0.68589  0.90329  0.33151  1.0000
  C   C2580     1.0  0.71086  0.89356  0.32525  1.0000
  H   H3101     1.0  0.71397  0.93024  0.29084  1.0000
  H   H3102     1.0  0.66982  0.94780  0.30202  1.0000
  H   H3103     1.0  0.67812  0.89546  0.34278  1.0000
  H   H3104     1.0  0.72221  0.87832  0.33174  1.0000
  H   H3105     1.0  0.66539  0.77313  0.46525  1.0000
  C   C2581     1.0  0.89830  0.66814  0.40235  1.0000
  C   C2582     1.0  0.83870  0.97820  0.44513  1.0000
  H   H3106     1.0  0.87497  0.95686  0.40302  1.0000
  H   H3107     1.0  0.51373  0.94463  0.36059  1.0000
  H   H3108     1.0  0.91634  0.94860  0.38606  1.0000
  H   H3109     1.0  0.54345  0.88571  0.35315  1.0000
  C   C2583     1.0  0.71049  0.67573  0.47070  1.0000
  H   H3110     1.0  0.58841  0.86567  0.31181  1.0000
  C   C2584     1.0  0.82683  0.94853  0.46758  1.0000
  H   H3111     1.0  0.57265  0.92530  0.31702  1.0000
  H   H3112     1.0  0.62038  0.86652  0.32382  1.0000
  C   C2585     1.0  0.87064  0.95357  0.45939  1.0000
  C   C2586     1.0  0.61296  0.87624  0.33340  1.0000
  H   H3113     1.0  0.66736  0.80134  0.42670  1.0000
  C   C2587     1.0  0.87452  0.95211  0.26859  1.0000
  C   C2588     1.0  0.86452  0.93003  0.27166  1.0000
  C   C2589     1.0  0.84846  0.92714  0.26292  1.0000
  H   H3114     1.0  0.93859  0.77397  0.48112  1.0000
  C   C2590     1.0  0.86886  0.97114  0.25655  1.0000
  C   C2591     1.0  0.56902  0.87876  0.33232  1.0000
  H   H3115     1.0  0.86916  0.91515  0.28084  1.0000
  H   H3116     1.0  0.84087  0.91004  0.26534  1.0000
  C   C2592     1.0  0.71976  0.94339  0.34445  1.0000
  S   S707      1.0  0.78799  0.97720  0.45425  1.0000
  C   C2593     1.0  0.70395  0.96722  0.34301  1.0000
  H   H3117     1.0  0.84069  0.72372  0.36389  1.0000
  C   C2594     1.0  0.81308  0.69470  0.40739  1.0000
  C   C2595     1.0  0.67361  0.96238  0.39743  1.0000
  H   H3118     1.0  0.76562  0.66774  0.48634  1.0000
  H   H3119     1.0  0.83770  0.95754  0.29701  1.0000
  H   H3120     1.0  0.60450  0.92486  0.31858  1.0000
  H   H3121     1.0  0.62775  0.88670  0.33367  1.0000
  S   S708      1.0  0.90122  0.94893  0.46303  1.0000
  H   H3122     1.0  0.59579  0.91843  0.34459  1.0000
  C   C2596     1.0  0.74249  0.70151  0.45908  1.0000
  H   H3123     1.0  0.86355  0.98378  0.39022  1.0000
  C   C2597     1.0  0.81653  0.73040  0.24287  1.0000
  H   H3124     1.0  0.91377  0.74466  0.47785  1.0000
  N   N177      1.0  0.90052  0.98347  0.39421  1.0000
  H   H3125     1.0  0.96881  0.67209  0.41553  1.0000
  Fe  Fe351     1.0  0.96779  0.87792  0.48003  1.0000
  H   H3126     1.0  0.87821  0.98105  0.43943  1.0000
  H   H3127     1.0  0.68977  0.97170  0.33608  1.0000
  C   C2598     1.0  0.82366  0.96353  0.30624  1.0000
  C   C2599     1.0  0.93054  0.94330  0.42649  1.0000
  C   C2600     1.0  0.59113  0.91264  0.31852  1.0000
  C   C2601     1.0  0.70972  0.71341  0.47966  1.0000
  H   H3128     1.0  0.51559  0.89443  0.28097  1.0000
  C   C2602     1.0  0.85667  0.70715  0.36378  1.0000
  C   C2603     1.0  0.67467  0.71891  0.44399  1.0000
  H   H3129     1.0  0.83429  0.75495  0.26757  1.0000
  C   C2604     1.0  0.91432  0.97608  0.40669  1.0000
  C   C2605     1.0  0.50141  0.92767  0.42042  1.0000
  H   H3130     1.0  0.77654  0.98548  0.34021  1.0000
  C   C2606     1.0  0.53243  0.85097  0.33140  1.0000
  C   C2607     1.0  0.78075  0.97125  0.32024  1.0000
  H   H3131     1.0  0.84276  0.68443  0.34654  1.0000
  H   H3132     1.0  0.93421  0.97346  0.37837  1.0000
  H   H3133     1.0  0.81442  0.69668  0.35871  1.0000
  H   H3134     1.0  0.75412  0.94418  0.30951  1.0000
  C   C2608     1.0  0.86983  0.66205  0.36796  1.0000
  H   H3135     1.0  0.80243  0.68672  0.26265  1.0000
  C   C2609     1.0  0.72299  0.97855  0.36035  1.0000
  S   S709      1.0  0.80356  0.98034  0.41222  1.0000
  H   H3136     1.0  0.75418  0.90349  0.33445  1.0000
  Fe  Fe352     1.0  0.74116  0.91403  0.25031  1.0000
  C   C2610     1.0  0.68317  0.98235  0.39944  1.0000
  C   C2611     1.0  0.87708  0.71928  0.40330  1.0000
  C   C2612     1.0  0.52911  0.86342  0.34308  1.0000
  H   H3137     1.0  0.80996  0.70882  0.41420  1.0000
  C   C2613     1.0  0.69576  0.79910  0.44706  1.0000
  C   C2614     1.0  0.51976  0.90567  0.30014  1.0000
  H   H3138     1.0  0.87655  0.98821  0.25411  1.0000
  H   H3139     1.0  0.64420  0.73764  0.47621  1.0000
  C   C2615     1.0  0.72585  0.77050  0.43315  1.0000
  C   C2616     1.0  0.68720  0.73910  0.43741  1.0000
  Fe  Fe353     1.0  0.79530  0.91628  0.25047  1.0000
  H   H3140     1.0  0.93210  0.92411  0.43279  1.0000
  C   C2617     1.0  0.65906  0.71858  0.45788  1.0000
  H   H3141     1.0  0.51244  0.86264  0.35179  1.0000
  N   N178      1.0  0.75219  0.91001  0.35645  1.0000
  H   H3142     1.0  0.94813  0.66277  0.40686  1.0000
  C   C2618     1.0  0.55391  0.85194  0.32024  1.0000
  C   C2619     1.0  0.54713  0.87693  0.34365  1.0000
  C   C2620     1.0  0.92565  0.99315  0.41094  1.0000
  H   H3143     1.0  0.72688  0.91666  0.39797  1.0000
  N   N179      1.0  0.78119  0.89720  0.43692  1.0000
  C   C2621     1.0  0.76469  0.88158  0.44821  1.0000
  C   C2622     1.0  0.76957  0.92417  0.43730  1.0000
  C   C2623     1.0  0.78112  0.89276  0.42208  1.0000
  C   C2624     1.0  0.80742  0.88996  0.43979  1.0000
  C   C2625     1.0  0.82078  0.86462  0.44015  1.0000
  C   C2626     1.0  0.82048  0.90744  0.44225  1.0000
  C   C2627     1.0  0.84546  0.85719  0.44294  1.0000
  C   C2628     1.0  0.84523  0.89975  0.44501  1.0000
  C   C2629     1.0  0.85764  0.87467  0.44543  1.0000
  H   H3144     1.0  0.77067  0.86111  0.44780  1.0000
  H   H3145     1.0  0.76490  0.88374  0.45957  1.0000
  H   H3146     1.0  0.74469  0.88685  0.44653  1.0000
  H   H3147     1.0  0.74990  0.92899  0.43506  1.0000
  H   H3148     1.0  0.78034  0.93702  0.42859  1.0000
  H   H3149     1.0  0.76853  0.92891  0.44825  1.0000
  H   H3150     1.0  0.78804  0.87259  0.42111  1.0000
  H   H3151     1.0  0.76166  0.89802  0.41950  1.0000
  H   H3152     1.0  0.79330  0.90418  0.41326  1.0000
  H   H3153     1.0  0.81219  0.85028  0.43831  1.0000
  H   H3154     1.0  0.81198  0.92712  0.44220  1.0000
  H   H3155     1.0  0.85516  0.83768  0.44324  1.0000
  H   H3156     1.0  0.85482  0.91330  0.44694  1.0000
  H   H3157     1.0  0.87674  0.86870  0.44773  1.0000
  H   H3158     1.0  0.61150  0.86143  0.34365  1.0000
  C   C2630     1.0  0.90579  0.68703  0.39052  1.0000
  C   C2631     1.0  0.68822  0.79440  0.42401  1.0000
  H   H3159     1.0  0.73017  0.75938  0.42423  1.0000
  H   H3160     1.0  0.85238  0.97189  0.31525  1.0000
  H   H3161     1.0  0.77947  0.91707  0.33635  1.0000
  H   H3162     1.0  0.55655  0.84201  0.31123  1.0000
  C   C2632     1.0  0.93904  0.98531  0.42256  1.0000
  C   C2633     1.0  0.82757  0.69825  0.39307  1.0000
  H   H3163     1.0  0.82375  0.77061  0.25085  1.0000
  C   C2634     1.0  0.80102  0.92786  0.29591  1.0000
  S   S710      1.0  0.78720  0.82475  0.25298  1.0000
  C   C2635     1.0  0.66848  0.75864  0.45881  1.0000
  H   H3164     1.0  0.77986  0.72673  0.26681  1.0000
  H   H3165     1.0  0.99506  0.70136  0.40202  1.0000
  C   C2636     1.0  0.80278  0.67299  0.41310  1.0000
  H   H3166     1.0  0.70707  0.88238  0.24718  1.0000
  S   S711      1.0  0.92354  0.82747  0.46038  1.0000
  C   C2637     1.0  0.73129  0.71809  0.46891  1.0000
  C   C2638     1.0  0.87472  0.97743  0.39926  1.0000
  C   C2639     1.0  0.73200  0.68040  0.45999  1.0000
  H   H3167     1.0  0.79542  0.91535  0.30668  1.0000
  H   H3168     1.0  0.79011  0.96440  0.27261  1.0000
  C   C2640     1.0  0.86936  0.70026  0.41492  1.0000
  H   H3169     1.0  0.79546  0.92084  0.28726  1.0000
  H   H3170     1.0  0.82202  0.92488  0.29344  1.0000
  C   C2641     1.0  0.73450  0.89225  0.36323  1.0000
  C   C2642     1.0  0.88016  0.67482  0.41453  1.0000
  H   H3171     1.0  0.71716  0.93021  0.33845  1.0000
  C   C2643     1.0  0.76668  0.90351  0.34208  1.0000
  H   H3172     1.0  0.64987  0.70260  0.46317  1.0000
  H   H3173     1.0  0.58027  0.89386  0.35581  1.0000
  S   S712      1.0  0.75692  0.95092  0.40022  1.0000
  Fe  Fe354     1.0  0.91050  0.99067  0.27337  1.0000
  C   C2644     1.0  0.82005  0.96705  0.45554  1.0000
  H   H3174     1.0  0.79176  0.69819  0.47274  1.0000
  C   C2645     1.0  0.81943  0.68508  0.26688  1.0000
  H   H3175     1.0  0.84392  0.98583  0.47911  1.0000
  C   C2646     1.0  0.73741  0.93619  0.35412  1.0000
  H   H3176     1.0  0.90150  0.72731  0.38209  1.0000
  H   H3177     1.0  0.77851  0.88412  0.34355  1.0000
  C   C2647     1.0  0.96534  0.67122  0.40457  1.0000
  Fe  Fe355     1.0  0.91655  0.91035  0.47515  1.0000
  C   C2648     1.0  0.50591  0.89851  0.29172  1.0000
  H   H3178     1.0  0.73692  0.78593  0.42894  1.0000
  H   H3179     1.0  0.78838  0.99062  0.28126  1.0000
  H   H3180     1.0  0.98778  0.96241  0.25520  1.0000
  H   H3181     1.0  0.86787  0.70891  0.35228  1.0000
  H   H3182     1.0  0.86945  0.70871  0.37085  1.0000
  C   C2649     1.0  0.83308  0.75193  0.25657  1.0000
  H   H3183     1.0  0.87662  0.83412  0.48192  1.0000
  C   C2650     1.0  0.83045  0.66097  0.27354  1.0000
  C   C2651     1.0  0.86366  0.67804  0.27794  1.0000
  C   C2652     1.0  0.79649  0.97020  0.28143  1.0000
  H   H3184     1.0  0.75070  0.97632  0.29894  1.0000
  C   C2653     1.0  0.94136  0.96050  0.43036  1.0000
  H   H3185     1.0  0.90960  0.93666  0.41213  1.0000
  H   H3186     1.0  0.82606  0.66322  0.36023  1.0000
  S   S713      1.0  0.82206  0.94342  0.24008  1.0000
  C   C2654     1.0  0.70539  0.98469  0.35106  1.0000
  H   H3187     1.0  0.96009  0.69078  0.39832  1.0000
  H   H3188     1.0  0.68007  0.85783  0.24091  1.0000
  H   H3189     1.0  0.81738  0.96832  0.27794  1.0000
  H   H3190     1.0  0.70159  0.78095  0.24085  1.0000
  H   H3191     1.0  0.72367  0.99196  0.36689  1.0000
  H   H3192     1.0  0.53946  0.90707  0.29580  1.0000
  H   H3193     1.0  0.84855  0.98288  0.23847  1.0000
  H   H3194     1.0  0.51831  0.84051  0.33106  1.0000
  C   C2655     1.0  0.69316  0.89189  0.24037  1.0000
  H   H3195     1.0  0.76060  0.97169  0.32228  1.0000
  H   H3196     1.0  0.77727  0.78828  0.23959  1.0000
  H   H3197     1.0  0.88085  0.67515  0.28226  1.0000
  H   H3198     1.0  0.98001  0.67647  0.37480  1.0000
  H   H3199     1.0  0.74051  0.66758  0.45237  1.0000
  H   H3200     1.0  0.86393  0.98705  0.40857  1.0000
  C   C2656     1.0  0.78967  0.97922  0.33071  1.0000
  Fe  Fe356     1.0  0.76548  0.98394  0.40675  1.0000
  C   C2657     1.0  0.81538  0.97949  0.32892  1.0000
  H   H3201     1.0  0.82220  0.98592  0.33697  1.0000
  C   C2658     1.0  0.78356  0.69841  0.48431  1.0000
  H   H3202     1.0  0.88280  0.66457  0.35698  1.0000
  H   H3203     1.0  0.79916  0.73036  0.48462  1.0000
  H   H3204     1.0  0.51902  0.91638  0.32072  1.0000
  C   C2659     1.0  0.50273  0.88715  0.38009  1.0000
  C   C2660     1.0  0.90729  0.75449  0.48709  1.0000
  H   H3205     1.0  0.53705  0.88090  0.23755  1.0000
  C   C2661     1.0  0.49919  0.91039  0.37037  1.0000
  S   S714      1.0  0.88541  0.83690  0.63455  1.0000
  H   H3206     1.0  0.99796  0.93599  0.52767  1.0000
  H   H3207     1.0  0.95402  0.91748  0.65124  1.0000
  H   H3208     1.0  0.93236  0.94477  0.62014  1.0000
  C   C2662     1.0  0.82909  0.80554  0.70210  1.0000
  C   C2663     1.0  0.80440  0.68075  0.62542  1.0000
  C   C2664     1.0  0.91212  0.90473  0.56007  1.0000
  S   S715      1.0  0.86731  0.94797  0.60420  1.0000
  Fe  Fe357     1.0  0.83597  0.71722  0.69921  1.0000
  S   S716      1.0  0.80407  0.75050  0.70136  1.0000
  S   S717      1.0  0.87477  0.71711  0.70313  1.0000
  Fe  Fe358     1.0  0.80650  0.69069  0.68585  1.0000
  S   S718      1.0  0.77235  0.72183  0.68704  1.0000
  H   H3209     1.0  0.52340  0.90978  0.72769  1.0000
  Fe  Fe359     1.0  0.80011  0.74801  0.67881  1.0000
  S   S719      1.0  0.79179  0.78278  0.66146  1.0000
  Fe  Fe360     1.0  0.77931  0.72136  0.70948  1.0000
  H   H3210     1.0  0.71515  0.68836  0.52968  1.0000
  S   S720      1.0  0.83396  0.71691  0.67587  1.0000
  S   S721      1.0  0.81154  0.68784  0.70915  1.0000
  C   C2665     1.0  0.88429  0.75175  0.49659  1.0000
  Fe  Fe361     1.0  0.92056  0.87102  0.50306  1.0000
  S   S722      1.0  0.90666  0.85787  0.52745  1.0000
  C   C2666     1.0  0.96357  0.91017  0.66089  1.0000
  H   H3211     1.0  0.75908  0.68420  0.67385  1.0000
  N   N180      1.0  0.67694  0.97925  0.63566  1.0000
  H   H3212     1.0  0.86217  0.83406  0.67013  1.0000
  H   H3213     1.0  0.83349  0.84765  0.68175  1.0000
  H   H3214     1.0  0.53717  0.81861  0.73417  1.0000
  S   S723      1.0  0.96823  0.99090  0.68071  1.0000
  C   C2667     1.0  0.99255  0.89206  0.71125  1.0000
  C   C2668     1.0  0.97758  0.66177  0.73506  1.0000
  C   C2669     1.0  0.89998  0.73214  0.72021  1.0000
  H   H3215     1.0  0.90735  0.84334  0.72178  1.0000
  H   H3216     1.0  0.84411  0.71401  0.64234  1.0000
  C   C2670     1.0  0.91536  0.90014  0.53470  1.0000
  C   C2671     1.0  0.88869  0.85282  0.70305  1.0000
  C   C2672     1.0  0.64879  0.98395  0.63792  1.0000
  H   H3217     1.0  0.91089  0.91250  0.68802  1.0000
  H   H3218     1.0  0.67667  0.98867  0.65658  1.0000
  S   S724      1.0  0.95108  0.84364  0.49144  1.0000
  C   C2673     1.0  0.95277  0.89133  0.72863  1.0000
  H   H3219     1.0  0.70536  0.99101  0.64315  1.0000
  C   C2674     1.0  0.85473  0.73532  0.72894  1.0000
  H   H3220     1.0  0.86013  0.77090  0.53798  1.0000
  C   C2675     1.0  0.92131  0.77092  0.48899  1.0000
  H   H3221     1.0  0.94150  0.81375  0.68140  1.0000
  S   S725      1.0  0.93913  0.90459  0.49292  1.0000
  H   H3222     1.0  0.90627  0.77540  0.53534  1.0000
  C   C2676     1.0  0.90833  0.87648  0.53980  1.0000
  C   C2677     1.0  0.90294  0.86713  0.55506  1.0000
  C   C2678     1.0  0.90482  0.88120  0.56517  1.0000
  H   H3223     1.0  0.89750  0.84885  0.55910  1.0000
  H   H3224     1.0  0.90123  0.87354  0.57690  1.0000
  C   C2679     1.0  0.85940  0.82169  0.64096  1.0000
  C   C2680     1.0  0.86320  0.79645  0.64835  1.0000
  C   C2681     1.0  0.84250  0.78430  0.65445  1.0000
  C   C2682     1.0  0.81795  0.79733  0.65315  1.0000
  C   C2683     1.0  0.81420  0.82239  0.64543  1.0000
  C   C2684     1.0  0.83490  0.83464  0.63940  1.0000
  H   H3225     1.0  0.88216  0.78636  0.64951  1.0000
  H   H3226     1.0  0.84560  0.76494  0.66027  1.0000
  H   H3227     1.0  0.79522  0.83251  0.64434  1.0000
  H   H3228     1.0  0.83189  0.85413  0.63365  1.0000
  C   C2685     1.0  0.50850  0.92751  0.70786  1.0000
  C   C2686     1.0  0.78767  0.71659  0.49097  1.0000
  H   H3229     1.0  0.66352  0.66128  0.70825  1.0000
  C   C2687     1.0  0.86743  0.78777  0.68673  1.0000
  S   S726      1.0  0.91682  0.92164  0.57246  1.0000
  H   H3230     1.0  0.58104  0.84773  0.72784  1.0000
  H   H3231     1.0  0.86967  0.85773  0.68533  1.0000
  H   H3232     1.0  0.87120  0.78659  0.71693  1.0000
  H   H3233     1.0  0.91911  0.90773  0.52301  1.0000
  S   S727      1.0  0.84923  0.90740  0.63418  1.0000
  Fe  Fe362     1.0  0.89274  0.91464  0.59533  1.0000
  C   C2688     1.0  0.87595  0.80509  0.71265  1.0000
  C   C2689     1.0  0.79393  0.72585  0.64838  1.0000
  S   S728      1.0  0.67259  0.68622  0.49420  1.0000
  Fe  Fe363     1.0  0.83835  0.92316  0.61200  1.0000
  C   C2690     1.0  0.68804  0.98726  0.61987  1.0000
  H   H3234     1.0  0.96360  0.88426  0.55405  1.0000
  H   H3235     1.0  0.81599  0.80088  0.69625  1.0000
  C   C2691     1.0  0.84531  0.82973  0.67869  1.0000
  H   H3236     1.0  0.71678  0.95283  0.61690  1.0000
  C   C2692     1.0  0.98403  0.89141  0.52453  1.0000
  H   H3237     1.0  0.86713  0.99029  0.61737  1.0000
  C   C2693     1.0  0.95881  0.95900  0.62815  1.0000
  H   H3238     1.0  0.99724  0.88665  0.51429  1.0000
  H   H3239     1.0  0.70641  0.94751  0.64161  1.0000
  H   H3240     1.0  0.82539  0.73847  0.61295  1.0000
  H   H3241     1.0  0.60576  0.81032  0.71965  1.0000
  C   C2694     1.0  0.99708  0.86554  0.71327  1.0000
  H   H3242     1.0  0.77572  0.73901  0.64697  1.0000
  H   H3243     1.0  0.72693  0.67828  0.66126  1.0000
  H   H3244     1.0  0.70199  0.66344  0.52736  1.0000
  H   H3245     1.0  0.94273  0.68777  0.73139  1.0000
  N   N181      1.0  0.74113  0.66260  0.51642  1.0000
  H   H3246     1.0  0.87330  0.77256  0.69593  1.0000
  H   H3247     1.0  0.56145  0.82023  0.71813  1.0000
  N   N182      1.0  0.87949  0.79803  0.52189  1.0000
  C   C2695     1.0  0.87285  0.82488  0.51471  1.0000
  C   C2696     1.0  0.85655  0.79116  0.53248  1.0000
  C   C2697     1.0  0.88905  0.78234  0.51033  1.0000
  H   H3248     1.0  0.91985  0.74486  0.73333  1.0000
  C   C2698     1.0  0.87519  0.76539  0.50807  1.0000
  C   C2699     1.0  0.50129  0.66965  0.72960  1.0000
  H   H3249     1.0  0.76638  0.98881  0.60104  1.0000
  S   S729      1.0  0.90864  0.89879  0.61613  1.0000
  C   C2700     1.0  0.89645  0.83708  0.71565  1.0000
  H   H3250     1.0  0.86551  0.83752  0.52297  1.0000
  H   H3251     1.0  0.88494  0.79129  0.67858  1.0000
  H   H3252     1.0  0.85052  0.80263  0.54136  1.0000
  S   S730      1.0  0.86267  0.89099  0.60149  1.0000
  H   H3253     1.0  0.89359  0.87139  0.69940  1.0000
  Fe  Fe364     1.0  0.87649  0.87752  0.62302  1.0000
  H   H3254     1.0  0.96834  0.88077  0.52673  1.0000
  H   H3255     1.0  0.85608  0.77960  0.68145  1.0000
  C   C2701     1.0  0.75708  0.70592  0.61886  1.0000
  H   H3256     1.0  0.96588  0.90942  0.68863  1.0000
  H   H3257     1.0  0.84698  0.69822  0.62744  1.0000
  C   C2702     1.0  0.87648  0.72874  0.71856  1.0000
  H   H3258     1.0  0.97817  0.87863  0.68441  1.0000
  H   H3259     1.0  0.85814  0.82764  0.50793  1.0000
  H   H3260     1.0  0.73847  0.71535  0.61659  1.0000
  C   C2703     1.0  0.71533  0.67650  0.52169  1.0000
  N   N183      1.0  0.80934  0.71903  0.63433  1.0000
  H   H3261     1.0  0.82215  0.66958  0.62807  1.0000
  C   C2704     1.0  0.77683  0.71720  0.50575  1.0000
  H   H3262     1.0  0.64245  0.97444  0.63070  1.0000
  C   C2705     1.0  0.78280  0.96338  0.61877  1.0000
  C   C2706     1.0  0.76667  0.68136  0.61642  1.0000
  C   C2707     1.0  0.93485  0.95408  0.62840  1.0000
  C   C2708     1.0  0.76848  0.68082  0.49236  1.0000
  H   H3263     1.0  0.94846  0.88473  0.69725  1.0000
  C   C2709     1.0  0.77112  0.71811  0.62450  1.0000
  H   H3264     1.0  0.83918  0.81325  0.48783  1.0000
  C   C2710     1.0  0.49975  0.88755  0.72334  1.0000
  C   C2711     1.0  0.78459  0.95927  0.63366  1.0000
  S   S731      1.0  0.98434  0.81902  0.72458  1.0000
  C   C2712     1.0  0.91742  0.91414  0.54481  1.0000
  C   C2713     1.0  0.91775  0.97286  0.65016  1.0000
  H   H3265     1.0  0.83373  0.82224  0.67317  1.0000
  H   H3266     1.0  0.98953  0.89160  0.55953  1.0000
  H   H3267     1.0  0.67617  0.94630  0.65323  1.0000
  C   C2714     1.0  0.76186  0.69961  0.51394  1.0000
  H   H3268     1.0  0.80410  0.73563  0.65341  1.0000
  N   N184      1.0  0.85273  0.81126  0.69185  1.0000
  C   C2715     1.0  0.94171  0.97729  0.65008  1.0000
  C   C2716     1.0  0.86794  0.82046  0.69970  1.0000
  C   C2717     1.0  0.71970  0.98058  0.59738  1.0000
  C   C2718     1.0  0.50053  0.69185  0.73487  1.0000
  H   H3269     1.0  0.88961  0.83183  0.50730  1.0000
  C   C2719     1.0  0.97980  0.89442  0.55007  1.0000
  C   C2720     1.0  0.91443  0.96060  0.63961  1.0000
  H   H3270     1.0  0.92328  0.79825  0.50080  1.0000
  C   C2721     1.0  0.95756  0.86486  0.73088  1.0000
  H   H3271     1.0  0.79690  0.75643  0.62204  1.0000
  H   H3272     1.0  0.78958  0.70871  0.65654  1.0000
  H   H3273     1.0  0.91596  0.80371  0.52396  1.0000
  H   H3274     1.0  0.78001  0.73149  0.51084  1.0000
  H   H3275     1.0  0.97070  0.92625  0.66264  1.0000
  H   H3276     1.0  0.92302  0.93235  0.54080  1.0000
  H   H3277     1.0  0.93540  0.90123  0.73445  1.0000
  H   H3278     1.0  0.76278  0.73710  0.62630  1.0000
  H   H3279     1.0  0.89577  0.80107  0.73036  1.0000
  C   C2722     1.0  0.70848  0.97169  0.61197  1.0000
  C   C2723     1.0  0.97943  0.85195  0.72297  1.0000
  N   N185      1.0  0.94637  0.89959  0.67425  1.0000
  H   H3280     1.0  0.75379  0.70084  0.52536  1.0000
  C   C2724     1.0  0.75719  0.68087  0.50749  1.0000
  C   C2725     1.0  0.76365  0.66945  0.66743  1.0000
  C   C2726     1.0  0.93796  0.87813  0.67126  1.0000
  C   C2727     1.0  0.94417  0.85280  0.67896  1.0000
  C   C2728     1.0  0.92370  0.88218  0.65997  1.0000
  C   C2729     1.0  0.93655  0.83293  0.67542  1.0000
  C   C2730     1.0  0.91617  0.86223  0.65658  1.0000
  C   C2731     1.0  0.92267  0.83763  0.66420  1.0000
  H   H3281     1.0  0.83283  0.78894  0.71110  1.0000
  Fe  Fe365     1.0  0.98726  0.95806  0.69563  1.0000
  H   H3282     1.0  0.85688  0.76288  0.51469  1.0000
  H   H3283     1.0  0.75547  0.67173  0.61240  1.0000
  C   C2732     1.0  0.79517  0.70585  0.62804  1.0000
  C   C2733     1.0  0.92415  0.91966  0.67794  1.0000
  C   C2734     1.0  0.90174  0.74209  0.73221  1.0000
  H   H3284     1.0  0.98712  0.84840  0.54381  1.0000
  H   H3285     1.0  0.51772  0.94352  0.70564  1.0000
  H   H3286     1.0  0.95494  0.84778  0.68775  1.0000
  H   H3287     1.0  0.91856  0.90082  0.65344  1.0000
  H   H3288     1.0  0.92998  0.93625  0.68003  1.0000
  H   H3289     1.0  0.90553  0.86587  0.64779  1.0000
  H   H3290     1.0  0.91704  0.82224  0.66128  1.0000
  H   H3291     1.0  0.93544  0.97088  0.73677  1.0000
  H   H3292     1.0  0.63998  0.97698  0.64960  1.0000
  Fe  Fe366     1.0  0.88028  0.92987  0.62560  1.0000
  H   H3293     1.0  0.89223  0.80619  0.53989  1.0000
  C   C2735     1.0  0.77068  0.97699  0.64242  1.0000
  S   S732      1.0  0.74497  0.72738  0.72738  1.0000
  C   C2736     1.0  0.83401  0.70357  0.63759  1.0000
  S   S733      1.0  0.79903  0.94099  0.60778  1.0000
  H   H3294     1.0  0.84003  0.79489  0.52691  1.0000
  H   H3295     1.0  0.91682  0.72724  0.71212  1.0000
  C   C2737     1.0  0.87477  0.84470  0.69508  1.0000
  C   C2738     1.0  0.55678  0.80966  0.72967  1.0000
  H   H3296     1.0  0.97955  0.95868  0.73405  1.0000
  H   H3297     1.0  0.98036  0.89558  0.65763  1.0000
  N   N186      1.0  0.99747  0.88529  0.53717  1.0000
  S   S734      1.0  0.99309  0.97270  0.64006  1.0000
  H   H3298     1.0  0.91316  0.92713  0.66890  1.0000
  H   H3299     1.0  0.94416  0.98624  0.65846  1.0000
  H   H3300     1.0  0.83656  0.73273  0.72776  1.0000
  C   C2739     1.0  0.81457  0.74259  0.62389  1.0000
  H   H3301     1.0  0.79626  0.94217  0.63849  1.0000
  H   H3302     1.0  0.81866  0.82196  0.70735  1.0000
  C   C2740     1.0  0.76743  0.98541  0.61261  1.0000
  C   C2741     1.0  0.96240  0.97000  0.63924  1.0000
  H   H3303     1.0  0.77188  0.97363  0.65398  1.0000
  S   S735      1.0  0.96180  0.93814  0.71464  1.0000
  H   H3304     1.0  0.97130  0.91488  0.54750  1.0000
  Fe  Fe367     1.0  0.50160  0.98634  0.67986  1.0000
  H   H3305     1.0  0.70711  0.68916  0.51226  1.0000
  C   C2742     1.0  0.51171  0.90836  0.72034  1.0000
  C   C2743     1.0  0.89004  0.81327  0.72045  1.0000
  S   S736      1.0  0.88496  0.95227  0.64149  1.0000
  C   C2744     1.0  0.97000  0.90500  0.71862  1.0000
  C   C2745     1.0  0.89933  0.79556  0.53063  1.0000
  H   H3306     1.0  0.82576  0.75263  0.62819  1.0000
  C   C2746     1.0  0.96029  0.89260  0.68668  1.0000
  C   C2747     1.0  0.79033  0.66888  0.61959  1.0000
  H   H3307     1.0  0.68148  0.93979  0.63497  1.0000
  C   C2748     1.0  0.91231  0.78480  0.50034  1.0000
  Fe  Fe368     1.0  0.99801  0.97734  0.66223  1.0000
  H   H3308     1.0  0.97475  0.95342  0.61968  1.0000
  H   H3309     1.0  0.83131  0.68604  0.64598  1.0000
  H   H3310     1.0  0.73576  0.96859  0.59174  1.0000
  H   H3311     1.0  0.97514  0.91174  0.52203  1.0000
  C   C2749     1.0  0.68567  0.95200  0.64154  1.0000
  C   C2750     1.0  0.60084  0.79933  0.73105  1.0000
  H   H3312     1.0  0.60206  0.77950  0.72987  1.0000
  H   H3313     1.0  0.90191  0.97823  0.65874  1.0000
  H   H3314     1.0  0.55622  0.78998  0.72913  1.0000
  C   C2751     1.0  0.74537  0.66594  0.66040  1.0000
  H   H3315     1.0  0.87292  0.73980  0.49463  1.0000
  H   H3316     1.0  0.83322  0.97867  0.63729  1.0000
  H   H3317     1.0  0.61581  0.79960  0.73707  1.0000
  H   H3318     1.0  0.70111  0.72619  0.48728  1.0000
  N   N187      1.0  0.57520  0.81004  0.73872  1.0000
  Fe  Fe369     1.0  0.88180  0.89140  0.88183  1.0000
  S   S737      1.0  0.92271  0.87328  0.88188  1.0000
  S   S738      1.0  0.86424  0.93320  0.87913  1.0000
  Fe  Fe370     1.0  0.86605  0.84068  0.88542  1.0000
  S   S739      1.0  0.90550  0.81859  0.88555  1.0000
  S   S740      1.0  0.83227  0.82311  0.88737  1.0000
  Fe  Fe371     1.0  0.90740  0.84384  0.90038  1.0000
  S   S741      1.0  0.92434  0.82966  0.92094  1.0000
  Fe  Fe372     1.0  0.91731  0.84952  0.86701  1.0000
  S   S742      1.0  0.94872  0.83696  0.84865  1.0000
  S   S743      1.0  0.86686  0.86395  0.90165  1.0000
  S   S744      1.0  0.87748  0.86972  0.86550  1.0000
  C   C2752     1.0  0.85337  0.82113  0.93556  1.0000
  Fe  Fe373     1.0  0.79300  0.70826  0.93712  1.0000
  S   S745      1.0  0.78037  0.73383  0.95355  1.0000
  S   S746      1.0  0.83161  0.71129  0.92329  1.0000
  Fe  Fe374     1.0  0.74742  0.68279  0.94865  1.0000
  S   S747      1.0  0.73144  0.70610  0.96635  1.0000
  H   H3319     1.0  0.55574  0.84699  0.74332  1.0000
  Fe  Fe375     1.0  0.74183  0.73842  0.94857  1.0000
  Fe  Fe376     1.0  0.77126  0.69938  0.96983  1.0000
  C   C2753     1.0  0.57881  0.67786  0.87420  1.0000
  S   S748      1.0  0.75497  0.71587  0.93042  1.0000
  S   S749      1.0  0.78675  0.67297  0.95382  1.0000
  C   C2754     1.0  0.90091  0.94824  0.88870  1.0000
  C   C2755     1.0  0.73288  0.70247  0.79455  1.0000
  Fe  Fe377     1.0  0.91705  0.77244  0.75938  1.0000
  S   S750      1.0  0.52771  0.78747  0.94923  1.0000
  C   C2756     1.0  0.55557  0.69181  0.93509  1.0000
  Fe  Fe378     1.0  0.93179  0.80572  0.77617  1.0000
  S   S751      1.0  0.97322  0.79588  0.76667  1.0000
  S   S752      1.0  0.91247  0.83482  0.79041  1.0000
  H   H3320     1.0  0.96838  0.68920  0.77042  1.0000
  H   H3321     1.0  0.90682  0.80162  0.83351  1.0000
  Fe  Fe379     1.0  0.96685  0.75613  0.77037  1.0000
  Fe  Fe380     1.0  0.50870  0.72576  0.97434  1.0000
  H   H3322     1.0  0.49942  0.83278  0.92663  1.0000
  S   S753      1.0  0.92635  0.76548  0.78200  1.0000
  H   H3323     1.0  0.91036  0.92861  0.89022  1.0000
  H   H3324     1.0  0.54100  0.79352  0.89220  1.0000
  H   H3325     1.0  0.53905  0.95086  0.86679  1.0000
  H   H3326     1.0  0.62689  0.74850  0.97149  1.0000
  H   H3327     1.0  0.61617  0.68116  0.93211  1.0000
  C   C2757     1.0  0.53261  0.70876  0.86672  1.0000
  C   C2758     1.0  0.52268  0.69345  0.73952  1.0000
  H   H3328     1.0  0.95479  0.98567  0.82717  1.0000
  S   S754      1.0  0.91959  0.81345  0.75427  1.0000
  H   H3329     1.0  0.58779  0.83785  0.74629  1.0000
  H   H3330     1.0  0.58793  0.74361  0.77917  1.0000
  C   C2759     1.0  0.85620  0.76724  0.81011  1.0000
  H   H3331     1.0  0.84817  0.98653  0.87772  1.0000
  C   C2760     1.0  0.76877  0.80432  0.93698  1.0000
  H   H3332     1.0  0.94398  0.85455  0.73849  1.0000
  C   C2761     1.0  0.81085  0.81378  0.93628  1.0000
  H   H3333     1.0  0.62077  0.77177  0.93167  1.0000
  S   S755      1.0  0.88116  0.76146  0.75770  1.0000
  H   H3334     1.0  0.68169  0.67584  0.75337  1.0000
  H   H3335     1.0  0.79029  0.85841  0.92002  1.0000
  H   H3336     1.0  0.86597  0.83410  0.93445  1.0000
  H   H3337     1.0  0.52294  0.70142  0.78695  1.0000
  N   N188      1.0  0.78371  0.82404  0.93570  1.0000
  H   H3338     1.0  0.84079  0.73801  0.82649  1.0000
  S   S756      1.0  0.55011  0.74116  0.92083  1.0000
  C   C2762     1.0  0.53100  0.81118  0.89559  1.0000
  H   H3339     1.0  0.60606  0.71583  0.94556  1.0000
  H   H3340     1.0  0.93603  0.96947  0.85944  1.0000
  H   H3341     1.0  0.87670  0.93640  0.93135  1.0000
  C   C2763     1.0  0.84765  0.94399  0.91849  1.0000
  C   C2764     1.0  0.54422  0.67419  0.73872  1.0000
  H   H3342     1.0  0.64574  0.71826  0.96834  1.0000
  S   S757      1.0  0.71438  0.77547  0.94624  1.0000
  C   C2765     1.0  0.53301  0.74740  0.75659  1.0000
  C   C2766     1.0  0.51565  0.85629  0.88960  1.0000
  H   H3343     1.0  0.79095  0.83216  0.91192  1.0000
  C   C2767     1.0  0.84933  0.75450  0.82456  1.0000
  H   H3344     1.0  0.61718  0.83507  0.98361  1.0000
  H   H3345     1.0  0.50387  0.70429  0.93465  1.0000
  C   C2768     1.0  0.53397  0.68230  0.87204  1.0000
  Fe  Fe381     1.0  0.53182  0.74950  0.94342  1.0000
  H   H3346     1.0  0.87164  0.75795  0.86249  1.0000
  C   C2769     1.0  0.72530  0.78197  0.97176  1.0000
  H   H3347     1.0  0.69572  0.71556  0.73942  1.0000
  C   C2770     1.0  0.58955  0.67361  0.91128  1.0000
  C   C2771     1.0  0.63086  0.69114  0.93202  1.0000
  S   S758      1.0  0.65055  0.89152  0.98293  1.0000
  H   H3348     1.0  0.83964  0.74999  0.74906  1.0000
  C   C2772     1.0  0.86313  0.79529  0.93721  1.0000
  S   S759      1.0  0.50405  0.86383  0.73902  1.0000
  H   H3349     1.0  0.67576  0.74446  0.95145  1.0000
  H   H3350     1.0  0.54237  0.69864  0.94430  1.0000
  H   H3351     1.0  0.74015  0.76548  0.97089  1.0000
  C   C2773     1.0  0.63060  0.73396  0.96450  1.0000
  C   C2774     1.0  0.57949  0.69962  0.91013  1.0000
  C   C2775     1.0  0.92630  0.72066  0.94680  1.0000
  H   H3352     1.0  0.58522  0.71275  0.90012  1.0000
  C   C2776     1.0  0.82764  0.83033  0.93511  1.0000
  C   C2777     1.0  0.83257  0.79210  0.89758  1.0000
  C   C2778     1.0  0.81005  0.78263  0.90154  1.0000
  C   C2779     1.0  0.80965  0.75794  0.90958  1.0000
  C   C2780     1.0  0.83201  0.74222  0.91320  1.0000
  C   C2781     1.0  0.85471  0.75142  0.90893  1.0000
  C   C2782     1.0  0.85489  0.77649  0.90140  1.0000
  H   H3353     1.0  0.79280  0.79447  0.89845  1.0000
  H   H3354     1.0  0.79210  0.75091  0.91272  1.0000
  H   H3355     1.0  0.87208  0.73932  0.91168  1.0000
  H   H3356     1.0  0.87235  0.78354  0.89842  1.0000
  C   C2783     1.0  0.93928  0.83706  0.83213  1.0000
  C   C2784     1.0  0.95411  0.82096  0.82258  1.0000
  C   C2785     1.0  0.94625  0.82014  0.80963  1.0000
  C   C2786     1.0  0.92383  0.83584  0.80607  1.0000
  C   C2787     1.0  0.90936  0.85229  0.81547  1.0000
  C   C2788     1.0  0.91692  0.85274  0.82852  1.0000
  H   H3357     1.0  0.97145  0.80879  0.82531  1.0000
  H   H3358     1.0  0.95747  0.80737  0.80243  1.0000
  H   H3359     1.0  0.89208  0.86457  0.81269  1.0000
  H   H3360     1.0  0.90561  0.86552  0.83565  1.0000
  C   C2789     1.0  0.94501  0.80008  0.92180  1.0000
  C   C2790     1.0  0.94239  0.78192  0.91449  1.0000
  H   H3361     1.0  0.56704  0.74627  0.73987  1.0000
  C   C2791     1.0  0.57993  0.85193  0.97900  1.0000
  H   H3362     1.0  0.93964  0.73345  0.94304  1.0000
  C   C2792     1.0  0.55223  0.76917  0.78294  1.0000
  H   H3363     1.0  0.92628  0.78501  0.90926  1.0000
  H   H3364     1.0  0.50984  0.74448  0.85839  1.0000
  S   S760      1.0  0.50269  0.76133  0.98307  1.0000
  S   S761      1.0  0.60067  0.70113  0.74874  1.0000
  C   C2793     1.0  0.98223  0.75585  0.92024  1.0000
  C   C2794     1.0  0.56255  0.70873  0.92209  1.0000
  C   C2795     1.0  0.87813  0.95542  0.88346  1.0000
  H   H3365     1.0  0.65955  0.66838  0.91838  1.0000
  H   H3366     1.0  0.87258  0.79837  0.79628  1.0000
  H   H3367     1.0  0.96324  0.82150  0.89259  1.0000
  C   C2796     1.0  0.52025  0.81142  0.91041  1.0000
  H   H3368     1.0  0.90887  0.77054  0.84444  1.0000
  H   H3369     1.0  0.56655  0.68227  0.77559  1.0000
  H   H3370     1.0  0.67815  0.81881  0.95445  1.0000
  C   C2797     1.0  0.55596  0.82298  0.97527  1.0000
  H   H3371     1.0  0.84791  0.75195  0.84738  1.0000
  H   H3372     1.0  0.85320  0.76067  0.80084  1.0000
  H   H3373     1.0  0.61282  0.72639  0.96687  1.0000
  H   H3374     1.0  0.97987  0.85982  0.88132  1.0000
  H   H3375     1.0  0.66630  0.76604  0.93527  1.0000
  H   H3376     1.0  0.88011  0.81326  0.81671  1.0000
  H   H3377     1.0  0.77389  0.82529  0.95891  1.0000
  H   H3378     1.0  0.91580  0.66956  0.97325  1.0000
  C   C2798     1.0  0.88953  0.70675  0.94413  1.0000
  C   C2799     1.0  0.91219  0.68439  0.96386  1.0000
  H   H3379     1.0  0.90436  0.79759  0.85297  1.0000
  H   H3380     1.0  0.65411  0.77349  0.95322  1.0000
  C   C2800     1.0  0.85886  0.81982  0.84633  1.0000
  C   C2801     1.0  0.60005  0.83175  0.98140  1.0000
  H   H3381     1.0  0.82106  0.85056  0.93368  1.0000
  C   C2802     1.0  0.99190  0.66236  0.75723  1.0000
  H   H3382     1.0  0.74850  0.81265  0.93641  1.0000
  H   H3383     1.0  0.72478  0.70708  0.81718  1.0000
  H   H3384     1.0  0.52323  0.89494  0.90863  1.0000
  C   C2803     1.0  0.51192  0.67265  0.87291  1.0000
  C   C2804     1.0  0.52047  0.73490  0.76987  1.0000
  C   C2805     1.0  0.51068  0.72427  0.86230  1.0000
  C   C2806     1.0  0.86588  0.98093  0.88170  1.0000
  C   C2807     1.0  0.92901  0.70128  0.95904  1.0000
  H   H3385     1.0  0.85212  0.92513  0.91597  1.0000
  C   C2808     1.0  0.65529  0.68391  0.92429  1.0000
  H   H3386     1.0  0.59857  0.75713  0.94632  1.0000
  C   C2809     1.0  0.70973  0.79076  0.96120  1.0000
  H   H3387     1.0  0.77607  0.79348  0.92786  1.0000
  H   H3388     1.0  0.75105  0.84492  0.94833  1.0000
  C   C2810     1.0  0.97081  0.68122  0.76063  1.0000
  C   C2811     1.0  0.55737  0.73648  0.75011  1.0000
  H   H3389     1.0  0.83800  0.82262  0.84711  1.0000
  H   H3390     1.0  0.98108  0.96385  0.75181  1.0000
  N   N189      1.0  0.55685  0.66519  0.87675  1.0000
  C   C2812     1.0  0.56794  0.79606  0.75397  1.0000
  C   C2813     1.0  0.85647  0.97506  0.92977  1.0000
  H   H3391     1.0  0.54818  0.71801  0.86585  1.0000
  H   H3392     1.0  0.76866  0.79088  0.94775  1.0000
  H   H3393     1.0  0.53090  0.82060  0.75862  1.0000
  C   C2814     1.0  0.61655  0.76435  0.94379  1.0000
  H   H3394     1.0  0.76128  0.84921  0.92034  1.0000
  H   H3395     1.0  0.96712  0.97709  0.85221  1.0000
  C   C2815     1.0  0.98074  0.97323  0.74009  1.0000
  H   H3396     1.0  0.84148  0.78004  0.86396  1.0000
  Fe  Fe382     1.0  0.54138  0.76543  0.96989  1.0000
  C   C2816     1.0  0.55799  0.84758  0.97577  1.0000
  C   C2817     1.0  0.73143  0.68777  0.78483  1.0000
  C   C2818     1.0  0.58383  0.77406  0.76044  1.0000
  C   C2819     1.0  0.70178  0.81533  0.98515  1.0000
  C   C2820     1.0  0.85652  0.74503  0.74101  1.0000
  N   N190      1.0  0.63802  0.74475  0.94859  1.0000
  H   H3397     1.0  0.61225  0.78065  0.94957  1.0000
  C   C2821     1.0  0.65949  0.75764  0.94702  1.0000
  C   C2822     1.0  0.64426  0.72427  0.93996  1.0000
  C   C2823     1.0  0.62531  0.71104  0.93971  1.0000
  C   C2824     1.0  0.66911  0.71622  0.93208  1.0000
  S   S762      1.0  0.99493  0.72367  0.78028  1.0000
  H   H3398     1.0  0.52436  0.76583  0.75151  1.0000
  H   H3399     1.0  0.84119  0.69744  0.95559  1.0000
  C   C2825     1.0  0.90661  0.72339  0.93935  1.0000
  H   H3400     1.0  0.84596  0.69361  0.97418  1.0000
  C   C2826     1.0  0.59803  0.80727  0.98082  1.0000
  H   H3401     1.0  0.81812  0.95694  0.90578  1.0000
  C   C2827     1.0  0.56533  0.66589  0.93617  1.0000
  H   H3402     1.0  0.52195  0.79383  0.91839  1.0000
  C   C2828     1.0  0.75352  0.67778  0.74149  1.0000
  H   H3403     1.0  0.68496  0.72468  0.93183  1.0000
  H   H3404     1.0  0.53681  0.83348  0.87361  1.0000
  C   C2829     1.0  0.50724  0.83405  0.91497  1.0000
  C   C2830     1.0  0.55716  0.70037  0.77024  1.0000
  C   C2831     1.0  0.52119  0.94605  0.86674  1.0000
  H   H3405     1.0  0.90472  0.73838  0.92975  1.0000
  C   C2832     1.0  0.69027  0.81193  0.96258  1.0000
  H   H3406     1.0  0.86649  0.83269  0.83622  1.0000
  C   C2833     1.0  0.57592  0.76088  0.77470  1.0000
  H   H3407     1.0  0.93306  0.97468  0.75529  1.0000
  C   C2834     1.0  0.50564  0.90106  0.90390  1.0000
  H   H3408     1.0  0.54242  0.86321  0.97385  1.0000
  H   H3409     1.0  0.74124  0.71923  0.79036  1.0000
  H   H3410     1.0  0.53846  0.91814  0.85308  1.0000
  H   H3411     1.0  0.60298  0.66668  0.90217  1.0000
  C   C2835     1.0  0.50435  0.85724  0.90462  1.0000
  C   C2836     1.0  0.89182  0.68665  0.95652  1.0000
  H   H3412     1.0  0.78018  0.85460  0.94717  1.0000
  C   C2837     1.0  0.94691  0.98513  0.85626  1.0000
  C   C2838     1.0  0.67434  0.69643  0.92432  1.0000
  H   H3413     1.0  0.81041  0.77344  0.93876  1.0000
  C   C2839     1.0  0.54406  0.80414  0.76279  1.0000
  C   C2840     1.0  0.52086  0.92739  0.85906  1.0000
  C   C2841     1.0  0.96099  0.75984  0.91370  1.0000
  H   H3414     1.0  0.50702  0.97284  0.82780  1.0000
  S   S763      1.0  0.57379  0.77145  0.97844  1.0000
  H   H3415     1.0  0.51402  0.87303  0.88104  1.0000
  H   H3416     1.0  0.61900  0.66390  0.82593  1.0000
  N   N191      1.0  0.87108  0.79289  0.84639  1.0000
  C   C2842     1.0  0.89894  0.79054  0.84428  1.0000
  C   C2843     1.0  0.91149  0.96654  0.89195  1.0000
  C   C2844     1.0  0.86248  0.77829  0.86132  1.0000
  C   C2845     1.0  0.86507  0.78416  0.83421  1.0000
  C   C2846     1.0  0.87141  0.79685  0.81936  1.0000
  C   C2847     1.0  0.85362  0.76274  0.83650  1.0000
  C   C2848     1.0  0.86710  0.78846  0.80754  1.0000
  C   C2849     1.0  0.78145  0.84175  0.92143  1.0000
  S   S764      1.0  0.54873  0.72802  0.96303  1.0000
  C   C2850     1.0  0.95314  0.69025  0.75137  1.0000
  C   C2851     1.0  0.82145  0.78749  0.93802  1.0000
  C   C2852     1.0  0.82328  0.98676  0.91530  1.0000
  H   H3417     1.0  0.96501  0.81328  0.87530  1.0000
  H   H3418     1.0  0.53885  0.81964  0.97301  1.0000
  H   H3419     1.0  0.73858  0.69316  0.77305  1.0000
  C   C2853     1.0  0.77178  0.83785  0.94802  1.0000
  Fe  Fe383     1.0  0.96068  0.80039  0.74520  1.0000
  H   H3420     1.0  0.94449  0.69909  0.96475  1.0000
  H   H3421     1.0  0.98123  0.85414  0.86341  1.0000
  H   H3422     1.0  0.98498  0.83862  0.90439  1.0000
  C   C2854     1.0  0.53254  0.71126  0.77667  1.0000
  H   H3423     1.0  0.95923  0.74611  0.90774  1.0000
  H   H3424     1.0  0.92929  0.96091  0.89583  1.0000
  H   H3425     1.0  0.67079  0.84012  0.97577  1.0000
  H   H3426     1.0  0.86752  0.78541  0.87010  1.0000
  H   H3427     1.0  0.51777  0.79693  0.78338  1.0000
  C   C2855     1.0  0.70172  0.67631  0.75013  1.0000
  H   H3428     1.0  0.86187  0.82659  0.85585  1.0000
  C   C2856     1.0  0.84756  0.68333  0.96511  1.0000
  S   S765      1.0  0.95711  0.75985  0.74815  1.0000
  C   C2857     1.0  0.96540  0.79533  0.92910  1.0000
  C   C2858     1.0  0.56964  0.71318  0.75700  1.0000
  N   N192      1.0  0.87373  0.66904  0.96116  1.0000
  H   H3429     1.0  0.83352  0.67058  0.96900  1.0000
  C   C2859     1.0  0.86158  0.95046  0.92704  1.0000
  H   H3430     1.0  0.87461  0.70956  0.93796  1.0000
  C   C2860     1.0  0.52874  0.83361  0.88520  1.0000
  H   H3431     1.0  0.69344  0.69046  0.91845  1.0000
  H   H3432     1.0  0.98097  0.79126  0.88888  1.0000
  C   C2861     1.0  0.97620  0.81167  0.88393  1.0000
  H   H3433     1.0  0.58475  0.68578  0.86224  1.0000
  H   H3434     1.0  0.96735  0.80918  0.93492  1.0000
  H   H3435     1.0  0.54418  0.66994  0.89940  1.0000
  S   S766      1.0  0.58149  0.88245  0.98061  1.0000
  C   C2862     1.0  0.68614  0.82407  0.97462  1.0000
  H   H3436     1.0  0.88316  0.78836  0.93736  1.0000
  C   C2863     1.0  0.95653  0.68057  0.73859  1.0000
  C   C2864     1.0  0.84716  0.77851  0.93855  1.0000
  H   H3437     1.0  0.54589  0.75845  0.79379  1.0000
  C   C2865     1.0  0.57595  0.80276  0.97796  1.0000
  C   C2866     1.0  0.82843  0.96202  0.91274  1.0000
  H   H3438     1.0  0.86781  0.97909  0.93648  1.0000
  H   H3439     1.0  0.59580  0.66437  0.87761  1.0000
  H   H3440     1.0  0.70581  0.66986  0.82689  1.0000
  H   H3441     1.0  0.86851  0.66997  0.93905  1.0000
  H   H3442     1.0  0.85475  0.75840  0.93973  1.0000
  C   C2867     1.0  0.93546  0.98483  0.74357  1.0000
  C   C2868     1.0  0.98415  0.77339  0.92819  1.0000
  C   C2869     1.0  0.53638  0.79081  0.77703  1.0000
  H   H3443     1.0  0.51144  0.90557  0.89169  1.0000
  H   H3444     1.0  0.50411  0.73229  0.91093  1.0000
  H   H3445     1.0  0.57468  0.69313  0.88071  1.0000
  H   H3446     1.0  0.93686  0.70492  0.75406  1.0000
  C   C2870     1.0  0.72359  0.69558  0.80965  1.0000
  C   C2871     1.0  0.72150  0.79440  0.98362  1.0000
  H   H3447     1.0  0.51348  0.66717  0.95161  1.0000
  H   H3448     1.0  0.61345  0.79169  0.98279  1.0000
  H   H3449     1.0  0.56093  0.67583  0.74232  1.0000
  C   C2872     1.0  0.57498  0.83674  0.73908  1.0000
  H   H3450     1.0  0.92393  0.97945  0.83611  1.0000
  H   H3451     1.0  0.60211  0.76603  0.75460  1.0000
  H   H3452     1.0  0.65532  0.77263  0.98080  1.0000
  C   C2873     1.0  0.87998  0.74849  0.74266  1.0000
  C   C2874     1.0  0.70964  0.69877  0.74225  1.0000
  C   C2875     1.0  0.99220  0.84998  0.87248  1.0000
  Fe  Fe384     1.0  0.61795  0.66139  0.75821  1.0000
  C   C2876     1.0  0.72071  0.66615  0.79018  1.0000
  C   C2877     1.0  0.89938  0.99206  0.89001  1.0000
  H   H3453     1.0  0.52392  0.70932  0.74388  1.0000
  C   C2878     1.0  0.71269  0.67401  0.81509  1.0000
  H   H3454     1.0  0.94587  0.99146  0.86673  1.0000
  H   H3455     1.0  0.69069  0.73653  0.98312  1.0000
  H   H3456     1.0  0.77352  0.67838  0.73826  1.0000
  S   S767      1.0  0.50067  0.97519  0.88777  1.0000
  S   S768      1.0  0.49952  0.89322  0.85198  1.0000
  C   C2879     1.0  0.49879  0.95732  0.87512  1.0000
  C   C2880     1.0  0.73553  0.69939  0.73769  1.0000
