data_image0
_chemical_formula_structural       FeS2FeS2FeCH2FeSFe2CSH2NSCFeSCFeS2FeS2FeS2FeSHFeSFeCS2HC4H2C3H2C3H2C6H4SCNC3H3NC4H2CHC2H2FeH2C6H4C6H5C2FeH2C3H2CH3C2H3C2SC2SNC9H14NC7HCH2CH8C2HCHCHCHSHCFeHC3HCH5CSC3H4NSCHCHS2HC2HSH2SCSCH2C2HCH3C2H2CH6SHSHCH5SH4SC4H2SCHSFeS2FeHFeSHSC2SHFeSFeSHS2HC4H2C6H4C6H8C6H4NC4HCHNC3H6C2HCH6SH3C2H4CH2C2H2CH4CHC2H2SH7FeC2HCHCNH2CHCHC2H2CHC2NCSCH2C3H3C2NCH5CHNH5CHSC4FeHCFeCHSH4CHCH3C2HCH5FeHFeHSFeS2FeH3S2HS2HSHNSH2SCH3C8H2C6H8C4H3C6H4CHC3H2CH4C3NH2SNCH3FeCNC8H11CHC2H2C2HC2HCFeCH2CH2C2SHNC2HCHC2SCSHSH6FeCHCNH4CHCHCFeH2CH4C2H5C2HFeSHFeS2FeS2FeSCS3FeSCFeS2FeSFeS3HCH2CH2S2FeCFeS2HFeSC3HC2H4SC4H4C7H3C2HC5H2C2FeSC4HCH3C6H3C6H5C2NCH3NFeCH3C2H2CHCHSC2NC2HC3SH4CH2NCH5C2H2CNHFeHSH6SCFeCHCHSC3H2C4H4C2H2CHC2H3C2HCH2CHCSHC2H4CH3CHNC9H14CHCHC2HCH2FeH2CH2CH2SH2C2SCSHC2H2C2SFeSFeS2FeSFeS3FeS2FeSFeS3HFeS2FeS2HSHSHFeS2Fe2SFeCSH2C4HCH4C6H2CHC6H4SCHC3H2CH2C5H2C3H4C6H4C3H4CHCNC9H10C5H3CH4C3NH5SCH2C3H3C2FeHCSHC2HSC3H2SH2SH3SH6C2HC2HCHC2H2CHCHC2HCNHNHC2H2CHCHCHCNHCHNC9H14NCH2C3H2C3H3SCHCH3C2H2CH2CH5C3H2CSH2FeH2CSFeSCSCHSH2SHSH2FeS2CHCFeS3C6H4C6H8C6H3SC4HCH2SHCNC9H4CHFeNH6C3HC3H5CH4CH2FeCH5CH9CNCH3NHC3HCHCH6FeHCHC3H2CHCHC3SH2CSCFeSHFeSHFeSFeS3NFeHSC6H4C5H2CHC3HCHCHC6H4C7H3SNH3C4H5CH4SH2CHNHCHCH2CHCHCS2H5C3SH3C2H2C4HSNHFeH4NC2HCH4FeHCH6C2H6C2H2C2HCHFeSCNH3CH4CH3CH3NH2FeC2HCH2SH2FeSHFeSFeCHFeS2FeSCFeSFeS2FeS2FeSCFeS3HSHS2C7H3C6H4C6H7C4H2CHC2SC2HCNH2CHC4HCH2NC5HC6H2NC5H2S2HSH7C5H2CH2CNC9H14C2H3C2SH2CH3CH2CSH3C5SCSHCH2FeH2C2H2SCHCHC2HCHC2SNCSCH4CHSCHFeCSH2SHSC2H2C2H2FeH3CFeNH3FeCHC3H3CHCH3CH2CHCH2CHCHCH4C2NC2H3CHSFeS2H5S2FeS2C3H2SCFeS2FeSHFeS2FeSFeS3C2H2FeNH3SC3H2C6H7C2H2CHCHC7H4C7H3C6H3NC4HC2H2C3H4CH3C2HNHCHCHCHCH3SH4C2FeCH2CNC6H12CH3CSHCH5FeCHCH2CH3Fe2HCH2CH4NC3HC2SCH6CHCNCHC2H3SHC2HC2HCHCHCHSHSFeCHSC2H2C2HCH3SH3NSCHFeS2HC2FeSFeSNFeHSH2FeH2S2H3SCFeS2FeHC2S3C6H2SC2H2CH4C2H2FeHCFeC7H4C6H11CHCH3CNH2CSH2CHSFeCH2CSH7NC9H10SC5NHCSCH2C2H3CSC3H2CH2CSCH2C2SC2FeHSCFeSCHFeS4HFeSCFeSFeSHCHSHCHFeS2H2CS2HCSCHS2C6H3C6H4CSHC2H2CHCHC6H5CH2CHCNCH7CFeNCFeCHCHCHFeH4C2H3SCH3FeHCSC2NH5C2H2CH4CH4C4H2CH2CH4CH4NSH2SC3HCH2C2HSC2HNC2H2CH3FeHFeS2CS2CSFeS2FeS2FeCFeS4C2HSCH3CS2C4H2C6H3C6H4C6H4C4H4C6H3C6H4SC5H3CHSH8C2H3C2NHCH6CHC4H2C4HC2H2CHCHFeC2H2CHCNCHCH3CH2NH4NH3CHFeH2C2NC9HCHCFeC3H6NCFeSH2FeCHC3H3FeH4NH4FeC3HC2H2CH6CHCHCH4S2C2H4NH4CH3CHCH4CSCFeHC2HSCH5SC2FeSFeSHFeSFeS3FeS2CH2SFeS2FeS2HSCH2CHSNH3C6H4C6H3C5H2C6H4C3H2CHCSFeNH4CH2C2HC4HCHCH3CH4FeSC2HC5HC2H4C2H2CHCFeH5SHCHCH4C2SH2SH2SHSH4SHCHC2H2NH2C3H2C2H2CH5CHFeC3SCHC2SNC4HNCHSFeC2H2C2H2C2HC2HC2HFeHCH2CH5CHFeH3CH3CHCHC2H2CSFeSFeSFeCSH2C3HFeCFeS2CFeSHS2CHSH2SFeSFeSHCHC3H2C6H4C6HCH4NC2SH4FeC6HSH2C2H2SCH2CH4CH4SC2HFeHCNC9H15SHC2HSNC2HCH2FeH2N2HC2H4CNHSC3HCH5SHSHC3SFeC2HCH2C2H2C2H2CHCHCH2SHSNHFe2SHSCSH2SCH2S2FeS2FeSFeS3CSFeSHFeS2C6H8CNH3C6HSH2FeCHCHCH2FeC6H5C2H2CH2SHCHCH2CHC2H4C2HC2H3C3H4C2HC2FeHCHCNC9H13CH3SCHCHFeHC2SCH4FeSHCHC2HNSFeH3CH2CSHCHCH2CNH2NCHCFeCHC3SHCHC4HFeS2FeSFeSFeS3Fe2S2HS3C7H3SC6H4CNC2H4C6H5C3SH3SH3SH2C2FeH2CHSH2CHC5H3C3H2CHC3HCH2CHSHCH2C2H4C3HCH2C2H2FeCH3SHC2HCSCNCHCHCHSCH2C2HFeH3FeH2CH2CFeH2CHNH4C2H4C2HNC9H12C2HC2H2C2H3CH2C3HNH2C3NH2CH2CSHC2H3C
_chemical_formula_sum              "Fe192 S384 C1440 H1728 N96"
_cell_length_a       56.4792
_cell_length_b       105.479
_cell_length_c       36.5715
_cell_angle_alpha    90.2994
_cell_angle_beta     90.2849
_cell_angle_gamma    89.0932

_space_group_name_H-M_alt    "P 1"
_space_group_IT_number       1

loop_
  _space_group_symop_operation_xyz
  'x, y, z'

loop_
  _atom_site_type_symbol
  _atom_site_label
  _atom_site_symmetry_multiplicity
  _atom_site_fract_x
  _atom_site_fract_y
  _atom_site_fract_z
  _atom_site_occupancy
  Fe  Fe1       1.0  0.34514  0.20831  0.20532  1.0000
  S   S1        1.0  0.38437  0.21177  0.20186  1.0000
  S   S2        1.0  0.33476  0.19028  0.17492  1.0000
  Fe  Fe2       1.0  0.38155  0.21741  0.26138  1.0000
  S   S3        1.0  0.40413  0.21386  0.31281  1.0000
  S   S4        1.0  0.34298  0.21253  0.26594  1.0000
  Fe  Fe3       1.0  0.01666  0.15589  0.01458  1.0000
  C   C1        1.0  0.18760  0.99198  0.15434  1.0000
  H   H1        1.0  0.23650  0.98207  0.18011  1.0000
  H   H2        1.0  0.29946  0.20636  0.07815  1.0000
  Fe  Fe4       1.0  0.23796  0.16412  0.03871  1.0000
  S   S5        1.0  0.24205  0.17991  0.08084  1.0000
  Fe  Fe5       1.0  0.24910  0.13704  0.01299  1.0000
  Fe  Fe6       1.0  0.19881  0.14849  0.00159  1.0000
  C   C2        1.0  0.45313  0.10735  0.44620  1.0000
  S   S6        1.0  0.22182  0.14524  0.05157  1.0000
  H   H3        1.0  0.05098  0.09227  0.09144  1.0000
  H   H4        1.0  0.42210  0.08035  0.42725  1.0000
  N   N1        1.0  0.00572  0.06269  0.15385  1.0000
  S   S7        1.0  0.45073  0.15795  0.46194  1.0000
  C   C3        1.0  0.00073  0.09855  0.13886  1.0000
  Fe  Fe7       1.0  0.28040  0.04383  0.04452  1.0000
  S   S8        1.0  0.31986  0.04167  0.03850  1.0000
  C   C4        1.0  0.11162  0.13969  0.00243  1.0000
  Fe  Fe8       1.0  0.27494  0.01617  0.06784  1.0000
  S   S9        1.0  0.31427  0.01218  0.06350  1.0000
  S   S10       1.0  0.24838  0.00017  0.07434  1.0000
  Fe  Fe9       1.0  0.31863  0.03103  0.09225  1.0000
  S   S11       1.0  0.34892  0.03526  0.13295  1.0000
  S   S12       1.0  0.27926  0.03436  0.09974  1.0000
  Fe  Fe10      1.0  0.44026  0.05096  0.37789  1.0000
  S   S13       1.0  0.40273  0.04721  0.39508  1.0000
  S   S14       1.0  0.45968  0.07001  0.37934  1.0000
  Fe  Fe11      1.0  0.45038  0.02269  0.35929  1.0000
  S   S15       1.0  0.41350  0.01739  0.37587  1.0000
  H   H5        1.0  0.44010  0.98637  0.23402  1.0000
  Fe  Fe12      1.0  0.40128  0.03463  0.34423  1.0000
  S   S16       1.0  0.36883  0.03194  0.30641  1.0000
  Fe  Fe13      1.0  0.41803  0.03006  0.42463  1.0000
  C   C5        1.0  0.32405  0.21370  0.03781  1.0000
  S   S17       1.0  0.43796  0.03936  0.32541  1.0000
  S   S18       1.0  0.45569  0.03451  0.40968  1.0000
  H   H6        1.0  0.13993  0.03081  0.15713  1.0000
  C   C6        1.0  0.41634  0.01165  0.18269  1.0000
  C   C7        1.0  0.37776  0.00665  0.15774  1.0000
  C   C8        1.0  0.18165  0.03004  0.08891  1.0000
  C   C9        1.0  0.41092  0.00564  0.21632  1.0000
  H   H7        1.0  0.36482  0.00743  0.13580  1.0000
  H   H8        1.0  0.48404  0.06840  0.46618  1.0000
  C   C10       1.0  0.00602  0.01038  0.18765  1.0000
  C   C11       1.0  0.03096  0.00996  0.18786  1.0000
  C   C12       1.0  0.04355  0.99840  0.19256  1.0000
  H   H9        1.0  0.04063  0.01864  0.18456  1.0000
  H   H10       1.0  0.06269  0.99826  0.19292  1.0000
  C   C13       1.0  0.22542  0.99724  0.10615  1.0000
  C   C14       1.0  0.20215  0.00253  0.16017  1.0000
  C   C15       1.0  0.22102  0.00513  0.13632  1.0000
  H   H11       1.0  0.19876  0.00874  0.18325  1.0000
  H   H12       1.0  0.23222  0.01316  0.14142  1.0000
  C   C16       1.0  0.35375  0.03439  0.18141  1.0000
  C   C17       1.0  0.37545  0.03858  0.19601  1.0000
  C   C18       1.0  0.38042  0.03791  0.23392  1.0000
  C   C19       1.0  0.36373  0.03299  0.25802  1.0000
  C   C20       1.0  0.34203  0.02880  0.24343  1.0000
  C   C21       1.0  0.33706  0.02947  0.20548  1.0000
  H   H13       1.0  0.38852  0.04241  0.17779  1.0000
  H   H14       1.0  0.39704  0.04136  0.24446  1.0000
  H   H15       1.0  0.32891  0.02502  0.26166  1.0000
  H   H16       1.0  0.32032  0.02619  0.19490  1.0000
  S   S19       1.0  0.21301  0.16796  0.99162  1.0000
  C   C22       1.0  0.47281  0.10483  0.42404  1.0000
  N   N2        1.0  0.33895  0.22050  0.06480  1.0000
  C   C23       1.0  0.45643  0.08431  0.40536  1.0000
  C   C24       1.0  0.43648  0.08698  0.42678  1.0000
  C   C25       1.0  0.19227  0.98397  0.12457  1.0000
  H   H17       1.0  0.22567  0.03348  0.11417  1.0000
  H   H18       1.0  0.02172  0.05323  0.10702  1.0000
  H   H19       1.0  0.41600  0.21176  0.97866  1.0000
  N   N3        1.0  0.42761  0.00516  0.24768  1.0000
  C   C26       1.0  0.26110  0.07699  0.02889  1.0000
  C   C27       1.0  0.26803  0.10363  0.02804  1.0000
  C   C28       1.0  0.28626  0.09522  0.03929  1.0000
  C   C29       1.0  0.28285  0.08199  0.03974  1.0000
  H   H20       1.0  0.30314  0.09898  0.04777  1.0000
  H   H21       1.0  0.29701  0.07568  0.04862  1.0000
  C   C30       1.0  0.08302  0.15730  0.00171  1.0000
  H   H22       1.0  0.27432  0.19532  0.03426  1.0000
  C   C31       1.0  0.00637  0.98755  0.19767  1.0000
  C   C32       1.0  0.13085  0.14803  0.00101  1.0000
  H   H23       1.0  0.44811  0.02163  0.23468  1.0000
  H   H24       1.0  0.02363  0.11003  0.10652  1.0000
  Fe  Fe14      1.0  0.47158  0.13985  0.47197  1.0000
  H   H25       1.0  0.35799  0.20340  0.07974  1.0000
  H   H26       1.0  0.42933  0.22262  0.02577  1.0000
  C   C33       1.0  0.42155  0.20045  0.32630  1.0000
  C   C34       1.0  0.42892  0.19105  0.30154  1.0000
  C   C35       1.0  0.44412  0.18108  0.31322  1.0000
  C   C36       1.0  0.45176  0.18028  0.34986  1.0000
  C   C37       1.0  0.44383  0.18948  0.37482  1.0000
  C   C38       1.0  0.42903  0.19956  0.36299  1.0000
  H   H27       1.0  0.42347  0.19165  0.27319  1.0000
  H   H28       1.0  0.45021  0.17406  0.29362  1.0000
  H   H29       1.0  0.44961  0.18903  0.40304  1.0000
  H   H30       1.0  0.42356  0.20680  0.38235  1.0000
  C   C39       1.0  0.30951  0.18845  0.14664  1.0000
  C   C40       1.0  0.28900  0.19587  0.15139  1.0000
  C   C41       1.0  0.26856  0.19329  0.13053  1.0000
  C   C42       1.0  0.26859  0.18345  0.10445  1.0000
  C   C43       1.0  0.28946  0.17649  0.09843  1.0000
  C   C44       1.0  0.30975  0.17888  0.11975  1.0000
  H   H31       1.0  0.28860  0.20326  0.17200  1.0000
  H   H32       1.0  0.25250  0.19879  0.13513  1.0000
  H   H33       1.0  0.28977  0.16915  0.07776  1.0000
  H   H34       1.0  0.32562  0.17319  0.11571  1.0000
  H   H35       1.0  0.18791  0.01281  0.05581  1.0000
  C   C45       1.0  0.00456  0.05414  0.12150  1.0000
  C   C46       1.0  0.43498  0.09835  0.44731  1.0000
  Fe  Fe15      1.0  0.47938  0.16272  0.42243  1.0000
  H   H36       1.0  0.18010  0.05577  0.07827  1.0000
  H   H37       1.0  0.20185  0.02890  0.01989  1.0000
  C   C47       1.0  0.24292  0.08538  0.01747  1.0000
  C   C48       1.0  0.29443  0.20075  0.98738  1.0000
  C   C49       1.0  0.38985  0.10531  0.32873  1.0000
  H   H38       1.0  0.22704  0.03813  0.03113  1.0000
  H   H39       1.0  0.40359  0.08674  0.31472  1.0000
  C   C50       1.0  0.47444  0.09339  0.40387  1.0000
  H   H40       1.0  0.16948  0.04421  0.12863  1.0000
  H   H41       1.0  0.17519  0.04731  0.03621  1.0000
  H   H42       1.0  0.48989  0.09149  0.38723  1.0000
  C   C51       1.0  0.03105  0.07835  0.12093  1.0000
  C   C52       1.0  0.17754  0.01740  0.07694  1.0000
  H   H43       1.0  0.07346  0.13768  0.00421  1.0000
  H   H44       1.0  0.42120  0.15313  0.34984  1.0000
  H   H45       1.0  0.30994  0.22628  0.09999  1.0000
  C   C53       1.0  0.38818  0.00018  0.21918  1.0000
  C   C54       1.0  0.12596  0.16109  0.00012  1.0000
  S   S20       1.0  0.47189  0.16795  0.36298  1.0000
  C   C55       1.0  0.18881  0.04976  0.05708  1.0000
  C   C56       1.0  0.10225  0.16565  0.00002  1.0000
  S   S21       1.0  0.25582  0.06039  0.02829  1.0000
  N   N4        1.0  0.29454  0.13655  0.12582  1.0000
  C   C57       1.0  0.29908  0.14167  0.08894  1.0000
  C   C58       1.0  0.31705  0.13086  0.13977  1.0000
  C   C59       1.0  0.27715  0.12616  0.12257  1.0000
  C   C60       1.0  0.28512  0.14693  0.14931  1.0000
  C   C61       1.0  0.26193  0.15193  0.14342  1.0000
  C   C62       1.0  0.29905  0.15298  0.17665  1.0000
  C   C63       1.0  0.25300  0.16205  0.16426  1.0000
  C   C64       1.0  0.29001  0.16320  0.19707  1.0000
  C   C65       1.0  0.26703  0.16769  0.19098  1.0000
  H   H46       1.0  0.31171  0.14965  0.09013  1.0000
  H   H47       1.0  0.30664  0.13430  0.07025  1.0000
  H   H48       1.0  0.28252  0.14528  0.07576  1.0000
  H   H49       1.0  0.33186  0.13768  0.13871  1.0000
  H   H50       1.0  0.32289  0.12258  0.12282  1.0000
  H   H51       1.0  0.31503  0.12746  0.16834  1.0000
  H   H52       1.0  0.28459  0.11779  0.10756  1.0000
  H   H53       1.0  0.27128  0.12293  0.14994  1.0000
  H   H54       1.0  0.26117  0.12895  0.10645  1.0000
  H   H55       1.0  0.25079  0.14844  0.12163  1.0000
  H   H56       1.0  0.31723  0.15031  0.18205  1.0000
  H   H57       1.0  0.23555  0.16599  0.15821  1.0000
  H   H58       1.0  0.30125  0.16804  0.21666  1.0000
  H   H59       1.0  0.26042  0.17590  0.20590  1.0000
  N   N5        1.0  0.42379  0.13349  0.36628  1.0000
  C   C66       1.0  0.41661  0.14346  0.33976  1.0000
  C   C67       1.0  0.41027  0.13541  0.40062  1.0000
  C   C68       1.0  0.44919  0.13538  0.37506  1.0000
  C   C69       1.0  0.41878  0.12077  0.35098  1.0000
  C   C70       1.0  0.43667  0.11131  0.34548  1.0000
  C   C71       1.0  0.39521  0.11743  0.34178  1.0000
  C   C72       1.0  0.43110  0.09924  0.33234  1.0000
  H   H60       1.0  0.44495  0.09205  0.32919  1.0000
  C   C73       1.0  0.40776  0.09621  0.32424  1.0000
  H   H61       1.0  0.42897  0.01163  0.30344  1.0000
  H   H62       1.0  0.14039  0.16769  0.99935  1.0000
  C   C74       1.0  0.02048  0.10063  0.11723  1.0000
  H   H63       1.0  0.39083  0.13553  0.39606  1.0000
  H   H64       1.0  0.41459  0.14457  0.41417  1.0000
  H   H65       1.0  0.41441  0.12772  0.42055  1.0000
  H   H66       1.0  0.46048  0.13462  0.35028  1.0000
  H   H67       1.0  0.45224  0.14495  0.38683  1.0000
  H   H68       1.0  0.45567  0.12851  0.39591  1.0000
  H   H69       1.0  0.45509  0.11288  0.35175  1.0000
  H   H70       1.0  0.38071  0.12413  0.34512  1.0000
  C   C75       1.0  0.99570  0.08634  0.15106  1.0000
  C   C76       1.0  0.28956  0.20047  0.02464  1.0000
  H   H71       1.0  0.20216  0.05587  0.04364  1.0000
  C   C77       1.0  0.43280  0.99179  0.25770  1.0000
  H   H72       1.0  0.23213  0.10494  0.00836  1.0000
  C   C78       1.0  0.30409  0.20683  0.04955  1.0000
  H   H73       1.0  0.11505  0.12957  0.00298  1.0000
  C   C79       1.0  0.99432  0.19444  0.20694  1.0000
  H   H74       1.0  0.44600  0.99114  0.28050  1.0000
  S   S22       1.0  0.47097  0.00479  0.34195  1.0000
  H   H75       1.0  0.04238  0.05764  0.16457  1.0000
  C   C80       1.0  0.41678  0.01169  0.27954  1.0000
  Fe  Fe16      1.0  0.31271  0.02298  0.01025  1.0000
  H   H76       1.0  0.38260  0.99572  0.24415  1.0000
  C   C81       1.0  0.03130  0.98714  0.19792  1.0000
  C   C82       1.0  0.32850  0.21383  0.99947  1.0000
  C   C83       1.0  0.21356  0.03177  0.04292  1.0000
  H   H77       1.0  0.39724  0.14361  0.33432  1.0000
  C   C84       1.0  0.16016  0.01002  0.09317  1.0000
  H   H78       1.0  0.33407  0.20749  0.10972  1.0000
  H   H79       1.0  0.22338  0.02325  0.05315  1.0000
  H   H80       1.0  0.15771  0.00030  0.08433  1.0000
  H   H81       1.0  0.41682  0.98683  0.26742  1.0000
  H   H82       1.0  0.20898  0.04773  0.12337  1.0000
  C   C85       1.0  0.08792  0.14426  0.00316  1.0000
  S   S23       1.0  0.00456  0.14896  0.06953  1.0000
  C   C86       1.0  0.15026  0.02718  0.13435  1.0000
  C   C87       1.0  0.16733  0.03473  0.11796  1.0000
  C   C88       1.0  0.21102  0.98662  0.10061  1.0000
  H   H83       1.0  0.46268  0.01077  0.26474  1.0000
  H   H84       1.0  0.40391  0.01709  0.12894  1.0000
  H   H85       1.0  0.34307  0.21885  0.98767  1.0000
  H   H86       1.0  0.23161  0.04783  0.08975  1.0000
  N   N6        1.0  0.19999  0.03815  0.07266  1.0000
  S   S24       1.0  0.16373  0.98931  0.18469  1.0000
  C   C89       1.0  0.24632  0.09862  0.01710  1.0000
  H   H87       1.0  0.02667  0.06436  0.20283  1.0000
  C   C90       1.0  0.25500  0.98264  0.23155  1.0000
  H   H88       1.0  0.29206  0.22986  0.32835  1.0000
  S   S25       1.0  0.05343  0.16366  0.99943  1.0000
  S   S26       1.0  0.16031  0.14152  0.99771  1.0000
  H   H89       1.0  0.42579  0.14204  0.31313  1.0000
  C   C91       1.0  0.45060  0.01134  0.24052  1.0000
  C   C92       1.0  0.01066  0.07580  0.14209  1.0000
  H   H90       1.0  0.37169  0.10288  0.32242  1.0000
  S   S27       1.0  0.26691  0.15588  0.00358  1.0000
  H   H91       1.0  0.46018  0.00669  0.21745  1.0000
  H   H92       1.0  0.04338  0.07086  0.11340  1.0000
  S   S28       1.0  0.27339  0.12023  0.02842  1.0000
  C   C93       1.0  0.37189  0.00073  0.19030  1.0000
  S   S29       1.0  0.27337  0.02580  0.01305  1.0000
  C   C94       1.0  0.03571  0.09057  0.10848  1.0000
  H   H93       1.0  0.35436  0.99686  0.19347  1.0000
  H   H94       1.0  0.35363  0.22332  0.36259  1.0000
  C   C95       1.0  0.34830  0.21150  0.09265  1.0000
  C   C96       1.0  0.14673  0.01484  0.12202  1.0000
  H   H95       1.0  0.13397  0.00886  0.13540  1.0000
  C   C97       1.0  0.21723  0.04195  0.10127  1.0000
  H   H96       1.0  0.22605  0.08165  0.00889  1.0000
  H   H97       1.0  0.36057  0.21620  0.11231  1.0000
  H   H98       1.0  0.02147  0.04830  0.18842  1.0000
  C   C98       1.0  0.39989  0.01210  0.15396  1.0000
  C   C99       1.0  0.99378  0.99907  0.19217  1.0000
  H   H99       1.0  0.43292  0.01630  0.17808  1.0000
  H   H100      1.0  0.41239  0.02174  0.27312  1.0000
  C   C100      1.0  0.02493  0.05808  0.17843  1.0000
  H   H101      1.0  0.32221  0.06470  0.98412  1.0000
  H   H102      1.0  0.41960  0.10020  0.46413  1.0000
  H   H103      1.0  0.09878  0.17576  0.99898  1.0000
  H   H104      1.0  0.44500  0.06026  0.45111  1.0000
  H   H105      1.0  0.37139  0.21987  0.03400  1.0000
  H   H106      1.0  0.40015  0.00726  0.28881  1.0000
  S   S30       1.0  0.45048  0.12141  0.47341  1.0000
  H   H107      1.0  0.36520  0.23005  0.32232  1.0000
  S   S31       1.0  0.99112  0.02533  0.18368  1.0000
  H   H108      1.0  0.00056  0.17940  0.16792  1.0000
  C   C101      1.0  0.35955  0.22683  0.04810  1.0000
  H   H109      1.0  0.99106  0.05759  0.10151  1.0000
  H   H110      1.0  0.99974  0.04431  0.12931  1.0000
  H   H111      1.0  0.00815  0.20031  0.19599  1.0000
  H   H112      1.0  0.34824  0.22788  0.42319  1.0000
  H   H113      1.0  0.26916  0.98842  0.22114  1.0000
  S   S32       1.0  0.33457  0.22811  0.18946  1.0000
  H   H114      1.0  0.42505  0.04938  0.47137  1.0000
  H   H115      1.0  0.16577  0.22801  0.31184  1.0000
  H   H116      1.0  0.26944  0.98172  0.28589  1.0000
  H   H117      1.0  0.48702  0.11158  0.42300  1.0000
  S   S33       1.0  0.99545  0.14153  0.98326  1.0000
  C   C102      1.0  0.32448  0.23039  0.08366  1.0000
  C   C103      1.0  0.43463  0.05836  0.47623  1.0000
  C   C104      1.0  0.34130  0.04062  0.85671  1.0000
  C   C105      1.0  0.33362  0.04469  0.89115  1.0000
  H   H118      1.0  0.45926  0.09719  0.56677  1.0000
  H   H119      1.0  0.42754  0.04414  0.53633  1.0000
  S   S34       1.0  0.24764  0.16608  0.89960  1.0000
  C   C106      1.0  0.35060  0.21584  0.59073  1.0000
  H   H120      1.0  0.15730  0.17608  0.92125  1.0000
  S   S35       1.0  0.45927  0.18311  0.54103  1.0000
  Fe  Fe17      1.0  0.34425  0.20597  0.78512  1.0000
  S   S36       1.0  0.38350  0.20828  0.77596  1.0000
  S   S37       1.0  0.33548  0.19809  0.84194  1.0000
  Fe  Fe18      1.0  0.33229  0.21825  0.71051  1.0000
  H   H121      1.0  0.41435  0.98499  0.57076  1.0000
  Fe  Fe19      1.0  0.37722  0.20189  0.71781  1.0000
  S   S38       1.0  0.40074  0.18664  0.69068  1.0000
  H   H122      1.0  0.45977  0.03781  0.50202  1.0000
  S   S39       1.0  0.33874  0.19796  0.72851  1.0000
  C   C107      1.0  0.17180  0.17829  0.78879  1.0000
  C   C108      1.0  0.31721  0.05494  0.89518  1.0000
  S   S40       1.0  0.33428  0.01604  0.96004  1.0000
  H   H123      1.0  0.46001  0.20669  0.67857  1.0000
  Fe  Fe20      1.0  0.34136  0.99310  0.74006  1.0000
  S   S41       1.0  0.32386  0.00465  0.78724  1.0000
  Fe  Fe21      1.0  0.34826  0.99310  0.65424  1.0000
  S   S42       1.0  0.34204  0.00387  0.60069  1.0000
  H   H124      1.0  0.18173  0.14177  0.87032  1.0000
  S   S43       1.0  0.31686  0.99141  0.69146  1.0000
  S   S44       1.0  0.37227  0.99675  0.70240  1.0000
  H   H125      1.0  0.40984  0.19802  0.50762  1.0000
  C   C109      1.0  0.35553  0.01328  0.53387  1.0000
  C   C110      1.0  0.36334  0.00885  0.56821  1.0000
  C   C111      1.0  0.38761  0.00880  0.57600  1.0000
  C   C112      1.0  0.04054  0.17820  0.89462  1.0000
  H   H126      1.0  0.33680  0.01346  0.52758  1.0000
  H   H127      1.0  0.39389  0.00553  0.60237  1.0000
  C   C113      1.0  0.32690  0.00717  0.83563  1.0000
  C   C114      1.0  0.34792  0.00448  0.85475  1.0000
  C   C115      1.0  0.34968  0.00716  0.89266  1.0000
  C   C116      1.0  0.33045  0.01243  0.91233  1.0000
  C   C117      1.0  0.30932  0.01498  0.89331  1.0000
  C   C118      1.0  0.30768  0.01247  0.85528  1.0000
  H   H128      1.0  0.36297  0.00052  0.84024  1.0000
  H   H129      1.0  0.36617  0.00518  0.90686  1.0000
  H   H130      1.0  0.29433  0.01903  0.90773  1.0000
  H   H131      1.0  0.29136  0.01467  0.84093  1.0000
  C   C119      1.0  0.44278  0.18379  0.58252  1.0000
  C   C120      1.0  0.43462  0.19567  0.59555  1.0000
  C   C121      1.0  0.42129  0.19673  0.62804  1.0000
  C   C122      1.0  0.41628  0.18589  0.64834  1.0000
  C   C123      1.0  0.42453  0.17403  0.63544  1.0000
  C   C124      1.0  0.43752  0.17295  0.60262  1.0000
  H   H132      1.0  0.43855  0.20411  0.58019  1.0000
  H   H133      1.0  0.41521  0.20594  0.63751  1.0000
  H   H134      1.0  0.42087  0.16559  0.65096  1.0000
  H   H135      1.0  0.44366  0.16375  0.59309  1.0000
  H   H136      1.0  0.33957  0.05267  0.96257  1.0000
  H   H137      1.0  0.29283  0.98965  0.51590  1.0000
  H   H138      1.0  0.34899  0.18811  0.63730  1.0000
  H   H139      1.0  0.48657  0.21047  0.70347  1.0000
  C   C125      1.0  0.27231  0.17491  0.88409  1.0000
  C   C126      1.0  0.27247  0.17933  0.84780  1.0000
  C   C127      1.0  0.29162  0.18637  0.83433  1.0000
  C   C128      1.0  0.31092  0.18909  0.85705  1.0000
  C   C129      1.0  0.31079  0.18463  0.89331  1.0000
  C   C130      1.0  0.29165  0.17759  0.90677  1.0000
  H   H140      1.0  0.25769  0.17729  0.82993  1.0000
  H   H141      1.0  0.29143  0.18971  0.80641  1.0000
  H   H142      1.0  0.32569  0.18655  0.91103  1.0000
  H   H143      1.0  0.29194  0.17416  0.93458  1.0000
  N   N7        1.0  0.16551  0.15882  0.89190  1.0000
  C   C131      1.0  0.17010  0.16796  0.92196  1.0000
  C   C132      1.0  0.14198  0.15317  0.89853  1.0000
  C   C133      1.0  0.18346  0.14842  0.89387  1.0000
  C   C134      1.0  0.16726  0.16539  0.85634  1.0000
  H   H144      1.0  0.30023  0.98961  0.61517  1.0000
  C   C135      1.0  0.14788  0.16662  0.83153  1.0000
  H   H145      1.0  0.38607  0.20298  0.93753  1.0000
  N   N8        1.0  0.45429  0.21585  0.73073  1.0000
  C   C136      1.0  0.30957  0.98171  0.90285  1.0000
  C   C137      1.0  0.33292  0.04659  0.82527  1.0000
  C   C138      1.0  0.46607  0.22535  0.75432  1.0000
  H   H146      1.0  0.04704  0.18784  0.88853  1.0000
  H   H147      1.0  0.12770  0.16055  0.89994  1.0000
  H   H148      1.0  0.14153  0.14812  0.92522  1.0000
  H   H149      1.0  0.13754  0.14601  0.87727  1.0000
  H   H150      1.0  0.20192  0.15197  0.89395  1.0000
  H   H151      1.0  0.18167  0.14280  0.91944  1.0000
  C   C139      1.0  0.45468  0.07864  0.54267  1.0000
  C   C140      1.0  0.35215  0.19829  0.63184  1.0000
  H   H152      1.0  0.13070  0.16276  0.83719  1.0000
  C   C141      1.0  0.00310  0.19583  0.86238  1.0000
  H   H153      1.0  0.38235  0.21072  0.54375  1.0000
  H   H154      1.0  0.31059  0.06140  0.80356  1.0000
  H   H155      1.0  0.02067  0.16193  0.93989  1.0000
  H   H156      1.0  0.18823  0.17190  0.92067  1.0000
  H   H157      1.0  0.16861  0.16337  0.94920  1.0000
  H   H158      1.0  0.05214  0.17431  0.91686  1.0000
  S   S45       1.0  0.33499  0.22600  0.76797  1.0000
  H   H159      1.0  0.47742  0.21266  0.79887  1.0000
  H   H160      1.0  0.04329  0.17221  0.86982  1.0000
  H   H161      1.0  0.34008  0.06859  0.94524  1.0000
  C   C142      1.0  0.46146  0.06998  0.51450  1.0000
  C   C143      1.0  0.38093  0.17409  0.54851  1.0000
  H   H162      1.0  0.27812  0.99124  0.78036  1.0000
  H   H163      1.0  0.34019  0.03948  0.91459  1.0000
  H   H164      1.0  0.46979  0.22275  0.68093  1.0000
  H   H165      1.0  0.37066  0.20023  0.64026  1.0000
  C   C144      1.0  0.29478  0.04782  0.94688  1.0000
  H   H166      1.0  0.01911  0.19642  0.93358  1.0000
  H   H167      1.0  0.13530  0.17381  0.77969  1.0000
  C   C145      1.0  0.32324  0.19886  0.58326  1.0000
  C   C146      1.0  0.40378  0.01327  0.54992  1.0000
  H   H168      1.0  0.02259  0.18295  0.96217  1.0000
  H   H169      1.0  0.35310  0.17597  0.58712  1.0000
  C   C147      1.0  0.43492  0.05380  0.54040  1.0000
  H   H170      1.0  0.20434  0.17052  0.86329  1.0000
  H   H171      1.0  0.33808  0.22097  0.60931  1.0000
  H   H172      1.0  0.99357  0.18758  0.94616  1.0000
  H   H173      1.0  0.27094  0.99626  0.54632  1.0000
  C   C148      1.0  0.31384  0.20741  0.97482  1.0000
  H   H174      1.0  0.28304  0.19583  0.96817  1.0000
  C   C149      1.0  0.28856  0.99141  0.54512  1.0000
  C   C150      1.0  0.39680  0.19338  0.52441  1.0000
  H   H175      1.0  0.25454  0.98162  0.86671  1.0000
  H   H176      1.0  0.28641  0.07243  0.96012  1.0000
  S   S46       1.0  0.22545  0.13907  0.96374  1.0000
  H   H177      1.0  0.30198  0.99821  0.55542  1.0000
  H   H178      1.0  0.38142  0.16383  0.55023  1.0000
  H   H179      1.0  0.31034  0.20447  0.60014  1.0000
  H   H180      1.0  0.44177  0.19653  0.73073  1.0000
  H   H181      1.0  0.46895  0.19865  0.75438  1.0000
  H   H182      1.0  0.26897  0.98846  0.61074  1.0000
  H   H183      1.0  0.28704  0.05023  0.97397  1.0000
  Fe  Fe22      1.0  0.47394  0.16688  0.50496  1.0000
  C   C151      1.0  0.39057  0.21292  0.93574  1.0000
  C   C152      1.0  0.39598  0.01774  0.51561  1.0000
  H   H184      1.0  0.31855  0.98438  0.92798  1.0000
  C   C153      1.0  0.19108  0.17729  0.81254  1.0000
  H   H185      1.0  0.27517  0.98688  0.92300  1.0000
  C   C154      1.0  0.40749  0.21809  0.95938  1.0000
  N   N9        1.0  0.01530  0.17837  0.90557  1.0000
  H   H186      1.0  0.31955  0.20102  0.55402  1.0000
  H   H187      1.0  0.01623  0.20198  0.87417  1.0000
  C   C155      1.0  0.28236  0.98124  0.77254  1.0000
  H   H188      1.0  0.35343  0.03258  0.85436  1.0000
  C   C156      1.0  0.46797  0.04735  0.50361  1.0000
  H   H189      1.0  0.43036  0.22861  0.70138  1.0000
  C   C157      1.0  0.15026  0.17298  0.79827  1.0000
  C   C158      1.0  0.45156  0.20332  0.74856  1.0000
  H   H190      1.0  0.44126  0.20423  0.77438  1.0000
  H   H191      1.0  0.44525  0.05358  0.56638  1.0000
  C   C159      1.0  0.18888  0.17097  0.84579  1.0000
  H   H192      1.0  0.27998  0.04516  0.92830  1.0000
  C   C160      1.0  0.47714  0.22217  0.78819  1.0000
  C   C161      1.0  0.39685  0.18020  0.52595  1.0000
  N   N10       1.0  0.30830  0.05852  0.93190  1.0000
  C   C162      1.0  0.00931  0.16530  0.91684  1.0000
  S   S47       1.0  0.37040  0.22160  0.69698  1.0000
  C   C163      1.0  0.30922  0.06096  0.86255  1.0000
  H   H193      1.0  0.17359  0.18323  0.76304  1.0000
  H   H194      1.0  0.42247  0.01334  0.55650  1.0000
  C   C164      1.0  0.36491  0.18115  0.56974  1.0000
  C   C165      1.0  0.46503  0.09057  0.54570  1.0000
  C   C166      1.0  0.31705  0.05679  0.82818  1.0000
  H   H195      1.0  0.41922  0.06020  0.54367  1.0000
  H   H196      1.0  0.34017  0.20367  0.65049  1.0000
  H   H197      1.0  0.27593  0.06825  0.91589  1.0000
  C   C167      1.0  0.37173  0.01763  0.50761  1.0000
  C   C168      1.0  0.38098  0.20056  0.54571  1.0000
  N   N11       1.0  0.44993  0.05759  0.50912  1.0000
  C   C169      1.0  0.37986  0.22039  0.90886  1.0000
  H   H198      1.0  0.36867  0.21881  0.59912  1.0000
  H   H199      1.0  0.30150  0.07836  0.92104  1.0000
  H   H200      1.0  0.01184  0.15833  0.89424  1.0000
  H   H201      1.0  0.31917  0.18872  0.58788  1.0000
  H   H202      1.0  0.31741  0.20765  0.94566  1.0000
  C   C170      1.0  0.01252  0.18671  0.93813  1.0000
  H   H203      1.0  0.44111  0.07654  0.56228  1.0000
  N   N12       1.0  0.34803  0.20186  0.59316  1.0000
  H   H204      1.0  0.29676  0.06882  0.86274  1.0000
  H   H205      1.0  0.40983  0.17473  0.51047  1.0000
  H   H206      1.0  0.30605  0.03919  0.95083  1.0000
  H   H207      1.0  0.20788  0.18144  0.80530  1.0000
  H   H208      1.0  0.36711  0.21629  0.89001  1.0000
  C   C171      1.0  0.32842  0.06123  0.95690  1.0000
  H   H209      1.0  0.33859  0.04320  0.79862  1.0000
  S   S48       1.0  0.30387  0.22161  0.66673  1.0000
  C   C172      1.0  0.36461  0.19462  0.56935  1.0000
  C   C173      1.0  0.28590  0.98321  0.60591  1.0000
  C   C174      1.0  0.29240  0.06989  0.93194  1.0000
  C   C175      1.0  0.00035  0.18324  0.87515  1.0000
  Fe  Fe23      1.0  0.24116  0.15849  0.95712  1.0000
  H   H210      1.0  0.45644  0.22020  0.97377  1.0000
  C   C176      1.0  0.46828  0.21387  0.69696  1.0000
  Fe  Fe24      1.0  0.37387  0.22774  0.75595  1.0000
  C   C177      1.0  0.28509  0.98316  0.89988  1.0000
  H   H211      1.0  0.44229  0.98626  0.51918  1.0000
  S   S49       1.0  0.41729  0.02380  0.48479  1.0000
  H   H212      1.0  0.24184  0.98270  0.80798  1.0000
  H   H213      1.0  0.48112  0.04718  0.52637  1.0000
  H   H214      1.0  0.34664  0.21936  0.56272  1.0000
  H   H215      1.0  0.42019  0.22359  0.74503  1.0000
  C   C178      1.0  0.47895  0.07409  0.48962  1.0000
  H   H216      1.0  0.36543  0.02109  0.48146  1.0000
  C   C179      1.0  0.48240  0.09420  0.52116  1.0000
  H   H217      1.0  0.41987  0.21295  0.70630  1.0000
  H   H218      1.0  0.27214  0.22842  0.60816  1.0000
  H   H219      1.0  0.42109  0.06607  0.47899  1.0000
  C   C180      1.0  0.48949  0.08592  0.49340  1.0000
  C   C181      1.0  0.43022  0.22045  0.72041  1.0000
  H   H220      1.0  0.41605  0.22820  0.82004  1.0000
  C   C182      1.0  0.45579  0.23067  0.97065  1.0000
  H   H221      1.0  0.48990  0.10359  0.52301  1.0000
  H   H222      1.0  0.47774  0.04830  0.47750  1.0000
  H   H223      1.0  0.99043  0.21057  0.82610  1.0000
  H   H224      1.0  0.99069  0.16483  0.92649  1.0000
  H   H225      1.0  0.40183  0.40680  0.01661  1.0000
  Fe  Fe25      1.0  0.37376  0.23188  0.18806  1.0000
  H   H226      1.0  0.28120  0.46188  0.05983  1.0000
  Fe  Fe26      1.0  0.33879  0.45215  0.23608  1.0000
  H   H227      1.0  0.27353  0.45136  0.02316  1.0000
  S   S50       1.0  0.32140  0.44263  0.28625  1.0000
  Fe  Fe27      1.0  0.36156  0.44708  0.15945  1.0000
  S   S51       1.0  0.35625  0.46723  0.14065  1.0000
  S   S52       1.0  0.37561  0.42979  0.12751  1.0000
  Fe  Fe28      1.0  0.36882  0.47239  0.19743  1.0000
  H   H228      1.0  0.07174  0.32146  0.43942  1.0000
  H   H229      1.0  0.25604  0.46355  0.47346  1.0000
  H   H230      1.0  0.39378  0.41988  0.27577  1.0000
  S   S53       1.0  0.37638  0.45223  0.21511  1.0000
  S   S54       1.0  0.32467  0.44569  0.18142  1.0000
  H   H231      1.0  0.37323  0.26228  0.35485  1.0000
  S   S55       1.0  0.37421  0.23797  0.24716  1.0000
  S   S56       1.0  0.31242  0.24825  0.27712  1.0000
  H   H232      1.0  0.31955  0.23272  0.47145  1.0000
  S   S57       1.0  0.38241  0.24265  0.13541  1.0000
  H   H233      1.0  0.20787  0.24346  0.45682  1.0000
  N   N13       1.0  0.17245  0.25051  0.44456  1.0000
  S   S58       1.0  0.47499  0.26593  0.06254  1.0000
  H   H234      1.0  0.39930  0.23758  0.36119  1.0000
  H   H235      1.0  0.31631  0.23711  0.06374  1.0000
  S   S59       1.0  0.25050  0.25498  0.42285  1.0000
  C   C183      1.0  0.34575  0.24640  0.39704  1.0000
  H   H236      1.0  0.39316  0.24772  0.40000  1.0000
  H   H237      1.0  0.20763  0.24548  0.39469  1.0000
  H   H238      1.0  0.37889  0.25103  0.31925  1.0000
  C   C184      1.0  0.29572  0.24981  0.31833  1.0000
  C   C185      1.0  0.28795  0.23933  0.33808  1.0000
  C   C186      1.0  0.27430  0.24112  0.37002  1.0000
  C   C187      1.0  0.26840  0.25336  0.38295  1.0000
  C   C188      1.0  0.27626  0.26384  0.36335  1.0000
  C   C189      1.0  0.28970  0.26205  0.33119  1.0000
  C   C190      1.0  0.17015  0.24419  0.40849  1.0000
  C   C191      1.0  0.38613  0.23982  0.38308  1.0000
  H   H239      1.0  0.27174  0.27332  0.37265  1.0000
  H   H240      1.0  0.29539  0.27023  0.31604  1.0000
  C   C192      1.0  0.40841  0.24938  0.11664  1.0000
  C   C193      1.0  0.43102  0.24699  0.13101  1.0000
  C   C194      1.0  0.45110  0.25222  0.11424  1.0000
  C   C195      1.0  0.44890  0.25992  0.08301  1.0000
  C   C196      1.0  0.42624  0.26237  0.06877  1.0000
  C   C197      1.0  0.40618  0.25706  0.08535  1.0000
  H   H241      1.0  0.47055  0.23465  0.98730  1.0000
  H   H242      1.0  0.46851  0.25030  0.12561  1.0000
  H   H243      1.0  0.42416  0.26848  0.04529  1.0000
  H   H244      1.0  0.38877  0.25908  0.07418  1.0000
  H   H245      1.0  0.36849  0.43015  0.27003  1.0000
  H   H246      1.0  0.13638  0.25740  0.44981  1.0000
  H   H247      1.0  0.26823  0.23294  0.38478  1.0000
  H   H248      1.0  0.37056  0.23167  0.06909  1.0000
  C   C198      1.0  0.32172  0.45758  0.42901  1.0000
  C   C199      1.0  0.38123  0.43931  0.05703  1.0000
  C   C200      1.0  0.38339  0.42886  0.08026  1.0000
  C   C201      1.0  0.39117  0.41718  0.06539  1.0000
  H   H249      1.0  0.09967  0.28201  0.44062  1.0000
  H   H250      1.0  0.37608  0.44845  0.06811  1.0000
  H   H251      1.0  0.39311  0.40903  0.08305  1.0000
  C   C202      1.0  0.32863  0.42542  0.40311  1.0000
  C   C203      1.0  0.30657  0.42661  0.38560  1.0000
  C   C204      1.0  0.30481  0.43188  0.35010  1.0000
  C   C205      1.0  0.32498  0.43606  0.33129  1.0000
  C   C206      1.0  0.34703  0.43488  0.34879  1.0000
  C   C207      1.0  0.34880  0.42960  0.38428  1.0000
  H   H252      1.0  0.29088  0.42330  0.39909  1.0000
  H   H253      1.0  0.28764  0.43268  0.33703  1.0000
  H   H254      1.0  0.36275  0.43808  0.33513  1.0000
  H   H255      1.0  0.36598  0.42874  0.39729  1.0000
  C   C208      1.0  0.32391  0.45135  0.07375  1.0000
  H   H256      1.0  0.18218  0.26884  0.46568  1.0000
  C   C209      1.0  0.28874  0.45538  0.03852  1.0000
  C   C210      1.0  0.32897  0.46140  0.39430  1.0000
  C   C211      1.0  0.31334  0.43597  0.02795  1.0000
  H   H257      1.0  0.38323  0.44602  0.00145  1.0000
  H   H258      1.0  0.26197  0.45883  0.41379  1.0000
  C   C212      1.0  0.42808  0.23294  0.02037  1.0000
  H   H259      1.0  0.20448  0.23542  0.33496  1.0000
  H   H260      1.0  0.35379  0.23433  0.02853  1.0000
  H   H261      1.0  0.38666  0.42577  0.23146  1.0000
  H   H262      1.0  0.31808  0.46672  0.33999  1.0000
  C   C213      1.0  0.31803  0.26102  0.42814  1.0000
  C   C214      1.0  0.39619  0.41587  0.02767  1.0000
  C   C215      1.0  0.18141  0.26351  0.43936  1.0000
  N   N14       1.0  0.36261  0.24320  0.36736  1.0000
  H   H263      1.0  0.15716  0.47786  0.24999  1.0000
  H   H264      1.0  0.13182  0.24083  0.40940  1.0000
  S   S60       1.0  0.33199  0.47273  0.22207  1.0000
  N   N15       1.0  0.30382  0.44521  0.05497  1.0000
  C   C216      1.0  0.38561  0.43794  0.01924  1.0000
  H   H265      1.0  0.29995  0.43215  0.10015  1.0000
  H   H266      1.0  0.04575  0.31323  0.45428  1.0000
  H   H267      1.0  0.43308  0.24111  0.15499  1.0000
  Fe  Fe29      1.0  0.24385  0.27194  0.46113  1.0000
  C   C217      1.0  0.39301  0.42622  0.00419  1.0000
  N   N16       1.0  0.36331  0.41120  0.25009  1.0000
  C   C218      1.0  0.37771  0.40087  0.23314  1.0000
  C   C219      1.0  0.34518  0.41527  0.22279  1.0000
  C   C220      1.0  0.35316  0.40676  0.28498  1.0000
  C   C221      1.0  0.36829  0.40262  0.31384  1.0000
  C   C222      1.0  0.32837  0.40646  0.29158  1.0000
  C   C223      1.0  0.35921  0.39861  0.34729  1.0000
  C   C224      1.0  0.31949  0.40228  0.32500  1.0000
  C   C225      1.0  0.33486  0.39845  0.35286  1.0000
  H   H268      1.0  0.39330  0.39815  0.25016  1.0000
  H   H269      1.0  0.38476  0.40373  0.20599  1.0000
  H   H270      1.0  0.36694  0.39223  0.22886  1.0000
  H   H271      1.0  0.35342  0.41868  0.19703  1.0000
  H   H272      1.0  0.33336  0.40735  0.21501  1.0000
  H   H273      1.0  0.33414  0.42331  0.23335  1.0000
  H   H274      1.0  0.38731  0.40264  0.31100  1.0000
  H   H275      1.0  0.31542  0.40973  0.27184  1.0000
  H   H276      1.0  0.37106  0.39584  0.36937  1.0000
  H   H277      1.0  0.30057  0.40244  0.32987  1.0000
  H   H278      1.0  0.32790  0.39568  0.37920  1.0000
  C   C226      1.0  0.32624  0.42508  0.03986  1.0000
  H   H279      1.0  0.47192  0.35654  0.98527  1.0000
  C   C227      1.0  0.37874  0.42219  0.25720  1.0000
  C   C228      1.0  0.28928  0.43867  0.08265  1.0000
  H   H280      1.0  0.16984  0.26904  0.42034  1.0000
  H   H281      1.0  0.28780  0.43290  0.45967  1.0000
  C   C229      1.0  0.28079  0.45962  0.40950  1.0000
  C   C230      1.0  0.31231  0.46424  0.36726  1.0000
  H   H282      1.0  0.29908  0.46154  0.02006  1.0000
  C   C231      1.0  0.43436  0.25020  0.97982  1.0000
  C   C232      1.0  0.29728  0.45668  0.43779  1.0000
  H   H283      1.0  0.34922  0.25633  0.32683  1.0000
  C   C233      1.0  0.14818  0.23983  0.39442  1.0000
  Fe  Fe30      1.0  0.32000  0.46625  0.16640  1.0000
  C   C234      1.0  0.14674  0.23404  0.35995  1.0000
  H   H284      1.0  0.33590  0.45588  0.05376  1.0000
  H   H285      1.0  0.27502  0.43311  0.06934  1.0000
  C   C235      1.0  0.36608  0.25372  0.34111  1.0000
  H   H286      1.0  0.28075  0.44553  0.10200  1.0000
  H   H287      1.0  0.29441  0.34013  0.46510  1.0000
  C   C236      1.0  0.28827  0.46331  0.37480  1.0000
  C   C237      1.0  0.19035  0.24237  0.38598  1.0000
  S   S61       1.0  0.28411  0.46992  0.13847  1.0000
  H   H288      1.0  0.31774  0.45885  0.09300  1.0000
  N   N17       1.0  0.28886  0.45264  0.47416  1.0000
  C   C238      1.0  0.31152  0.43785  0.98953  1.0000
  C   C239      1.0  0.12783  0.47979  0.45497  1.0000
  H   H289      1.0  0.33473  0.44448  0.09001  1.0000
  C   C240      1.0  0.34025  0.23725  0.42393  1.0000
  H   H290      1.0  0.44796  0.25386  0.99925  1.0000
  C   C241      1.0  0.33411  0.25843  0.40000  1.0000
  C   C242      1.0  0.35385  0.23217  0.34631  1.0000
  S   S62       1.0  0.21934  0.28899  0.45447  1.0000
  C   C243      1.0  0.06419  0.31578  0.46198  1.0000
  S   S63       1.0  0.26486  0.31832  0.47110  1.0000
  H   H291      1.0  0.27544  0.46519  0.35328  1.0000
  S   S64       1.0  0.33229  0.41869  0.44794  1.0000
  H   H292      1.0  0.19964  0.26351  0.42795  1.0000
  H   H293      1.0  0.34767  0.46172  0.38786  1.0000
  H   H294      1.0  0.33563  0.45506  0.44810  1.0000
  H   H295      1.0  0.32948  0.42333  0.06858  1.0000
  H   H296      1.0  0.14219  0.28340  0.45806  1.0000
  H   H297      1.0  0.33656  0.26590  0.38040  1.0000
  Fe  Fe31      1.0  0.48107  0.27638  0.00861  1.0000
  C   C244      1.0  0.10464  0.28205  0.46923  1.0000
  H   H298      1.0  0.23992  0.47518  0.10239  1.0000
  C   C245      1.0  0.14981  0.25163  0.46501  1.0000
  N   N18       1.0  0.43257  0.23619  0.98154  1.0000
  H   H299      1.0  0.41854  0.47814  0.14785  1.0000
  H   H300      1.0  0.30884  0.27013  0.42932  1.0000
  H   H301      1.0  0.41725  0.25499  0.98666  1.0000
  H   H302      1.0  0.07425  0.30665  0.46310  1.0000
  C   C246      1.0  0.18951  0.24330  0.46777  1.0000
  H   H303      1.0  0.41036  0.23650  0.02923  1.0000
  C   C247      1.0  0.32394  0.23992  0.45171  1.0000
  H   H304      1.0  0.05426  0.34047  0.47177  1.0000
  C   C248      1.0  0.18872  0.23660  0.35161  1.0000
  Fe  Fe32      1.0  0.33574  0.23283  0.24984  1.0000
  H   H305      1.0  0.34669  0.40846  0.02469  1.0000
  H   H306      1.0  0.44138  0.23730  0.03908  1.0000
  C   C249      1.0  0.33638  0.41653  0.01493  1.0000
  H   H307      1.0  0.33570  0.23399  0.33569  1.0000
  H   H308      1.0  0.38558  0.23121  0.40041  1.0000
  H   H309      1.0  0.26051  0.44134  0.45161  1.0000
  H   H310      1.0  0.12072  0.47560  0.43019  1.0000
  C   C250      1.0  0.31281  0.25178  0.45374  1.0000
  C   C251      1.0  0.27595  0.44058  0.47038  1.0000
  H   H311      1.0  0.33534  0.23602  0.10327  1.0000
  H   H312      1.0  0.18435  0.23321  0.47015  1.0000
  H   H313      1.0  0.30251  0.44596  0.97779  1.0000
  H   H314      1.0  0.14240  0.24216  0.47105  1.0000
  H   H315      1.0  0.12982  0.23083  0.34964  1.0000
  C   C252      1.0  0.16696  0.23244  0.33860  1.0000
  C   C253      1.0  0.33456  0.41873  0.97753  1.0000
  H   H316      1.0  0.29972  0.25376  0.47471  1.0000
  Fe  Fe33      1.0  0.28056  0.39180  0.53818  1.0000
  S   S65       1.0  0.31970  0.39248  0.52684  1.0000
  H   H317      1.0  0.31073  0.36462  0.60184  1.0000
  Fe  Fe34      1.0  0.27781  0.41994  0.55967  1.0000
  S   S66       1.0  0.31700  0.42213  0.55054  1.0000
  S   S67       1.0  0.25922  0.43879  0.57430  1.0000
  Fe  Fe35      1.0  0.32196  0.40360  0.57988  1.0000
  S   S68       1.0  0.35350  0.39964  0.61873  1.0000
  S   S69       1.0  0.28321  0.40210  0.59260  1.0000
  Fe  Fe36      1.0  0.13848  0.46488  0.67311  1.0000
  S   S70       1.0  0.15834  0.44747  0.65036  1.0000
  C   C254      1.0  0.30797  0.35446  0.60118  1.0000
  S   S71       1.0  0.05144  0.46568  0.71758  1.0000
  S   S72       1.0  0.10408  0.47034  0.64502  1.0000
  S   S73       1.0  0.12205  0.46448  0.72926  1.0000
  Fe  Fe37      1.0  0.41295  0.41208  0.91164  1.0000
  S   S74       1.0  0.45189  0.40756  0.90322  1.0000
  C   C255      1.0  0.12080  0.34167  0.51927  1.0000
  Fe  Fe38      1.0  0.40019  0.40441  0.83114  1.0000
  S   S75       1.0  0.43804  0.39965  0.81808  1.0000
  S   S76       1.0  0.36789  0.40414  0.79262  1.0000
  Fe  Fe39      1.0  0.43888  0.39001  0.87333  1.0000
  S   S77       1.0  0.45772  0.37058  0.87006  1.0000
  Fe  Fe40      1.0  0.44799  0.41731  0.84886  1.0000
  S   S78       1.0  0.46834  0.43355  0.82312  1.0000
  S   S79       1.0  0.40016  0.39395  0.88492  1.0000
  S   S80       1.0  0.40994  0.42262  0.85850  1.0000
  H   H318      1.0  0.01084  0.43283  0.54990  1.0000
  C   C256      1.0  0.38600  0.23307  0.90556  1.0000
  H   H319      1.0  0.04544  0.46681  0.80045  1.0000
  H   H320      1.0  0.04730  0.33934  0.52011  1.0000
  C   C257      1.0  0.08680  0.28157  0.49601  1.0000
  H   H321      1.0  0.08563  0.45032  0.83120  1.0000
  H   H322      1.0  0.40653  0.41767  0.76355  1.0000
  S   S81       1.0  0.39371  0.24586  0.76837  1.0000
  S   S82       1.0  0.01154  0.29328  0.56210  1.0000
  Fe  Fe41      1.0  0.01978  0.28403  0.50806  1.0000
  C   C258      1.0  0.07773  0.47695  0.89277  1.0000
  Fe  Fe42      1.0  0.20467  0.28371  0.50973  1.0000
  S   S83       1.0  0.23102  0.29557  0.54125  1.0000
  S   S84       1.0  0.16601  0.28331  0.53023  1.0000
  H   H323      1.0  0.12615  0.35142  0.52303  1.0000
  Fe  Fe43      1.0  0.25486  0.27821  0.54164  1.0000
  S   S85       1.0  0.27948  0.27465  0.59032  1.0000
  C   C259      1.0  0.13568  0.28278  0.51589  1.0000
  C   C260      1.0  0.11784  0.28230  0.54265  1.0000
  C   C261      1.0  0.09360  0.28176  0.53287  1.0000
  H   H324      1.0  0.26903  0.43736  0.49717  1.0000
  C   C262      1.0  0.02895  0.46867  0.60599  1.0000
  C   C263      1.0  0.40274  0.23837  0.92924  1.0000
  H   H325      1.0  0.12282  0.28232  0.57126  1.0000
  H   H326      1.0  0.08023  0.28136  0.55390  1.0000
  H   H327      1.0  0.44010  0.25341  0.95244  1.0000
  H   H328      1.0  0.45911  0.24139  0.71801  1.0000
  S   S86       1.0  0.47087  0.25360  0.89331  1.0000
  C   C264      1.0  0.27542  0.24854  0.59919  1.0000
  C   C265      1.0  0.28641  0.25972  0.61042  1.0000
  C   C266      1.0  0.30330  0.25912  0.63881  1.0000
  C   C267      1.0  0.30901  0.24753  0.65607  1.0000
  H   H329      1.0  0.41369  0.44295  0.80186  1.0000
  H   H330      1.0  0.26235  0.24886  0.57749  1.0000
  H   H331      1.0  0.31189  0.26769  0.64777  1.0000
  H   H332      1.0  0.32186  0.24726  0.67812  1.0000
  C   C268      1.0  0.44722  0.25187  0.86177  1.0000
  C   C269      1.0  0.43899  0.23964  0.85386  1.0000
  C   C270      1.0  0.42199  0.23767  0.82617  1.0000
  C   C271      1.0  0.41333  0.24794  0.80579  1.0000
  C   C272      1.0  0.42124  0.26019  0.81419  1.0000
  C   C273      1.0  0.43794  0.26218  0.84229  1.0000
  C   C274      1.0  0.27254  0.46240  0.48978  1.0000
  H   H333      1.0  0.19057  0.24735  0.49593  1.0000
  H   H334      1.0  0.41461  0.26818  0.79854  1.0000
  H   H335      1.0  0.44426  0.27163  0.84792  1.0000
  C   C275      1.0  0.45466  0.35575  0.89268  1.0000
  C   C276      1.0  0.43882  0.35403  0.92146  1.0000
  H   H336      1.0  0.05863  0.47710  0.89321  1.0000
  C   C277      1.0  0.45259  0.33192  0.92873  1.0000
  C   C278      1.0  0.46778  0.33354  0.89907  1.0000
  C   C279      1.0  0.46895  0.34539  0.88145  1.0000
  C   C280      1.0  0.13090  0.31937  0.51801  1.0000
  C   C281      1.0  0.24382  0.33733  0.51393  1.0000
  H   H337      1.0  0.22751  0.35254  0.54517  1.0000
  H   H338      1.0  0.00380  0.33289  0.65370  1.0000
  C   C282      1.0  0.28102  0.23696  0.61663  1.0000
  C   C283      1.0  0.99198  0.30985  0.64723  1.0000
  Fe  Fe44      1.0  0.08875  0.47148  0.70144  1.0000
  S   S87       1.0  0.25652  0.37444  0.53843  1.0000
  C   C284      1.0  0.03656  0.45202  0.70153  1.0000
  C   C285      1.0  0.04837  0.44234  0.68236  1.0000
  C   C286      1.0  0.03603  0.43148  0.67093  1.0000
  C   C287      1.0  0.01170  0.43026  0.67797  1.0000
  H   H339      1.0  0.42590  0.34105  0.96210  1.0000
  C   C288      1.0  0.01224  0.45078  0.70872  1.0000
  H   H340      1.0  0.06709  0.44312  0.67676  1.0000
  H   H341      1.0  0.04541  0.42398  0.65648  1.0000
  H   H342      1.0  0.26678  0.45982  0.51792  1.0000
  C   C289      1.0  0.23162  0.44091  0.59708  1.0000
  C   C290      1.0  0.21619  0.43087  0.60257  1.0000
  C   C291      1.0  0.19406  0.43306  0.61941  1.0000
  C   C292      1.0  0.18712  0.44527  0.63138  1.0000
  C   C293      1.0  0.20269  0.45531  0.62632  1.0000
  C   C294      1.0  0.22469  0.45314  0.60897  1.0000
  H   H343      1.0  0.22119  0.42142  0.59356  1.0000
  H   H344      1.0  0.19779  0.46472  0.63567  1.0000
  H   H345      1.0  0.23653  0.46098  0.60507  1.0000
  C   C295      1.0  0.35694  0.40090  0.66720  1.0000
  C   C296      1.0  0.37935  0.39835  0.68288  1.0000
  C   C297      1.0  0.38309  0.39929  0.72102  1.0000
  C   C298      1.0  0.36443  0.40289  0.74412  1.0000
  C   C299      1.0  0.34198  0.40534  0.72848  1.0000
  C   C300      1.0  0.33822  0.40435  0.69033  1.0000
  H   H346      1.0  0.39391  0.39558  0.66532  1.0000
  H   H347      1.0  0.40033  0.39708  0.73245  1.0000
  H   H348      1.0  0.32735  0.40805  0.74599  1.0000
  H   H349      1.0  0.32087  0.40632  0.67882  1.0000
  H   H350      1.0  0.38412  0.42648  0.62713  1.0000
  C   C301      1.0  0.25954  0.35886  0.51967  1.0000
  C   C302      1.0  0.12885  0.28279  0.47903  1.0000
  N   N19       1.0  0.06498  0.32283  0.49720  1.0000
  C   C303      1.0  0.08917  0.48069  0.92505  1.0000
  H   H351      1.0  0.14628  0.47808  0.89747  1.0000
  H   H352      1.0  0.99950  0.35557  0.66308  1.0000
  H   H353      1.0  0.40704  0.24816  0.92430  1.0000
  N   N20       1.0  0.40851  0.43694  0.74579  1.0000
  Fe  Fe45      1.0  0.47280  0.29865  0.95522  1.0000
  C   C304      1.0  0.41972  0.42440  0.75294  1.0000
  H   H354      1.0  0.29824  0.31479  0.53513  1.0000
  H   H355      1.0  0.14398  0.31176  0.52084  1.0000
  H   H356      1.0  0.44614  0.23159  0.86870  1.0000
  C   C305      1.0  0.27851  0.35521  0.49733  1.0000
  C   C306      1.0  0.99982  0.44000  0.69683  1.0000
  H   H357      1.0  0.43403  0.42503  0.77381  1.0000
  H   H358      1.0  0.42772  0.42006  0.72810  1.0000
  C   C307      1.0  0.39003  0.43563  0.71714  1.0000
  H   H359      1.0  0.41917  0.45516  0.72623  1.0000
  C   C308      1.0  0.24226  0.34982  0.52791  1.0000
  H   H360      1.0  0.07632  0.47875  0.77212  1.0000
  S   S88       1.0  0.22760  0.26605  0.51469  1.0000
  C   C309      1.0  0.31746  0.30603  0.59888  1.0000
  C   C310      1.0  0.34861  0.43657  0.69612  1.0000
  N   N21       1.0  0.07943  0.47041  0.82559  1.0000
  C   C311      1.0  0.05558  0.31463  0.52635  1.0000
  C   C312      1.0  0.36555  0.43801  0.72383  1.0000
  H   H361      1.0  0.12713  0.47187  0.84060  1.0000
  C   C313      1.0  0.48777  0.23145  0.80999  1.0000
  C   C314      1.0  0.26254  0.33376  0.49097  1.0000
  C   C315      1.0  0.99905  0.45625  0.57300  1.0000
  S   S89       1.0  0.39630  0.42498  0.95578  1.0000
  H   H362      1.0  0.31320  0.29573  0.59735  1.0000
  H   H363      1.0  0.17398  0.45437  0.56256  1.0000
  H   H364      1.0  0.35890  0.44074  0.75038  1.0000
  H   H365      1.0  0.13274  0.46201  0.48117  1.0000
  C   C316      1.0  0.09085  0.47348  0.86103  1.0000
  H   H366      1.0  0.48111  0.34656  0.85900  1.0000
  H   H367      1.0  0.23027  0.33057  0.52027  1.0000
  N   N22       1.0  0.29594  0.31413  0.59388  1.0000
  C   C317      1.0  0.99812  0.43331  0.57300  1.0000
  H   H368      1.0  0.33065  0.30763  0.57695  1.0000
  H   H369      1.0  0.18517  0.46674  0.53415  1.0000
  H   H370      1.0  0.32580  0.30765  0.62609  1.0000
  H   H371      1.0  0.28356  0.30110  0.55263  1.0000
  H   H372      1.0  0.06520  0.30538  0.52821  1.0000
  C   C318      1.0  0.27841  0.31022  0.62163  1.0000
  C   C319      1.0  0.28133  0.33679  0.59602  1.0000
  H   H373      1.0  0.44067  0.44731  0.75522  1.0000
  H   H374      1.0  0.47856  0.32565  0.88963  1.0000
  C   C320      1.0  0.30825  0.45053  0.50115  1.0000
  N   N23       1.0  0.14862  0.46914  0.54932  1.0000
  H   H375      1.0  0.43682  0.44210  0.70926  1.0000
  Fe  Fe46      1.0  0.31172  0.41115  0.49813  1.0000
  H   H376      1.0  0.26058  0.31451  0.61691  1.0000
  S   S90       1.0  0.27224  0.40968  0.50607  1.0000
  H   H377      1.0  0.16590  0.45492  0.51548  1.0000
  H   H378      1.0  0.26880  0.31619  0.55239  1.0000
  H   H379      1.0  0.04477  0.47874  0.83497  1.0000
  H   H380      1.0  0.45967  0.23281  0.94148  1.0000
  H   H381      1.0  0.00109  0.35318  0.56862  1.0000
  H   H382      1.0  0.27021  0.35646  0.59709  1.0000
  S   S91       1.0  0.45161  0.31749  0.95399  1.0000
  C   C321      1.0  0.42705  0.44576  0.73347  1.0000
  Fe  Fe47      1.0  0.24706  0.29976  0.48669  1.0000
  C   C322      1.0  0.32363  0.33292  0.60026  1.0000
  H   H383      1.0  0.05662  0.31936  0.55357  1.0000
  C   C323      1.0  0.01589  0.47545  0.54624  1.0000
  H   H384      1.0  0.34499  0.34971  0.60371  1.0000
  S   S92       1.0  0.27243  0.28302  0.48875  1.0000
  C   C324      1.0  0.01379  0.45833  0.60395  1.0000
  C   C325      1.0  0.43787  0.34220  0.93939  1.0000
  C   C326      1.0  0.39627  0.43156  0.68131  1.0000
  H   H385      1.0  0.13170  0.45520  0.58318  1.0000
  H   H386      1.0  0.39069  0.45139  0.77796  1.0000
  C   C327      1.0  0.39926  0.44189  0.78116  1.0000
  C   C328      1.0  0.13445  0.47213  0.48451  1.0000
  C   C329      1.0  0.28510  0.34983  0.59848  1.0000
  C   C330      1.0  0.35539  0.43262  0.66128  1.0000
  H   H387      1.0  0.34211  0.43103  0.64026  1.0000
  H   H388      1.0  0.32998  0.43814  0.70194  1.0000
  H   H389      1.0  0.26328  0.33376  0.59219  1.0000
  H   H390      1.0  0.99977  0.31413  0.62230  1.0000
  C   C331      1.0  0.37915  0.43008  0.65392  1.0000
  C   C332      1.0  0.08975  0.32619  0.50599  1.0000
  H   H391      1.0  0.28125  0.47177  0.49151  1.0000
  H   H392      1.0  0.07985  0.45542  0.78501  1.0000
  C   C333      1.0  0.28624  0.31143  0.55702  1.0000
  H   H393      1.0  0.30122  0.44779  0.52840  1.0000
  C   C334      1.0  0.30045  0.32790  0.59719  1.0000
  C   C335      1.0  0.12713  0.47747  0.89640  1.0000
  H   H394      1.0  0.00294  0.45822  0.72354  1.0000
  H   H395      1.0  0.11192  0.46665  0.56254  1.0000
  H   H396      1.0  0.08507  0.34692  0.50911  1.0000
  C   C336      1.0  0.10737  0.31654  0.50981  1.0000
  C   C337      1.0  0.08862  0.45808  0.81133  1.0000
  H   H397      1.0  0.41436  0.42917  0.67439  1.0000
  C   C338      1.0  0.29772  0.23640  0.64531  1.0000
  H   H398      1.0  0.38627  0.43528  0.79334  1.0000
  H   H399      1.0  0.03669  0.31235  0.52122  1.0000
  C   C339      1.0  0.27987  0.34277  0.48286  1.0000
  H   H400      1.0  0.42767  0.36185  0.93046  1.0000
  C   C340      1.0  0.11592  0.47384  0.86393  1.0000
  S   S93       1.0  0.05649  0.28101  0.48165  1.0000
  H   H401      1.0  0.47692  0.25732  0.75757  1.0000
  C   C341      1.0  0.16930  0.46096  0.53985  1.0000
  C   C342      1.0  0.12833  0.46090  0.55798  1.0000
  H   H402      1.0  0.27567  0.29977  0.62112  1.0000
  H   H403      1.0  0.12459  0.45390  0.53604  1.0000
  H   H404      1.0  0.33931  0.32695  0.60066  1.0000
  H   H405      1.0  0.31876  0.45924  0.50550  1.0000
  C   C343      1.0  0.32211  0.42933  0.96485  1.0000
  H   H406      1.0  0.28428  0.31285  0.64970  1.0000
  H   H407      1.0  0.10786  0.45824  0.80538  1.0000
  H   H408      1.0  0.15828  0.46983  0.60652  1.0000
  C   C344      1.0  0.32720  0.34603  0.60213  1.0000
  H   H409      1.0  0.18219  0.42522  0.62315  1.0000
  N   N24       1.0  0.38403  0.36456  0.79852  1.0000
  C   C345      1.0  0.40578  0.37222  0.80016  1.0000
  C   C346      1.0  0.36845  0.36887  0.82893  1.0000
  C   C347      1.0  0.39056  0.35109  0.80536  1.0000
  C   C348      1.0  0.37297  0.36591  0.76186  1.0000
  C   C349      1.0  0.38562  0.36211  0.73005  1.0000
  C   C350      1.0  0.35004  0.37138  0.75636  1.0000
  C   C351      1.0  0.37604  0.36381  0.69502  1.0000
  C   C352      1.0  0.34057  0.37292  0.72121  1.0000
  C   C353      1.0  0.35358  0.36923  0.69062  1.0000
  H   H410      1.0  0.40167  0.38227  0.79312  1.0000
  H   H411      1.0  0.41401  0.37206  0.82791  1.0000
  H   H412      1.0  0.41969  0.36875  0.78106  1.0000
  H   H413      1.0  0.36395  0.37917  0.82672  1.0000
  H   H414      1.0  0.37722  0.36764  0.85609  1.0000
  H   H415      1.0  0.35176  0.36342  0.82965  1.0000
  H   H416      1.0  0.40405  0.34740  0.78587  1.0000
  H   H417      1.0  0.39844  0.34978  0.83317  1.0000
  H   H418      1.0  0.37478  0.34493  0.80319  1.0000
  H   H419      1.0  0.40328  0.35808  0.73202  1.0000
  H   H420      1.0  0.33932  0.37496  0.77861  1.0000
  H   H421      1.0  0.38628  0.36119  0.67107  1.0000
  H   H422      1.0  0.32338  0.37749  0.71754  1.0000
  H   H423      1.0  0.34650  0.37096  0.66342  1.0000
  C   C354      1.0  0.15460  0.47628  0.58316  1.0000
  H   H424      1.0  0.34349  0.41241  0.95838  1.0000
  C   C355      1.0  0.05323  0.46949  0.82750  1.0000
  H   H425      1.0  0.04782  0.46213  0.84734  1.0000
  C   C356      1.0  0.04867  0.33398  0.49386  1.0000
  C   C357      1.0  0.00054  0.46516  0.54403  1.0000
  H   H426      1.0  0.15592  0.33409  0.52891  1.0000
  C   C358      1.0  0.13762  0.33192  0.52264  1.0000
  H   H427      1.0  0.99238  0.29937  0.64270  1.0000
  H   H428      1.0  0.03025  0.33108  0.48705  1.0000
  Fe  Fe48      1.0  0.47949  0.27134  0.92658  1.0000
  H   H429      1.0  0.03990  0.47004  0.63018  1.0000
  H   H430      1.0  0.00373  0.31175  0.67108  1.0000
  C   C359      1.0  0.48772  0.24406  0.79890  1.0000
  H   H431      1.0  0.01373  0.45194  0.62689  1.0000
  H   H432      1.0  0.00856  0.43256  0.59875  1.0000
  C   C360      1.0  0.09716  0.33892  0.51114  1.0000
  H   H433      1.0  0.32119  0.43109  0.93569  1.0000
  H   H434      1.0  0.37814  0.23876  0.88386  1.0000
  S   S94       1.0  0.45351  0.28034  0.96568  1.0000
  H   H435      1.0  0.10307  0.30668  0.50653  1.0000
  H   H436      1.0  0.29197  0.36201  0.49080  1.0000
  C   C361      1.0  0.47736  0.24744  0.76568  1.0000
  C   C362      1.0  0.46694  0.23824  0.74345  1.0000
  S   S95       1.0  0.99376  0.32751  0.54477  1.0000
  C   C363      1.0  0.03002  0.47721  0.57716  1.0000
  S   S96       1.0  0.99713  0.41644  0.66226  1.0000
  H   H437      1.0  0.32037  0.44264  0.49243  1.0000
  C   C364      1.0  0.14258  0.47745  0.51797  1.0000
  C   C365      1.0  0.08493  0.48048  0.79902  1.0000
  H   H438      1.0  0.15225  0.25652  0.49190  1.0000
  H   H439      1.0  0.49014  0.37453  0.95352  1.0000
  C   C366      1.0  0.41389  0.23105  0.95723  1.0000
  C   C367      1.0  0.48948  0.35544  0.97370  1.0000
  S   S97       1.0  0.99714  0.29804  0.47637  1.0000
  Fe  Fe49      1.0  0.01872  0.52127  0.34919  1.0000
  S   S98       1.0  0.05672  0.51439  0.34943  1.0000
  Fe  Fe50      1.0  0.03134  0.54556  0.39172  1.0000
  S   S99       1.0  0.07001  0.53980  0.39490  1.0000
  S   S100      1.0  0.01773  0.56278  0.42526  1.0000
  Fe  Fe51      1.0  0.06614  0.53432  0.33501  1.0000
  S   S101      1.0  0.09489  0.54091  0.29468  1.0000
  Fe  Fe52      1.0  0.05731  0.52027  0.40885  1.0000
  S   S102      1.0  0.99485  0.50689  0.32087  1.0000
  S   S103      1.0  0.02799  0.54111  0.33131  1.0000
  S   S104      1.0  0.01890  0.52617  0.40903  1.0000
  Fe  Fe53      1.0  0.14745  0.52888  0.08534  1.0000
  S   S105      1.0  0.17882  0.54144  0.09245  1.0000
  S   S106      1.0  0.12238  0.52290  0.13154  1.0000
  Fe  Fe54      1.0  0.16988  0.54971  0.03729  1.0000
  S   S107      1.0  0.16348  0.57060  0.02224  1.0000
  Fe  Fe55      1.0  0.19854  0.52618  0.06078  1.0000
  S   S108      1.0  0.23514  0.52164  0.08478  1.0000
  S   S109      1.0  0.13678  0.53816  0.03232  1.0000
  S   S110      1.0  0.16734  0.51325  0.05520  1.0000
  H   H440      1.0  0.06072  0.59711  0.45453  1.0000
  Fe  Fe56      1.0  0.12683  0.71735  0.20607  1.0000
  S   S111      1.0  0.08719  0.71771  0.21240  1.0000
  S   S112      1.0  0.14409  0.71123  0.15229  1.0000
  Fe  Fe57      1.0  0.09401  0.71363  0.27238  1.0000
  S   S113      1.0  0.08134  0.69689  0.30622  1.0000
  S   S114      1.0  0.13344  0.71174  0.26412  1.0000
  H   H441      1.0  0.10195  0.56877  0.29911  1.0000
  S   S115      1.0  0.47324  0.64929  0.09131  1.0000
  H   H442      1.0  0.47429  0.57311  0.16569  1.0000
  S   S116      1.0  0.46527  0.67080  0.02831  1.0000
  H   H443      1.0  0.38929  0.70626  0.14421  1.0000
  Fe  Fe58      1.0  0.44909  0.65214  0.04245  1.0000
  S   S117      1.0  0.41006  0.64802  0.05571  1.0000
  S   S118      1.0  0.47335  0.64090  0.00492  1.0000
  Fe  Fe59      1.0  0.23303  0.63859  0.00372  1.0000
  Fe  Fe60      1.0  0.22672  0.66133  0.05544  1.0000
  S   S119      1.0  0.21466  0.66534  0.11395  1.0000
  Fe  Fe61      1.0  0.26944  0.66012  0.00274  1.0000
  C   C368      1.0  0.12658  0.72009  0.01949  1.0000
  S   S120      1.0  0.25663  0.64725  0.04676  1.0000
  H   H444      1.0  0.42813  0.51503  0.13476  1.0000
  H   H445      1.0  0.07761  0.61995  0.36220  1.0000
  C   C369      1.0  0.38199  0.65266  0.03656  1.0000
  C   C370      1.0  0.36111  0.64861  0.05364  1.0000
  C   C371      1.0  0.33847  0.65220  0.04013  1.0000
  C   C372      1.0  0.33633  0.65998  0.00932  1.0000
  H   H446      1.0  0.16015  0.52403  0.22685  1.0000
  C   C373      1.0  0.37988  0.66029  0.00550  1.0000
  H   H447      1.0  0.36239  0.64270  0.07765  1.0000
  H   H448      1.0  0.32266  0.64909  0.05379  1.0000
  H   H449      1.0  0.47862  0.53834  0.11968  1.0000
  H   H450      1.0  0.39241  0.68147  0.04875  1.0000
  C   C374      1.0  0.05537  0.69417  0.33212  1.0000
  C   C375      1.0  0.05398  0.68288  0.35229  1.0000
  C   C376      1.0  0.03365  0.68009  0.37276  1.0000
  C   C377      1.0  0.01435  0.68855  0.37312  1.0000
  C   C378      1.0  0.01579  0.69992  0.35331  1.0000
  C   C379      1.0  0.03622  0.70275  0.33297  1.0000
  H   H451      1.0  0.06867  0.67618  0.35175  1.0000
  H   H452      1.0  0.03281  0.67130  0.38778  1.0000
  C   C380      1.0  0.19056  0.52390  0.17600  1.0000
  H   H453      1.0  0.03700  0.71145  0.31752  1.0000
  C   C381      1.0  0.16248  0.69789  0.14223  1.0000
  C   C382      1.0  0.17002  0.68932  0.16913  1.0000
  C   C383      1.0  0.18577  0.67929  0.16003  1.0000
  C   C384      1.0  0.19387  0.67764  0.12396  1.0000
  C   C385      1.0  0.18587  0.68603  0.09695  1.0000
  C   C386      1.0  0.17039  0.69614  0.10613  1.0000
  H   H454      1.0  0.16385  0.69047  0.19688  1.0000
  H   H455      1.0  0.19188  0.67285  0.18110  1.0000
  H   H456      1.0  0.19195  0.68486  0.06909  1.0000
  H   H457      1.0  0.16467  0.70268  0.08509  1.0000
  S   S121      1.0  0.24122  0.67504  0.01487  1.0000
  C   C387      1.0  0.37814  0.53751  0.10077  1.0000
  H   H458      1.0  0.23845  0.71791  0.27363  1.0000
  C   C388      1.0  0.18368  0.58333  0.01806  1.0000
  C   C389      1.0  0.20820  0.58151  0.02077  1.0000
  C   C390      1.0  0.22349  0.59187  0.01674  1.0000
  H   H459      1.0  0.32667  0.69756  0.08410  1.0000
  H   H460      1.0  0.21543  0.57210  0.02563  1.0000
  C   C391      1.0  0.22101  0.70871  0.20891  1.0000
  H   H461      1.0  0.99038  0.48555  0.21052  1.0000
  H   H462      1.0  0.22134  0.50941  0.21654  1.0000
  C   C392      1.0  0.45079  0.48887  0.14340  1.0000
  C   C393      1.0  0.46471  0.49863  0.15805  1.0000
  C   C394      1.0  0.45682  0.50506  0.18937  1.0000
  C   C395      1.0  0.43502  0.50186  0.20538  1.0000
  C   C396      1.0  0.18380  0.50420  0.14538  1.0000
  H   H463      1.0  0.12349  0.49887  0.43520  1.0000
  H   H464      1.0  0.43924  0.54479  0.04309  1.0000
  C   C397      1.0  0.23747  0.49540  0.09385  1.0000
  C   C398      1.0  0.24853  0.50707  0.09870  1.0000
  C   C399      1.0  0.27082  0.50732  0.11606  1.0000
  H   H465      1.0  0.26209  0.68441  0.20197  1.0000
  H   H466      1.0  0.22046  0.49502  0.08021  1.0000
  H   H467      1.0  0.20288  0.52688  0.15399  1.0000
  H   H468      1.0  0.43904  0.62635  0.05883  1.0000
  C   C400      1.0  0.10146  0.53607  0.24872  1.0000
  C   C401      1.0  0.09104  0.52552  0.23222  1.0000
  C   C402      1.0  0.09760  0.52173  0.19644  1.0000
  C   C403      1.0  0.11446  0.52847  0.17632  1.0000
  C   C404      1.0  0.12468  0.53913  0.19263  1.0000
  C   C405      1.0  0.11835  0.54282  0.22861  1.0000
  H   H469      1.0  0.07812  0.52016  0.24715  1.0000
  H   H470      1.0  0.08953  0.51347  0.18428  1.0000
  H   H471      1.0  0.13755  0.54449  0.17762  1.0000
  H   H472      1.0  0.12660  0.55099  0.24095  1.0000
  C   C406      1.0  0.01375  0.57959  0.42243  1.0000
  C   C407      1.0  0.01618  0.58624  0.38970  1.0000
  C   C408      1.0  0.18999  0.60605  0.00798  1.0000
  H   H473      1.0  0.01589  0.60460  0.36376  1.0000
  H   H474      1.0  0.42588  0.62379  0.15886  1.0000
  H   H475      1.0  0.01988  0.58112  0.36475  1.0000
  H   H476      1.0  0.18600  0.49372  0.14497  1.0000
  C   C409      1.0  0.46565  0.58156  0.15482  1.0000
  H   H477      1.0  0.15577  0.59721  0.00953  1.0000
  C   C410      1.0  0.04634  0.70855  0.45210  1.0000
  N   N25       1.0  0.08693  0.57572  0.34981  1.0000
  C   C411      1.0  0.06454  0.56887  0.34387  1.0000
  C   C412      1.0  0.09762  0.57791  0.31336  1.0000
  C   C413      1.0  0.10364  0.56743  0.37060  1.0000
  C   C414      1.0  0.08178  0.58752  0.37066  1.0000
  C   C415      1.0  0.08329  0.59979  0.35494  1.0000
  C   C416      1.0  0.07366  0.58691  0.40731  1.0000
  C   C417      1.0  0.07699  0.61069  0.37487  1.0000
  C   C418      1.0  0.06768  0.59787  0.42705  1.0000
  C   C419      1.0  0.47829  0.59272  0.15194  1.0000
  H   H478      1.0  0.05589  0.56633  0.37004  1.0000
  H   H479      1.0  0.05164  0.57469  0.32786  1.0000
  H   H480      1.0  0.06749  0.55989  0.32844  1.0000
  H   H481      1.0  0.08518  0.58306  0.29477  1.0000
  H   H482      1.0  0.11438  0.58325  0.31579  1.0000
  H   H483      1.0  0.09602  0.56403  0.39664  1.0000
  H   H484      1.0  0.10845  0.55867  0.35488  1.0000
  H   H485      1.0  0.12026  0.57248  0.37728  1.0000
  H   H486      1.0  0.08880  0.60123  0.32710  1.0000
  H   H487      1.0  0.07077  0.57792  0.42055  1.0000
  C   C420      1.0  0.40807  0.61369  0.09627  1.0000
  C   C421      1.0  0.06917  0.60973  0.41079  1.0000
  C   C422      1.0  0.01800  0.72720  0.01147  1.0000
  C   C423      1.0  0.46007  0.53580  0.12621  1.0000
  C   C424      1.0  0.40155  0.53998  0.09081  1.0000
  H   H488      1.0  0.34966  0.68416  0.04138  1.0000
  H   H489      1.0  0.45266  0.54347  0.14394  1.0000
  H   H490      1.0  0.46127  0.52702  0.14282  1.0000
  C   C425      1.0  0.23818  0.69942  0.21936  1.0000
  H   H491      1.0  0.40421  0.54814  0.07375  1.0000
  H   H492      1.0  0.36380  0.54364  0.09132  1.0000
  H   H493      1.0  0.42895  0.70856  0.13259  1.0000
  H   H494      1.0  0.46736  0.51253  0.20114  1.0000
  C   C426      1.0  0.43356  0.69649  0.06904  1.0000
  C   C427      1.0  0.38315  0.68745  0.06824  1.0000
  C   C428      1.0  0.35709  0.70266  0.11656  1.0000
  N   N26       1.0  0.20835  0.71631  0.23711  1.0000
  H   H495      1.0  0.20825  0.70153  0.27819  1.0000
  H   H496      1.0  0.42941  0.70672  0.06479  1.0000
  H   H497      1.0  0.42846  0.69139  0.04358  1.0000
  H   H498      1.0  0.06345  0.61815  0.42567  1.0000
  H   H499      1.0  0.40572  0.60615  0.07521  1.0000
  S   S122      1.0  0.23496  0.61678  0.00465  1.0000
  C   C429      1.0  0.12956  0.49291  0.45758  1.0000
  H   H500      1.0  0.44415  0.52123  0.04689  1.0000
  H   H501      1.0  0.44345  0.55437  0.08405  1.0000
  C   C430      1.0  0.42060  0.53199  0.10266  1.0000
  C   C431      1.0  0.45490  0.52300  0.07194  1.0000
  C   C432      1.0  0.37306  0.52715  0.12275  1.0000
  H   H502      1.0  0.44602  0.67605  0.11089  1.0000
  H   H503      1.0  0.22838  0.50984  0.16871  1.0000
  H   H504      1.0  0.16001  0.57883  0.10125  1.0000
  C   C433      1.0  0.28199  0.49608  0.12845  1.0000
  C   C434      1.0  0.17470  0.59567  0.01164  1.0000
  Fe  Fe62      1.0  0.15923  0.52362  0.00224  1.0000
  H   H505      1.0  0.18542  0.71316  0.28319  1.0000
  C   C435      1.0  0.44899  0.54552  0.06951  1.0000
  S   S123      1.0  0.20236  0.65192  0.01531  1.0000
  H   H506      1.0  0.45086  0.69633  0.13673  1.0000
  C   C436      1.0  0.15823  0.48794  0.24475  1.0000
  C   C437      1.0  0.21577  0.50598  0.18903  1.0000
  H   H507      1.0  0.21841  0.49552  0.18823  1.0000
  S   S124      1.0  0.07064  0.50513  0.44936  1.0000
  C   C438      1.0  0.46770  0.60353  0.13662  1.0000
  C   C439      1.0  0.12332  0.72524  0.05445  1.0000
  C   C440      1.0  0.42911  0.48561  0.15958  1.0000
  H   H508      1.0  0.13397  0.51593  0.27295  1.0000
  H   H509      1.0  0.00096  0.70653  0.35339  1.0000
  S   S125      1.0  0.19213  0.53553  0.00587  1.0000
  H   H510      1.0  0.40077  0.62258  0.08386  1.0000
  H   H511      1.0  0.47865  0.61179  0.13377  1.0000
  S   S126      1.0  0.39318  0.48893  0.21074  1.0000
  H   H512      1.0  0.00565  0.71939  0.00478  1.0000
  H   H513      1.0  0.29913  0.49643  0.14172  1.0000
  H   H514      1.0  0.45341  0.62845  0.13908  1.0000
  S   S127      1.0  0.00649  0.62338  0.41889  1.0000
  H   H515      1.0  0.24245  0.59030  0.01844  1.0000
  H   H516      1.0  0.10453  0.72441  0.12324  1.0000
  H   H517      1.0  0.24254  0.69785  0.24778  1.0000
  H   H518      1.0  0.06341  0.71991  0.98237  1.0000
  H   H519      1.0  0.17636  0.72006  0.20645  1.0000
  H   H520      1.0  0.46801  0.54677  0.06240  1.0000
  C   C441      1.0  0.00488  0.59981  0.45373  1.0000
  C   C442      1.0  0.19036  0.72522  0.22165  1.0000
  H   H521      1.0  0.16486  0.50645  0.13907  1.0000
  C   C443      1.0  0.14524  0.50936  0.25774  1.0000
  C   C444      1.0  0.16048  0.51391  0.23096  1.0000
  H   H522      1.0  0.00272  0.71960  0.46859  1.0000
  C   C445      1.0  0.17356  0.49239  0.21792  1.0000
  H   H523      1.0  0.35493  0.52524  0.13039  1.0000
  C   C446      1.0  0.14403  0.49642  0.26452  1.0000
  C   C447      1.0  0.21455  0.60421  0.01033  1.0000
  H   H524      1.0  0.42635  0.63462  0.12100  1.0000
  H   H525      1.0  0.34686  0.70858  0.13517  1.0000
  C   C448      1.0  0.01350  0.59958  0.38915  1.0000
  H   H526      1.0  0.13102  0.59638  0.09407  1.0000
  C   C449      1.0  0.43484  0.62590  0.13261  1.0000
  H   H527      1.0  0.48039  0.58088  0.05128  1.0000
  C   C450      1.0  0.42686  0.67785  0.10537  1.0000
  C   C451      1.0  0.24961  0.69173  0.19338  1.0000
  H   H528      1.0  0.22425  0.70342  0.11618  1.0000
  C   C452      1.0  0.21660  0.71010  0.17077  1.0000
  N   N27       1.0  0.19097  0.50992  0.18078  1.0000
  H   H529      1.0  0.45320  0.69542  0.07162  1.0000
  N   N28       1.0  0.44559  0.53414  0.09259  1.0000
  H   H530      1.0  0.47363  0.52431  0.06359  1.0000
  C   C453      1.0  0.17505  0.50552  0.21001  1.0000
  C   C454      1.0  0.38160  0.70123  0.12142  1.0000
  H   H531      1.0  0.39683  0.61163  0.12036  1.0000
  H   H532      1.0  0.42267  0.67246  0.08008  1.0000
  C   C455      1.0  0.00799  0.60648  0.42115  1.0000
  H   H533      1.0  0.45669  0.48383  0.11920  1.0000
  C   C456      1.0  0.24861  0.48416  0.10633  1.0000
  H   H534      1.0  0.19464  0.50782  0.12247  1.0000
  C   C457      1.0  0.43137  0.69809  0.13428  1.0000
  H   H535      1.0  0.38740  0.51111  0.15207  1.0000
  C   C458      1.0  0.34566  0.69650  0.08783  1.0000
  N   N29       1.0  0.42130  0.69159  0.10172  1.0000
  H   H536      1.0  0.44650  0.60989  0.05370  1.0000
  C   C459      1.0  0.39132  0.51919  0.13486  1.0000
  H   H537      1.0  0.45479  0.51417  0.08841  1.0000
  N   N30       1.0  0.18938  0.62726  0.11147  1.0000
  C   C460      1.0  0.19947  0.62961  0.14835  1.0000
  C   C461      1.0  0.20813  0.62924  0.08401  1.0000
  C   C462      1.0  0.17059  0.63703  0.10485  1.0000
  C   C463      1.0  0.18085  0.61407  0.10896  1.0000
  C   C464      1.0  0.19695  0.60369  0.11323  1.0000
  C   C465      1.0  0.15671  0.61109  0.10234  1.0000
  C   C466      1.0  0.18941  0.59115  0.11070  1.0000
  C   C467      1.0  0.14937  0.59850  0.10002  1.0000
  C   C468      1.0  0.16567  0.58857  0.10420  1.0000
  H   H538      1.0  0.21523  0.62347  0.15398  1.0000
  H   H539      1.0  0.20544  0.63961  0.15139  1.0000
  H   H540      1.0  0.18615  0.62785  0.16999  1.0000
  H   H541      1.0  0.20135  0.62747  0.05589  1.0000
  H   H542      1.0  0.22389  0.62294  0.08782  1.0000
  H   H543      1.0  0.21480  0.63909  0.08515  1.0000
  H   H544      1.0  0.16277  0.63605  0.07698  1.0000
  H   H545      1.0  0.15632  0.63661  0.12563  1.0000
  H   H546      1.0  0.17773  0.64682  0.10637  1.0000
  H   H547      1.0  0.21561  0.60517  0.11782  1.0000
  H   H548      1.0  0.14319  0.61829  0.09830  1.0000
  H   H549      1.0  0.20213  0.58337  0.11270  1.0000
  H   H550      1.0  0.20355  0.71670  0.15999  1.0000
  H   H551      1.0  0.39564  0.66344  0.99177  1.0000
  N   N31       1.0  0.43337  0.61501  0.10688  1.0000
  C   C469      1.0  0.44673  0.61799  0.07329  1.0000
  H   H552      1.0  0.25286  0.68697  0.13623  1.0000
  H   H553      1.0  0.48612  0.60386  0.04024  1.0000
  C   C470      1.0  0.44388  0.60352  0.12400  1.0000
  C   C471      1.0  0.43131  0.59201  0.12784  1.0000
  C   C472      1.0  0.35723  0.66395  0.99213  1.0000
  H   H554      1.0  0.42894  0.50695  0.22941  1.0000
  H   H555      1.0  0.41664  0.67357  0.12798  1.0000
  C   C473      1.0  0.27092  0.48442  0.12363  1.0000
  C   C474      1.0  0.42103  0.49214  0.19060  1.0000
  C   C475      1.0  0.00777  0.58647  0.45430  1.0000
  H   H556      1.0  0.46555  0.62023  0.07915  1.0000
  H   H557      1.0  0.18348  0.70152  0.24728  1.0000
  H   H558      1.0  0.18279  0.61543  0.00266  1.0000
  S   S128      1.0  0.30830  0.66568  0.99254  1.0000
  C   C476      1.0  0.44217  0.58122  0.14303  1.0000
  H   H559      1.0  0.12974  0.71972  0.07743  1.0000
  C   C477      1.0  0.24461  0.69321  0.15632  1.0000
  H   H560      1.0  0.41316  0.59106  0.11905  1.0000
  H   H561      1.0  0.19618  0.52890  0.20136  1.0000
  H   H562      1.0  0.42343  0.69460  0.16005  1.0000
  C   C478      1.0  0.39539  0.69349  0.09737  1.0000
  C   C479      1.0  0.41469  0.52154  0.12491  1.0000
  H   H563      1.0  0.00237  0.70724  0.43492  1.0000
  H   H564      1.0  0.04279  0.70483  0.42397  1.0000
  C   C480      1.0  0.11899  0.72678  0.98875  1.0000
  H   H565      1.0  0.27952  0.51630  0.11997  1.0000
  H   H566      1.0  0.02602  0.68645  0.45053  1.0000
  C   C481      1.0  0.35867  0.68894  0.06371  1.0000
  H   H567      1.0  0.13191  0.49297  0.28496  1.0000
  H   H568      1.0  0.43243  0.57250  0.14547  1.0000
  H   H569      1.0  0.03417  0.72291  0.02394  1.0000
  H   H570      1.0  0.17258  0.52741  0.16777  1.0000
  H   H571      1.0  0.13529  0.71089  0.01628  1.0000
  C   C482      1.0  0.22546  0.72393  0.25846  1.0000
  C   C483      1.0  0.22841  0.70249  0.14505  1.0000
  C   C484      1.0  0.19593  0.70774  0.26245  1.0000
  H   H572      1.0  0.06423  0.70483  0.45973  1.0000
  H   H573      1.0  0.21628  0.72999  0.27934  1.0000
  C   C485      1.0  0.00470  0.70917  0.46465  1.0000
  S   S129      1.0  0.01245  0.65786  0.46646  1.0000
  H   H574      1.0  0.18405  0.48545  0.20303  1.0000
  H   H575      1.0  0.04679  0.71906  0.44983  1.0000
  Fe  Fe63      1.0  0.99164  0.64021  0.45255  1.0000
  H   H576      1.0  0.23554  0.73031  0.24030  1.0000
  H   H577      1.0  0.18117  0.73078  0.24343  1.0000
  C   C486      1.0  0.03330  0.72655  0.94953  1.0000
  S   S130      1.0  0.09768  0.49213  0.70973  1.0000
  Fe  Fe64      1.0  0.11539  0.49038  0.65472  1.0000
  S   S131      1.0  0.11277  0.50611  0.61196  1.0000
  C   C487      1.0  0.02818  0.69042  0.47855  1.0000
  S   S132      1.0  0.15098  0.49216  0.78750  1.0000
  C   C488      1.0  0.12791  0.67665  0.69232  1.0000
  H   H578      1.0  0.13371  0.65140  0.74876  1.0000
  S   S133      1.0  0.14044  0.51667  0.94918  1.0000
  H   H579      1.0  0.00580  0.70808  0.60083  1.0000
  H   H580      1.0  0.06357  0.70614  0.87238  1.0000
  S   S134      1.0  0.12883  0.72696  0.77659  1.0000
  H   H581      1.0  0.11357  0.68308  0.68219  1.0000
  S   S135      1.0  0.19177  0.67797  0.94219  1.0000
  H   H582      1.0  0.12482  0.54261  0.94431  1.0000
  H   H583      1.0  0.02636  0.71784  0.85949  1.0000
  Fe  Fe65      1.0  0.13036  0.70647  0.76046  1.0000
  S   S136      1.0  0.09091  0.70392  0.76253  1.0000
  S   S137      1.0  0.15823  0.69177  0.77895  1.0000
  C   C489      1.0  0.14454  0.49088  0.51946  1.0000
  H   H584      1.0  0.12420  0.63991  0.69680  1.0000
  C   C490      1.0  0.13813  0.49843  0.48957  1.0000
  Fe  Fe66      1.0  0.09029  0.70993  0.70298  1.0000
  S   S138      1.0  0.07860  0.70009  0.64953  1.0000
  S   S139      1.0  0.15076  0.48493  0.67989  1.0000
  S   S140      1.0  0.13007  0.71121  0.70039  1.0000
  C   C491      1.0  0.02062  0.67586  0.59394  1.0000
  C   C492      1.0  0.04134  0.67899  0.57545  1.0000
  C   C493      1.0  0.05879  0.68638  0.59294  1.0000
  C   C494      1.0  0.05587  0.69074  0.62917  1.0000
  C   C495      1.0  0.03526  0.68751  0.64781  1.0000
  C   C496      1.0  0.01783  0.68011  0.63031  1.0000
  H   H585      1.0  0.04407  0.67556  0.54791  1.0000
  H   H586      1.0  0.07468  0.68874  0.57824  1.0000
  H   H587      1.0  0.03268  0.69073  0.67565  1.0000
  H   H588      1.0  0.07397  0.48612  0.50511  1.0000
  C   C497      1.0  0.18310  0.68164  0.89634  1.0000
  C   C498      1.0  0.19315  0.67563  0.86577  1.0000
  C   C499      1.0  0.18537  0.67887  0.83013  1.0000
  C   C500      1.0  0.16750  0.68814  0.82452  1.0000
  C   C501      1.0  0.15756  0.69420  0.85503  1.0000
  C   C502      1.0  0.16530  0.69096  0.89061  1.0000
  H   H589      1.0  0.20685  0.66847  0.86963  1.0000
  H   H590      1.0  0.19327  0.67411  0.80683  1.0000
  H   H591      1.0  0.14383  0.70135  0.85130  1.0000
  H   H592      1.0  0.15741  0.69567  0.91399  1.0000
  H   H593      1.0  0.22378  0.70700  0.74716  1.0000
  H   H594      1.0  0.00563  0.58145  0.47975  1.0000
  H   H595      1.0  0.35588  0.66995  0.96828  1.0000
  H   H596      1.0  0.08780  0.52586  0.49602  1.0000
  C   C503      1.0  0.14765  0.49943  0.83189  1.0000
  C   C504      1.0  0.12595  0.50425  0.84479  1.0000
  C   C505      1.0  0.12420  0.50950  0.88047  1.0000
  C   C506      1.0  0.14409  0.51021  0.90388  1.0000
  C   C507      1.0  0.16589  0.50568  0.89067  1.0000
  C   C508      1.0  0.16760  0.50032  0.85511  1.0000
  H   H597      1.0  0.11050  0.50394  0.82737  1.0000
  H   H598      1.0  0.10723  0.51302  0.89004  1.0000
  H   H599      1.0  0.18142  0.50612  0.90802  1.0000
  S   S141      1.0  0.24732  0.65088  0.95839  1.0000
  C   C509      1.0  0.09764  0.51712  0.54754  1.0000
  C   C510      1.0  0.09863  0.50591  0.56827  1.0000
  C   C511      1.0  0.08944  0.49481  0.55307  1.0000
  C   C512      1.0  0.08027  0.49485  0.51706  1.0000
  H   H600      1.0  0.10462  0.52577  0.55904  1.0000
  C   C513      1.0  0.13936  0.65928  0.73083  1.0000
  H   H601      1.0  0.12022  0.72009  0.55437  1.0000
  H   H602      1.0  0.14988  0.66577  0.74859  1.0000
  S   S142      1.0  0.99819  0.66627  0.57378  1.0000
  H   H603      1.0  0.99988  0.70068  0.53827  1.0000
  C   C514      1.0  0.06520  0.71217  0.92867  1.0000
  N   N32       1.0  0.14674  0.55532  0.91416  1.0000
  C   C515      1.0  0.16920  0.55044  0.93041  1.0000
  C   C516      1.0  0.14919  0.56921  0.90967  1.0000
  C   C517      1.0  0.12757  0.55297  0.94076  1.0000
  C   C518      1.0  0.14084  0.54929  0.87862  1.0000
  C   C519      1.0  0.12023  0.55317  0.85900  1.0000
  C   C520      1.0  0.15486  0.53938  0.86276  1.0000
  C   C521      1.0  0.11410  0.54752  0.82563  1.0000
  C   C522      1.0  0.14864  0.53387  0.82928  1.0000
  C   C523      1.0  0.12828  0.53788  0.81083  1.0000
  H   H604      1.0  0.13178  0.55701  0.96824  1.0000
  H   H605      1.0  0.00084  0.60493  0.47868  1.0000
  H   H606      1.0  0.16812  0.54012  0.93647  1.0000
  H   H607      1.0  0.18497  0.72598  0.80462  1.0000
  C   C524      1.0  0.03813  0.71770  0.58929  1.0000
  H   H608      1.0  0.12260  0.48433  0.95140  1.0000
  Fe  Fe67      1.0  0.08912  0.72499  0.77597  1.0000
  N   N33       1.0  0.11869  0.66597  0.71400  1.0000
  H   H609      1.0  0.11037  0.55725  0.93220  1.0000
  H   H610      1.0  0.10855  0.56050  0.86959  1.0000
  H   H611      1.0  0.17049  0.53549  0.87593  1.0000
  H   H612      1.0  0.09817  0.55054  0.81127  1.0000
  H   H613      1.0  0.15941  0.52620  0.81794  1.0000
  H   H614      1.0  0.12341  0.53338  0.78519  1.0000
  C   C525      1.0  0.06970  0.65544  0.64927  1.0000
  C   C526      1.0  0.05175  0.71646  0.52663  1.0000
  C   C527      1.0  0.05494  0.71152  0.89402  1.0000
  H   H615      1.0  0.16286  0.57137  0.88889  1.0000
  C   C528      1.0  0.07524  0.64267  0.64395  1.0000
  C   C529      1.0  0.10923  0.64468  0.68421  1.0000
  C   C530      1.0  0.09494  0.63730  0.66138  1.0000
  H   H616      1.0  0.13980  0.72831  0.50068  1.0000
  H   H617      1.0  0.11455  0.67709  0.76338  1.0000
  H   H618      1.0  0.00199  0.67766  0.64507  1.0000
  H   H619      1.0  0.23292  0.71588  0.78735  1.0000
  H   H620      1.0  0.15008  0.49589  0.54380  1.0000
  C   C531      1.0  0.10395  0.67116  0.74419  1.0000
  H   H621      1.0  0.14002  0.68267  0.70882  1.0000
  H   H622      1.0  0.08166  0.70706  0.93401  1.0000
  H   H623      1.0  0.07876  0.67277  0.67519  1.0000
  H   H624      1.0  0.01360  0.68648  0.49515  1.0000
  C   C532      1.0  0.10405  0.65778  0.69018  1.0000
  H   H625      1.0  0.17136  0.73064  0.65268  1.0000
  H   H626      1.0  0.04515  0.68656  0.48974  1.0000
  Fe  Fe68      1.0  0.21819  0.66500  0.97338  1.0000
  C   C533      1.0  0.07965  0.50602  0.49607  1.0000
  H   H627      1.0  0.09599  0.66342  0.76038  1.0000
  H   H628      1.0  0.06537  0.71899  0.50753  1.0000
  H   H629      1.0  0.19227  0.71584  0.70649  1.0000
  H   H630      1.0  0.06419  0.63694  0.62624  1.0000
  H   H631      1.0  0.07867  0.48993  0.80893  1.0000
  C   C534      1.0  0.21762  0.71342  0.76952  1.0000
  H   H632      1.0  0.15174  0.65550  0.70969  1.0000
  H   H633      1.0  0.08920  0.67732  0.73406  1.0000
  H   H634      1.0  0.18454  0.55203  0.91213  1.0000
  H   H635      1.0  0.13970  0.48268  0.59166  1.0000
  H   H636      1.0  0.17077  0.48203  0.57981  1.0000
  H   H637      1.0  0.13236  0.57394  0.90117  1.0000
  H   H638      1.0  0.01685  0.48215  0.52386  1.0000
  H   H639      1.0  0.05435  0.65961  0.63563  1.0000
  H   H640      1.0  0.09915  0.62733  0.65713  1.0000
  C   C535      1.0  0.08382  0.66290  0.67201  1.0000
  N   N34       1.0  0.20555  0.72498  0.75496  1.0000
  C   C536      1.0  0.08803  0.51722  0.51180  1.0000
  H   H641      1.0  0.13788  0.67315  0.66802  1.0000
  H   H642      1.0  0.18454  0.49673  0.84560  1.0000
  H   H643      1.0  0.07027  0.72593  0.57051  1.0000
  N   N35       1.0  0.02800  0.70448  0.47843  1.0000
  H   H644      1.0  0.13870  0.50867  0.49186  1.0000
  C   C537      1.0  0.05477  0.72060  0.56276  1.0000
  C   C538      1.0  0.03179  0.70919  0.51618  1.0000
  C   C539      1.0  0.01520  0.70642  0.54395  1.0000
  H   H645      1.0  0.04177  0.48524  0.57880  1.0000
  C   C540      1.0  0.05459  0.71955  0.95611  1.0000
  H   H646      1.0  0.17436  0.72891  0.72227  1.0000
  C   C541      1.0  0.24457  0.72947  0.72305  1.0000
  H   H647      1.0  0.08987  0.48617  0.56873  1.0000
  H   H648      1.0  0.20543  0.70764  0.78643  1.0000
  H   H649      1.0  0.12181  0.72280  0.96165  1.0000
  H   H650      1.0  0.17400  0.71422  0.74619  1.0000
  H   H651      1.0  0.15458  0.57388  0.93585  1.0000
  H   H652      1.0  0.00737  0.73078  0.90593  1.0000
  Fe  Fe69      1.0  0.13198  0.48509  0.73472  1.0000
  H   H653      1.0  0.04092  0.72060  0.61747  1.0000
  C   C542      1.0  0.18570  0.72081  0.73146  1.0000
  H   H654      1.0  0.25272  0.72069  0.73197  1.0000
  C   C543      1.0  0.03390  0.71811  0.88682  1.0000
  C   C544      1.0  0.02317  0.72558  0.91396  1.0000
  C   C545      1.0  0.01836  0.71066  0.57989  1.0000
  H   H655      1.0  0.17333  0.55528  0.95678  1.0000
  H   H656      1.0  0.07892  0.48360  0.94873  1.0000
  C   C546      1.0  0.12596  0.72985  0.55420  1.0000
  H   H657      1.0  0.10425  0.48116  0.79389  1.0000
  C   C547      1.0  0.11380  0.48102  0.92678  1.0000
  H   H658      1.0  0.17117  0.96915  0.23835  1.0000
  C   C548      1.0  0.21766  0.96766  0.25869  1.0000
  C   C549      1.0  0.44974  0.74709  0.38173  1.0000
  C   C550      1.0  0.13071  0.95105  0.99070  1.0000
  S   S143      1.0  0.07244  0.75515  0.20161  1.0000
  H   H659      1.0  0.09545  0.75879  0.12677  1.0000
  H   H660      1.0  0.21362  0.94244  0.25223  1.0000
  C   C551      1.0  0.07785  0.94646  0.41144  1.0000
  S   S144      1.0  0.19456  0.78243  0.42229  1.0000
  C   C552      1.0  0.07642  0.96115  0.30187  1.0000
  Fe  Fe70      1.0  0.13713  0.97319  0.18302  1.0000
  S   S145      1.0  0.14746  0.95254  0.18280  1.0000
  H   H661      1.0  0.19846  0.73228  0.20322  1.0000
  Fe  Fe71      1.0  0.08491  0.96741  0.19546  1.0000
  S   S146      1.0  0.09230  0.94630  0.19587  1.0000
  H   H662      1.0  0.15997  0.96172  0.27819  1.0000
  Fe  Fe72      1.0  0.12369  0.95071  0.23204  1.0000
  S   S147      1.0  0.13413  0.93800  0.28149  1.0000
  Fe  Fe73      1.0  0.11508  0.94988  0.14683  1.0000
  S   S148      1.0  0.11885  0.93649  0.09708  1.0000
  S   S149      1.0  0.11501  0.97155  0.23411  1.0000
  S   S150      1.0  0.10613  0.97081  0.14437  1.0000
  N   N36       1.0  0.10946  0.74260  0.09708  1.0000
  Fe  Fe74      1.0  0.99508  0.79984  0.98392  1.0000
  H   H663      1.0  0.00960  0.73311  0.03338  1.0000
  S   S151      1.0  0.15055  0.93558  0.45672  1.0000
  C   C553      1.0  0.13937  0.93774  0.33017  1.0000
  C   C554      1.0  0.13633  0.94845  0.35263  1.0000
  C   C555      1.0  0.14020  0.94761  0.39091  1.0000
  C   C556      1.0  0.14729  0.93611  0.40765  1.0000
  C   C557      1.0  0.15077  0.92548  0.38506  1.0000
  C   C558      1.0  0.14681  0.92630  0.34679  1.0000
  H   H664      1.0  0.13073  0.95737  0.34072  1.0000
  H   H665      1.0  0.13735  0.95592  0.40787  1.0000
  H   H666      1.0  0.15619  0.91654  0.39715  1.0000
  H   H667      1.0  0.14934  0.91791  0.32999  1.0000
  C   C559      1.0  0.03603  0.87724  0.06509  1.0000
  C   C560      1.0  0.10630  0.92376  0.03380  1.0000
  C   C561      1.0  0.09905  0.93268  0.06050  1.0000
  C   C562      1.0  0.07655  0.93831  0.05710  1.0000
  C   C563      1.0  0.04391  0.89828  0.04246  1.0000
  H   H668      1.0  0.12362  0.91930  0.03615  1.0000
  H   H669      1.0  0.07062  0.94516  0.07735  1.0000
  C   C564      1.0  0.06986  0.94447  0.34549  1.0000
  H   H670      1.0  0.16741  0.94640  0.98275  1.0000
  C   C565      1.0  0.04783  0.88025  0.09770  1.0000
  C   C566      1.0  0.09706  0.75513  0.09819  1.0000
  C   C567      1.0  0.06172  0.93517  0.02727  1.0000
  H   H671      1.0  0.05644  0.74061  0.00217  1.0000
  C   C568      1.0  0.08764  0.93427  0.41214  1.0000
  H   H672      1.0  0.04443  0.93967  0.02497  1.0000
  C   C569      1.0  0.48327  0.83213  0.46310  1.0000
  H   H673      1.0  0.40799  0.76929  0.39876  1.0000
  C   C570      1.0  0.17415  0.74931  0.34549  1.0000
  C   C571      1.0  0.19479  0.74843  0.36725  1.0000
  C   C572      1.0  0.20130  0.75839  0.39106  1.0000
  C   C573      1.0  0.18732  0.76945  0.39315  1.0000
  C   C574      1.0  0.16666  0.77029  0.37150  1.0000
  C   C575      1.0  0.16002  0.76028  0.34800  1.0000
  H   H674      1.0  0.10686  0.76246  0.08294  1.0000
  H   H675      1.0  0.21728  0.75760  0.40738  1.0000
  H   H676      1.0  0.15574  0.77881  0.37277  1.0000
  H   H677      1.0  0.14416  0.76115  0.33142  1.0000
  C   C576      1.0  0.05245  0.75585  0.16369  1.0000
  C   C577      1.0  0.04218  0.74500  0.14871  1.0000
  C   C578      1.0  0.02707  0.74599  0.11793  1.0000
  C   C579      1.0  0.02197  0.75780  0.10167  1.0000
  C   C580      1.0  0.03231  0.76865  0.11652  1.0000
  C   C581      1.0  0.04732  0.76767  0.14745  1.0000
  C   C582      1.0  0.44584  0.75537  0.45951  1.0000
  H   H678      1.0  0.08240  0.92614  0.32327  1.0000
  H   H679      1.0  0.02849  0.77782  0.10454  1.0000
  H   H680      1.0  0.05506  0.77615  0.15886  1.0000
  S   S152      1.0  0.00274  0.75833  0.06285  1.0000
  N   N37       1.0  0.43944  0.76384  0.42856  1.0000
  H   H681      1.0  0.14432  0.75054  0.09738  1.0000
  H   H682      1.0  0.07580  0.96868  0.32318  1.0000
  H   H683      1.0  0.46536  0.75494  0.46372  1.0000
  C   C583      1.0  0.45229  0.75965  0.39527  1.0000
  C   C584      1.0  0.06910  0.92640  0.00030  1.0000
  C   C585      1.0  0.46805  0.76760  0.37602  1.0000
  C   C586      1.0  0.06907  0.95152  0.37869  1.0000
  H   H684      1.0  0.47354  0.83966  0.44771  1.0000
  H   H685      1.0  0.04301  0.90554  0.02182  1.0000
  H   H686      1.0  0.04564  0.73587  0.16114  1.0000
  H   H687      1.0  0.09738  0.91375  0.98380  1.0000
  H   H688      1.0  0.18481  0.95031  0.31974  1.0000
  C   C587      1.0  0.23676  0.97145  0.28157  1.0000
  H   H689      1.0  0.07788  0.73208  0.10759  1.0000
  H   H690      1.0  0.46110  0.73293  0.34244  1.0000
  H   H691      1.0  0.13780  0.74298  0.44984  1.0000
  H   H692      1.0  0.07762  0.95209  0.43633  1.0000
  S   S153      1.0  0.16723  0.73653  0.31536  1.0000
  H   H693      1.0  0.06697  0.89445  0.12778  1.0000
  H   H694      1.0  0.43970  0.78399  0.41853  1.0000
  C   C588      1.0  0.19673  0.94797  0.25021  1.0000
  H   H695      1.0  0.40752  0.75346  0.41651  1.0000
  N   N38       1.0  0.02210  0.88334  0.00096  1.0000
  H   H696      1.0  0.14287  0.73508  0.11735  1.0000
  C   C589      1.0  0.44490  0.77701  0.43993  1.0000
  H   H697      1.0  0.19326  0.94974  0.22075  1.0000
  C   C590      1.0  0.10467  0.74388  0.02775  1.0000
  H   H698      1.0  0.16632  0.73569  0.46086  1.0000
  H   H699      1.0  0.05483  0.94596  0.25388  1.0000
  C   C591      1.0  0.11227  0.73730  0.05973  1.0000
  H   H700      1.0  0.09294  0.73756  0.14797  1.0000
  C   C592      1.0  0.08870  0.92709  0.38013  1.0000
  H   H701      1.0  0.13353  0.95533  0.01741  1.0000
  C   C593      1.0  0.23660  0.97906  0.20846  1.0000
  S   S154      1.0  0.09574  0.73422  0.28932  1.0000
  S   S155      1.0  0.01265  0.78054  0.97732  1.0000
  H   H702      1.0  0.46410  0.77804  0.44624  1.0000
  H   H703      1.0  0.04948  0.87325  0.11924  1.0000
  H   H704      1.0  0.09524  0.95803  0.29890  1.0000
  H   H705      1.0  0.06218  0.96113  0.37943  1.0000
  H   H706      1.0  0.06356  0.91044  0.07871  1.0000
  C   C594      1.0  0.28945  0.83040  0.47551  1.0000
  C   C595      1.0  0.09145  0.92060  0.00395  1.0000
  C   C596      1.0  0.25509  0.97885  0.26801  1.0000
  S   S156      1.0  0.13102  0.73801  0.21934  1.0000
  H   H707      1.0  0.09305  0.95401  0.99218  1.0000
  H   H708      1.0  0.20589  0.74000  0.36556  1.0000
  H   H709      1.0  0.25419  0.95473  0.47539  1.0000
  C   C597      1.0  0.03371  0.88623  0.03638  1.0000
  C   C598      1.0  0.19993  0.95626  0.31105  1.0000
  H   H710      1.0  0.09520  0.93053  0.43731  1.0000
  H   H711      1.0  0.43969  0.74553  0.45531  1.0000
  C   C599      1.0  0.08010  0.93207  0.34717  1.0000
  C   C600      1.0  0.47847  0.75060  0.33406  1.0000
  C   C601      1.0  0.41351  0.76325  0.42227  1.0000
  C   C602      1.0  0.46279  0.74265  0.35173  1.0000
  H   H712      1.0  0.02902  0.86780  0.06301  1.0000
  S   S157      1.0  0.04623  0.97250  0.20735  1.0000
  N   N39       1.0  0.19787  0.95988  0.27191  1.0000
  H   H713      1.0  0.09710  0.91777  0.38065  1.0000
  Fe  Fe75      1.0  0.09159  0.73818  0.22834  1.0000
  H   H714      1.0  0.05104  0.93288  0.28425  1.0000
  H   H715      1.0  0.16469  0.74952  0.43373  1.0000
  H   H716      1.0  0.21627  0.95051  0.31637  1.0000
  H   H717      1.0  0.18223  0.94176  0.25968  1.0000
  N   N40       1.0  0.06132  0.95026  0.31091  1.0000
  C   C603      1.0  0.06193  0.94139  0.27922  1.0000
  C   C604      1.0  0.03649  0.95489  0.31483  1.0000
  H   H718      1.0  0.20406  0.96943  0.20277  1.0000
  C   C605      1.0  0.15650  0.74485  0.45764  1.0000
  H   H719      1.0  0.02444  0.86287  0.00275  1.0000
  H   H720      1.0  0.09620  0.75312  0.02896  1.0000
  H   H721      1.0  0.08038  0.93825  0.27277  1.0000
  H   H722      1.0  0.07073  0.96571  0.27575  1.0000
  Fe  Fe76      1.0  0.13496  0.73251  0.27850  1.0000
  H   H723      1.0  0.18128  0.97581  0.11976  1.0000
  C   C606      1.0  0.01104  0.87065  0.99957  1.0000
  H   H724      1.0  0.99342  0.74726  0.99040  1.0000
  H   H725      1.0  0.03469  0.96270  0.33513  1.0000
  H   H726      1.0  0.02941  0.95882  0.28857  1.0000
  H   H727      1.0  0.02471  0.94709  0.32337  1.0000
  H   H728      1.0  0.01034  0.90254  0.98835  1.0000
  H   H729      1.0  0.40340  0.76662  0.44677  1.0000
  C   C607      1.0  0.05769  0.89217  0.10262  1.0000
  C   C608      1.0  0.05573  0.90117  0.07502  1.0000
  H   H730      1.0  0.47152  0.77725  0.38431  1.0000
  H   H731      1.0  0.30153  0.83670  0.46029  1.0000
  H   H732      1.0  0.01901  0.73753  0.10700  1.0000
  H   H733      1.0  0.43797  0.74054  0.39473  1.0000
  H   H734      1.0  0.23792  0.96889  0.31005  1.0000
  H   H735      1.0  0.07865  0.75455  0.08731  1.0000
  C   C609      1.0  0.13311  0.74424  0.11411  1.0000
  C   C610      1.0  0.21814  0.97174  0.22174  1.0000
  H   H736      1.0  0.13170  0.74845  0.14204  1.0000
  H   H737      1.0  0.43503  0.77986  0.46503  1.0000
  C   C611      1.0  0.48085  0.76308  0.34588  1.0000
  C   C612      1.0  0.17526  0.96706  0.26745  1.0000
  H   H738      1.0  0.03301  0.75189  0.00734  1.0000
  C   C613      1.0  0.04059  0.74467  0.98831  1.0000
  H   H739      1.0  0.29602  0.82045  0.47193  1.0000
  Fe  Fe77      1.0  0.22024  0.78471  0.47055  1.0000
  S   S158      1.0  0.01978  0.81692  0.98109  1.0000
  C   C614      1.0  0.00320  0.89292  0.99313  1.0000
  N   N41       1.0  0.02317  0.73482  0.97852  1.0000
  H   H740      1.0  0.27186  0.83077  0.46176  1.0000
  H   H741      1.0  0.19973  0.96474  0.32931  1.0000
  H   H742      1.0  0.17581  0.97635  0.28198  1.0000
  C   C615      1.0  0.09564  0.73378  0.11978  1.0000
  H   H743      1.0  0.47895  0.82292  0.44983  1.0000
  H   H744      1.0  0.99669  0.97892  0.20186  1.0000
  H   H745      1.0  0.21435  0.98042  0.07749  1.0000
  H   H746      1.0  0.99724  0.86969  0.02094  1.0000
  C   C616      1.0  0.10806  0.73863  0.99285  1.0000
  H   H747      1.0  0.15535  0.76932  0.45607  1.0000
  H   H748      1.0  0.05497  0.87706  0.97698  1.0000
  H   H749      1.0  0.18619  0.85042  0.47276  1.0000
  C   C617      1.0  0.10789  0.95031  0.97644  1.0000
  H   H750      1.0  0.48919  0.74703  0.31158  1.0000
  H   H751      1.0  0.99041  0.89365  0.01612  1.0000
  H   H752      1.0  0.20338  0.73367  0.60725  1.0000
  N   N42       1.0  0.27469  0.97227  0.80101  1.0000
  H   H753      1.0  0.18561  0.76051  0.52506  1.0000
  H   H754      1.0  0.02785  0.73855  0.79792  1.0000
  Fe  Fe78      1.0  0.45161  0.78441  0.53773  1.0000
  C   C618      1.0  0.13730  0.73473  0.52344  1.0000
  C   C619      1.0  0.21248  0.74493  0.71945  1.0000
  H   H755      1.0  0.03223  0.88116  0.94450  1.0000
  C   C620      1.0  0.42933  0.97845  0.56920  1.0000
  H   H756      1.0  0.48120  0.90864  0.78320  1.0000
  H   H757      1.0  0.32742  0.77172  0.52909  1.0000
  S   S159      1.0  0.46802  0.79234  0.58935  1.0000
  H   H758      1.0  0.99320  0.75091  0.82154  1.0000
  H   H759      1.0  0.05070  0.85711  0.93431  1.0000
  Fe  Fe79      1.0  0.27007  0.78906  0.50561  1.0000
  S   S160      1.0  0.25431  0.79054  0.56194  1.0000
  H   H760      1.0  0.21898  0.76125  0.68589  1.0000
  Fe  Fe80      1.0  0.23147  0.77409  0.54552  1.0000
  S   S161      1.0  0.22419  0.75586  0.57652  1.0000
  Fe  Fe81      1.0  0.22594  0.80298  0.53621  1.0000
  C   C621      1.0  0.03999  0.88377  0.97149  1.0000
  H   H761      1.0  0.43768  0.75868  0.48563  1.0000
  Fe  Fe82      1.0  0.06483  0.90457  0.83216  1.0000
  S   S162      1.0  0.03059  0.89509  0.81739  1.0000
  S   S163      1.0  0.09912  0.90642  0.79798  1.0000
  Fe  Fe83      1.0  0.04685  0.91185  0.90912  1.0000
  S   S164      1.0  0.01140  0.90297  0.89892  1.0000
  C   C622      1.0  0.31224  0.97322  0.56312  1.0000
  Fe  Fe84      1.0  0.03143  0.88653  0.87395  1.0000
  S   S165      1.0  0.01491  0.86691  0.88208  1.0000
  Fe  Fe85      1.0  0.01234  0.91199  0.84372  1.0000
  S   S166      1.0  0.06712  0.89476  0.88763  1.0000
  S   S167      1.0  0.04644  0.92209  0.85500  1.0000
  Fe  Fe86      1.0  0.20391  0.91855  0.56023  1.0000
  S   S168      1.0  0.17012  0.93027  0.55986  1.0000
  S   S169      1.0  0.24187  0.92532  0.56928  1.0000
  Fe  Fe87      1.0  0.17916  0.89509  0.52980  1.0000
  S   S170      1.0  0.14391  0.90545  0.52708  1.0000
  C   C623      1.0  0.28626  0.97552  0.83623  1.0000
  Fe  Fe88      1.0  0.15314  0.91278  0.58373  1.0000
  S   S171      1.0  0.12253  0.91196  0.62591  1.0000
  S   S172      1.0  0.18752  0.90154  0.58709  1.0000
  S   S173      1.0  0.34814  0.97201  0.74198  1.0000
  H   H762      1.0  0.48859  0.91477  0.82777  1.0000
  S   S174      1.0  0.29055  0.95916  0.69335  1.0000
  H   H763      1.0  0.46448  0.96503  0.81248  1.0000
  S   S175      1.0  0.41615  0.96898  0.70859  1.0000
  S   S176      1.0  0.46781  0.91805  0.65500  1.0000
  C   C624      1.0  0.45396  0.93251  0.66866  1.0000
  C   C625      1.0  0.46689  0.94268  0.68250  1.0000
  C   C626      1.0  0.45505  0.95385  0.69406  1.0000
  C   C627      1.0  0.43023  0.95503  0.69156  1.0000
  C   C628      1.0  0.41737  0.94497  0.67699  1.0000
  C   C629      1.0  0.42919  0.93374  0.66583  1.0000
  C   C630      1.0  0.25061  0.96724  0.57512  1.0000
  H   H764      1.0  0.46512  0.96159  0.70544  1.0000
  H   H765      1.0  0.39828  0.94573  0.67499  1.0000
  H   H766      1.0  0.41903  0.92593  0.65510  1.0000
  C   C631      1.0  0.25489  0.93477  0.60420  1.0000
  C   C632      1.0  0.27867  0.93835  0.60053  1.0000
  C   C633      1.0  0.28980  0.94588  0.62737  1.0000
  C   C634      1.0  0.27726  0.94990  0.65828  1.0000
  C   C635      1.0  0.25348  0.94634  0.66198  1.0000
  C   C636      1.0  0.24230  0.93885  0.63506  1.0000
  H   H767      1.0  0.28856  0.93522  0.57681  1.0000
  H   H768      1.0  0.30823  0.94829  0.62460  1.0000
  H   H769      1.0  0.24362  0.94935  0.68585  1.0000
  H   H770      1.0  0.22402  0.93617  0.63826  1.0000
  C   C637      1.0  0.10516  0.90768  0.74984  1.0000
  C   C638      1.0  0.12889  0.90800  0.73793  1.0000
  C   C639      1.0  0.13462  0.90923  0.70040  1.0000
  C   C640      1.0  0.11665  0.91025  0.67395  1.0000
  C   C641      1.0  0.09294  0.90982  0.68583  1.0000
  C   C642      1.0  0.08722  0.90854  0.72332  1.0000
  H   H771      1.0  0.14302  0.90734  0.75794  1.0000
  H   H772      1.0  0.15294  0.90955  0.69203  1.0000
  H   H773      1.0  0.07880  0.91058  0.66586  1.0000
  H   H774      1.0  0.06888  0.90832  0.73169  1.0000
  H   H775      1.0  0.35434  0.80677  0.48876  1.0000
  H   H776      1.0  0.34172  0.97655  0.87513  1.0000
  H   H777      1.0  0.00347  0.74801  0.94445  1.0000
  C   C643      1.0  0.20776  0.83612  0.54967  1.0000
  C   C644      1.0  0.07740  0.78282  0.83487  1.0000
  C   C645      1.0  0.20057  0.85890  0.55968  1.0000
  C   C646      1.0  0.20804  0.84688  0.57261  1.0000
  H   H778      1.0  0.20092  0.86707  0.57759  1.0000
  H   H779      1.0  0.21383  0.84590  0.60071  1.0000
  C   C647      1.0  0.02063  0.79937  0.89714  1.0000
  H   H780      1.0  0.18361  0.74003  0.77823  1.0000
  C   C648      1.0  0.99843  0.84429  0.90827  1.0000
  C   C649      1.0  0.38509  0.78164  0.52510  1.0000
  S   S177      1.0  0.14286  0.74915  0.69463  1.0000
  C   C650      1.0  0.48135  0.93918  0.56696  1.0000
  C   C651      1.0  0.33778  0.78978  0.50794  1.0000
  H   H781      1.0  0.45628  0.92249  0.75632  1.0000
  C   C652      1.0  0.38076  0.79359  0.50969  1.0000
  N   N43       1.0  0.28818  0.83408  0.51472  1.0000
  H   H782      1.0  0.09586  0.78260  0.84312  1.0000
  H   H783      1.0  0.46854  0.93697  0.54468  1.0000
  C   C653      1.0  0.16457  0.75062  0.66012  1.0000
  H   H784      1.0  0.11386  0.73360  0.60908  1.0000
  C   C654      1.0  0.19412  0.74184  0.61856  1.0000
  C   C655      1.0  0.20042  0.75407  0.60741  1.0000
  C   C656      1.0  0.18833  0.76457  0.62211  1.0000
  C   C657      1.0  0.17071  0.76284  0.64865  1.0000
  H   H785      1.0  0.01533  0.78947  0.90296  1.0000
  C   C658      1.0  0.25920  0.85191  0.50201  1.0000
  H   H786      1.0  0.19307  0.77403  0.61385  1.0000
  H   H787      1.0  0.16186  0.77104  0.66052  1.0000
  N   N44       1.0  0.15790  0.75286  0.49114  1.0000
  C   C659      1.0  0.03615  0.85059  0.93316  1.0000
  C   C660      1.0  0.01693  0.85308  0.90985  1.0000
  C   C661      1.0  0.43914  0.93980  0.77108  1.0000
  C   C662      1.0  0.03668  0.83951  0.95475  1.0000
  C   C663      1.0  0.14973  0.94593  0.97119  1.0000
  H   H788      1.0  0.27396  0.97925  0.74553  1.0000
  C   C664      1.0  0.01131  0.75789  0.86945  1.0000
  C   C665      1.0  0.03286  0.75791  0.88843  1.0000
  C   C666      1.0  0.05235  0.75075  0.87527  1.0000
  C   C667      1.0  0.05079  0.74374  0.84249  1.0000
  C   C668      1.0  0.02941  0.74397  0.82299  1.0000
  C   C669      1.0  0.00977  0.75096  0.83653  1.0000
  H   H789      1.0  0.03446  0.76341  0.91329  1.0000
  H   H790      1.0  0.06879  0.75063  0.89055  1.0000
  N   N45       1.0  0.11792  0.93161  0.88838  1.0000
  C   C670      1.0  0.10552  0.91985  0.89808  1.0000
  C   C671      1.0  0.10257  0.93916  0.86326  1.0000
  C   C672      1.0  0.13955  0.92788  0.86767  1.0000
  C   C673      1.0  0.12282  0.93882  0.92239  1.0000
  C   C674      1.0  0.32259  0.97727  0.87307  1.0000
  H   H791      1.0  0.47988  0.82001  0.64777  1.0000
  H   H792      1.0  0.28676  0.97477  0.62408  1.0000
  S   S178      1.0  0.24225  0.80215  0.48042  1.0000
  S   S179      1.0  0.07549  0.73416  0.82902  1.0000
  H   H793      1.0  0.10199  0.91393  0.87344  1.0000
  S   S180      1.0  0.24919  0.77155  0.49055  1.0000
  H   H794      1.0  0.08818  0.92189  0.91130  1.0000
  H   H795      1.0  0.08465  0.94107  0.87460  1.0000
  H   H796      1.0  0.09945  0.93406  0.83685  1.0000
  H   H797      1.0  0.11065  0.94844  0.85693  1.0000
  H   H798      1.0  0.15088  0.92105  0.88322  1.0000
  H   H799      1.0  0.13502  0.92291  0.84153  1.0000
  H   H800      1.0  0.15010  0.93631  0.86037  1.0000
  C   C675      1.0  0.48086  0.93489  0.78528  1.0000
  C   C676      1.0  0.29406  0.85666  0.53812  1.0000
  C   C677      1.0  0.19242  0.84950  0.50067  1.0000
  C   C678      1.0  0.06179  0.79187  0.84973  1.0000
  C   C679      1.0  0.31166  0.83114  0.53146  1.0000
  H   H801      1.0  0.25299  0.82660  0.51920  1.0000
  H   H802      1.0  0.32221  0.97142  0.81741  1.0000
  C   C680      1.0  0.02944  0.81467  0.85059  1.0000
  H   H803      1.0  0.03141  0.81648  0.82081  1.0000
  H   H804      1.0  0.47615  0.97189  0.51496  1.0000
  C   C681      1.0  0.22622  0.75244  0.69674  1.0000
  N   N46       1.0  0.13458  0.87209  0.61611  1.0000
  C   C682      1.0  0.15426  0.87863  0.63503  1.0000
  C   C683      1.0  0.12998  0.87883  0.58115  1.0000
  C   C684      1.0  0.11293  0.87344  0.63871  1.0000
  C   C685      1.0  0.14088  0.85851  0.61108  1.0000
  C   C686      1.0  0.14618  0.85080  0.64186  1.0000
  C   C687      1.0  0.14265  0.85263  0.57604  1.0000
  C   C688      1.0  0.15338  0.83812  0.63778  1.0000
  C   C689      1.0  0.14958  0.83991  0.57236  1.0000
  C   C690      1.0  0.15523  0.83271  0.60307  1.0000
  H   H805      1.0  0.17116  0.87726  0.61985  1.0000
  H   H806      1.0  0.15074  0.88902  0.63750  1.0000
  H   H807      1.0  0.15717  0.87516  0.66333  1.0000
  H   H808      1.0  0.14600  0.87878  0.56347  1.0000
  H   H809      1.0  0.12502  0.88896  0.58580  1.0000
  H   H810      1.0  0.11504  0.87460  0.56564  1.0000
  H   H811      1.0  0.11550  0.86971  0.66683  1.0000
  H   H812      1.0  0.10743  0.88360  0.64200  1.0000
  H   H813      1.0  0.09785  0.86834  0.62599  1.0000
  H   H814      1.0  0.14527  0.85461  0.66930  1.0000
  H   H815      1.0  0.13957  0.85773  0.55086  1.0000
  H   H816      1.0  0.15799  0.83249  0.66157  1.0000
  H   H817      1.0  0.31678  0.82095  0.52765  1.0000
  H   H818      1.0  0.16158  0.82301  0.59981  1.0000
  C   C691      1.0  0.23448  0.95480  0.52530  1.0000
  C   C692      1.0  0.26510  0.87322  0.52470  1.0000
  H   H819      1.0  0.15155  0.83573  0.54534  1.0000
  H   H820      1.0  0.47154  0.85402  0.59532  1.0000
  H   H821      1.0  0.24774  0.84551  0.48735  1.0000
  C   C693      1.0  0.01808  0.83076  0.95332  1.0000
  C   C694      1.0  0.99632  0.80089  0.84360  1.0000
  S   S181      1.0  0.47881  0.82847  0.57022  1.0000
  H   H822      1.0  0.27855  0.95228  0.81196  1.0000
  H   H823      1.0  0.25918  0.75418  0.66828  1.0000
  C   C695      1.0  0.24841  0.97288  0.80235  1.0000
  H   H824      1.0  0.08564  0.94320  0.93448  1.0000
  H   H825      1.0  0.42253  0.93714  0.75838  1.0000
  H   H826      1.0  0.26781  0.82895  0.56192  1.0000
  C   C696      1.0  0.18323  0.75433  0.50067  1.0000
  H   H827      1.0  0.99524  0.80259  0.81364  1.0000
  H   H828      1.0  0.47266  0.93703  0.59338  1.0000
  C   C697      1.0  0.10389  0.94418  0.94305  1.0000
  S   S182      1.0  0.35467  0.97200  0.65180  1.0000
  H   H829      1.0  0.31716  0.97145  0.53418  1.0000
  H   H830      1.0  0.32666  0.97908  0.57501  1.0000
  H   H831      1.0  0.19977  0.82935  0.49547  1.0000
  C   C698      1.0  0.45862  0.93148  0.77015  1.0000
  C   C699      1.0  0.27056  0.82603  0.53290  1.0000
  C   C700      1.0  0.25813  0.73706  0.70014  1.0000
  C   C701      1.0  0.14599  0.93991  0.93747  1.0000
  C   C702      1.0  0.48244  0.94725  0.80083  1.0000
  S   S183      1.0  0.21572  0.82104  0.56800  1.0000
  C   C703      1.0  0.45217  0.96096  0.59442  1.0000
  S   S184      1.0  0.04948  0.92303  0.96311  1.0000
  H   H832      1.0  0.36856  0.76456  0.54368  1.0000
  C   C704      1.0  0.28622  0.86928  0.54124  1.0000
  H   H833      1.0  0.24145  0.96635  0.82341  1.0000
  H   H834      1.0  0.99305  0.89050  0.96788  1.0000
  Fe  Fe89      1.0  0.32465  0.97055  0.69194  1.0000
  H   H835      1.0  0.14866  0.76427  0.55762  1.0000
  H   H836      1.0  0.31152  0.83282  0.56153  1.0000
  C   C705      1.0  0.14187  0.75477  0.55513  1.0000
  C   C706      1.0  0.19236  0.86023  0.52372  1.0000
  H   H837      1.0  0.01689  0.82196  0.86176  1.0000
  H   H838      1.0  0.45418  0.95419  0.61622  1.0000
  S   S185      1.0  0.30863  0.79530  0.49542  1.0000
  C   C707      1.0  0.20022  0.83753  0.51342  1.0000
  H   H839      1.0  0.03802  0.80096  0.91062  1.0000
  C   C708      1.0  0.46457  0.97074  0.53806  1.0000
  H   H840      1.0  0.08125  0.76670  0.79883  1.0000
  C   C709      1.0  0.28073  0.84756  0.51821  1.0000
  C   C710      1.0  0.03741  0.79222  0.83996  1.0000
  H   H841      1.0  0.27605  0.81584  0.53272  1.0000
  C   C711      1.0  0.44129  0.95184  0.78639  1.0000
  H   H842      1.0  0.19183  0.74506  0.50753  1.0000
  C   C712      1.0  0.46864  0.96134  0.56527  1.0000
  C   C713      1.0  0.36557  0.77382  0.53184  1.0000
  S   S186      1.0  0.19805  0.91119  0.50282  1.0000
  N   N47       1.0  0.28872  0.97956  0.56686  1.0000
  C   C714      1.0  0.17608  0.74009  0.64450  1.0000
  S   S187      1.0  0.41441  0.77573  0.53497  1.0000
  C   C715      1.0  0.04553  0.77405  0.79930  1.0000
  H   H843      1.0  0.25894  0.88298  0.52739  1.0000
  H   H844      1.0  0.16145  0.93595  0.92420  1.0000
  H   H845      1.0  0.47600  0.83170  0.49135  1.0000
  H   H846      1.0  0.03922  0.76693  0.78025  1.0000
  C   C716      1.0  0.06926  0.77390  0.80977  1.0000
  H   H847      1.0  0.04672  0.81656  0.86406  1.0000
  S   S188      1.0  0.20190  0.78658  0.52494  1.0000
  C   C717      1.0  0.26993  0.97109  0.55318  1.0000
  H   H848      1.0  0.23516  0.86767  0.49237  1.0000
  Fe  Fe90      1.0  0.48271  0.80760  0.55339  1.0000
  C   C718      1.0  0.28167  0.95919  0.78968  1.0000
  S   S189      1.0  0.48362  0.77167  0.52570  1.0000
  H   H849      1.0  0.48011  0.85315  0.49713  1.0000
  H   H850      1.0  0.22134  0.94823  0.51518  1.0000
  S   S190      1.0  0.46421  0.80040  0.50272  1.0000
  H   H851      1.0  0.06885  0.79849  0.86949  1.0000
  S   S191      1.0  0.18172  0.87495  0.50602  1.0000
  C   C719      1.0  0.02970  0.78297  0.81425  1.0000
  C   C720      1.0  0.14541  0.74744  0.52287  1.0000
  H   H852      1.0  0.31047  0.85425  0.55180  1.0000
  H   H853      1.0  0.15163  0.77286  0.50281  1.0000
  C   C721      1.0  0.34212  0.77787  0.52362  1.0000
  C   C722      1.0  0.46286  0.95555  0.80123  1.0000
  H   H854      1.0  0.11616  0.91399  0.91755  1.0000
  H   H855      1.0  0.00219  0.86888  0.97270  1.0000
  Fe  Fe91      1.0  0.16340  0.92198  0.50324  1.0000
  H   H856      1.0  0.48593  0.94191  0.68470  1.0000
  H   H857      1.0  0.12752  0.75568  0.60966  1.0000
  H   H858      1.0  0.24038  0.97006  0.77566  1.0000
  C   C723      1.0  0.13008  0.74988  0.58536  1.0000
  Fe  Fe92      1.0  0.12534  0.73151  0.71690  1.0000
  N   N48       1.0  0.02112  0.80160  0.85722  1.0000
  H   H859      1.0  0.21891  0.95613  0.57849  1.0000
  H   H860      1.0  0.24884  0.96993  0.60351  1.0000
  H   H861      1.0  0.00786  0.80588  0.91107  1.0000
  Fe  Fe93      1.0  0.37757  0.97539  0.70158  1.0000
  C   C724      1.0  0.99892  0.83324  0.92990  1.0000
  H   H862      1.0  0.39545  0.79973  0.50419  1.0000
  C   C725      1.0  0.23313  0.95930  0.56108  1.0000
  C   C726      1.0  0.27053  0.96649  0.51661  1.0000
  C   C727      1.0  0.31121  0.97433  0.84014  1.0000
  H   H863      1.0  0.29647  0.87607  0.55677  1.0000
  H   H864      1.0  0.42636  0.95844  0.78568  1.0000
  H   H865      1.0  0.19464  0.74825  0.72512  1.0000
  C   C728      1.0  0.43289  0.96941  0.59636  1.0000
  H   H866      1.0  0.31264  0.96394  0.57742  1.0000
  C   C729      1.0  0.25170  0.86457  0.50498  1.0000
  H   H867      1.0  0.01142  0.78219  0.80586  1.0000
  H   H868      1.0  0.32589  0.83680  0.51881  1.0000
  H   H869      1.0  0.10239  0.74383  0.96873  1.0000
  C   C730      1.0  0.25312  0.95840  0.50307  1.0000
  H   H870      1.0  0.28464  0.96901  0.49833  1.0000
  H   H871      1.0  0.04752  0.89340  0.96842  1.0000
  C   C731      1.0  0.44512  0.97913  0.54013  1.0000
  H   H872      1.0  0.27163  0.95598  0.76510  1.0000
  C   C732      1.0  0.14773  0.76553  0.48178  1.0000
  H   H873      1.0  0.42075  0.96900  0.61927  1.0000
  H   H874      1.0  0.30062  0.95841  0.78170  1.0000
  C   C733      1.0  0.35733  0.79757  0.50100  1.0000
  H   H875      1.0  0.21015  0.73625  0.80363  1.0000
  C   C734      1.0  0.00078  0.74139  0.96760  1.0000
  H   H876      1.0  0.12821  0.76512  0.47795  1.0000
  C   C735      1.0  0.24890  0.74846  0.68679  1.0000
  H   H877      1.0  0.05165  0.83766  0.97262  1.0000
  H   H878      1.0  0.30175  0.98071  0.76806  1.0000
  H   H879      1.0  0.04656  0.74979  0.96357  1.0000
  H   H880      1.0  0.99439  0.95027  0.71442  1.0000
  C   C736      1.0  0.19573  0.73215  0.78666  1.0000
  C   C737      1.0  0.12232  0.73743  0.58504  1.0000
  N   N49       1.0  0.48933  0.95250  0.56473  1.0000
  C   C738      1.0  0.27347  0.98012  0.86715  1.0000
  C   C739      1.0  0.22115  0.73317  0.73317  1.0000
  H   H881      1.0  0.27580  0.73401  0.69220  1.0000
  H   H882      1.0  0.47949  0.81816  0.69705  1.0000
  H   H883      1.0  0.19334  0.75865  0.47790  1.0000
  C   C740      1.0  0.48642  0.81409  0.67101  1.0000
  H   H884      1.0  0.47811  0.80465  0.66740  1.0000
  S   S192      1.0  0.08556  0.73081  0.71673  1.0000
  Fe  Fe94      1.0  0.97346  0.16262  0.06364  1.0000
  S   S193      1.0  0.94962  0.14845  0.03592  1.0000
  S   S194      1.0  0.96545  0.17866  0.10429  1.0000
  H   H885      1.0  0.56212  0.98242  0.17864  1.0000
  H   H886      1.0  0.78509  0.02111  0.35521  1.0000
  H   H887      1.0  0.77682  0.98170  0.33206  1.0000
  H   H888      1.0  0.84642  0.00481  0.23266  1.0000
  H   H889      1.0  0.97463  0.99923  0.19225  1.0000
  S   S195      1.0  0.87059  0.21140  0.30185  1.0000
  S   S196      1.0  0.80253  0.21641  0.32739  1.0000
  Fe  Fe95      1.0  0.87168  0.21023  0.24038  1.0000
  S   S197      1.0  0.88103  0.19104  0.21483  1.0000
  S   S198      1.0  0.83515  0.21869  0.23276  1.0000
  C   C741      1.0  0.63156  0.16532  0.38602  1.0000
  C   C742      1.0  0.54015  0.00819  0.31119  1.0000
  C   C743      1.0  0.97208  0.17515  0.20436  1.0000
  H   H890      1.0  0.92670  0.16316  0.13199  1.0000
  H   H891      1.0  0.89445  0.16829  0.17603  1.0000
  S   S199      1.0  0.78576  0.16720  0.42428  1.0000
  C   C744      1.0  0.72829  0.99669  0.42211  1.0000
  Fe  Fe96      1.0  0.82027  0.02639  0.43891  1.0000
  S   S200      1.0  0.85031  0.02103  0.39920  1.0000
  S   S201      1.0  0.79113  0.03986  0.42297  1.0000
  Fe  Fe97      1.0  0.95218  0.02898  0.16873  1.0000
  S   S202      1.0  0.92115  0.01587  0.16330  1.0000
  H   H892      1.0  0.55159  0.01553  0.30130  1.0000
  Fe  Fe98      1.0  0.92346  0.05215  0.14092  1.0000
  S   S203      1.0  0.89067  0.04057  0.13316  1.0000
  S   S204      1.0  0.92067  0.07359  0.13190  1.0000
  Fe  Fe99      1.0  0.89943  0.03198  0.18848  1.0000
  S   S205      1.0  0.86803  0.03205  0.22879  1.0000
  Fe  Fe100     1.0  0.91457  0.02553  0.10884  1.0000
  S   S206      1.0  0.91273  0.01479  0.05411  1.0000
  S   S207      1.0  0.93090  0.04447  0.19720  1.0000
  S   S208      1.0  0.94687  0.03775  0.11331  1.0000
  C   C745      1.0  0.89255  0.01369  0.01666  1.0000
  C   C746      1.0  0.86956  0.01883  0.01772  1.0000
  H   H893      1.0  0.98866  0.10638  0.14481  1.0000
  H   H894      1.0  0.74457  0.99643  0.43782  1.0000
  Fe  Fe101     1.0  0.83533  0.22104  0.29411  1.0000
  N   N50       1.0  0.94670  0.19644  0.28021  1.0000
  H   H895      1.0  0.86350  0.02375  0.04202  1.0000
  H   H896      1.0  0.90775  0.04209  0.04837  1.0000
  H   H897      1.0  0.51011  0.02096  0.31887  1.0000
  S   S209      1.0  0.57808  0.99201  0.29839  1.0000
  C   C747      1.0  0.71814  0.00837  0.41223  1.0000
  C   C748      1.0  0.69689  0.00852  0.39200  1.0000
  C   C749      1.0  0.68586  0.99714  0.38161  1.0000
  H   H898      1.0  0.68890  0.01750  0.38421  1.0000
  H   H899      1.0  0.66952  0.99741  0.36605  1.0000
  C   C750      1.0  0.85518  0.02472  0.35214  1.0000
  C   C751      1.0  0.87687  0.02113  0.33589  1.0000
  C   C752      1.0  0.88135  0.02351  0.29854  1.0000
  C   C753      1.0  0.86409  0.02946  0.27670  1.0000
  C   C754      1.0  0.84246  0.03314  0.29305  1.0000
  C   C755      1.0  0.83807  0.03087  0.33049  1.0000
  H   H900      1.0  0.89027  0.01636  0.35225  1.0000
  H   H901      1.0  0.89802  0.02055  0.28651  1.0000
  H   H902      1.0  0.82892  0.03770  0.27649  1.0000
  H   H903      1.0  0.82132  0.03371  0.34234  1.0000
  H   H904      1.0  0.80589  0.06638  0.40341  1.0000
  H   H905      1.0  0.76525  0.98808  0.37410  1.0000
  H   H906      1.0  0.91571  0.18519  0.27029  1.0000
  C   C756      1.0  0.54894  0.99565  0.31383  1.0000
  C   C757      1.0  0.51665  0.01130  0.32123  1.0000
  H   H907      1.0  0.50257  0.08891  0.47375  1.0000
  H   H908      1.0  0.83264  0.19077  0.23766  1.0000
  C   C758      1.0  0.87758  0.06104  0.05080  1.0000
  H   H909      1.0  0.93671  0.17841  0.30257  1.0000
  C   C759      1.0  0.51029  0.98929  0.33568  1.0000
  H   H910      1.0  0.88732  0.06248  0.25514  1.0000
  C   C760      1.0  0.87881  0.06374  0.28149  1.0000
  C   C761      1.0  0.79882  0.20306  0.35619  1.0000
  C   C762      1.0  0.77746  0.20180  0.37542  1.0000
  C   C763      1.0  0.77332  0.19104  0.39713  1.0000
  C   C764      1.0  0.79042  0.18133  0.39933  1.0000
  C   C765      1.0  0.81198  0.18273  0.38082  1.0000
  C   C766      1.0  0.81627  0.19358  0.35966  1.0000
  H   H911      1.0  0.76389  0.20911  0.37308  1.0000
  H   H912      1.0  0.75668  0.19011  0.41129  1.0000
  H   H913      1.0  0.82538  0.17532  0.38261  1.0000
  H   H914      1.0  0.83299  0.19451  0.34577  1.0000
  C   C767      1.0  0.96498  0.10265  0.06871  1.0000
  C   C768      1.0  0.83275  0.00393  0.25322  1.0000
  C   C769      1.0  0.95607  0.08052  0.08326  1.0000
  C   C770      1.0  0.93809  0.08449  0.10706  1.0000
  C   C771      1.0  0.93348  0.09758  0.11123  1.0000
  C   C772      1.0  0.94680  0.10662  0.09218  1.0000
  C   C773      1.0  0.92585  0.07233  0.98693  1.0000
  H   H915      1.0  0.95952  0.07053  0.07916  1.0000
  H   H916      1.0  0.91952  0.10077  0.12939  1.0000
  H   H917      1.0  0.94311  0.11664  0.09582  1.0000
  C   C774      1.0  0.94023  0.18210  0.13167  1.0000
  C   C775      1.0  0.93717  0.19446  0.14565  1.0000
  C   C776      1.0  0.91864  0.19747  0.17001  1.0000
  C   C777      1.0  0.90332  0.18802  0.18156  1.0000
  C   C778      1.0  0.90623  0.17567  0.16740  1.0000
  C   C779      1.0  0.92445  0.17273  0.14230  1.0000
  H   H918      1.0  0.94935  0.20176  0.13768  1.0000
  H   H919      1.0  0.91642  0.20707  0.17997  1.0000
  H   H920      1.0  0.85592  0.07885  0.26316  1.0000
  N   N51       1.0  0.84198  0.06742  0.38445  1.0000
  C   C780      1.0  0.84907  0.05779  0.41210  1.0000
  C   C781      1.0  0.84601  0.08011  0.40076  1.0000
  C   C782      1.0  0.81623  0.06602  0.37752  1.0000
  C   C783      1.0  0.85516  0.06618  0.34963  1.0000
  H   H921      1.0  0.87753  0.04464  0.99717  1.0000
  C   C784      1.0  0.87378  0.05712  0.34426  1.0000
  C   C785      1.0  0.79184  0.00660  0.27172  1.0000
  H   H922      1.0  0.82167  0.19421  0.28262  1.0000
  H   H923      1.0  0.87935  0.05049  0.36514  1.0000
  C   C786      1.0  0.71732  0.98530  0.41157  1.0000
  C   C787      1.0  0.79839  0.17526  0.21686  1.0000
  C   C788      1.0  0.61741  0.98933  0.20795  1.0000
  H   H924      1.0  0.86521  0.08165  0.40578  1.0000
  H   H925      1.0  0.83935  0.08790  0.38294  1.0000
  H   H926      1.0  0.75289  0.01467  0.31435  1.0000
  H   H927      1.0  0.81257  0.05683  0.36366  1.0000
  C   C789      1.0  0.62037  0.15378  0.39055  1.0000
  H   H928      1.0  0.80868  0.07371  0.36022  1.0000
  H   H929      1.0  0.98349  0.08639  0.04628  1.0000
  H   H930      1.0  0.86798  0.05863  0.42023  1.0000
  C   C790      1.0  0.78517  0.01130  0.36622  1.0000
  C   C791      1.0  0.88544  0.05605  0.31069  1.0000
  H   H931      1.0  0.73465  0.18385  0.33232  1.0000
  N   N52       1.0  0.79724  0.18437  0.24789  1.0000
  H   H932      1.0  0.80770  0.17932  0.19289  1.0000
  C   C792      1.0  0.78687  0.19645  0.23379  1.0000
  H   H933      1.0  0.80503  0.01061  0.21771  1.0000
  C   C793      1.0  0.78361  0.17886  0.27829  1.0000
  H   H934      1.0  0.89917  0.04886  0.30683  1.0000
  C   C794      1.0  0.90764  0.07197  0.01356  1.0000
  H   H935      1.0  0.97417  0.20738  0.30654  1.0000
  C   C795      1.0  0.84944  0.07419  0.31964  1.0000
  H   H936      1.0  0.61938  0.18169  0.46909  1.0000
  H   H937      1.0  0.78031  0.17254  0.20779  1.0000
  H   H938      1.0  0.89131  0.98127  0.00607  1.0000
  S   S210      1.0  0.49886  0.14412  0.42995  1.0000
  H   H939      1.0  0.78663  0.20398  0.25534  1.0000
  H   H940      1.0  0.76853  0.19515  0.22333  1.0000
  H   H941      1.0  0.79735  0.20026  0.21071  1.0000
  H   H942      1.0  0.79637  0.98682  0.36806  1.0000
  C   C796      1.0  0.82142  0.99939  0.31545  1.0000
  C   C797      1.0  0.79096  0.16717  0.29415  1.0000
  Fe  Fe102     1.0  0.98151  0.13523  0.03800  1.0000
  C   C798      1.0  0.53393  0.98624  0.32655  1.0000
  H   H943      1.0  0.62716  0.18501  0.37283  1.0000
  H   H944      1.0  0.74843  0.16349  0.35857  1.0000
  C   C799      1.0  0.75012  0.17909  0.32100  1.0000
  N   N53       1.0  0.55618  0.16285  0.36686  1.0000
  C   C800      1.0  0.54672  0.14983  0.36974  1.0000
  C   C801      1.0  0.54376  0.17089  0.39427  1.0000
  C   C802      1.0  0.55008  0.16760  0.32977  1.0000
  C   C803      1.0  0.58208  0.16346  0.37319  1.0000
  C   C804      1.0  0.59598  0.15280  0.38454  1.0000
  C   C805      1.0  0.59407  0.17510  0.36907  1.0000
  H   H945      1.0  0.54884  0.18100  0.39271  1.0000
  H   H946      1.0  0.55552  0.14321  0.35010  1.0000
  H   H947      1.0  0.54898  0.14601  0.39796  1.0000
  H   H948      1.0  0.52736  0.14964  0.36372  1.0000
  H   H949      1.0  0.52417  0.17065  0.39045  1.0000
  H   H950      1.0  0.56002  0.16222  0.30837  1.0000
  H   H951      1.0  0.53077  0.16673  0.32377  1.0000
  H   H952      1.0  0.55399  0.17782  0.32646  1.0000
  H   H953      1.0  0.88431  0.06486  0.07731  1.0000
  H   H954      1.0  0.58459  0.18369  0.36165  1.0000
  H   H955      1.0  0.90740  0.10378  0.03489  1.0000
  H   H956      1.0  0.83125  0.17846  0.27050  1.0000
  C   C806      1.0  0.79736  0.00259  0.30791  1.0000
  H   H957      1.0  0.57151  0.99214  0.21565  1.0000
  H   H958      1.0  0.84604  0.04800  0.40182  1.0000
  H   H959      1.0  0.86964  0.05170  0.05724  1.0000
  C   C807      1.0  0.75486  0.00477  0.32443  1.0000
  S   S211      1.0  0.72600  0.14818  0.45234  1.0000
  H   H960      1.0  0.63412  0.98418  0.21492  1.0000
  C   C808      1.0  0.93684  0.08368  0.97789  1.0000
  H   H961      1.0  0.93901  0.10373  0.98866  1.0000
  H   H962      1.0  0.83865  0.05883  0.43773  1.0000
  H   H963      1.0  0.78457  0.15297  0.33516  1.0000
  H   H964      1.0  0.98291  0.06723  0.19954  1.0000
  H   H965      1.0  0.62191  0.99732  0.18965  1.0000
  Fe  Fe103     1.0  0.75556  0.16203  0.46258  1.0000
  C   C809      1.0  0.75781  0.16760  0.33580  1.0000
  H   H966      1.0  0.83668  0.08125  0.42746  1.0000
  C   C810      1.0  0.95778  0.17946  0.23310  1.0000
  H   H967      1.0  0.75628  0.19386  0.28369  1.0000
  H   H968      1.0  0.96767  0.06457  0.15653  1.0000
  C   C811      1.0  0.76284  0.18475  0.29289  1.0000
  H   H969      1.0  0.57873  0.99671  0.17000  1.0000
  H   H970      1.0  0.74928  0.99804  0.30261  1.0000
  H   H971      1.0  0.96845  0.16619  0.19090  1.0000
  Fe  Fe104     1.0  0.76702  0.02637  0.45182  1.0000
  Fe  Fe105     1.0  0.96507  0.15567  0.98327  1.0000
  H   H972      1.0  0.98391  0.20813  0.24673  1.0000
  C   C812      1.0  0.61844  0.17598  0.37539  1.0000
  H   H973      1.0  0.80832  0.16643  0.22397  1.0000
  H   H974      1.0  0.95094  0.20289  0.33600  1.0000
  C   C813      1.0  0.85419  0.01738  0.98738  1.0000
  H   H975      1.0  0.92279  0.21218  0.29020  1.0000
  H   H976      1.0  0.80291  0.00951  0.37869  1.0000
  H   H977      1.0  0.94350  0.17335  0.24075  1.0000
  H   H978      1.0  0.92938  0.04869  0.01923  1.0000
  N   N54       1.0  0.89683  0.05975  0.02341  1.0000
  C   C814      1.0  0.82171  0.18702  0.26028  1.0000
  C   C815      1.0  0.77826  0.16169  0.32256  1.0000
  C   C816      1.0  0.77954  0.98909  0.35347  1.0000
  H   H979      1.0  0.91780  0.00336  0.98355  1.0000
  C   C817      1.0  0.86098  0.07288  0.28603  1.0000
  C   C818      1.0  0.50150  0.00182  0.33319  1.0000
  S   S212      1.0  0.73187  0.02298  0.42271  1.0000
  C   C819      1.0  0.61627  0.17172  0.47356  1.0000
  H   H980      1.0  0.61090  0.99344  0.23431  1.0000
  H   H981      1.0  0.65032  0.16610  0.39209  1.0000
  H   H982      1.0  0.80681  0.16226  0.28506  1.0000
  H   H983      1.0  0.83577  0.08142  0.32181  1.0000
  H   H984      1.0  0.54789  0.16760  0.42254  1.0000
  H   H985      1.0  0.97247  0.19116  0.32109  1.0000
  C   C820      1.0  0.93002  0.09499  0.99493  1.0000
  H   H986      1.0  0.58842  0.14368  0.39008  1.0000
  C   C821      1.0  0.88668  0.05361  0.99036  1.0000
  N   N55       1.0  0.77941  0.00196  0.33722  1.0000
  C   C822      1.0  0.83873  0.99996  0.28836  1.0000
  H   H987      1.0  0.80145  0.19248  0.46580  1.0000
  C   C823      1.0  0.92849  0.18742  0.29264  1.0000
  C   C824      1.0  0.96949  0.08955  0.06439  1.0000
  H   H988      1.0  0.77209  0.01110  0.38886  1.0000
  H   H989      1.0  0.91766  0.19144  0.31542  1.0000
  H   H990      1.0  0.77418  0.00943  0.26344  1.0000
  S   S213      1.0  0.88958  0.22888  0.23484  1.0000
  H   H991      1.0  0.83638  0.02129  0.98853  1.0000
  C   C825      1.0  0.93413  0.20813  0.26814  1.0000
  C   C826      1.0  0.89996  0.00721  0.98486  1.0000
  H   H992      1.0  0.63054  0.14564  0.40018  1.0000
  C   C827      1.0  0.96177  0.19957  0.31228  1.0000
  C   C828      1.0  0.98303  0.06156  0.17381  1.0000
  H   H993      1.0  0.92391  0.05580  0.06318  1.0000
  C   C829      1.0  0.57700  0.98839  0.18830  1.0000
  H   H994      1.0  0.94639  0.21576  0.26017  1.0000
  C   C830      1.0  0.69607  0.98546  0.39128  1.0000
  H   H995      1.0  0.82720  0.99677  0.34265  1.0000
  C   C831      1.0  0.90116  0.08369  0.03053  1.0000
  H   H996      1.0  0.97955  0.08541  0.16646  1.0000
  S   S214      1.0  0.98306  0.11356  0.04506  1.0000
  H   H997      1.0  0.85708  0.99777  0.29497  1.0000
  S   S215      1.0  0.50179  0.17280  0.46416  1.0000
  Fe  Fe106     1.0  0.51939  0.15382  0.47492  1.0000
  C   C832      1.0  0.80940  0.00727  0.24495  1.0000
  H   H998      1.0  0.86294  0.06730  0.04072  1.0000
  S   S216      1.0  0.79593  0.01221  0.46505  1.0000
  C   C833      1.0  0.59272  0.16733  0.47433  1.0000
  C   C834      1.0  0.96156  0.19146  0.24995  1.0000
  H   H999      1.0  0.83257  0.19101  0.47337  1.0000
  H   H1000     1.0  0.88812  0.08437  0.05195  1.0000
  C   C835      1.0  0.98028  0.19882  0.23590  1.0000
  C   C836      1.0  0.91528  0.05123  0.03916  1.0000
  H   H1001     1.0  0.74178  0.00393  0.34694  1.0000
  C   C837      1.0  0.91216  0.09499  0.02103  1.0000
  H   H1002     1.0  0.87357  0.05999  0.97660  1.0000
  H   H1003     1.0  0.49869  0.98187  0.34467  1.0000
  H   H1004     1.0  0.92252  0.20614  0.24424  1.0000
  S   S217      1.0  0.98697  0.17045  0.01070  1.0000
  H   H1005     1.0  0.97981  0.05160  0.18205  1.0000
  H   H1006     1.0  0.57805  0.17392  0.47075  1.0000
  H   H1007     1.0  0.57728  0.98156  0.12135  1.0000
  N   N56       1.0  0.59957  0.98098  0.19065  1.0000
  S   S218      1.0  0.66517  0.16947  0.47537  1.0000
  C   C838      1.0  0.99021  0.18262  0.19122  1.0000
  H   H1008     1.0  0.95942  0.19739  0.79795  1.0000
  Fe  Fe107     1.0  0.84624  0.20401  0.73632  1.0000
  S   S219      1.0  0.88616  0.20262  0.73525  1.0000
  S   S220      1.0  0.82779  0.18661  0.71230  1.0000
  H   H1009     1.0  0.79584  0.17599  0.50641  1.0000
  C   C839      1.0  0.75377  0.10508  0.50346  1.0000
  C   C840      1.0  0.84816  0.19979  0.60881  1.0000
  Fe  Fe108     1.0  0.88532  0.21061  0.79238  1.0000
  S   S221      1.0  0.91046  0.20716  0.84103  1.0000
  Fe  Fe109     1.0  0.70272  0.16124  0.48651  1.0000
  S   S222      1.0  0.84543  0.21058  0.79563  1.0000
  N   N57       1.0  0.66601  0.17485  0.59193  1.0000
  Fe  Fe110     1.0  0.74293  0.16586  0.54311  1.0000
  H   H1010     1.0  0.85105  0.21044  0.91944  1.0000
  S   S223      1.0  0.74909  0.18103  0.58701  1.0000
  H   H1011     1.0  0.66806  0.18803  0.54686  1.0000
  H   H1012     1.0  0.70340  0.18274  0.63448  1.0000
  Fe  Fe111     1.0  0.73752  0.13954  0.50611  1.0000
  H   H1013     1.0  0.86699  0.01433  0.66420  1.0000
  H   H1014     1.0  0.72747  0.14662  0.67237  1.0000
  S   S224      1.0  0.71284  0.15206  0.53970  1.0000
  S   S225      1.0  0.73484  0.11811  0.51560  1.0000
  H   H1015     1.0  0.90126  0.22047  0.90635  1.0000
  H   H1016     1.0  0.84964  0.22111  0.97403  1.0000
  H   H1017     1.0  0.88322  0.23003  0.85467  1.0000
  S   S226      1.0  0.73160  0.17577  0.49152  1.0000
  C   C841      1.0  0.71673  0.16535  0.65566  1.0000
  Fe  Fe112     1.0  0.80065  0.02327  0.51806  1.0000
  S   S227      1.0  0.79976  0.01391  0.57548  1.0000
  S   S228      1.0  0.76994  0.03671  0.50579  1.0000
  Fe  Fe113     1.0  0.79637  0.04905  0.47796  1.0000
  H   H1018     1.0  0.78314  0.10318  0.63261  1.0000
  C   C842      1.0  0.97121  0.19339  0.81856  1.0000
  C   C843      1.0  0.85107  0.20490  0.53403  1.0000
  S   S229      1.0  0.85233  0.00105  0.72881  1.0000
  S   S230      1.0  0.82739  0.03627  0.49287  1.0000
  S   S231      1.0  0.84149  0.00904  0.91827  1.0000
  C   C844      1.0  0.81503  0.01019  0.61754  1.0000
  C   C845      1.0  0.83819  0.01408  0.62497  1.0000
  C   C846      1.0  0.84914  0.01121  0.65900  1.0000
  C   C847      1.0  0.83725  0.00440  0.68633  1.0000
  C   C848      1.0  0.81409  0.00053  0.67891  1.0000
  C   C849      1.0  0.80312  0.00343  0.64492  1.0000
  H   H1019     1.0  0.84771  0.01930  0.60452  1.0000
  H   H1020     1.0  0.78467  0.19856  0.56148  1.0000
  S   S232      1.0  0.76840  0.15259  0.51446  1.0000
  C   C850      1.0  0.70068  0.17263  0.63509  1.0000
  C   C851      1.0  0.91415  0.98681  0.75330  1.0000
  H   H1021     1.0  0.63944  0.18949  0.60002  1.0000
  H   H1022     1.0  0.78520  0.00038  0.63981  1.0000
  C   C852      1.0  0.71468  0.15223  0.65697  1.0000
  H   H1023     1.0  0.97883  0.16627  0.86576  1.0000
  H   H1024     1.0  0.60471  0.13609  0.48804  1.0000
  H   H1025     1.0  0.69106  0.17629  0.54812  1.0000
  H   H1026     1.0  0.69170  0.18933  0.57930  1.0000
  C   C853      1.0  0.78339  0.08352  0.48955  1.0000
  C   C854      1.0  0.96852  0.18089  0.82965  1.0000
  H   H1027     1.0  0.79603  0.08948  0.68398  1.0000
  H   H1028     1.0  0.80160  0.17724  0.55401  1.0000
  Fe  Fe114     1.0  0.84629  0.99536  0.86979  1.0000
  H   H1029     1.0  0.77505  0.09379  0.57191  1.0000
  C   C855      1.0  0.63579  0.16335  0.47791  1.0000
  Fe  Fe115     1.0  0.84788  0.99113  0.78513  1.0000
  C   C856      1.0  0.98271  0.17585  0.85761  1.0000
  C   C857      1.0  0.80615  0.18537  0.67697  1.0000
  C   C858      1.0  0.79175  0.19565  0.66646  1.0000
  C   C859      1.0  0.77417  0.19406  0.63931  1.0000
  C   C860      1.0  0.77116  0.18230  0.62165  1.0000
  C   C861      1.0  0.78573  0.17205  0.63178  1.0000
  C   C862      1.0  0.80293  0.17357  0.65955  1.0000
  H   H1030     1.0  0.79388  0.20475  0.67975  1.0000
  H   H1031     1.0  0.76295  0.20205  0.63181  1.0000
  H   H1032     1.0  0.78358  0.16293  0.61862  1.0000
  H   H1033     1.0  0.81390  0.16554  0.66760  1.0000
  C   C863      1.0  0.93244  0.17185  0.90822  1.0000
  C   C864      1.0  0.93945  0.18399  0.91885  1.0000
  C   C865      1.0  0.93228  0.19467  0.89822  1.0000
  C   C866      1.0  0.91770  0.19340  0.86708  1.0000
  C   C867      1.0  0.91011  0.18130  0.85707  1.0000
  C   C868      1.0  0.91759  0.17060  0.87738  1.0000
  H   H1034     1.0  0.95065  0.18512  0.94264  1.0000
  H   H1035     1.0  0.93836  0.20396  0.90618  1.0000
  H   H1036     1.0  0.89894  0.18014  0.83320  1.0000
  H   H1037     1.0  0.91203  0.16126  0.86891  1.0000
  H   H1038     1.0  0.75209  0.07258  0.49835  1.0000
  H   H1039     1.0  0.85335  0.20715  0.50553  1.0000
  H   H1040     1.0  0.80088  0.06676  0.67570  1.0000
  H   H1041     1.0  0.65803  0.16056  0.55151  1.0000
  H   H1042     1.0  0.81096  0.09721  0.48258  1.0000
  H   H1043     1.0  0.80456  0.99532  0.69938  1.0000
  H   H1044     1.0  0.63739  0.17349  0.55254  1.0000
  C   C869      1.0  0.68026  0.15353  0.61727  1.0000
  H   H1045     1.0  0.77441  0.19694  0.51565  1.0000
  C   C870      1.0  0.65235  0.18361  0.61597  1.0000
  H   H1046     1.0  0.95100  0.08373  0.95799  1.0000
  H   H1047     1.0  0.93200  0.06379  0.97335  1.0000
  H   H1048     1.0  0.84707  0.19779  0.63790  1.0000
  C   C871      1.0  0.84396  0.23059  0.96662  1.0000
  N   N58       1.0  0.81200  0.19362  0.52251  1.0000
  H   H1049     1.0  0.88093  0.20972  0.61411  1.0000
  H   H1050     1.0  0.69502  0.13610  0.63879  1.0000
  C   C872      1.0  0.68223  0.16693  0.61458  1.0000
  S   S233      1.0  0.87500  0.99674  0.82797  1.0000
  H   H1051     1.0  0.66685  0.14829  0.60278  1.0000
  H   H1052     1.0  0.81748  0.20631  0.47713  1.0000
  C   C873      1.0  0.77768  0.10661  0.49490  1.0000
  H   H1053     1.0  0.88374  0.21424  0.54807  1.0000
  S   S234      1.0  0.81818  0.99127  0.82673  1.0000
  Fe  Fe116     1.0  0.88460  0.22274  0.71504  1.0000
  C   C874      1.0  0.88458  0.00572  0.95466  1.0000
  H   H1054     1.0  0.66403  0.19028  0.63091  1.0000
  H   H1055     1.0  0.89064  0.00085  0.93028  1.0000
  C   C875      1.0  0.67977  0.18248  0.56568  1.0000
  S   S235      1.0  0.94275  0.15791  0.93104  1.0000
  H   H1056     1.0  0.93050  0.99235  0.75804  1.0000
  H   H1057     1.0  0.90040  0.05090  0.96998  1.0000
  H   H1058     1.0  0.95465  0.17523  0.81749  1.0000
  H   H1059     1.0  0.73128  0.16992  0.66979  1.0000
  H   H1060     1.0  0.86484  0.21131  0.87598  1.0000
  H   H1061     1.0  0.81613  0.19041  0.59669  1.0000
  H   H1062     1.0  0.63660  0.16198  0.58807  1.0000
  N   N59       1.0  0.79328  0.05265  0.61084  1.0000
  C   C876      1.0  0.80164  0.04538  0.64326  1.0000
  C   C877      1.0  0.77009  0.04743  0.59963  1.0000
  C   C878      1.0  0.81060  0.05035  0.58105  1.0000
  C   C879      1.0  0.79067  0.06647  0.61759  1.0000
  C   C880      1.0  0.78333  0.07467  0.58888  1.0000
  C   C881      1.0  0.79520  0.07218  0.65221  1.0000
  C   C882      1.0  0.78067  0.08773  0.59437  1.0000
  C   C883      1.0  0.79248  0.08529  0.65740  1.0000
  C   C884      1.0  0.78524  0.09304  0.62856  1.0000
  H   H1063     1.0  0.80323  0.03505  0.63710  1.0000
  H   H1064     1.0  0.81949  0.04844  0.65245  1.0000
  H   H1065     1.0  0.78901  0.04624  0.66643  1.0000
  H   H1066     1.0  0.75651  0.04907  0.62115  1.0000
  H   H1067     1.0  0.77134  0.03700  0.59442  1.0000
  H   H1068     1.0  0.76317  0.05177  0.57403  1.0000
  H   H1069     1.0  0.82790  0.05477  0.58752  1.0000
  H   H1070     1.0  0.81395  0.04003  0.57644  1.0000
  H   H1071     1.0  0.80443  0.05425  0.55441  1.0000
  H   H1072     1.0  0.77962  0.07103  0.56179  1.0000
  S   S236      1.0  0.90545  0.22683  0.66307  1.0000
  C   C885      1.0  0.69640  0.14634  0.63804  1.0000
  C   C886      1.0  0.83051  0.19558  0.58495  1.0000
  C   C887      1.0  0.86151  0.01071  0.95579  1.0000
  C   C888      1.0  0.83133  0.19799  0.54684  1.0000
  C   C889      1.0  0.78961  0.20026  0.53257  1.0000
  N   N60       1.0  0.86603  0.22873  0.90717  1.0000
  H   H1073     1.0  0.89881  0.99357  0.75421  1.0000
  C   C890      1.0  0.64878  0.16734  0.57029  1.0000
  S   S237      1.0  0.84474  0.22374  0.71339  1.0000
  C   C891      1.0  0.85407  0.21688  0.89607  1.0000
  H   H1074     1.0  0.79103  0.21069  0.52917  1.0000
  H   H1075     1.0  0.64604  0.14389  0.48706  1.0000
  C   C892      1.0  0.86871  0.20906  0.55817  1.0000
  C   C893      1.0  0.86723  0.20652  0.59545  1.0000
  H   H1076     1.0  0.64227  0.17825  0.63675  1.0000
  H   H1077     1.0  0.91219  0.98458  0.66088  1.0000
  H   H1078     1.0  0.88650  0.21882  0.94873  1.0000
  C   C894      1.0  0.88880  0.22539  0.92542  1.0000
  S   S238      1.0  0.49287  0.14839  0.51837  1.0000
  C   C895      1.0  0.58828  0.15442  0.47929  1.0000
  C   C896      1.0  0.60781  0.14609  0.48413  1.0000
  C   C897      1.0  0.79240  0.09589  0.48829  1.0000
  H   H1079     1.0  0.78494  0.11603  0.49426  1.0000
  H   H1080     1.0  0.83659  0.21900  0.88308  1.0000
  C   C898      1.0  0.91313  0.98922  0.68823  1.0000
  H   H1081     1.0  0.89655  0.99505  0.69072  1.0000
  H   H1082     1.0  0.72632  0.09139  0.51126  1.0000
  C   C899      1.0  0.80874  0.17976  0.52675  1.0000
  S   S239      1.0  0.80319  0.07036  0.48314  1.0000
  C   C900      1.0  0.75937  0.08200  0.49728  1.0000
  H   H1083     1.0  0.92810  0.99595  0.68889  1.0000
  H   H1084     1.0  0.82573  0.17444  0.52287  1.0000
  C   C901      1.0  0.74476  0.09270  0.50457  1.0000
  C   C902      1.0  0.98857  0.20082  0.83472  1.0000
  S   S240      1.0  0.55901  0.14805  0.47864  1.0000
  C   C903      1.0  0.63135  0.15050  0.48366  1.0000
  C   C904      1.0  0.81626  0.19601  0.48309  1.0000
  Fe  Fe117     1.0  0.84698  0.23029  0.77240  1.0000
  H   H1085     1.0  0.49539  0.22899  0.83635  1.0000
  S   S241      1.0  0.88682  0.23074  0.77187  1.0000
  C   C905      1.0  0.75090  0.43438  0.15432  1.0000
  Fe  Fe118     1.0  0.86511  0.47786  0.32592  1.0000
  S   S242      1.0  0.91903  0.23607  0.32874  1.0000
  C   C906      1.0  0.77312  0.31915  0.13433  1.0000
  H   H1086     1.0  0.96625  0.25915  0.42008  1.0000
  Fe  Fe119     1.0  0.80504  0.42269  0.01396  1.0000
  S   S243      1.0  0.80642  0.43598  0.06490  1.0000
  S   S244      1.0  0.77486  0.40897  0.00695  1.0000
  S   S245      1.0  0.83188  0.40893  0.98993  1.0000
  S   S246      1.0  0.87992  0.45816  0.31672  1.0000
  H   H1087     1.0  0.88253  0.27722  0.20371  1.0000
  Fe  Fe120     1.0  0.81451  0.46882  0.33380  1.0000
  S   S247      1.0  0.82595  0.44853  0.32479  1.0000
  C   C907      1.0  0.87610  0.43715  0.45039  1.0000
  Fe  Fe121     1.0  0.85612  0.45269  0.36334  1.0000
  S   S248      1.0  0.86197  0.43732  0.40664  1.0000
  Fe  Fe122     1.0  0.84843  0.45558  0.27872  1.0000
  S   S249      1.0  0.85340  0.44431  0.22463  1.0000
  H   H1088     1.0  0.88674  0.45666  0.45044  1.0000
  C   C908      1.0  0.61726  0.27557  0.00545  1.0000
  H   H1089     1.0  0.92129  0.26159  0.23640  1.0000
  S   S250      1.0  0.77379  0.29036  0.00112  1.0000
  H   H1090     1.0  0.54547  0.31437  0.99765  1.0000
  C   C909      1.0  0.93533  0.29206  0.34387  1.0000
  H   H1091     1.0  0.50861  0.46042  0.01133  1.0000
  Fe  Fe123     1.0  0.75135  0.28404  0.04830  1.0000
  S   S251      1.0  0.83507  0.47569  0.28533  1.0000
  S   S252      1.0  0.76226  0.28120  0.10829  1.0000
  H   H1092     1.0  0.94505  0.29640  0.36621  1.0000
  H   H1093     1.0  0.90925  0.30703  0.34098  1.0000
  C   C910      1.0  0.94285  0.28040  0.32980  1.0000
  S   S253      1.0  0.72223  0.29849  0.03802  1.0000
  S   S254      1.0  0.73214  0.26946  0.01550  1.0000
  H   H1094     1.0  0.54560  0.33028  0.01587  1.0000
  C   C911      1.0  0.76950  0.42584  0.14800  1.0000
  S   S255      1.0  0.84947  0.25243  0.18565  1.0000
  C   C912      1.0  0.91829  0.46150  0.24002  1.0000
  H   H1095     1.0  0.55733  0.47355  0.06204  1.0000
  S   S256      1.0  0.85037  0.24083  0.29221  1.0000
  S   S257      1.0  0.74307  0.32560  0.97762  1.0000
  C   C913      1.0  0.92302  0.24820  0.36218  1.0000
  C   C914      1.0  0.94489  0.24894  0.38068  1.0000
  C   C915      1.0  0.94927  0.25868  0.40636  1.0000
  C   C916      1.0  0.93190  0.26795  0.41342  1.0000
  C   C917      1.0  0.90994  0.26716  0.39516  1.0000
  C   C918      1.0  0.90543  0.25730  0.36993  1.0000
  H   H1096     1.0  0.95865  0.24197  0.37494  1.0000
  H   H1097     1.0  0.89641  0.27432  0.40022  1.0000
  H   H1098     1.0  0.88853  0.25688  0.35602  1.0000
  C   C919      1.0  0.78564  0.27172  0.12740  1.0000
  C   C920      1.0  0.78346  0.26724  0.16343  1.0000
  C   C921      1.0  0.80232  0.26068  0.18094  1.0000
  C   C922      1.0  0.82393  0.25884  0.16297  1.0000
  C   C923      1.0  0.82611  0.26329  0.12690  1.0000
  C   C924      1.0  0.80701  0.26952  0.10901  1.0000
  H   H1099     1.0  0.76711  0.26896  0.17806  1.0000
  H   H1100     1.0  0.80037  0.25747  0.20878  1.0000
  H   H1101     1.0  0.84277  0.26203  0.11279  1.0000
  H   H1102     1.0  0.80911  0.27301  0.08148  1.0000
  C   C925      1.0  0.52977  0.47749  0.00275  1.0000
  S   S258      1.0  0.77495  0.47163  0.34399  1.0000
  H   H1103     1.0  0.75652  0.43170  0.28184  1.0000
  C   C926      1.0  0.53616  0.32379  0.99690  1.0000
  C   C927      1.0  0.91505  0.29796  0.32981  1.0000
  H   H1104     1.0  0.73035  0.32931  0.11513  1.0000
  H   H1105     1.0  0.88474  0.29125  0.23092  1.0000
  C   C928      1.0  0.76692  0.35870  0.07065  1.0000
  H   H1106     1.0  0.78630  0.46252  0.22344  1.0000
  C   C929      1.0  0.82952  0.23723  0.99135  1.0000
  H   H1107     1.0  0.80498  0.45108  0.24587  1.0000
  C   C930      1.0  0.82047  0.43828  0.10866  1.0000
  C   C931      1.0  0.81387  0.44891  0.13015  1.0000
  C   C932      1.0  0.82383  0.45100  0.16528  1.0000
  C   C933      1.0  0.84053  0.44243  0.17983  1.0000
  C   C934      1.0  0.84746  0.43193  0.15810  1.0000
  C   C935      1.0  0.83752  0.42984  0.12293  1.0000
  H   H1108     1.0  0.80084  0.45557  0.11952  1.0000
  H   H1109     1.0  0.81867  0.45930  0.18087  1.0000
  H   H1110     1.0  0.86047  0.42524  0.16868  1.0000
  H   H1111     1.0  0.84296  0.42165  0.10695  1.0000
  H   H1112     1.0  0.74607  0.46034  0.28107  1.0000
  C   C936      1.0  0.77050  0.43902  0.28120  1.0000
  H   H1113     1.0  0.90390  0.45437  0.23984  1.0000
  H   H1114     1.0  0.90358  0.25450  0.27184  1.0000
  C   C937      1.0  0.51947  0.46572  0.99282  1.0000
  H   H1115     1.0  0.85847  0.26699  0.25315  1.0000
  C   C938      1.0  0.79773  0.33990  0.09706  1.0000
  N   N61       1.0  0.76755  0.44737  0.24885  1.0000
  C   C939      1.0  0.73925  0.32258  0.09592  1.0000
  H   H1116     1.0  0.82429  0.23286  0.01677  1.0000
  H   H1117     1.0  0.86836  0.41745  0.45919  1.0000
  H   H1118     1.0  0.92214  0.46400  0.26905  1.0000
  H   H1119     1.0  0.74329  0.46244  0.23306  1.0000
  H   H1120     1.0  0.92498  0.46487  0.16831  1.0000
  H   H1121     1.0  0.62010  0.26818  0.02549  1.0000
  H   H1122     1.0  0.81866  0.34790  0.99969  1.0000
  C   C940      1.0  0.74968  0.44122  0.18719  1.0000
  Fe  Fe124     1.0  0.80121  0.39571  0.97973  1.0000
  N   N62       1.0  0.89414  0.27389  0.25920  1.0000
  C   C941      1.0  0.80593  0.35213  0.09052  1.0000
  Fe  Fe125     1.0  0.70455  0.28432  0.00143  1.0000
  C   C942      1.0  0.87614  0.42588  0.47083  1.0000
  H   H1123     1.0  0.95869  0.47032  0.20124  1.0000
  C   C943      1.0  0.79052  0.36152  0.07754  1.0000
  H   H1124     1.0  0.80083  0.42969  0.22601  1.0000
  C   C944      1.0  0.80030  0.45461  0.42779  1.0000
  H   H1125     1.0  0.95842  0.27575  0.34135  1.0000
  Fe  Fe126     1.0  0.74356  0.30414  0.98900  1.0000
  H   H1126     1.0  0.73230  0.32430  0.06774  1.0000
  H   H1127     1.0  0.79545  0.31521  0.06978  1.0000
  H   H1128     1.0  0.80170  0.41763  0.16917  1.0000
  H   H1129     1.0  0.79393  0.32866  0.99496  1.0000
  C   C945      1.0  0.76737  0.43972  0.21475  1.0000
  C   C946      1.0  0.77364  0.33676  0.09115  1.0000
  H   H1130     1.0  0.76981  0.31794  0.04168  1.0000
  H   H1131     1.0  0.75528  0.36590  0.05895  1.0000
  H   H1132     1.0  0.91123  0.28341  0.21495  1.0000
  S   S259      1.0  0.84324  0.47257  0.37481  1.0000
  C   C947      1.0  0.92984  0.27441  0.30223  1.0000
  H   H1133     1.0  0.88636  0.29706  0.29207  1.0000
  H   H1134     1.0  0.72967  0.44899  0.25496  1.0000
  H   H1135     1.0  0.86979  0.26705  0.29927  1.0000
  Fe  Fe127     1.0  0.85283  0.23762  0.23116  1.0000
  H   H1136     1.0  0.79706  0.37088  0.07138  1.0000
  C   C948      1.0  0.90322  0.26114  0.24825  1.0000
  S   S260      1.0  0.93680  0.28088  0.44393  1.0000
  C   C949      1.0  0.75853  0.34651  0.07698  1.0000
  C   C950      1.0  0.89315  0.28182  0.22583  1.0000
  N   N63       1.0  0.76543  0.32370  0.09767  1.0000
  H   H1137     1.0  0.76582  0.30961  0.14049  1.0000
  H   H1138     1.0  0.82556  0.47469  0.45166  1.0000
  H   H1139     1.0  0.80991  0.25452  0.00210  1.0000
  H   H1140     1.0  0.89917  0.26234  0.47005  1.0000
  H   H1141     1.0  0.78797  0.43402  0.28178  1.0000
  C   C951      1.0  0.77845  0.47649  0.46763  1.0000
  C   C952      1.0  0.90866  0.46932  0.17980  1.0000
  H   H1142     1.0  0.74030  0.34488  0.06951  1.0000
  H   H1143     1.0  0.51612  0.46681  0.06936  1.0000
  C   C953      1.0  0.77578  0.31514  0.06958  1.0000
  H   H1144     1.0  0.57917  0.27318  0.00396  1.0000
  H   H1145     1.0  0.89187  0.25677  0.22679  1.0000
  H   H1146     1.0  0.73495  0.44778  0.18997  1.0000
  H   H1147     1.0  0.79823  0.46317  0.41048  1.0000
  C   C954      1.0  0.90883  0.28009  0.28760  1.0000
  H   H1148     1.0  0.93631  0.26517  0.29373  1.0000
  H   H1149     1.0  0.77044  0.30515  0.07387  1.0000
  H   H1150     1.0  0.78335  0.44939  0.42631  1.0000
  H   H1151     1.0  0.76714  0.32582  0.15620  1.0000
  C   C955      1.0  0.78608  0.43093  0.20732  1.0000
  C   C956      1.0  0.90203  0.29214  0.30194  1.0000
  C   C957      1.0  0.74559  0.45507  0.25451  1.0000
  C   C958      1.0  0.78689  0.42402  0.17463  1.0000
  H   H1152     1.0  0.86035  0.28152  0.27770  1.0000
  H   H1153     1.0  0.51830  0.32211  0.00832  1.0000
  C   C959      1.0  0.78766  0.45619  0.24763  1.0000
  H   H1154     1.0  0.76959  0.44452  0.30732  1.0000
  H   H1155     1.0  0.89425  0.46229  0.17613  1.0000
  C   C960      1.0  0.86968  0.27232  0.27298  1.0000
  H   H1156     1.0  0.81055  0.33285  0.10589  1.0000
  H   H1157     1.0  0.78831  0.46233  0.27244  1.0000
  H   H1158     1.0  0.82446  0.35429  0.09463  1.0000
  H   H1159     1.0  0.79260  0.31787  0.13658  1.0000
  C   C961      1.0  0.80019  0.34885  0.99210  1.0000
  H   H1160     1.0  0.77085  0.42089  0.12197  1.0000
  H   H1161     1.0  0.73762  0.43586  0.13317  1.0000
  H   H1162     1.0  0.72884  0.47682  0.37429  1.0000
  H   H1163     1.0  0.73345  0.31288  0.10337  1.0000
  N   N64       1.0  0.80662  0.45776  0.46619  1.0000
  S   S261      1.0  0.49870  0.29534  0.00161  1.0000
  H   H1164     1.0  0.81421  0.44860  0.41442  1.0000
  H   H1165     1.0  0.93423  0.45656  0.22900  1.0000
  S   S262      1.0  0.80892  0.37453  0.99022  1.0000
  C   C962      1.0  0.78613  0.33790  0.98975  1.0000
  C   C963      1.0  0.59395  0.27838  0.99324  1.0000
  C   C964      1.0  0.79050  0.36101  0.98522  1.0000
  H   H1166     1.0  0.69932  0.48016  0.98689  1.0000
  C   C965      1.0  0.63687  0.28221  0.99210  1.0000
  H   H1167     1.0  0.84322  0.46054  0.45265  1.0000
  H   H1168     1.0  0.49174  0.33593  0.98741  1.0000
  C   C966      1.0  0.82155  0.24947  0.98331  1.0000
  C   C967      1.0  0.50999  0.47665  0.06322  1.0000
  H   H1169     1.0  0.87449  0.47002  0.22944  1.0000
  S   S263      1.0  0.66598  0.27778  0.00764  1.0000
  C   C968      1.0  0.88633  0.44794  0.46585  1.0000
  C   C969      1.0  0.82820  0.46557  0.46634  1.0000
  H   H1170     1.0  0.82727  0.44038  0.47062  1.0000
  N   N65       1.0  0.91158  0.47298  0.21876  1.0000
  C   C970      1.0  0.76209  0.33897  0.98048  1.0000
  C   C971      1.0  0.88814  0.47748  0.23222  1.0000
  H   H1171     1.0  0.88899  0.48012  0.26173  1.0000
  H   H1172     1.0  0.49202  0.47637  0.05059  1.0000
  C   C972      1.0  0.95402  0.47953  0.21228  1.0000
  H   H1173     1.0  0.92550  0.47945  0.32032  1.0000
  H   H1174     1.0  0.78611  0.48016  0.44288  1.0000
  H   H1175     1.0  0.90413  0.47774  0.16275  1.0000
  Fe  Fe128     1.0  0.88586  0.23091  0.29594  1.0000
  H   H1176     1.0  0.90083  0.28378  0.54742  1.0000
  Fe  Fe129     1.0  0.82285  0.41706  0.93437  1.0000
  S   S264      1.0  0.85146  0.42240  0.89278  1.0000
  S   S265      1.0  0.79397  0.40321  0.92322  1.0000
  C   C973      1.0  0.59871  0.44154  0.73439  1.0000
  S   S266      1.0  0.57854  0.44460  0.83738  1.0000
  S   S267      1.0  0.68558  0.47175  0.86155  1.0000
  C   C974      1.0  0.87233  0.24827  0.56105  1.0000
  S   S268      1.0  0.63040  0.46373  0.79310  1.0000
  Fe  Fe130     1.0  0.91592  0.41985  0.60657  1.0000
  S   S269      1.0  0.94799  0.40736  0.59750  1.0000
  S   S270      1.0  0.90785  0.43631  0.56724  1.0000
  Fe  Fe131     1.0  0.90702  0.40852  0.68394  1.0000
  S   S271      1.0  0.93917  0.39555  0.67956  1.0000
  S   S272      1.0  0.87844  0.40593  0.72839  1.0000
  Fe  Fe132     1.0  0.95768  0.41247  0.65554  1.0000
  C   C975      1.0  0.55982  0.32882  0.94501  1.0000
  Fe  Fe133     1.0  0.92727  0.39148  0.62193  1.0000
  S   S273      1.0  0.92222  0.37118  0.60045  1.0000
  S   S274      1.0  0.92655  0.42574  0.66395  1.0000
  S   S275      1.0  0.89413  0.40368  0.62693  1.0000
  S   S276      1.0  0.82910  0.24853  0.79342  1.0000
  C   C976      1.0  0.85078  0.23602  0.93286  1.0000
  C   C977      1.0  0.49853  0.43704  0.83146  1.0000
  H   H1177     1.0  0.81916  0.44725  0.51332  1.0000
  S   S277      1.0  0.76508  0.25891  0.93450  1.0000
  C   C978      1.0  0.94176  0.34782  0.67064  1.0000
  H   H1178     1.0  0.75565  0.43734  0.80352  1.0000
  H   H1179     1.0  0.90230  0.27291  0.59969  1.0000
  H   H1180     1.0  0.96012  0.36549  0.67275  1.0000
  C   C979      1.0  0.79853  0.44674  0.86255  1.0000
  S   S278      1.0  0.96730  0.27475  0.62153  1.0000
  S   S279      1.0  0.95574  0.29433  0.53660  1.0000
  C   C980      1.0  0.55807  0.42720  0.75300  1.0000
  C   C981      1.0  0.70883  0.24315  0.88941  1.0000
  C   C982      1.0  0.60951  0.29443  0.95364  1.0000
  C   C983      1.0  0.89079  0.25798  0.49434  1.0000
  H   H1181     1.0  0.52970  0.37197  0.92575  1.0000
  H   H1182     1.0  0.96788  0.31087  0.71128  1.0000
  C   C984      1.0  0.92352  0.23998  0.65318  1.0000
  C   C985      1.0  0.92588  0.25022  0.67733  1.0000
  C   C986      1.0  0.93951  0.26075  0.66736  1.0000
  C   C987      1.0  0.95102  0.26110  0.63335  1.0000
  C   C988      1.0  0.94925  0.25069  0.60975  1.0000
  C   C989      1.0  0.93537  0.24026  0.61946  1.0000
  H   H1183     1.0  0.91695  0.25010  0.70343  1.0000
  H   H1184     1.0  0.94102  0.26867  0.68607  1.0000
  H   H1185     1.0  0.95883  0.25061  0.58424  1.0000
  C   C990      1.0  0.81117  0.25117  0.83265  1.0000
  C   C991      1.0  0.80566  0.26372  0.84330  1.0000
  C   C992      1.0  0.79156  0.26631  0.87429  1.0000
  C   C993      1.0  0.78267  0.25634  0.89488  1.0000
  C   C994      1.0  0.78808  0.24378  0.88414  1.0000
  C   C995      1.0  0.80230  0.24120  0.85329  1.0000
  H   H1186     1.0  0.81239  0.27150  0.82746  1.0000
  H   H1187     1.0  0.78758  0.27601  0.88217  1.0000
  H   H1188     1.0  0.83479  0.44709  0.82177  1.0000
  H   H1189     1.0  0.90022  0.28194  0.49930  1.0000
  C   C996      1.0  0.94246  0.35947  0.58335  1.0000
  C   C997      1.0  0.93364  0.34765  0.57213  1.0000
  C   C998      1.0  0.94894  0.33786  0.55964  1.0000
  C   C999      1.0  0.53402  0.35238  0.94173  1.0000
  C   C1000     1.0  0.79705  0.42831  0.77276  1.0000
  C   C1001     1.0  0.96688  0.36142  0.58155  1.0000
  H   H1190     1.0  0.91477  0.34607  0.57310  1.0000
  H   H1191     1.0  0.94173  0.32894  0.55061  1.0000
  H   H1192     1.0  0.89774  0.23402  0.93587  1.0000
  H   H1193     1.0  0.88125  0.24464  0.87922  1.0000
  C   C1002     1.0  0.89597  0.43620  0.52200  1.0000
  C   C1003     1.0  0.52387  0.34178  0.95931  1.0000
  C   C1004     1.0  0.52099  0.32051  0.93587  1.0000
  C   C1005     1.0  0.84242  0.24855  0.92561  1.0000
  H   H1194     1.0  0.95984  0.29756  0.68301  1.0000
  H   H1195     1.0  0.88592  0.41661  0.52162  1.0000
  H   H1196     1.0  0.92753  0.32938  0.66593  1.0000
  H   H1197     1.0  0.82147  0.26457  0.94431  1.0000
  C   C1006     1.0  0.72025  0.43546  0.90913  1.0000
  C   C1007     1.0  0.73163  0.44713  0.91167  1.0000
  C   C1008     1.0  0.72079  0.45815  0.89701  1.0000
  C   C1009     1.0  0.69828  0.45768  0.88032  1.0000
  C   C1010     1.0  0.68669  0.44608  0.87858  1.0000
  C   C1011     1.0  0.69769  0.43504  0.89273  1.0000
  H   H1198     1.0  0.74884  0.44762  0.92464  1.0000
  H   H1199     1.0  0.72994  0.46706  0.89848  1.0000
  H   H1200     1.0  0.66938  0.44555  0.86591  1.0000
  C   C1012     1.0  0.85874  0.41750  0.84721  1.0000
  C   C1013     1.0  0.84472  0.40916  0.82693  1.0000
  C   C1014     1.0  0.85113  0.40574  0.79083  1.0000
  C   C1015     1.0  0.87165  0.41053  0.77437  1.0000
  C   C1016     1.0  0.88575  0.41881  0.79473  1.0000
  C   C1017     1.0  0.87929  0.42227  0.83081  1.0000
  H   H1201     1.0  0.82892  0.40537  0.83886  1.0000
  H   H1202     1.0  0.84009  0.39932  0.77544  1.0000
  H   H1203     1.0  0.90155  0.42260  0.78261  1.0000
  H   H1204     1.0  0.89031  0.42873  0.84610  1.0000
  S   S280      1.0  0.73354  0.42112  0.92504  1.0000
  C   C1018     1.0  0.51418  0.42815  0.84694  1.0000
  C   C1019     1.0  0.53854  0.43078  0.84942  1.0000
  C   C1020     1.0  0.54745  0.44237  0.83707  1.0000
  C   C1021     1.0  0.53164  0.45147  0.82302  1.0000
  C   C1022     1.0  0.50735  0.44875  0.81987  1.0000
  H   H1205     1.0  0.55063  0.42368  0.86039  1.0000
  H   H1206     1.0  0.53813  0.46049  0.81379  1.0000
  H   H1207     1.0  0.62752  0.23305  0.85512  1.0000
  C   C1023     1.0  0.94372  0.33469  0.66568  1.0000
  H   H1208     1.0  0.95633  0.45284  0.53590  1.0000
  S   S281      1.0  0.72411  0.29057  0.95130  1.0000
  H   H1209     1.0  0.80619  0.23151  0.84525  1.0000
  H   H1210     1.0  0.72035  0.26667  0.90170  1.0000
  H   H1211     1.0  0.57137  0.33529  0.96098  1.0000
  H   H1212     1.0  0.57506  0.42397  0.76325  1.0000
  H   H1213     1.0  0.60671  0.30173  0.93334  1.0000
  H   H1214     1.0  0.56807  0.31916  0.94675  1.0000
  H   H1215     1.0  0.70675  0.24401  0.85925  1.0000
  H   H1216     1.0  0.84678  0.36267  0.93892  1.0000
  C   C1024     1.0  0.75251  0.35112  0.97325  1.0000
  C   C1025     1.0  0.77580  0.46107  0.51627  1.0000
  H   H1217     1.0  0.96024  0.31557  0.59610  1.0000
  H   H1218     1.0  0.95642  0.45422  0.60420  1.0000
  H   H1219     1.0  0.95332  0.30072  0.61675  1.0000
  C   C1026     1.0  0.88611  0.42536  0.50629  1.0000
  C   C1027     1.0  0.69840  0.25102  0.94884  1.0000
  N   N66       1.0  0.89835  0.26427  0.52883  1.0000
  H   H1220     1.0  0.71770  0.25140  0.95515  1.0000
  C   C1028     1.0  0.53169  0.44209  0.72234  1.0000
  H   H1221     1.0  0.77239  0.42710  0.87660  1.0000
  H   H1222     1.0  0.51501  0.45140  0.95091  1.0000
  H   H1223     1.0  0.92909  0.25229  0.53623  1.0000
  H   H1224     1.0  0.84537  0.42970  0.71778  1.0000
  H   H1225     1.0  0.97395  0.37046  0.59002  1.0000
  H   H1226     1.0  0.65699  0.26693  0.93686  1.0000
  C   C1029     1.0  0.55520  0.43853  0.73237  1.0000
  H   H1227     1.0  0.85207  0.39576  0.91092  1.0000
  C   C1030     1.0  0.86218  0.24359  0.59302  1.0000
  C   C1031     1.0  0.83379  0.43170  0.74078  1.0000
  C   C1032     1.0  0.81268  0.44564  0.48489  1.0000
  C   C1033     1.0  0.95314  0.31116  0.62121  1.0000
  H   H1228     1.0  0.69203  0.27298  0.91388  1.0000
  H   H1229     1.0  0.49449  0.43791  0.72565  1.0000
  C   C1034     1.0  0.76568  0.44381  0.82171  1.0000
  C   C1035     1.0  0.89601  0.44748  0.50152  1.0000
  C   C1036     1.0  0.85617  0.38622  0.92242  1.0000
  C   C1037     1.0  0.98619  0.33653  0.65899  1.0000
  H   H1230     1.0  0.51932  0.32426  0.90759  1.0000
  C   C1038     1.0  0.95814  0.30808  0.68603  1.0000
  C   C1039     1.0  0.52301  0.46038  0.95806  1.0000
  H   H1231     1.0  0.59151  0.45427  0.67415  1.0000
  H   H1232     1.0  0.85919  0.44323  0.76852  1.0000
  C   C1040     1.0  0.70096  0.26534  0.89778  1.0000
  H   H1233     1.0  0.95687  0.43599  0.53814  1.0000
  C   C1041     1.0  0.66794  0.25106  0.90202  1.0000
  H   H1234     1.0  0.80598  0.41997  0.72044  1.0000
  Fe  Fe134     1.0  0.64747  0.47390  0.84049  1.0000
  C   C1042     1.0  0.53685  0.46651  0.93235  1.0000
  C   C1043     1.0  0.82723  0.44145  0.80007  1.0000
  H   H1235     1.0  0.95465  0.43728  0.60230  1.0000
  H   H1236     1.0  0.87129  0.25883  0.49024  1.0000
  C   C1044     1.0  0.65869  0.24147  0.87876  1.0000
  H   H1237     1.0  0.76850  0.45279  0.80660  1.0000
  C   C1045     1.0  0.87999  0.26035  0.62811  1.0000
  N   N67       1.0  0.69360  0.25252  0.90915  1.0000
  C   C1046     1.0  0.78388  0.42588  0.85212  1.0000
  H   H1238     1.0  0.93172  0.26783  0.55593  1.0000
  C   C1047     1.0  0.53859  0.41993  0.76261  1.0000
  H   H1239     1.0  0.78613  0.44817  0.88585  1.0000
  H   H1240     1.0  0.54109  0.41157  0.77942  1.0000
  H   H1241     1.0  0.50069  0.41836  0.76146  1.0000
  C   C1048     1.0  0.98224  0.35158  0.56940  1.0000
  H   H1242     1.0  0.87346  0.27988  0.52498  1.0000
  H   H1243     1.0  0.49515  0.25127  0.81665  1.0000
  N   N68       1.0  0.78854  0.43816  0.83423  1.0000
  H   H1244     1.0  0.70503  0.23327  0.89785  1.0000
  H   H1245     1.0  0.84613  0.25341  0.90040  1.0000
  H   H1246     1.0  0.81478  0.37644  0.91105  1.0000
  H   H1247     1.0  0.79733  0.43916  0.48540  1.0000
  N   N69       1.0  0.96749  0.31471  0.65361  1.0000
  H   H1248     1.0  0.93390  0.23231  0.60085  1.0000
  H   H1249     1.0  0.85236  0.35552  0.89539  1.0000
  H   H1250     1.0  0.72801  0.24463  0.89538  1.0000
  C   C1049     1.0  0.96721  0.44530  0.60336  1.0000
  H   H1251     1.0  0.78011  0.42369  0.77295  1.0000
  Fe  Fe135     1.0  0.76992  0.41758  0.95089  1.0000
  H   H1252     1.0  0.68987  0.25864  0.96553  1.0000
  H   H1253     1.0  0.66992  0.23465  0.86484  1.0000
  C   C1050     1.0  0.78693  0.46500  0.48349  1.0000
  C   C1051     1.0  0.57207  0.45930  0.74002  1.0000
  N   N70       1.0  0.85162  0.37603  0.89521  1.0000
  C   C1052     1.0  0.85700  0.36372  0.91307  1.0000
  C   C1053     1.0  0.96600  0.32862  0.65944  1.0000
  C   C1054     1.0  0.82598  0.37658  0.88603  1.0000
  C   C1055     1.0  0.86587  0.37716  0.86150  1.0000
  C   C1056     1.0  0.86235  0.36869  0.83170  1.0000
  C   C1057     1.0  0.88343  0.38656  0.85704  1.0000
  C   C1058     1.0  0.87487  0.36990  0.79901  1.0000
  C   C1059     1.0  0.89610  0.38753  0.82444  1.0000
  C   C1060     1.0  0.89158  0.37937  0.79531  1.0000
  H   H1254     1.0  0.87617  0.36283  0.92000  1.0000
  C   C1061     1.0  0.96850  0.44445  0.53803  1.0000
  H   H1255     1.0  0.58730  0.46558  0.73465  1.0000
  C   C1062     1.0  0.57616  0.44840  0.68229  1.0000
  Fe  Fe136     1.0  0.52218  0.28580  0.95955  1.0000
  C   C1063     1.0  0.96187  0.35527  0.67012  1.0000
  C   C1064     1.0  0.97341  0.33971  0.55868  1.0000
  C   C1065     1.0  0.63426  0.24044  0.87289  1.0000
  H   H1256     1.0  0.85165  0.23508  0.59221  1.0000
  H   H1257     1.0  0.84961  0.36118  0.83325  1.0000
  H   H1258     1.0  0.88728  0.39356  0.87780  1.0000
  H   H1259     1.0  0.87137  0.36361  0.77614  1.0000
  H   H1260     1.0  0.90885  0.39502  0.82113  1.0000
  H   H1261     1.0  0.90071  0.38059  0.76954  1.0000
  N   N71       1.0  0.98344  0.44509  0.57157  1.0000
  C   C1066     1.0  0.81162  0.42617  0.74246  1.0000
  Fe  Fe137     1.0  0.98005  0.28042  0.56487  1.0000
  S   S282      1.0  0.61628  0.47179  0.87789  1.0000
  H   H1262     1.0  0.68866  0.42608  0.89080  1.0000
  H   H1263     1.0  0.98705  0.42467  0.57188  1.0000
  Fe  Fe138     1.0  0.96720  0.28444  0.48452  1.0000
  C   C1067     1.0  0.89056  0.26499  0.59651  1.0000
  H   H1264     1.0  0.81519  0.44271  0.87457  1.0000
  C   C1068     1.0  0.65129  0.25944  0.91877  1.0000
  C   C1069     1.0  0.62697  0.25834  0.91275  1.0000
  C   C1070     1.0  0.61845  0.24885  0.88986  1.0000
  H   H1265     1.0  0.77467  0.41910  0.83380  1.0000
  H   H1266     1.0  0.80075  0.42129  0.86128  1.0000
  H   H1267     1.0  0.90363  0.45592  0.51333  1.0000
  Fe  Fe139     1.0  0.75274  0.27640  0.96713  1.0000
  H   H1268     1.0  0.89626  0.24780  0.49362  1.0000
  H   H1269     1.0  0.83394  0.46788  0.49475  1.0000
  H   H1270     1.0  0.98114  0.43916  0.70262  1.0000
  H   H1271     1.0  0.57045  0.45832  0.77014  1.0000
  N   N72       1.0  0.57528  0.44669  0.72252  1.0000
  H   H1272     1.0  0.53965  0.46229  0.90553  1.0000
  H   H1273     1.0  0.93903  0.31018  0.69050  1.0000
  H   H1274     1.0  0.97940  0.44367  0.51286  1.0000
  H   H1275     1.0  0.87483  0.38601  0.93229  1.0000
  Fe  Fe140     1.0  0.59808  0.46311  0.82920  1.0000
  C   C1071     1.0  0.74928  0.47937  0.51530  1.0000
  C   C1072     1.0  0.88680  0.25920  0.56186  1.0000
  C   C1073     1.0  0.76657  0.36206  0.97555  1.0000
  H   H1276     1.0  0.55602  0.46446  0.73013  1.0000
  C   C1074     1.0  0.80436  0.43606  0.80249  1.0000
  C   C1075     1.0  0.75722  0.46818  0.53173  1.0000
  H   H1277     1.0  0.59983  0.44075  0.76476  1.0000
  H   H1278     1.0  0.78113  0.45255  0.53053  1.0000
  C   C1076     1.0  0.87164  0.23575  0.87324  1.0000
  H   H1279     1.0  0.69682  0.26704  0.86842  1.0000
  H   H1280     1.0  0.82023  0.36837  0.86925  1.0000
  H   H1281     1.0  0.61343  0.44783  0.72625  1.0000
  H   H1282     1.0  0.50767  0.41910  0.85588  1.0000
  H   H1283     1.0  0.80216  0.45628  0.85124  1.0000
  H   H1284     1.0  0.60245  0.43206  0.72207  1.0000
  C   C1077     1.0  0.51578  0.42374  0.75249  1.0000
  H   H1285     1.0  0.69179  0.24182  0.95905  1.0000
  C   C1078     1.0  0.92433  0.26247  0.53233  1.0000
  H   H1286     1.0  0.85867  0.24576  0.65131  1.0000
  C   C1079     1.0  0.49973  0.36558  0.95585  1.0000
  H   H1287     1.0  0.56018  0.45340  0.67145  1.0000
  H   H1288     1.0  0.59954  0.24803  0.88538  1.0000
  H   H1289     1.0  0.93377  0.26576  0.50759  1.0000
  H   H1290     1.0  0.92450  0.35237  0.67359  1.0000
  S   S283      1.0  0.49678  0.28985  0.91254  1.0000
  S   S284      1.0  0.79835  0.43194  0.95879  1.0000
  C   C1080     1.0  0.84155  0.43933  0.76947  1.0000
  C   C1081     1.0  0.89292  0.27803  0.52510  1.0000
  H   H1291     1.0  0.78140  0.23600  0.90000  1.0000
  H   H1292     1.0  0.61468  0.26488  0.92610  1.0000
  H   H1293     1.0  0.75368  0.44600  0.84501  1.0000
  H   H1294     1.0  0.82143  0.38537  0.87069  1.0000
  N   N73       1.0  0.53521  0.32902  0.95926  1.0000
  H   H1295     1.0  0.64760  0.29683  0.95522  1.0000
  H   H1296     1.0  0.97672  0.44436  0.62984  1.0000
  H   H1297     1.0  0.50280  0.31929  0.94665  1.0000
  H   H1298     1.0  0.57774  0.43909  0.66798  1.0000
  C   C1082     1.0  0.98402  0.34964  0.66446  1.0000
  H   H1299     1.0  0.55101  0.35185  0.92842  1.0000
  H   H1300     1.0  0.73398  0.35209  0.96592  1.0000
  H   H1301     1.0  0.52910  0.31089  0.93387  1.0000
  C   C1083     1.0  0.82816  0.25514  0.95072  1.0000
  H   H1302     1.0  0.93428  0.31414  0.62358  1.0000
  C   C1084     1.0  0.52198  0.36407  0.94004  1.0000
  H   H1303     1.0  0.75877  0.37131  0.97020  1.0000
  H   H1304     1.0  0.84501  0.38523  0.94719  1.0000
  H   H1305     1.0  0.67169  0.47344  0.94030  1.0000
  H   H1306     1.0  0.88347  0.26476  0.65441  1.0000
  C   C1085     1.0  0.51233  0.43479  0.73241  1.0000
  S   S285      1.0  0.56093  0.29177  0.95002  1.0000
  C   C1086     1.0  0.63280  0.29167  0.96601  1.0000
  Fe  Fe141     1.0  0.98755  0.30662  0.53091  1.0000
  H   H1307     1.0  0.85537  0.23809  0.85717  1.0000
  C   C1087     1.0  0.54713  0.47804  0.94119  1.0000
  C   C1088     1.0  0.86597  0.24963  0.62642  1.0000
  H   H1308     1.0  0.86883  0.24304  0.53626  1.0000
  S   S286      1.0  0.50660  0.26669  0.97003  1.0000
  C   C1089     1.0  0.58988  0.28784  0.96716  1.0000
  H   H1309     1.0  0.52807  0.45073  0.70750  1.0000
  H   H1310     1.0  0.74891  0.46503  0.55669  1.0000
  H   H1311     1.0  0.56037  0.33140  0.91557  1.0000
  H   H1312     1.0  0.49537  0.45570  0.80797  1.0000
  H   H1313     1.0  0.99005  0.46442  0.51938  1.0000
  S   S287      1.0  0.99003  0.26979  0.51315  1.0000
  C   C1090     1.0  0.50116  0.34367  0.97512  1.0000
  C   C1091     1.0  0.78739  0.67150  0.41782  1.0000
  Fe  Fe142     1.0  0.51762  0.51871  0.14307  1.0000
  S   S288      1.0  0.55616  0.51408  0.15331  1.0000
  Fe  Fe143     1.0  0.52833  0.54615  0.11941  1.0000
  S   S289      1.0  0.56772  0.54308  0.12704  1.0000
  H   H1314     1.0  0.95579  0.62210  0.39121  1.0000
  Fe  Fe144     1.0  0.56301  0.52397  0.10010  1.0000
  S   S290      1.0  0.58801  0.51278  0.06231  1.0000
  Fe  Fe145     1.0  0.55834  0.53331  0.18021  1.0000
  S   S291      1.0  0.58292  0.53843  0.22884  1.0000
  S   S292      1.0  0.52466  0.52767  0.08870  1.0000
  S   S293      1.0  0.51886  0.53739  0.17369  1.0000
  Fe  Fe146     1.0  0.64157  0.52546  0.43318  1.0000
  S   S294      1.0  0.67118  0.53893  0.42197  1.0000
  S   S295      1.0  0.61338  0.51980  0.39039  1.0000
  C   C1092     1.0  0.56443  0.64063  0.99491  1.0000
  H   H1315     1.0  0.54275  0.57972  0.11876  1.0000
  H   H1316     1.0  0.78226  0.70191  0.38907  1.0000
  S   S296      1.0  0.51790  0.65727  0.03987  1.0000
  Fe  Fe147     1.0  0.59283  0.71659  0.24371  1.0000
  S   S297      1.0  0.63087  0.72273  0.24978  1.0000
  S   S298      1.0  0.58697  0.69937  0.20665  1.0000
  Fe  Fe148     1.0  0.62379  0.72373  0.31057  1.0000
  S   S299      1.0  0.64059  0.71697  0.36416  1.0000
  S   S300      1.0  0.58724  0.71609  0.30433  1.0000
  H   H1317     1.0  0.51415  0.50095  0.06313  1.0000
  S   S301      1.0  0.96451  0.65110  0.41967  1.0000
  C   C1093     1.0  0.82960  0.69244  0.38863  1.0000
  H   H1318     1.0  0.58686  0.67070  0.30240  1.0000
  H   H1319     1.0  0.66048  0.51628  0.36686  1.0000
  C   C1094     1.0  0.77897  0.69154  0.38952  1.0000
  H   H1320     1.0  0.50399  0.70450  0.16446  1.0000
  S   S302      1.0  0.71830  0.67399  0.39803  1.0000
  N   N74       1.0  0.79194  0.68527  0.42013  1.0000
  H   H1321     1.0  0.66827  0.65340  0.39525  1.0000
  H   H1322     1.0  0.54897  0.48792  0.08603  1.0000
  H   H1323     1.0  0.72175  0.51308  0.33450  1.0000
  C   C1095     1.0  0.66226  0.70497  0.37270  1.0000
  C   C1096     1.0  0.67640  0.69979  0.34493  1.0000
  C   C1097     1.0  0.69343  0.69030  0.35315  1.0000
  C   C1098     1.0  0.69649  0.68588  0.38912  1.0000
  C   C1099     1.0  0.68248  0.69112  0.41695  1.0000
  C   C1100     1.0  0.66549  0.70064  0.40874  1.0000
  H   H1324     1.0  0.67453  0.70326  0.31729  1.0000
  H   H1325     1.0  0.70432  0.68636  0.33152  1.0000
  H   H1326     1.0  0.68476  0.68786  0.44476  1.0000
  H   H1327     1.0  0.65478  0.70464  0.43047  1.0000
  C   C1101     1.0  0.52078  0.68803  0.14008  1.0000
  C   C1102     1.0  0.54182  0.68089  0.13800  1.0000
  C   C1103     1.0  0.56189  0.68454  0.15843  1.0000
  C   C1104     1.0  0.56122  0.69539  0.18104  1.0000
  C   C1105     1.0  0.54023  0.70257  0.18297  1.0000
  C   C1106     1.0  0.52013  0.69889  0.16266  1.0000
  H   H1328     1.0  0.54262  0.67252  0.12078  1.0000
  H   H1329     1.0  0.57802  0.67892  0.15665  1.0000
  H   H1330     1.0  0.53943  0.71094  0.20019  1.0000
  C   C1107     1.0  0.55020  0.48336  0.05849  1.0000
  C   C1108     1.0  0.74329  0.50638  0.40440  1.0000
  C   C1109     1.0  0.72965  0.49563  0.39788  1.0000
  C   C1110     1.0  0.77707  0.49564  0.37514  1.0000
  C   C1111     1.0  0.76705  0.50628  0.39309  1.0000
  H   H1331     1.0  0.71149  0.49543  0.40707  1.0000
  H   H1332     1.0  0.79535  0.49576  0.36643  1.0000
  C   C1112     1.0  0.59039  0.53331  0.27428  1.0000
  C   C1113     1.0  0.60846  0.53960  0.29365  1.0000
  C   C1114     1.0  0.61550  0.53576  0.32919  1.0000
  C   C1115     1.0  0.60463  0.52548  0.34604  1.0000
  C   C1116     1.0  0.58645  0.51925  0.32680  1.0000
  C   C1117     1.0  0.57935  0.52312  0.29130  1.0000
  H   H1333     1.0  0.61711  0.54751  0.28099  1.0000
  H   H1334     1.0  0.62923  0.54079  0.34358  1.0000
  H   H1335     1.0  0.57779  0.51133  0.33944  1.0000
  H   H1336     1.0  0.56541  0.51817  0.27706  1.0000
  C   C1118     1.0  0.51112  0.57861  0.08598  1.0000
  C   C1119     1.0  0.53027  0.58493  0.10179  1.0000
  C   C1120     1.0  0.51678  0.60516  0.07496  1.0000
  H   H1337     1.0  0.56367  0.48873  0.04319  1.0000
  H   H1338     1.0  0.65172  0.68857  0.27525  1.0000
  C   C1121     1.0  0.85429  0.69345  0.38798  1.0000
  H   H1339     1.0  0.91133  0.51891  0.34122  1.0000
  C   C1122     1.0  0.58602  0.51072  0.01419  1.0000
  S   S303      1.0  0.49096  0.50282  0.13471  1.0000
  Fe  Fe149     1.0  0.69439  0.52388  0.44823  1.0000
  N   N75       1.0  0.62099  0.67746  0.28629  1.0000
  H   H1340     1.0  0.59379  0.68612  0.32032  1.0000
  H   H1341     1.0  0.59107  0.72283  0.39894  1.0000
  H   H1342     1.0  0.60996  0.49459  0.01435  1.0000
  H   H1343     1.0  0.50792  0.48145  0.09031  1.0000
  C   C1123     1.0  0.59919  0.50084  0.99757  1.0000
  H   H1344     1.0  0.63925  0.52591  0.02211  1.0000
  H   H1345     1.0  0.64758  0.65453  0.28317  1.0000
  C   C1124     1.0  0.96456  0.50383  0.32927  1.0000
  C   C1125     1.0  0.95614  0.49147  0.32376  1.0000
  H   H1346     1.0  0.71831  0.59092  0.42512  1.0000
  C   C1126     1.0  0.91539  0.49887  0.33067  1.0000
  C   C1127     1.0  0.92382  0.51117  0.33688  1.0000
  C   C1128     1.0  0.94829  0.51363  0.33663  1.0000
  C   C1129     1.0  0.81786  0.68720  0.41927  1.0000
  H   H1347     1.0  0.79447  0.66631  0.44206  1.0000
  C   C1130     1.0  0.64338  0.52173  0.99567  1.0000
  H   H1348     1.0  0.96859  0.48386  0.31762  1.0000
  C   C1131     1.0  0.67178  0.52319  0.25881  1.0000
  H   H1349     1.0  0.65781  0.52783  0.20535  1.0000
  H   H1350     1.0  0.56195  0.52637  0.00458  1.0000
  H   H1351     1.0  0.96539  0.56430  0.39159  1.0000
  C   C1132     1.0  0.95179  0.59561  0.38036  1.0000
  H   H1352     1.0  0.92756  0.61868  0.36960  1.0000
  H   H1353     1.0  0.79573  0.66717  0.39314  1.0000
  H   H1354     1.0  0.62871  0.72829  0.43384  1.0000
  H   H1355     1.0  0.77638  0.54939  0.45019  1.0000
  Fe  Fe150     1.0  0.49085  0.66733  0.07491  1.0000
  S   S304      1.0  0.52100  0.62185  0.06973  1.0000
  C   C1133     1.0  0.66805  0.51699  0.29265  1.0000
  C   C1134     1.0  0.78172  0.69027  0.45480  1.0000
  H   H1356     1.0  0.92945  0.63053  0.40431  1.0000
  C   C1135     1.0  0.60801  0.72247  0.11854  1.0000
  C   C1136     1.0  0.93921  0.58832  0.43978  1.0000
  C   C1137     1.0  0.73957  0.48505  0.37943  1.0000
  C   C1138     1.0  0.49809  0.59876  0.05815  1.0000
  C   C1139     1.0  0.70687  0.59111  0.44875  1.0000
  H   H1357     1.0  0.59578  0.71340  0.06947  1.0000
  C   C1140     1.0  0.96747  0.50018  0.23173  1.0000
  C   C1141     1.0  0.58113  0.72781  0.42124  1.0000
  H   H1358     1.0  0.95454  0.60272  0.35975  1.0000
  H   H1359     1.0  0.62139  0.51550  0.21290  1.0000
  H   H1360     1.0  0.78376  0.68728  0.36260  1.0000
  H   H1361     1.0  0.64248  0.50475  0.32023  1.0000
  C   C1142     1.0  0.83237  0.68305  0.44879  1.0000
  C   C1143     1.0  0.76331  0.48501  0.36791  1.0000
  H   H1362     1.0  0.59911  0.71595  0.13659  1.0000
  H   H1363     1.0  0.69623  0.57160  0.44164  1.0000
  C   C1144     1.0  0.95994  0.58334  0.37204  1.0000
  H   H1364     1.0  0.94085  0.51285  0.25316  1.0000
  C   C1145     1.0  0.94114  0.59848  0.41466  1.0000
  Fe  Fe151     1.0  0.98367  0.66860  0.43658  1.0000
  H   H1365     1.0  0.61279  0.66126  0.25250  1.0000
  H   H1366     1.0  0.98177  0.50671  0.23695  1.0000
  H   H1367     1.0  0.96267  0.61623  0.45577  1.0000
  H   H1368     1.0  0.86770  0.68065  0.47053  1.0000
  H   H1369     1.0  0.54774  0.60285  0.10917  1.0000
  S   S305      1.0  0.50551  0.56223  0.09416  1.0000
  H   H1370     1.0  0.88711  0.68983  0.41667  1.0000
  C   C1146     1.0  0.94434  0.50363  0.24084  1.0000
  H   H1371     1.0  0.55665  0.63667  0.02032  1.0000
  C   C1147     1.0  0.65865  0.65290  0.33822  1.0000
  H   H1372     1.0  0.49672  0.59287  0.16049  1.0000
  H   H1373     1.0  0.66875  0.64425  0.33298  1.0000
  H   H1374     1.0  0.86297  0.69738  0.36430  1.0000
  H   H1375     1.0  0.95449  0.52320  0.34043  1.0000
  C   C1148     1.0  0.69435  0.58012  0.45803  1.0000
  C   C1149     1.0  0.93642  0.62100  0.39595  1.0000
  S   S306      1.0  0.49476  0.68372  0.11557  1.0000
  H   H1376     1.0  0.70133  0.53313  0.35522  1.0000
  H   H1377     1.0  0.76808  0.66963  0.41627  1.0000
  S   S307      1.0  0.66533  0.50997  0.45726  1.0000
  H   H1378     1.0  0.61121  0.67609  0.22914  1.0000
  H   H1379     1.0  0.71594  0.51681  0.28768  1.0000
  S   S308      1.0  0.88439  0.49661  0.32680  1.0000
  H   H1380     1.0  0.77780  0.51452  0.39807  1.0000
  S   S309      1.0  0.73154  0.52027  0.42564  1.0000
  H   H1381     1.0  0.64568  0.67314  0.40776  1.0000
  H   H1382     1.0  0.89830  0.62039  0.43618  1.0000
  H   H1383     1.0  0.78674  0.70031  0.45948  1.0000
  H   H1384     1.0  0.69060  0.51375  0.38000  1.0000
  S   S310      1.0  0.75057  0.64769  0.45164  1.0000
  H   H1385     1.0  0.89688  0.60719  0.40486  1.0000
  C   C1150     1.0  0.85700  0.68408  0.44781  1.0000
  H   H1386     1.0  0.62483  0.68431  0.35869  1.0000
  C   C1151     1.0  0.60615  0.72108  0.08071  1.0000
  C   C1152     1.0  0.70828  0.51230  0.31222  1.0000
  H   H1387     1.0  0.70615  0.50203  0.30602  1.0000
  H   H1388     1.0  0.67223  0.53684  0.33751  1.0000
  N   N76       1.0  0.93191  0.61129  0.42430  1.0000
  H   H1389     1.0  0.66465  0.50724  0.01903  1.0000
  H   H1390     1.0  0.58573  0.68448  0.27364  1.0000
  C   C1153     1.0  0.93171  0.48895  0.32504  1.0000
  C   C1154     1.0  0.51836  0.49668  0.03597  1.0000
  C   C1155     1.0  0.49514  0.58564  0.06398  1.0000
  H   H1391     1.0  0.75825  0.59645  0.45435  1.0000
  H   H1392     1.0  0.69767  0.53696  0.30831  1.0000
  C   C1156     1.0  0.90594  0.61081  0.42981  1.0000
  C   C1157     1.0  0.63471  0.51555  0.23440  1.0000
  H   H1393     1.0  0.90872  0.49823  0.24554  1.0000
  H   H1394     1.0  0.82018  0.69571  0.36465  1.0000
  C   C1158     1.0  0.64559  0.66914  0.38041  1.0000
  H   H1395     1.0  0.75943  0.69037  0.39185  1.0000
  H   H1396     1.0  0.90120  0.60460  0.45301  1.0000
  H   H1397     1.0  0.81705  0.64466  0.45943  1.0000
  H   H1398     1.0  0.93130  0.58974  0.46634  1.0000
  H   H1399     1.0  0.67597  0.50177  0.35433  1.0000
  C   C1159     1.0  0.63250  0.68984  0.28106  1.0000
  H   H1400     1.0  0.57646  0.72053  0.44167  1.0000
  Fe  Fe152     1.0  0.49834  0.63922  0.05285  1.0000
  C   C1160     1.0  0.67771  0.51222  0.35740  1.0000
  C   C1161     1.0  0.94782  0.57615  0.43140  1.0000
  C   C1162     1.0  0.63096  0.50894  0.26664  1.0000
  S   S311      1.0  0.72280  0.61543  0.45865  1.0000
  C   C1163     1.0  0.68931  0.53187  0.33122  1.0000
  H   H1401     1.0  0.62446  0.69516  0.25781  1.0000
  C   C1164     1.0  0.65517  0.52259  0.23038  1.0000
  C   C1165     1.0  0.63343  0.67047  0.31591  1.0000
  S   S312      1.0  0.90428  0.64710  0.46094  1.0000
  N   N77       1.0  0.52696  0.48335  0.03946  1.0000
  C   C1166     1.0  0.59581  0.67975  0.29622  1.0000
  C   C1167     1.0  0.53302  0.59809  0.09634  1.0000
  C   C1168     1.0  0.64638  0.65897  0.30975  1.0000
  C   C1169     1.0  0.64721  0.50966  0.29553  1.0000
  H   H1402     1.0  0.63956  0.66948  0.23984  1.0000
  N   N78       1.0  0.68540  0.51826  0.32295  1.0000
  C   C1170     1.0  0.57211  0.51872  0.99220  1.0000
  H   H1403     1.0  0.61473  0.50371  0.26992  1.0000
  S   S313      1.0  0.98844  0.68550  0.39880  1.0000
  Fe  Fe153     1.0  0.72248  0.66309  0.45144  1.0000
  C   C1171     1.0  0.65786  0.51086  0.99345  1.0000
  C   C1172     1.0  0.63354  0.67539  0.35212  1.0000
  H   H1404     1.0  0.96851  0.58139  0.34612  1.0000
  H   H1405     1.0  0.63086  0.69609  0.30554  1.0000
  C   C1173     1.0  0.65832  0.65799  0.37342  1.0000
  C   C1174     1.0  0.62124  0.67069  0.25052  1.0000
  H   H1406     1.0  0.85773  0.64025  0.43628  1.0000
  H   H1407     1.0  0.68735  0.52877  0.25432  1.0000
  C   C1175     1.0  0.85537  0.64585  0.46089  1.0000
  C   C1176     1.0  0.95814  0.57367  0.39759  1.0000
  H   H1408     1.0  0.67470  0.48648  0.01161  1.0000
  C   C1177     1.0  0.86796  0.68923  0.41745  1.0000
  C   C1178     1.0  0.94310  0.61577  0.45868  1.0000
  H   H1409     1.0  0.94695  0.56862  0.45140  1.0000
  C   C1179     1.0  0.61739  0.72956  0.05734  1.0000
  C   C1180     1.0  0.92597  0.49502  0.23637  1.0000
  H   H1410     1.0  0.61515  0.72792  0.02837  1.0000
  Fe  Fe154     1.0  0.49141  0.65959  0.99420  1.0000
  H   H1411     1.0  0.75378  0.49229  0.47076  1.0000
  C   C1181     1.0  0.70479  0.60229  0.46979  1.0000
  H   H1412     1.0  0.58393  0.64002  0.99864  1.0000
  H   H1413     1.0  0.69994  0.49634  0.00202  1.0000
  C   C1182     1.0  0.83220  0.64834  0.47398  1.0000
  H   H1414     1.0  0.55896  0.61545  0.98700  1.0000
  H   H1415     1.0  0.61301  0.72529  0.47465  1.0000
  H   H1416     1.0  0.88143  0.48582  0.21655  1.0000
  H   H1417     1.0  0.82481  0.67873  0.47265  1.0000
  H   H1418     1.0  0.55941  0.65088  0.99363  1.0000
  C   C1183     1.0  0.68818  0.48889  0.99076  1.0000
  H   H1419     1.0  0.76201  0.68982  0.45472  1.0000
  Fe  Fe155     1.0  0.94312  0.65295  0.47133  1.0000
  H   H1420     1.0  0.53181  0.50297  0.02383  1.0000
  H   H1421     1.0  0.93652  0.62542  0.46629  1.0000
  H   H1422     1.0  0.55215  0.49235  0.98137  1.0000
  C   C1184     1.0  0.97228  0.48820  0.21719  1.0000
  H   H1423     1.0  0.50206  0.49726  0.01881  1.0000
  H   H1424     1.0  0.52393  0.62862  0.98906  1.0000
  H   H1425     1.0  0.78883  0.59201  0.45106  1.0000
  C   C1185     1.0  0.93034  0.48259  0.22236  1.0000
  H   H1426     1.0  0.73797  0.54325  0.47579  1.0000
  C   C1186     1.0  0.77541  0.59641  0.46945  1.0000
  H   H1427     1.0  0.79257  0.57034  0.46288  1.0000
  C   C1187     1.0  0.76678  0.55600  0.46770  1.0000
  C   C1188     1.0  0.77589  0.56800  0.47527  1.0000
  H   H1428     1.0  0.78035  0.60652  0.47341  1.0000
  H   H1429     1.0  0.59174  0.69531  0.55523  1.0000
  C   C1189     1.0  0.58949  0.64239  0.92399  1.0000
  S   S314      1.0  0.63594  0.49333  0.82030  1.0000
  Fe  Fe156     1.0  0.60364  0.49040  0.85512  1.0000
  S   S315      1.0  0.58564  0.50604  0.88879  1.0000
  Fe  Fe157     1.0  0.98835  0.65990  0.51532  1.0000
  S   S316      1.0  0.61054  0.48807  0.71379  1.0000
  Fe  Fe158     1.0  0.65954  0.51946  0.51252  1.0000
  C   C1190     1.0  0.58249  0.65352  0.86713  1.0000
  S   S317      1.0  0.66133  0.51115  0.57128  1.0000
  H   H1430     1.0  0.51437  0.72901  0.64591  1.0000
  H   H1431     1.0  0.62128  0.53501  0.96626  1.0000
  C   C1191     1.0  0.65777  0.70160  0.57591  1.0000
  C   C1192     1.0  0.59805  0.64902  0.89389  1.0000
  C   C1193     1.0  0.67962  0.58017  0.48866  1.0000
  H   H1432     1.0  0.70779  0.48622  0.92666  1.0000
  Fe  Fe159     1.0  0.57961  0.71787  0.74024  1.0000
  C   C1194     1.0  0.87547  0.65062  0.47908  1.0000
  Fe  Fe160     1.0  0.59474  0.70258  0.80791  1.0000
  S   S318      1.0  0.63268  0.70894  0.80262  1.0000
  S   S319      1.0  0.58904  0.69001  0.85828  1.0000
  C   C1195     1.0  0.63319  0.52688  0.96423  1.0000
  Fe  Fe161     1.0  0.62911  0.70549  0.74197  1.0000
  S   S320      1.0  0.66192  0.69980  0.70830  1.0000
  H   H1433     1.0  0.81020  0.58357  0.50335  1.0000
  S   S321      1.0  0.59249  0.69754  0.74774  1.0000
  S   S322      1.0  0.69541  0.65057  0.47676  1.0000
  C   C1196     1.0  0.64062  0.70678  0.59927  1.0000
  H   H1434     1.0  0.73486  0.48486  0.52735  1.0000
  S   S323      1.0  0.73676  0.64231  0.53697  1.0000
  H   H1435     1.0  0.50499  0.67756  0.86566  1.0000
  H   H1436     1.0  0.80471  0.59784  0.52832  1.0000
  S   S324      1.0  0.73457  0.67153  0.50474  1.0000
  Fe  Fe162     1.0  0.76135  0.65528  0.50634  1.0000
  S   S325      1.0  0.79987  0.65976  0.52260  1.0000
  Fe  Fe163     1.0  0.70918  0.65804  0.53097  1.0000
  S   S326      1.0  0.67903  0.66271  0.57110  1.0000
  H   H1437     1.0  0.54702  0.67131  0.96215  1.0000
  C   C1197     1.0  0.55837  0.65122  0.87004  1.0000
  H   H1438     1.0  0.55788  0.48283  0.92111  1.0000
  C   C1198     1.0  0.82873  0.65562  0.50569  1.0000
  C   C1199     1.0  0.84883  0.66033  0.52396  1.0000
  C   C1200     1.0  0.87200  0.65786  0.51086  1.0000
  H   H1439     1.0  0.84647  0.66601  0.54844  1.0000
  H   H1440     1.0  0.88715  0.66156  0.52537  1.0000
  C   C1201     1.0  0.66658  0.68902  0.67112  1.0000
  C   C1202     1.0  0.68862  0.68885  0.65323  1.0000
  C   C1203     1.0  0.69297  0.68074  0.62300  1.0000
  C   C1204     1.0  0.67521  0.67273  0.61013  1.0000
  C   C1205     1.0  0.65326  0.67282  0.62829  1.0000
  C   C1206     1.0  0.64900  0.68083  0.65869  1.0000
  H   H1441     1.0  0.70245  0.69506  0.66271  1.0000
  H   H1442     1.0  0.70997  0.68076  0.60950  1.0000
  H   H1443     1.0  0.63947  0.66659  0.61880  1.0000
  H   H1444     1.0  0.63223  0.68055  0.67270  1.0000
  C   C1207     1.0  0.56299  0.68467  0.88062  1.0000
  C   C1208     1.0  0.56482  0.68014  0.91675  1.0000
  C   C1209     1.0  0.54519  0.67484  0.93459  1.0000
  C   C1210     1.0  0.52353  0.67371  0.91618  1.0000
  C   C1211     1.0  0.52161  0.67838  0.88025  1.0000
  C   C1212     1.0  0.54110  0.68393  0.86268  1.0000
  H   H1445     1.0  0.58167  0.68058  0.93084  1.0000
  C   C1213     1.0  0.52996  0.63328  0.96351  1.0000
  H   H1446     1.0  0.57794  0.72882  0.50192  1.0000
  H   H1447     1.0  0.53938  0.68729  0.83488  1.0000
  H   H1448     1.0  0.54626  0.65502  0.84958  1.0000
  H   H1449     1.0  0.69213  0.71483  0.83106  1.0000
  N   N79       1.0  0.59829  0.71007  0.61888  1.0000
  C   C1214     1.0  0.74141  0.57298  0.51210  1.0000
  C   C1215     1.0  0.63743  0.52121  0.93037  1.0000
  S   S327      1.0  0.96969  0.64130  0.50394  1.0000
  H   H1450     1.0  0.62224  0.68615  0.51624  1.0000
  H   H1451     1.0  0.79648  0.58284  0.54743  1.0000
  H   H1452     1.0  0.58651  0.70575  0.67316  1.0000
  H   H1453     1.0  0.56777  0.69921  0.60269  1.0000
  Fe  Fe164     1.0  0.72424  0.63571  0.48141  1.0000
  C   C1216     1.0  0.62538  0.49419  0.67435  1.0000
  C   C1217     1.0  0.64943  0.49730  0.67444  1.0000
  C   C1218     1.0  0.66007  0.50228  0.64265  1.0000
  C   C1219     1.0  0.64696  0.50432  0.61019  1.0000
  C   C1220     1.0  0.62290  0.50127  0.61016  1.0000
  C   C1221     1.0  0.61230  0.49622  0.64185  1.0000
  H   H1454     1.0  0.71533  0.55831  0.51480  1.0000
  S   S328      1.0  0.54994  0.72176  0.69864  1.0000
  H   H1455     1.0  0.61243  0.50279  0.58568  1.0000
  H   H1456     1.0  0.59369  0.49394  0.64123  1.0000
  C   C1222     1.0  0.72706  0.72710  0.79737  1.0000
  C   C1223     1.0  0.65172  0.51031  0.92784  1.0000
  H   H1457     1.0  0.76638  0.60716  0.53410  1.0000
  H   H1458     1.0  0.52242  0.62775  0.94036  1.0000
  S   S329      1.0  0.61598  0.72537  0.73161  1.0000
  C   C1224     1.0  0.76351  0.57687  0.49781  1.0000
  H   H1459     1.0  0.64687  0.71161  0.62354  1.0000
  H   H1460     1.0  0.52184  0.64297  0.96327  1.0000
  C   C1225     1.0  0.60016  0.70268  0.65306  1.0000
  H   H1461     1.0  0.68919  0.49637  0.90075  1.0000
  H   H1462     1.0  0.67641  0.70273  0.58211  1.0000
  H   H1463     1.0  0.58519  0.62023  0.96399  1.0000
  H   H1464     1.0  0.58901  0.65910  0.84456  1.0000
  C   C1226     1.0  0.54956  0.64474  0.90021  1.0000
  H   H1465     1.0  0.65394  0.48456  0.91564  1.0000
  H   H1466     1.0  0.58867  0.72774  0.64560  1.0000
  H   H1467     1.0  0.65358  0.50599  0.90110  1.0000
  H   H1468     1.0  0.66456  0.68965  0.52920  1.0000
  S   S330      1.0  0.96029  0.67150  0.48583  1.0000
  C   C1227     1.0  0.59870  0.49905  0.95933  1.0000
  C   C1228     1.0  0.67743  0.59136  0.50960  1.0000
  H   H1469     1.0  0.61677  0.65097  0.89159  1.0000
  Fe  Fe165     1.0  0.66514  0.54630  0.47910  1.0000
  H   H1470     1.0  0.69335  0.71141  0.76441  1.0000
  C   C1229     1.0  0.57198  0.51707  0.95388  1.0000
  N   N80       1.0  0.64000  0.55353  0.60332  1.0000
  C   C1230     1.0  0.66343  0.54777  0.59449  1.0000
  C   C1231     1.0  0.62286  0.54996  0.57429  1.0000
  C   C1232     1.0  0.64245  0.56753  0.60228  1.0000
  C   C1233     1.0  0.63187  0.54874  0.63907  1.0000
  C   C1234     1.0  0.62746  0.55679  0.66975  1.0000
  C   C1235     1.0  0.62818  0.53559  0.64401  1.0000
  C   C1236     1.0  0.61982  0.55185  0.70308  1.0000
  C   C1237     1.0  0.62054  0.53077  0.67739  1.0000
  C   C1238     1.0  0.61638  0.53888  0.70687  1.0000
  H   H1471     1.0  0.66269  0.53729  0.59136  1.0000
  H   H1472     1.0  0.67042  0.55138  0.56815  1.0000
  H   H1473     1.0  0.67667  0.54979  0.61628  1.0000
  H   H1474     1.0  0.60463  0.55335  0.58104  1.0000
  H   H1475     1.0  0.62220  0.53952  0.56993  1.0000
  H   H1476     1.0  0.62762  0.55409  0.54735  1.0000
  H   H1477     1.0  0.65595  0.57085  0.62226  1.0000
  H   H1478     1.0  0.64841  0.57080  0.57494  1.0000
  H   H1479     1.0  0.62525  0.57248  0.60756  1.0000
  H   H1480     1.0  0.62976  0.56692  0.66877  1.0000
  H   H1481     1.0  0.63124  0.52890  0.62198  1.0000
  H   H1482     1.0  0.61654  0.55812  0.72616  1.0000
  H   H1483     1.0  0.61786  0.52067  0.68043  1.0000
  H   H1484     1.0  0.61049  0.53505  0.73270  1.0000
  H   H1485     1.0  0.75663  0.59317  0.55686  1.0000
  S   S331      1.0  0.57938  0.72233  0.80076  1.0000
  H   H1486     1.0  0.69374  0.73059  0.84976  1.0000
  C   C1239     1.0  0.62721  0.69224  0.53890  1.0000
  C   C1240     1.0  0.60984  0.69756  0.56172  1.0000
  H   H1487     1.0  0.56001  0.61527  0.93776  1.0000
  S   S332      1.0  0.63364  0.53385  0.48918  1.0000
  N   N81       1.0  0.67690  0.49300  0.95591  1.0000
  C   C1241     1.0  0.61607  0.70506  0.59268  1.0000
  C   C1242     1.0  0.75862  0.59762  0.52956  1.0000
  H   H1488     1.0  0.70726  0.50301  0.93641  1.0000
  C   C1243     1.0  0.58541  0.50730  0.93722  1.0000
  H   H1489     1.0  0.56162  0.52348  0.93699  1.0000
  H   H1490     1.0  0.67864  0.50463  0.64332  1.0000
  Fe  Fe166     1.0  0.61681  0.48300  0.77490  1.0000
  H   H1491     1.0  0.60225  0.63916  0.94409  1.0000
  H   H1492     1.0  0.60890  0.49146  0.94685  1.0000
  N   N82       1.0  0.70130  0.72908  0.79186  1.0000
  N   N83       1.0  0.55619  0.63384  0.96165  1.0000
  H   H1493     1.0  0.66603  0.59154  0.53326  1.0000
  C   C1244     1.0  0.69146  0.72185  0.76044  1.0000
  C   C1245     1.0  0.65111  0.69423  0.54602  1.0000
  H   H1494     1.0  0.73027  0.57914  0.52856  1.0000
  H   H1495     1.0  0.56069  0.71372  0.62485  1.0000
  H   H1496     1.0  0.68822  0.61086  0.51684  1.0000
  H   H1497     1.0  0.65985  0.49588  0.69901  1.0000
  C   C1246     1.0  0.74079  0.71842  0.77603  1.0000
  N   N84       1.0  0.77335  0.58961  0.50469  1.0000
  H   H1498     1.0  0.74074  0.59948  0.51788  1.0000
  S   S333      1.0  0.58333  0.48159  0.80860  1.0000
  C   C1247     1.0  0.66247  0.50480  0.95929  1.0000
  C   C1248     1.0  0.75992  0.48353  0.48338  1.0000
  C   C1249     1.0  0.79721  0.58839  0.52162  1.0000
  H   H1499     1.0  0.59771  0.69238  0.64781  1.0000
  C   C1250     1.0  0.69611  0.49479  0.92891  1.0000
  H   H1500     1.0  0.73315  0.71274  0.75447  1.0000
  H   H1501     1.0  0.53055  0.64384  0.90125  1.0000
  H   H1502     1.0  0.61769  0.70376  0.66662  1.0000
  H   H1503     1.0  0.69995  0.72445  0.73421  1.0000
  H   H1504     1.0  0.57115  0.71414  0.57874  1.0000
  S   S334      1.0  0.66407  0.56647  0.50260  1.0000
  H   H1505     1.0  0.62863  0.52492  0.90613  1.0000
  S   S335      1.0  0.69055  0.53235  0.50442  1.0000
  H   H1506     1.0  0.60320  0.72943  0.60227  1.0000
  C   C1251     1.0  0.60269  0.72363  0.62753  1.0000
  C   C1252     1.0  0.73248  0.56096  0.50430  1.0000
  C   C1253     1.0  0.57349  0.70923  0.60535  1.0000
  S   S336      1.0  0.49904  0.66561  0.93541  1.0000
  Fe  Fe167     1.0  0.61714  0.72828  0.79267  1.0000
  C   C1254     1.0  0.68993  0.60236  0.50027  1.0000
  C   C1255     1.0  0.56489  0.64028  0.92851  1.0000
  H   H1507     1.0  0.66920  0.72637  0.82191  1.0000
  C   C1256     1.0  0.77642  0.72365  0.80972  1.0000
  H   H1508     1.0  0.79526  0.72233  0.81446  1.0000
  H   H1509     1.0  0.98959  0.70453  0.47828  1.0000
  C   C1257     1.0  0.68865  0.72503  0.82511  1.0000
  C   C1258     1.0  0.56554  0.62063  0.96261  1.0000
  H   H1510     1.0  0.64665  0.48105  0.96212  1.0000
  H   H1511     1.0  0.67209  0.72369  0.75686  1.0000
  C   C1259     1.0  0.74511  0.55250  0.48216  1.0000
  C   C1260     1.0  0.66162  0.48258  0.94306  1.0000
  H   H1512     1.0  0.61946  0.72502  0.64292  1.0000
  H   H1513     1.0  0.77527  0.71012  0.76566  1.0000
  C   C1261     1.0  0.76512  0.71679  0.78223  1.0000
  H   H1514     1.0  0.93935  0.60965  0.48244  1.0000
  C   C1262     1.0  0.54369  0.48345  0.97580  1.0000
  H   H1515     1.0  0.78748  0.68469  0.47912  1.0000
  C   C1263     1.0  0.58313  0.93505  0.44153  1.0000
  H   H1516     1.0  0.49345  0.76914  0.33245  1.0000
  H   H1517     1.0  0.64501  0.96460  0.45126  1.0000
  S   S337      1.0  0.73953  0.76752  0.02122  1.0000
  H   H1518     1.0  0.64274  0.74819  0.12280  1.0000
  S   S338      1.0  0.74432  0.79726  0.04480  1.0000
  N   N85       1.0  0.59503  0.73826  0.43744  1.0000
  H   H1519     1.0  0.57674  0.76338  0.43740  1.0000
  Fe  Fe168     1.0  0.71035  0.77295  0.98232  1.0000
  Fe  Fe169     1.0  0.72180  0.78059  0.06150  1.0000
  S   S339      1.0  0.72015  0.77104  0.11746  1.0000
  H   H1520     1.0  0.61369  0.76269  0.05336  1.0000
  S   S340      1.0  0.69168  0.78544  0.02345  1.0000
  C   C1264     1.0  0.83940  0.77756  0.11505  1.0000
  S   S341      1.0  0.61155  0.74419  0.30860  1.0000
  H   H1521     1.0  0.56428  0.73148  0.40901  1.0000
  H   H1522     1.0  0.58733  0.75003  0.39050  1.0000
  S   S342      1.0  0.62695  0.75858  0.20924  1.0000
  C   C1265     1.0  0.63852  0.74706  0.00819  1.0000
  H   H1523     1.0  0.89485  0.77651  0.07888  1.0000
  H   H1524     1.0  0.63737  0.93022  0.43284  1.0000
  S   S343      1.0  0.59132  0.95422  0.30019  1.0000
  S   S344      1.0  0.79839  0.78090  0.98267  1.0000
  Fe  Fe170     1.0  0.64816  0.96753  0.34829  1.0000
  S   S345      1.0  0.64279  0.94691  0.33489  1.0000
  S   S346      1.0  0.68327  0.97082  0.37835  1.0000
  Fe  Fe171     1.0  0.62902  0.95296  0.27955  1.0000
  S   S347      1.0  0.64605  0.94417  0.22733  1.0000
  Fe  Fe172     1.0  0.60591  0.94984  0.35681  1.0000
  S   S348      1.0  0.59258  0.93430  0.39501  1.0000
  S   S349      1.0  0.63672  0.97347  0.29195  1.0000
  S   S350      1.0  0.61180  0.97019  0.37274  1.0000
  C   C1266     1.0  0.84095  0.76361  0.06225  1.0000
  S   S351      1.0  0.57757  0.73630  0.23902  1.0000
  Fe  Fe173     1.0  0.59968  0.97448  0.31518  1.0000
  S   S352      1.0  0.51527  0.78812  0.43847  1.0000
  H   H1525     1.0  0.64119  0.76945  0.03885  1.0000
  Fe  Fe174     1.0  0.65494  0.91858  0.01236  1.0000
  S   S353      1.0  0.63115  0.92551  0.06031  1.0000
  S   S354      1.0  0.69430  0.91566  0.01647  1.0000
  C   C1267     1.0  0.64131  0.93915  0.18083  1.0000
  C   C1268     1.0  0.66106  0.93579  0.15915  1.0000
  C   C1269     1.0  0.65840  0.93166  0.12245  1.0000
  C   C1270     1.0  0.63582  0.93073  0.10667  1.0000
  C   C1271     1.0  0.61606  0.93408  0.12836  1.0000
  C   C1272     1.0  0.61873  0.93827  0.16503  1.0000
  H   H1526     1.0  0.67864  0.93641  0.17084  1.0000
  H   H1527     1.0  0.67387  0.92928  0.10636  1.0000
  H   H1528     1.0  0.59850  0.93345  0.11664  1.0000
  H   H1529     1.0  0.60330  0.94072  0.18108  1.0000
  H   H1530     1.0  0.82145  0.79920  0.03265  1.0000
  H   H1531     1.0  0.63093  0.96128  0.06267  1.0000
  H   H1532     1.0  0.54036  0.97655  0.32853  1.0000
  H   H1533     1.0  0.77298  0.75578  0.07418  1.0000
  C   C1273     1.0  0.59551  0.97004  0.21493  1.0000
  N   N86       1.0  0.80171  0.76699  0.09547  1.0000
  H   H1534     1.0  0.63032  0.91455  0.22899  1.0000
  H   H1535     1.0  0.51215  0.82514  0.41090  1.0000
  H   H1536     1.0  0.87504  0.76198  0.03604  1.0000
  C   C1274     1.0  0.53845  0.75345  0.36918  1.0000
  C   C1275     1.0  0.54645  0.76558  0.36098  1.0000
  C   C1276     1.0  0.53950  0.77605  0.38281  1.0000
  C   C1277     1.0  0.52491  0.77449  0.41348  1.0000
  C   C1278     1.0  0.51771  0.76228  0.42256  1.0000
  C   C1279     1.0  0.52424  0.75185  0.40029  1.0000
  H   H1537     1.0  0.55727  0.76697  0.33702  1.0000
  S   S355      1.0  0.54424  0.74018  0.34021  1.0000
  H   H1538     1.0  0.51785  0.74252  0.40680  1.0000
  H   H1539     1.0  0.72533  0.97632  0.41926  1.0000
  Fe  Fe175     1.0  0.75991  0.78425  0.00166  1.0000
  C   C1280     1.0  0.60268  0.74650  0.40700  1.0000
  H   H1540     1.0  0.65563  0.95979  0.11832  1.0000
  C   C1281     1.0  0.57913  0.92367  0.46037  1.0000
  H   H1541     1.0  0.76892  0.77769  0.09262  1.0000
  C   C1282     1.0  0.87728  0.79092  0.00284  1.0000
  H   H1542     1.0  0.77636  0.80765  0.98564  1.0000
  H   H1543     1.0  0.54519  0.78544  0.37550  1.0000
  Fe  Fe176     1.0  0.94537  0.78850  0.99467  1.0000
  C   C1283     1.0  0.69385  0.76735  0.14178  1.0000
  C   C1284     1.0  0.67275  0.77427  0.13693  1.0000
  C   C1285     1.0  0.65269  0.77155  0.15823  1.0000
  C   C1286     1.0  0.65316  0.76167  0.18400  1.0000
  C   C1287     1.0  0.67411  0.75454  0.18827  1.0000
  C   C1288     1.0  0.69438  0.75748  0.16761  1.0000
  H   H1544     1.0  0.67207  0.78198  0.11752  1.0000
  H   H1545     1.0  0.63662  0.77715  0.15472  1.0000
  H   H1546     1.0  0.64156  0.96834  0.17634  1.0000
  H   H1547     1.0  0.71060  0.75208  0.17177  1.0000
  H   H1548     1.0  0.62427  0.95273  0.43737  1.0000
  C   C1289     1.0  0.85913  0.79720  0.02262  1.0000
  C   C1290     1.0  0.83498  0.79433  0.01694  1.0000
  H   H1549     1.0  0.80149  0.74822  0.07167  1.0000
  H   H1550     1.0  0.86387  0.80424  0.04287  1.0000
  C   C1291     1.0  0.79211  0.75753  0.06925  1.0000
  H   H1551     1.0  0.67480  0.74691  0.20790  1.0000
  H   H1552     1.0  0.58154  0.91472  0.44621  1.0000
  S   S356      1.0  0.90755  0.79463  0.01260  1.0000
  H   H1553     1.0  0.80739  0.75352  0.13872  1.0000
  C   C1292     1.0  0.63328  0.76213  0.05674  1.0000
  H   H1554     1.0  0.59200  0.97232  0.06477  1.0000
  C   C1293     1.0  0.63265  0.74077  0.11011  1.0000
  H   H1555     1.0  0.79339  0.76088  0.04046  1.0000
  H   H1556     1.0  0.68361  0.95855  0.47532  1.0000
  C   C1294     1.0  0.68931  0.85839  0.97811  1.0000
  H   H1557     1.0  0.64703  0.75448  0.99135  1.0000
  C   C1295     1.0  0.87632  0.77429  0.08277  1.0000
  C   C1296     1.0  0.90957  0.95780  0.99322  1.0000
  H   H1558     1.0  0.67318  0.75156  0.08311  1.0000
  H   H1559     1.0  0.58224  0.95541  0.44608  1.0000
  H   H1560     1.0  0.92089  0.96401  0.01050  1.0000
  H   H1561     1.0  0.66406  0.93439  0.41076  1.0000
  C   C1297     1.0  0.66844  0.74888  0.05458  1.0000
  C   C1298     1.0  0.82737  0.76923  0.09091  1.0000
  H   H1562     1.0  0.53709  0.83436  0.42316  1.0000
  C   C1299     1.0  0.86509  0.76607  0.05861  1.0000
  C   C1300     1.0  0.70211  0.83655  0.99218  1.0000
  H   H1563     1.0  0.79324  0.78643  0.11029  1.0000
  H   H1564     1.0  0.67785  0.75562  0.03655  1.0000
  H   H1565     1.0  0.73059  0.85811  0.04587  1.0000
  C   C1301     1.0  0.57300  0.75788  0.46147  1.0000
  C   C1302     1.0  0.57973  0.94655  0.46021  1.0000
  C   C1303     1.0  0.86351  0.78003  0.11091  1.0000
  H   H1566     1.0  0.78354  0.82241  0.00679  1.0000
  H   H1567     1.0  0.67604  0.73926  0.04917  1.0000
  H   H1568     1.0  0.92166  0.95134  0.97763  1.0000
  H   H1569     1.0  0.50663  0.76091  0.44617  1.0000
  C   C1304     1.0  0.61682  0.73282  0.45456  1.0000
  C   C1305     1.0  0.71855  0.85454  0.02531  1.0000
  H   H1570     1.0  0.79180  0.78295  0.06231  1.0000
  C   C1306     1.0  0.63055  0.96987  0.15242  1.0000
  C   C1307     1.0  0.71727  0.84132  0.01917  1.0000
  Fe  Fe177     1.0  0.71534  0.80111  0.00316  1.0000
  H   H1571     1.0  0.77777  0.76014  0.13658  1.0000
  C   C1308     1.0  0.79690  0.76231  0.13289  1.0000
  H   H1572     1.0  0.55384  0.84402  0.47266  1.0000
  C   C1309     1.0  0.82855  0.78514  0.99112  1.0000
  N   N87       1.0  0.67065  0.89045  0.11371  1.0000
  C   C1310     1.0  0.69697  0.88997  0.11457  1.0000
  C   C1311     1.0  0.66227  0.87723  0.11078  1.0000
  C   C1312     1.0  0.66345  0.89735  0.08018  1.0000
  C   C1313     1.0  0.65998  0.89679  0.14606  1.0000
  C   C1314     1.0  0.67374  0.90195  0.17509  1.0000
  C   C1315     1.0  0.63500  0.89819  0.14883  1.0000
  C   C1316     1.0  0.66299  0.90812  0.20479  1.0000
  C   C1317     1.0  0.62448  0.90441  0.17860  1.0000
  C   C1318     1.0  0.63845  0.90935  0.20652  1.0000
  H   H1573     1.0  0.70378  0.88458  0.13857  1.0000
  H   H1574     1.0  0.70436  0.88514  0.08983  1.0000
  H   H1575     1.0  0.70450  0.89967  0.11480  1.0000
  H   H1576     1.0  0.66662  0.87179  0.13600  1.0000
  H   H1577     1.0  0.67055  0.87213  0.08712  1.0000
  H   H1578     1.0  0.64282  0.87679  0.10635  1.0000
  H   H1579     1.0  0.66864  0.90746  0.08186  1.0000
  H   H1580     1.0  0.67183  0.89311  0.05541  1.0000
  H   H1581     1.0  0.64403  0.89728  0.07521  1.0000
  H   H1582     1.0  0.69284  0.90160  0.17522  1.0000
  H   H1583     1.0  0.62341  0.89477  0.12748  1.0000
  H   H1584     1.0  0.67372  0.91240  0.22609  1.0000
  H   H1585     1.0  0.60541  0.90571  0.17955  1.0000
  C   C1319     1.0  0.78838  0.77904  0.08998  1.0000
  H   H1586     1.0  0.80116  0.76940  0.15438  1.0000
  H   H1587     1.0  0.61211  0.96459  0.22061  1.0000
  H   H1588     1.0  0.86975  0.96947  0.01290  1.0000
  S   S357      1.0  0.97487  0.79380  0.03406  1.0000
  C   C1320     1.0  0.62128  0.73230  0.13319  1.0000
  H   H1589     1.0  0.63741  0.76503  0.08527  1.0000
  C   C1321     1.0  0.70469  0.86317  0.00472  1.0000
  H   H1590     1.0  0.83017  0.78243  0.13691  1.0000
  Fe  Fe178     1.0  0.68861  0.89700  0.98706  1.0000
  H   H1591     1.0  0.75335  0.81929  0.99486  1.0000
  C   C1322     1.0  0.65591  0.93321  0.43822  1.0000
  C   C1323     1.0  0.63872  0.96480  0.11934  1.0000
  S   S358      1.0  0.64900  0.89951  0.98504  1.0000
  C   C1324     1.0  0.51749  0.83403  0.42516  1.0000
  H   H1592     1.0  0.72811  0.83485  0.03513  1.0000
  H   H1593     1.0  0.83329  0.75756  0.04161  1.0000
  H   H1594     1.0  0.58826  0.97316  0.24182  1.0000
  H   H1595     1.0  0.64998  0.95562  0.41076  1.0000
  Fe  Fe179     1.0  0.61549  0.74254  0.24717  1.0000
  S   S359      1.0  0.70789  0.87978  0.01263  1.0000
  H   H1596     1.0  0.61297  0.75472  0.41714  1.0000
  C   C1325     1.0  0.77204  0.81800  0.98571  1.0000
  H   H1597     1.0  0.87229  0.78661  0.12916  1.0000
  C   C1326     1.0  0.68168  0.94895  0.46306  1.0000
  C   C1327     1.0  0.62480  0.96563  0.08794  1.0000
  H   H1598     1.0  0.62263  0.73347  0.16265  1.0000
  N   N88       1.0  0.64249  0.74922  0.04793  1.0000
  S   S360      1.0  0.70032  0.82003  0.98169  1.0000
  Fe  Fe180     1.0  0.57512  0.73648  0.30083  1.0000
  H   H1599     1.0  0.89894  0.95181  0.01177  1.0000
  H   H1600     1.0  0.61935  0.74740  0.00099  1.0000
  H   H1601     1.0  0.51580  0.81434  0.47161  1.0000
  C   C1328     1.0  0.63086  0.73979  0.07150  1.0000
  H   H1602     1.0  0.66573  0.92537  0.45210  1.0000
  H   H1603     1.0  0.58280  0.96330  0.20250  1.0000
  C   C1329     1.0  0.60824  0.97621  0.15489  1.0000
  S   S361      1.0  0.95962  0.76858  0.98741  1.0000
  H   H1604     1.0  0.64635  0.73785  0.99895  1.0000
  C   C1330     1.0  0.59456  0.97706  0.12218  1.0000
  H   H1605     1.0  0.51006  0.84221  0.40948  1.0000
  C   C1331     1.0  0.58058  0.74502  0.46534  1.0000
  H   H1606     1.0  0.79768  0.84234  0.98810  1.0000
  H   H1607     1.0  0.61437  0.74123  0.38749  1.0000
  C   C1332     1.0  0.60282  0.97180  0.08930  1.0000
  N   N89       1.0  0.50919  0.83436  0.46360  1.0000
  H   H1608     1.0  0.69019  0.94952  0.43564  1.0000
  H   H1609     1.0  0.62713  0.74032  0.46872  1.0000
  N   N90       1.0  0.65655  0.94513  0.46002  1.0000
  C   C1333     1.0  0.64338  0.95497  0.43916  1.0000
  H   H1610     1.0  0.78692  0.86481  0.99261  1.0000
  C   C1334     1.0  0.87989  0.97438  0.99133  1.0000
  Fe  Fe181     1.0  0.99011  0.77421  0.02415  1.0000
  C   C1335     1.0  0.87080  0.78180  0.97686  1.0000
  H   H1611     1.0  0.95128  0.97899  0.66469  1.0000
  C   C1336     1.0  0.69605  0.74273  0.78537  1.0000
  C   C1337     1.0  0.49933  0.84050  0.58230  1.0000
  C   C1338     1.0  0.74324  0.85548  0.93513  1.0000
  S   S362      1.0  0.96498  0.79577  0.94531  1.0000
  H   H1612     1.0  0.98343  0.84613  0.89042  1.0000
  C   C1339     1.0  0.64568  0.95457  0.52109  1.0000
  H   H1613     1.0  0.67718  0.74441  0.77751  1.0000
  C   C1340     1.0  0.51576  0.84655  0.48101  1.0000
  C   C1341     1.0  0.88960  0.94880  0.91906  1.0000
  C   C1342     1.0  0.84081  0.94747  0.92990  1.0000
  C   C1343     1.0  0.74896  0.84256  0.93226  1.0000
  H   H1614     1.0  0.51525  0.80835  0.72853  1.0000
  Fe  Fe182     1.0  0.54323  0.89332  0.62905  1.0000
  S   S363      1.0  0.57427  0.90669  0.63502  1.0000
  S   S364      1.0  0.55077  0.87266  0.61223  1.0000
  Fe  Fe183     1.0  0.50734  0.91406  0.64910  1.0000
  S   S365      1.0  0.53538  0.92854  0.65599  1.0000
  Fe  Fe184     1.0  0.55106  0.92058  0.60399  1.0000
  S   S366      1.0  0.56143  0.93601  0.56342  1.0000
  Fe  Fe185     1.0  0.55635  0.91356  0.68681  1.0000
  S   S367      1.0  0.57208  0.92154  0.74069  1.0000
  S   S368      1.0  0.52139  0.90693  0.59508  1.0000
  S   S369      1.0  0.52688  0.89933  0.68268  1.0000
  Fe  Fe186     1.0  0.49688  0.78820  0.49377  1.0000
  Fe  Fe187     1.0  0.65459  0.90926  0.93069  1.0000
  S   S370      1.0  0.63626  0.90296  0.87701  1.0000
  S   S371      1.0  0.69424  0.90565  0.93147  1.0000
  H   H1615     1.0  0.98435  0.82671  0.92869  1.0000
  S   S372      1.0  0.91954  0.97022  0.84998  1.0000
  S   S373      1.0  0.80419  0.95331  0.83903  1.0000
  S   S374      1.0  0.85624  0.97026  0.79257  1.0000
  C   C1344     1.0  0.52450  0.82542  0.67671  1.0000
  C   C1345     1.0  0.74495  0.94396  0.92083  1.0000
  C   C1346     1.0  0.75301  0.93490  0.89552  1.0000
  C   C1347     1.0  0.77147  0.93783  0.87122  1.0000
  C   C1348     1.0  0.78230  0.94977  0.87217  1.0000
  C   C1349     1.0  0.77475  0.95868  0.89824  1.0000
  C   C1350     1.0  0.75612  0.95580  0.92226  1.0000
  H   H1616     1.0  0.74488  0.92571  0.89440  1.0000
  H   H1617     1.0  0.77719  0.93087  0.85118  1.0000
  H   H1618     1.0  0.78285  0.96790  0.89933  1.0000
  S   S375      1.0  0.51616  0.79676  0.54146  1.0000
  C   C1351     1.0  0.58989  0.91609  0.77835  1.0000
  C   C1352     1.0  0.59895  0.90368  0.78055  1.0000
  C   C1353     1.0  0.61288  0.89989  0.81098  1.0000
  C   C1354     1.0  0.61798  0.90836  0.83981  1.0000
  C   C1355     1.0  0.60885  0.92077  0.83768  1.0000
  C   C1356     1.0  0.59498  0.92458  0.80718  1.0000
  H   H1619     1.0  0.59529  0.89700  0.75878  1.0000
  H   H1620     1.0  0.61980  0.89027  0.81217  1.0000
  H   H1621     1.0  0.61246  0.92742  0.85952  1.0000
  H   H1622     1.0  0.58814  0.93420  0.80592  1.0000
  C   C1357     1.0  0.56918  0.93525  0.51623  1.0000
  N   N91       1.0  0.50133  0.92597  0.78322  1.0000
  C   C1358     1.0  0.50588  0.86236  0.60301  1.0000
  C   C1359     1.0  0.68813  0.84519  0.97183  1.0000
  H   H1623     1.0  0.73689  0.83689  0.91637  1.0000
  H   H1624     1.0  0.75184  0.87337  0.95982  1.0000
  H   H1625     1.0  0.53761  0.92339  0.80145  1.0000
  H   H1626     1.0  0.57081  0.95558  0.51155  1.0000
  C   C1360     1.0  0.96111  0.93292  0.83055  1.0000
  C   C1361     1.0  0.93757  0.93420  0.81806  1.0000
  C   C1362     1.0  0.92419  0.94534  0.82503  1.0000
  C   C1363     1.0  0.93447  0.95545  0.84387  1.0000
  C   C1364     1.0  0.95782  0.95408  0.85696  1.0000
  C   C1365     1.0  0.97104  0.94285  0.85060  1.0000
  H   H1627     1.0  0.92978  0.92657  0.80241  1.0000
  H   H1628     1.0  0.90624  0.94626  0.81482  1.0000
  H   H1629     1.0  0.96593  0.96186  0.87151  1.0000
  H   H1630     1.0  0.80403  0.82648  0.91168  1.0000
  H   H1631     1.0  0.64130  0.73102  0.87686  1.0000
  C   C1366     1.0  0.51962  0.80424  0.70124  1.0000
  C   C1367     1.0  0.53928  0.84855  0.58969  1.0000
  C   C1368     1.0  0.53042  0.86050  0.60092  1.0000
  S   S376      1.0  0.73194  0.78873  0.95922  1.0000
  H   H1632     1.0  0.53114  0.82956  0.57178  1.0000
  H   H1633     1.0  0.55823  0.84700  0.58813  1.0000
  H   H1634     1.0  0.91883  0.98047  0.95961  1.0000
  S   S377      1.0  0.85381  0.97490  0.88155  1.0000
  H   H1635     1.0  0.69888  0.74867  0.81018  1.0000
  H   H1636     1.0  0.70714  0.74649  0.76297  1.0000
  H   H1637     1.0  0.66539  0.73453  0.93288  1.0000
  S   S378      1.0  0.69276  0.75533  0.95880  1.0000
  H   H1638     1.0  0.54332  0.76246  0.54150  1.0000
  H   H1639     1.0  0.56513  0.86390  0.50206  1.0000
  C   C1369     1.0  0.53419  0.75924  0.63791  1.0000
  C   C1370     1.0  0.77659  0.85859  0.97532  1.0000
  Fe  Fe188     1.0  0.82801  0.97067  0.83645  1.0000
  H   H1640     1.0  0.65328  0.96350  0.51332  1.0000
  H   H1641     1.0  0.93061  0.96195  0.76752  1.0000
  C   C1371     1.0  0.52034  0.74856  0.63168  1.0000
  H   H1642     1.0  0.49563  0.95351  0.62306  1.0000
  S   S379      1.0  0.72046  0.94129  0.95019  1.0000
  H   H1643     1.0  0.49299  0.92002  0.72788  1.0000
  H   H1644     1.0  0.56931  0.91491  0.51150  1.0000
  C   C1372     1.0  0.64847  0.74934  0.85420  1.0000
  H   H1645     1.0  0.55503  0.74001  0.54929  1.0000
  C   C1373     1.0  0.66381  0.74197  0.91274  1.0000
  C   C1374     1.0  0.67542  0.75351  0.91860  1.0000
  C   C1375     1.0  0.67329  0.76303  0.89226  1.0000
  C   C1376     1.0  0.65995  0.76092  0.86016  1.0000
  C   C1377     1.0  0.55815  0.74700  0.68180  1.0000
  H   H1646     1.0  0.51366  0.85749  0.68473  1.0000
  H   H1647     1.0  0.68208  0.77197  0.89646  1.0000
  H   H1648     1.0  0.65858  0.76829  0.83975  1.0000
  C   C1378     1.0  0.52055  0.82369  0.48367  1.0000
  C   C1379     1.0  0.87581  0.94098  0.89683  1.0000
  C   C1380     1.0  0.63495  0.95394  0.55540  1.0000
  H   H1649     1.0  0.51560  0.81386  0.61302  1.0000
  H   H1650     1.0  0.69209  0.94211  0.48000  1.0000
  C   C1381     1.0  0.57214  0.92375  0.49742  1.0000
  H   H1651     1.0  0.51488  0.82374  0.51274  1.0000
  C   C1382     1.0  0.97864  0.95629  0.71495  1.0000
  C   C1383     1.0  0.57299  0.94663  0.49734  1.0000
  C   C1384     1.0  0.49509  0.91357  0.79925  1.0000
  H   H1652     1.0  0.89393  0.96445  0.73826  1.0000
  C   C1385     1.0  0.52389  0.83861  0.58043  1.0000
  H   H1653     1.0  0.84059  0.93474  0.88385  1.0000
  H   H1654     1.0  0.63448  0.96220  0.57317  1.0000
  C   C1386     1.0  0.97412  0.96487  0.68681  1.0000
  H   H1655     1.0  0.82175  0.94711  0.93338  1.0000
  S   S380      1.0  0.63323  0.74685  0.81226  1.0000
  H   H1656     1.0  0.55723  0.85780  0.68724  1.0000
  C   C1387     1.0  0.76064  0.81632  0.92274  1.0000
  H   H1657     1.0  0.57267  0.74652  0.70119  1.0000
  H   H1658     1.0  0.88440  0.77688  0.96136  1.0000
  C   C1388     1.0  0.80047  0.82176  0.93821  1.0000
  C   C1389     1.0  0.50775  0.92398  0.74440  1.0000
  H   H1659     1.0  0.77222  0.73744  0.85281  1.0000
  H   H1660     1.0  0.52094  0.94897  0.59674  1.0000
  H   H1661     1.0  0.74165  0.81631  0.93102  1.0000
  H   H1662     1.0  0.56407  0.76654  0.66785  1.0000
  C   C1390     1.0  0.78261  0.84570  0.97245  1.0000
  C   C1391     1.0  0.56023  0.74495  0.52472  1.0000
  C   C1392     1.0  0.96282  0.95540  0.74382  1.0000
  H   H1663     1.0  0.89833  0.97785  0.92283  1.0000
  C   C1393     1.0  0.63501  0.93277  0.50915  1.0000
  H   H1664     1.0  0.52301  0.91728  0.74172  1.0000
  H   H1665     1.0  0.84489  0.96072  0.97282  1.0000
  C   C1394     1.0  0.55353  0.75762  0.52039  1.0000
  C   C1395     1.0  0.54959  0.82597  0.67850  1.0000
  H   H1666     1.0  0.53885  0.80185  0.70110  1.0000
  H   H1667     1.0  0.98650  0.96549  0.66434  1.0000
  Fe  Fe189     1.0  0.88120  0.97590  0.83757  1.0000
  C   C1396     1.0  0.55320  0.75835  0.66284  1.0000
  H   H1668     1.0  0.80530  0.81150  0.93521  1.0000
  H   H1669     1.0  0.58038  0.83776  0.68326  1.0000
  H   H1670     1.0  0.51921  0.93234  0.83219  1.0000
  S   S381      1.0  0.97794  0.91929  0.81770  1.0000
  H   H1671     1.0  0.50562  0.74910  0.61268  1.0000
  C   C1397     1.0  0.51178  0.83714  0.67935  1.0000
  C   C1398     1.0  0.94241  0.96306  0.74466  1.0000
  H   H1672     1.0  0.76632  0.80616  0.92124  1.0000
  C   C1399     1.0  0.52951  0.86971  0.51432  1.0000
  S   S382      1.0  0.65695  0.92850  0.95763  1.0000
  C   C1400     1.0  0.76904  0.83728  0.95065  1.0000
  N   N92       1.0  0.91524  0.97975  0.71808  1.0000
  C   C1401     1.0  0.85443  0.95535  0.95232  1.0000
  H   H1673     1.0  0.72751  0.85926  0.92167  1.0000
  C   C1402     1.0  0.89448  0.97136  0.71541  1.0000
  H   H1674     1.0  0.98915  0.94203  0.86014  1.0000
  C   C1403     1.0  0.62431  0.94280  0.56658  1.0000
  H   H1675     1.0  0.72975  0.74050  0.84294  1.0000
  S   S383      1.0  0.52881  0.77392  0.61542  1.0000
  C   C1404     1.0  0.64599  0.94401  0.49681  1.0000
  H   H1676     1.0  0.51062  0.90690  0.79990  1.0000
  H   H1677     1.0  0.67632  0.84164  0.95090  1.0000
  C   C1405     1.0  0.73913  0.73387  0.82530  1.0000
  C   C1406     1.0  0.52534  0.73718  0.65059  1.0000
  H   H1678     1.0  0.61534  0.94241  0.59271  1.0000
  Fe  Fe190     1.0  0.69633  0.92445  0.96053  1.0000
  H   H1679     1.0  0.76189  0.82022  0.89462  1.0000
  H   H1680     1.0  0.98680  0.73455  0.95988  1.0000
  H   H1681     1.0  0.52991  0.93921  0.79000  1.0000
  Fe  Fe191     1.0  0.98163  0.77617  0.94137  1.0000
  H   H1682     1.0  0.90840  0.94891  0.91372  1.0000
  H   H1683     1.0  0.88404  0.93549  0.87503  1.0000
  C   C1407     1.0  0.50400  0.95355  0.53126  1.0000
  H   H1684     1.0  0.51068  0.96518  0.59667  1.0000
  H   H1685     1.0  0.84200  0.77187  0.95093  1.0000
  C   C1408     1.0  0.54821  0.84881  0.68516  1.0000
  Fe  Fe192     1.0  0.50081  0.78093  0.57457  1.0000
  H   H1686     1.0  0.53945  0.80531  0.63497  1.0000
  H   H1687     1.0  0.53483  0.87836  0.52811  1.0000
  C   C1409     1.0  0.50476  0.95516  0.59669  1.0000
  H   H1688     1.0  0.75761  0.96264  0.79879  1.0000
  N   N93       1.0  0.51271  0.81309  0.67145  1.0000
  H   H1689     1.0  0.49345  0.95167  0.50608  1.0000
  H   H1690     1.0  0.73239  0.96729  0.85223  1.0000
  H   H1691     1.0  0.61556  0.92371  0.55215  1.0000
  H   H1692     1.0  0.51123  0.79829  0.63089  1.0000
  C   C1410     1.0  0.85141  0.94045  0.90192  1.0000
  C   C1411     1.0  0.75694  0.86346  0.95670  1.0000
  H   H1693     1.0  0.86735  0.98008  0.97412  1.0000
  H   H1694     1.0  0.51044  0.79499  0.69856  1.0000
  H   H1695     1.0  0.67853  0.86486  0.96200  1.0000
  H   H1696     1.0  0.96634  0.94869  0.76569  1.0000
  C   C1412     1.0  0.76344  0.73216  0.83125  1.0000
  C   C1413     1.0  0.62452  0.93223  0.54365  1.0000
  H   H1697     1.0  0.49878  0.87148  0.61166  1.0000
  N   N94       1.0  0.68691  0.93085  0.83263  1.0000
  C   C1414     1.0  0.66948  0.93025  0.80222  1.0000
  C   C1415     1.0  0.69728  0.91799  0.83834  1.0000
  C   C1416     1.0  0.67378  0.93436  0.86637  1.0000
  C   C1417     1.0  0.70584  0.93985  0.82342  1.0000
  C   C1418     1.0  0.72048  0.93760  0.79250  1.0000
  C   C1419     1.0  0.71046  0.95093  0.84451  1.0000
  C   C1420     1.0  0.73880  0.94579  0.78366  1.0000
  C   C1421     1.0  0.72864  0.95912  0.83511  1.0000
  C   C1422     1.0  0.74289  0.95652  0.80496  1.0000
  H   H1698     1.0  0.67756  0.92684  0.77628  1.0000
  H   H1699     1.0  0.65493  0.92360  0.80840  1.0000
  H   H1700     1.0  0.66130  0.93974  0.79694  1.0000
  H   H1701     1.0  0.70543  0.91397  0.81320  1.0000
  H   H1702     1.0  0.68362  0.91110  0.84701  1.0000
  H   H1703     1.0  0.71121  0.91817  0.85997  1.0000
  H   H1704     1.0  0.68585  0.93464  0.89057  1.0000
  H   H1705     1.0  0.66464  0.94373  0.86374  1.0000
  H   H1706     1.0  0.65981  0.92738  0.87272  1.0000
  H   H1707     1.0  0.71809  0.92938  0.77523  1.0000
  H   H1708     1.0  0.70084  0.95331  0.86912  1.0000
  H   H1709     1.0  0.75025  0.94373  0.76060  1.0000
  C   C1423     1.0  0.56120  0.83751  0.68261  1.0000
  C   C1424     1.0  0.93723  0.97193  0.71659  1.0000
  H   H1710     1.0  0.51899  0.94654  0.53121  1.0000
  C   C1425     1.0  0.65020  0.73993  0.88093  1.0000
  C   C1426     1.0  0.52279  0.93050  0.80274  1.0000
  H   H1711     1.0  0.75010  0.96287  0.94178  1.0000
  H   H1712     1.0  0.89471  0.96579  0.68947  1.0000
  C   C1427     1.0  0.52014  0.80744  0.63609  1.0000
  C   C1428     1.0  0.95373  0.97260  0.68740  1.0000
  H   H1713     1.0  0.63365  0.92437  0.49235  1.0000
  H   H1714     1.0  0.49868  0.95081  0.81233  1.0000
  H   H1715     1.0  0.51226  0.96303  0.52917  1.0000
  C   C1429     1.0  0.54414  0.73636  0.67595  1.0000
  H   H1716     1.0  0.49258  0.87284  0.52485  1.0000
  H   H1717     1.0  0.51296  0.93304  0.73146  1.0000
  C   C1430     1.0  0.52359  0.84861  0.68377  1.0000
  C   C1431     1.0  0.54658  0.86149  0.49977  1.0000
  C   C1432     1.0  0.53989  0.85010  0.48323  1.0000
  H   H1718     1.0  0.56046  0.81749  0.67617  1.0000
  N   N95       1.0  0.77533  0.82359  0.94908  1.0000
  H   H1719     1.0  0.54019  0.82408  0.48344  1.0000
  H   H1720     1.0  0.92297  0.96728  0.93006  1.0000
  C   C1433     1.0  0.55979  0.76404  0.48877  1.0000
  C   C1434     1.0  0.57344  0.73869  0.49759  1.0000
  C   C1435     1.0  0.90913  0.97301  0.94430  1.0000
  N   N96       1.0  0.89402  0.96533  0.96858  1.0000
  H   H1721     1.0  0.81307  0.82554  0.95881  1.0000
  H   H1722     1.0  0.55408  0.77383  0.48514  1.0000
  C   C1436     1.0  0.87924  0.95657  0.94672  1.0000
  H   H1723     1.0  0.87748  0.97688  0.71626  1.0000
  H   H1724     1.0  0.98842  0.79152  0.84979  1.0000
  C   C1437     1.0  0.84665  0.77897  0.97106  1.0000
  S   S384      1.0  0.98584  0.76620  0.88598  1.0000
  H   H1725     1.0  0.49650  0.93231  0.56482  1.0000
  C   C1438     1.0  0.50569  0.86656  0.51247  1.0000
  C   C1439     1.0  0.49879  0.85514  0.49634  1.0000
  H   H1726     1.0  0.98460  0.80812  0.85701  1.0000
  H   H1727     1.0  0.91196  0.98048  0.77718  1.0000
  H   H1728     1.0  0.49273  0.83779  0.67720  1.0000
  C   C1440     1.0  0.49048  0.85242  0.59374  1.0000
