data_image0
_chemical_formula_structural       CH3CFeHSHCS2FeS2H4C6H4C6H6CHCHC2NHCFeH2CSHCHFeC3H2C3H3CH2CSH5NSCHC3H2NH6C2H4CH2FeSFeSCFeSFeS3CFeS2FeSHSCSHFeS2FeS2C6H4C2S2C6H5C4HSH3C6H4C2HNH2CNC9H12CH3C2HC3H2NH2CHCH2CH4NC8HC3HC4HCH3C2H2S2CHCH5C2H4CH11FeH5C2H3SFeCH2CHNCH2C3FeS2Fe2C2SHSHFeSHFeS2Fe2S3CSHNC6H5C8H4SHC2H4C2FeC2H3CH2C2HC3H2SCSC2SCNC9H14SC2HCH2CNHNSH2CH4NCHCH3CH3C2HCHCFeH3CH3C2H3CH3CNC3H2C2H2CH4CHC3HSCHSC2FeHCH2CHS2FeHSFeS2FeSCFe2S3CSH2FeS2HSFeHC2HC2HCFeC5H3C6H6CHC6H4C2H2NHCH4CH3CHCH2C2HSH4CH3SH4CH3CHCH2CHC2FeC5H2CHC3HCHC3HNH2CNC2HCSH3SC2FeHSFeS3FeS2FeS2Fe2S4HFeS2FeH3SHSHCH2C6H4C3NC2HC6H4CSHC3H4C6H5CH3CNHC3H2CHCH2CHNC7NH6SCH5C2H2CSC2HCNCH4C3HC5HC2H3CHCH4CHC2H2CHCH2C2SC3H3C2H9CH3C2HSC3H2CH3S2FeSH4FeC2H3CSH2SNC3SC7H4C6H4CH2C2NH2SHCH2FeSCSHCHCH2CH3CHCH5CH2CHC2HCH2SC2H2FeC2NH2CH3CFeH4CHFeSHSCHFeS2FeSCSC7H6NC7H5CNC2HCHCH2C2HSH5CHNFeHSH2C3H3C2HCH2CHCHCH4CH3SCH2C2H4CSH2C2HC2H3C2HSCFeS2CSFe2SHSHCSHFeS2H2FeSFeCS2H2FeSHC7H4C6HNH8C6H5C6H4C2HNHC2HCH8CHCH2SCHCH2C2HCHNSCFeHCH3CHCH3NC5HC2H3C4HCHCHFeHCHSC2SCH3CHCHSC3H5C2HC3H5CHFeCHSHFeH2FeS3FeS2FeS2FeCFeS4HC6HCH2CH4CHC6H4C3H2CHSH3C3H2NC2HFeCSHSHC3H6C2HNCSH2C2HC4H2SCNH2C2FeHCH4CHCH5SCH2C2H3CH3C2H2FeCHCH2CSC2FeHFeS2FeSHSCFeS2FeS2FeSFeCS2CHSCFeHSH4CHCH2NHCNCH2C7H6C5H2CHC2SHC7H3C2HC3HCH2CSHC3HSH2CHFeCH2CH4CHCNH5CFeH2FeH7CSC5SH2C2HSC2HCH2C2H3NC3HCHCH9S2CSFeS2FeSFeSFeS4FeS2C2HCFeSFeSCH4SC6H6C7H4C2HCHCHCHC6H4CNC9H11CFeH4C2SHCH2C3HCH3CH3CHCHCH4CH3SH6CN2C9H13CFeCHSCNCHSH6NCFe4S2FeS3H2FeCSHC6H4C6H2CHNC8H12NC2HNH2C2H4CNHC2HC3SCH7CH2FeC2HSHC2H2CSCH4CH2SH6C3
_chemical_formula_sum              "C720 H864 Fe96 S192 N48"
_cell_length_a       30.2445
_cell_length_b       54.2143
_cell_length_c       53.8407
_cell_angle_alpha    88.9547
_cell_angle_beta     89.8097
_cell_angle_gamma    90.0427

_space_group_name_H-M_alt    "P 1"
_space_group_IT_number       1

loop_
  _space_group_symop_operation_xyz
  'x, y, z'

loop_
  _atom_site_type_symbol
  _atom_site_label
  _atom_site_symmetry_multiplicity
  _atom_site_fract_x
  _atom_site_fract_y
  _atom_site_fract_z
  _atom_site_occupancy
  C   C1        1.0  0.42983  0.36533  0.44337  1.0000
  H   H1        1.0  0.38183  0.14633  0.14368  1.0000
  H   H2        1.0  0.44108  0.04422  0.31803  1.0000
  H   H3        1.0  0.42292  0.13861  0.12103  1.0000
  C   C2        1.0  0.40737  0.36657  0.46628  1.0000
  Fe  Fe1       1.0  0.49430  0.32451  0.11638  1.0000
  H   H4        1.0  0.36777  0.12799  0.11727  1.0000
  S   S1        1.0  0.50082  0.29013  0.09316  1.0000
  H   H5        1.0  0.31765  0.17306  0.13108  1.0000
  C   C3        1.0  0.51016  0.34670  0.23276  1.0000
  S   S2        1.0  0.48093  0.33366  0.20783  1.0000
  S   S3        1.0  0.43727  0.33434  0.14096  1.0000
  Fe  Fe2       1.0  0.50806  0.36413  0.38570  1.0000
  S   S4        1.0  0.28888  0.16566  0.03613  1.0000
  S   S5        1.0  0.33633  0.22480  0.06229  1.0000
  H   H6        1.0  0.41135  0.29568  0.03251  1.0000
  H   H7        1.0  0.32212  0.34634  0.11799  1.0000
  H   H8        1.0  0.42490  0.36247  0.48335  1.0000
  H   H9        1.0  0.49448  0.31651  0.25788  1.0000
  C   C4        1.0  0.40952  0.06774  0.10211  1.0000
  C   C5        1.0  0.37367  0.05641  0.09065  1.0000
  C   C6        1.0  0.35501  0.06703  0.06910  1.0000
  C   C7        1.0  0.37152  0.08926  0.05903  1.0000
  C   C8        1.0  0.40759  0.10056  0.07038  1.0000
  C   C9        1.0  0.42643  0.08987  0.09191  1.0000
  H   H10       1.0  0.38135  0.18054  0.07179  1.0000
  H   H11       1.0  0.32742  0.05802  0.06026  1.0000
  H   H12       1.0  0.42202  0.11693  0.06196  1.0000
  H   H13       1.0  0.45480  0.09843  0.10039  1.0000
  C   C10       1.0  0.45486  0.27186  0.08518  1.0000
  C   C11       1.0  0.46088  0.25225  0.06880  1.0000
  C   C12       1.0  0.42475  0.23785  0.06131  1.0000
  C   C13       1.0  0.38240  0.24290  0.07032  1.0000
  C   C14       1.0  0.37636  0.26253  0.08666  1.0000
  C   C15       1.0  0.41244  0.27698  0.09407  1.0000
  H   H14       1.0  0.49363  0.24822  0.06182  1.0000
  H   H15       1.0  0.42974  0.22274  0.04875  1.0000
  H   H16       1.0  0.34367  0.26640  0.09380  1.0000
  H   H17       1.0  0.40750  0.29189  0.10684  1.0000
  H   H18       1.0  0.28408  0.31527  0.46709  1.0000
  H   H19       1.0  0.51754  0.26210  0.44728  1.0000
  C   C16       1.0  0.46500  0.35190  0.03585  1.0000
  H   H20       1.0  0.46705  0.17137  0.10967  1.0000
  C   C17       1.0  0.38778  0.14405  0.12344  1.0000
  H   H21       1.0  0.34847  0.21216  0.12934  1.0000
  C   C18       1.0  0.47582  0.20714  0.12441  1.0000
  C   C19       1.0  0.40974  0.33335  0.06306  1.0000
  N   N1        1.0  0.37653  0.16691  0.10926  1.0000
  H   H22       1.0  0.30910  0.15465  0.10427  1.0000
  C   C20       1.0  0.50892  0.34461  0.02987  1.0000
  Fe  Fe3       1.0  0.33812  0.19652  0.03162  1.0000
  H   H23       1.0  0.39466  0.24590  0.14268  1.0000
  H   H24       1.0  0.36516  0.14871  0.07446  1.0000
  C   C21       1.0  0.40309  0.18786  0.11838  1.0000
  S   S6        1.0  0.43462  0.05448  0.12875  1.0000
  H   H25       1.0  0.51151  0.20652  0.12255  1.0000
  C   C22       1.0  0.45585  0.22817  0.13374  1.0000
  H   H26       1.0  0.46429  0.36007  0.44286  1.0000
  Fe  Fe4       1.0  0.48970  0.34679  0.16782  1.0000
  C   C23       1.0  0.47849  0.05292  0.03629  1.0000
  C   C24       1.0  0.41001  0.22926  0.13584  1.0000
  C   C25       1.0  0.28399  0.31818  0.48751  1.0000
  H   H27       1.0  0.20631  0.36326  0.15932  1.0000
  H   H28       1.0  0.38148  0.32028  0.06497  1.0000
  C   C26       1.0  0.32800  0.17068  0.11143  1.0000
  C   C27       1.0  0.45000  0.18718  0.11700  1.0000
  C   C28       1.0  0.38377  0.20957  0.12813  1.0000
  H   H29       1.0  0.27247  0.33743  0.49003  1.0000
  H   H30       1.0  0.27889  0.34473  0.15693  1.0000
  H   H31       1.0  0.42134  0.15745  0.07946  1.0000
  C   C29       1.0  0.38659  0.16316  0.08265  1.0000
  H   H32       1.0  0.31700  0.18703  0.10019  1.0000
  H   H33       1.0  0.43559  0.32702  0.07636  1.0000
  C   C30       1.0  0.51037  0.33433  0.25594  1.0000
  S   S7        1.0  0.34908  0.10077  0.03092  1.0000
  H   H34       1.0  0.48315  0.09092  0.02397  1.0000
  H   H35       1.0  0.12816  0.35509  0.10502  1.0000
  H   H36       1.0  0.51768  0.32577  0.02598  1.0000
  H   H37       1.0  0.20803  0.30172  0.47091  1.0000
  H   H38       1.0  0.24808  0.26050  0.50202  1.0000
  N   N2        1.0  0.42753  0.33427  0.03734  1.0000
  S   S8        1.0  0.49689  0.36173  0.09757  1.0000
  C   C31       1.0  0.43980  0.30868  0.03063  1.0000
  H   H39       1.0  0.39803  0.35163  0.06945  1.0000
  C   C32       1.0  0.28890  0.35387  0.11841  1.0000
  C   C33       1.0  0.20954  0.30354  0.49145  1.0000
  C   C34       1.0  0.27079  0.27516  0.49498  1.0000
  H   H40       1.0  0.47588  0.24389  0.13887  1.0000
  H   H41       1.0  0.37707  0.36028  0.02575  1.0000
  N   N3        1.0  0.25509  0.30027  0.50106  1.0000
  H   H42       1.0  0.36007  0.03951  0.09842  1.0000
  H   H43       1.0  0.30405  0.27164  0.50313  1.0000
  H   H44       1.0  0.13132  0.36510  0.15054  1.0000
  H   H45       1.0  0.46900  0.36352  0.30794  1.0000
  H   H46       1.0  0.18576  0.29007  0.49974  1.0000
  H   H47       1.0  0.27343  0.27265  0.47453  1.0000
  C   C35       1.0  0.27145  0.36544  0.09734  1.0000
  C   C36       1.0  0.26450  0.35306  0.14038  1.0000
  H   H48       1.0  0.31899  0.31700  0.49382  1.0000
  H   H49       1.0  0.19672  0.32217  0.49589  1.0000
  H   H50       1.0  0.45288  0.05732  0.04954  1.0000
  H   H51       1.0  0.29130  0.36676  0.08057  1.0000
  C   C37       1.0  0.22257  0.36387  0.14145  1.0000
  H   H52       1.0  0.46591  0.30116  0.04316  1.0000
  H   H53       1.0  0.41818  0.35691  0.32407  1.0000
  Fe  Fe5       1.0  0.40798  0.05830  0.64012  1.0000
  S   S9        1.0  0.36973  0.08957  0.62233  1.0000
  Fe  Fe6       1.0  0.45573  0.09157  0.67709  1.0000
  S   S10       1.0  0.42186  0.12540  0.66201  1.0000
  C   C38       1.0  0.13902  0.10591  0.69576  1.0000
  Fe  Fe7       1.0  0.36032  0.10231  0.66144  1.0000
  S   S11       1.0  0.30006  0.12198  0.67612  1.0000
  Fe  Fe8       1.0  0.43376  0.11053  0.62405  1.0000
  S   S12       1.0  0.45133  0.13798  0.59337  1.0000
  S   S13       1.0  0.39319  0.06923  0.67958  1.0000
  S   S14       1.0  0.47284  0.07845  0.63883  1.0000
  C   C39       1.0  0.06128  0.31675  0.95873  1.0000
  Fe  Fe9       1.0  0.09367  0.18822  0.62523  1.0000
  S   S15       1.0  0.11467  0.21320  0.65562  1.0000
  S   S16       1.0  0.13804  0.15793  0.61054  1.0000
  Fe  Fe10      1.0  0.08415  0.24327  0.63199  1.0000
  S   S17       1.0  0.12218  0.27924  0.62764  1.0000
  H   H54       1.0  0.46423  0.11302  0.86349  1.0000
  S   S18       1.0  0.06701  0.21866  0.60035  1.0000
  C   C40       1.0  0.07416  0.12719  0.92870  1.0000
  S   S19       1.0  0.09623  0.21203  0.89292  1.0000
  H   H55       1.0  0.50138  0.16925  0.55958  1.0000
  Fe  Fe11      1.0  0.36595  0.17915  0.98081  1.0000
  S   S20       1.0  0.31771  0.14770  0.98103  1.0000
  S   S21       1.0  0.41153  0.18539  0.94796  1.0000
  Fe  Fe12      1.0  0.26913  0.17461  0.99677  1.0000
  S   S22       1.0  0.19463  0.17459  0.99065  1.0000
  S   S23       1.0  0.31531  0.20697  0.99316  1.0000
  C   C41       1.0  0.12267  0.20249  0.92069  1.0000
  C   C42       1.0  0.16906  0.20313  0.92173  1.0000
  C   C43       1.0  0.19160  0.19524  0.94327  1.0000
  C   C44       1.0  0.16782  0.18653  0.96392  1.0000
  C   C45       1.0  0.12133  0.18631  0.96305  1.0000
  C   C46       1.0  0.09878  0.19430  0.94153  1.0000
  H   H56       1.0  0.18776  0.20955  0.90570  1.0000
  H   H57       1.0  0.22737  0.19549  0.94376  1.0000
  H   H58       1.0  0.10281  0.17946  0.97896  1.0000
  H   H59       1.0  0.06312  0.19374  0.94099  1.0000
  C   C47       1.0  0.06554  0.28190  0.91708  1.0000
  C   C48       1.0  0.16445  0.14547  0.71332  1.0000
  S   S24       1.0  0.39273  0.17121  0.01904  1.0000
  S   S25       1.0  0.02753  0.17980  0.64265  1.0000
  C   C49       1.0  0.12473  0.29584  0.59910  1.0000
  C   C50       1.0  0.10711  0.28630  0.57730  1.0000
  C   C51       1.0  0.10942  0.30012  0.55495  1.0000
  C   C52       1.0  0.12952  0.32350  0.55418  1.0000
  C   C53       1.0  0.14766  0.33292  0.57590  1.0000
  C   C54       1.0  0.14515  0.31913  0.59828  1.0000
  H   H60       1.0  0.09115  0.26847  0.57774  1.0000
  H   H61       1.0  0.03711  0.34811  0.57295  1.0000
  H   H62       1.0  0.21608  0.11696  0.71062  1.0000
  H   H63       1.0  0.15885  0.32662  0.61508  1.0000
  H   H64       1.0  0.11022  0.09584  0.68802  1.0000
  C   C55       1.0  0.25498  0.30340  0.52835  1.0000
  C   C56       1.0  0.45843  0.14474  0.96387  1.0000
  C   C57       1.0  0.45522  0.16403  0.94642  1.0000
  C   C58       1.0  0.48614  0.16569  0.92694  1.0000
  H   H65       1.0  0.49407  0.11229  0.97538  1.0000
  S   S26       1.0  0.51371  0.09425  0.70392  1.0000
  H   H66       1.0  0.43447  0.14308  0.97873  1.0000
  H   H67       1.0  0.48373  0.18059  0.91338  1.0000
  H   H68       1.0  0.26199  0.18426  0.74063  1.0000
  C   C59       1.0  0.25875  0.13291  0.65572  1.0000
  C   C60       1.0  0.23825  0.15548  0.66063  1.0000
  C   C61       1.0  0.20230  0.16368  0.64636  1.0000
  C   C62       1.0  0.18608  0.14925  0.62715  1.0000
  C   C63       1.0  0.20770  0.12711  0.62155  1.0000
  C   C64       1.0  0.24400  0.11893  0.63580  1.0000
  H   H69       1.0  0.24989  0.16661  0.67574  1.0000
  H   H70       1.0  0.18676  0.18099  0.65056  1.0000
  H   H71       1.0  0.19553  0.11589  0.60662  1.0000
  H   H72       1.0  0.25957  0.10145  0.63191  1.0000
  C   C65       1.0  0.51046  0.09185  0.73682  1.0000
  C   C66       1.0  0.47012  0.08905  0.74935  1.0000
  H   H73       1.0  0.40466  0.34475  0.00091  1.0000
  N   N4        1.0  0.12661  0.13106  0.70381  1.0000
  H   H74       1.0  0.26831  0.25154  0.63493  1.0000
  H   H75       1.0  0.12960  0.14488  0.66619  1.0000
  C   C67       1.0  0.09980  0.26500  0.95406  1.0000
  N   N5        1.0  0.33342  0.17995  0.60421  1.0000
  C   C68       1.0  0.36744  0.19284  0.58889  1.0000
  C   C69       1.0  0.35310  0.17314  0.62861  1.0000
  C   C70       1.0  0.32217  0.15657  0.59167  1.0000
  C   C71       1.0  0.29501  0.19653  0.60770  1.0000
  C   C72       1.0  0.25238  0.19154  0.59785  1.0000
  C   C73       1.0  0.29987  0.21888  0.62082  1.0000
  C   C74       1.0  0.21697  0.20773  0.60143  1.0000
  C   C75       1.0  0.26411  0.23482  0.62443  1.0000
  C   C76       1.0  0.22267  0.22919  0.61486  1.0000
  H   H76       1.0  0.35380  0.19870  0.57055  1.0000
  H   H77       1.0  0.38051  0.20951  0.59807  1.0000
  H   H78       1.0  0.39647  0.18071  0.58531  1.0000
  H   H79       1.0  0.38084  0.15983  0.62650  1.0000
  H   H80       1.0  0.32817  0.16428  0.64115  1.0000
  H   H81       1.0  0.36711  0.18915  0.63842  1.0000
  H   H82       1.0  0.35159  0.14428  0.58990  1.0000
  H   H83       1.0  0.29695  0.14585  0.60241  1.0000
  H   H84       1.0  0.30982  0.15996  0.57248  1.0000
  H   H85       1.0  0.24500  0.17494  0.58789  1.0000
  H   H86       1.0  0.33136  0.22413  0.62853  1.0000
  H   H87       1.0  0.18445  0.20319  0.59435  1.0000
  C   C77       1.0  0.15835  0.17015  0.72105  1.0000
  H   H88       1.0  0.47829  0.07072  0.91656  1.0000
  H   H89       1.0  0.25115  0.31087  0.60068  1.0000
  H   H90       1.0  0.15190  0.09447  0.71150  1.0000
  C   C78       1.0  0.20757  0.13537  0.71630  1.0000
  C   C79       1.0  0.50511  0.13528  0.58093  1.0000
  H   H91       1.0  0.29389  0.34051  0.57452  1.0000
  C   C80       1.0  0.04356  0.33664  0.97161  1.0000
  C   C81       1.0  0.11713  0.11202  0.96452  1.0000
  C   C82       1.0  0.15540  0.12270  0.95470  1.0000
  H   H92       1.0  0.03819  0.09599  0.89639  1.0000
  H   H93       1.0  0.36563  0.13029  0.89502  1.0000
  N   N6        1.0  0.05735  0.27333  0.94307  1.0000
  H   H94       1.0  0.18373  0.14379  0.92457  1.0000
  H   H95       1.0  0.11465  0.24963  0.94337  1.0000
  C   C83       1.0  0.03309  0.14565  0.89317  1.0000
  H   H96       1.0  0.51878  0.10061  0.59916  1.0000
  C   C84       1.0  0.24211  0.14928  0.72614  1.0000
  H   H97       1.0  0.41775  0.06817  0.98818  1.0000
  H   H98       1.0  0.49179  0.16587  0.64913  1.0000
  C   C85       1.0  0.45104  0.06781  0.95272  1.0000
  H   H99       1.0  0.07649  0.26650  0.90502  1.0000
  H   H100      1.0  0.07618  0.13423  0.67550  1.0000
  H   H101      1.0  0.35511  0.08722  0.88620  1.0000
  H   H102      1.0  0.41864  0.14113  0.90502  1.0000
  N   N7        1.0  0.41875  0.10332  0.89347  1.0000
  C   C86       1.0  0.40176  0.12905  0.89156  1.0000
  C   C87       1.0  0.46343  0.10315  0.88182  1.0000
  C   C88       1.0  0.38957  0.08717  0.87889  1.0000
  C   C89       1.0  0.41928  0.09408  0.91958  1.0000
  C   C90       1.0  0.45165  0.07698  0.92825  1.0000
  C   C91       1.0  0.38538  0.10048  0.93666  1.0000
  C   C92       1.0  0.52192  0.15372  0.56484  1.0000
  C   C93       1.0  0.38515  0.09120  0.96109  1.0000
  H   H103      1.0  0.21036  0.27688  0.58126  1.0000
  C   C94       1.0  0.02744  0.32422  0.60475  1.0000
  C   C95       1.0  0.15399  0.13505  0.93183  1.0000
  C   C96       1.0  0.07713  0.11399  0.95167  1.0000
  H   H104      1.0  0.48837  0.11198  0.89386  1.0000
  C   C97       1.0  0.19311  0.18392  0.73076  1.0000
  C   C98       1.0  0.46915  0.08747  0.77554  1.0000
  C   C99       1.0  0.11410  0.13742  0.91894  1.0000
  C   C100      1.0  0.50840  0.08858  0.78943  1.0000
  H   H105      1.0  0.38870  0.09309  0.85895  1.0000
  C   C101      1.0  0.41798  0.07501  0.96913  1.0000
  H   H106      1.0  0.35883  0.11283  0.93159  1.0000
  H   H107      1.0  0.29683  0.33659  0.52995  1.0000
  H   H108      1.0  0.35953  0.09673  0.97402  1.0000
  C   C102      1.0  0.25292  0.30857  0.58075  1.0000
  C   C103      1.0  0.23496  0.17351  0.73328  1.0000
  H   H109      1.0  0.09511  0.25823  0.97354  1.0000
  H   H110      1.0  0.45193  0.30774  0.01114  1.0000
  S   S27       1.0  0.03885  0.19300  0.71167  1.0000
  S   S28       1.0  0.12946  0.34063  0.52595  1.0000
  C   C104      1.0  0.49220  0.12719  0.96186  1.0000
  H   H111      1.0  0.09221  0.31970  0.94904  1.0000
  C   C105      1.0  0.23063  0.28688  0.54397  1.0000
  H   H112      1.0  0.19476  0.24133  0.61808  1.0000
  H   H113      1.0  0.16312  0.35092  0.57551  1.0000
  H   H114      1.0  0.16458  0.10676  0.68075  1.0000
  H   H115      1.0  0.21098  0.27222  0.53635  1.0000
  H   H116      1.0  0.47483  0.08418  0.87761  1.0000
  C   C106      1.0  0.27679  0.32526  0.56600  1.0000
  C   C107      1.0  0.09265  0.12849  0.72363  1.0000
  H   H117      1.0  0.12649  0.17904  0.71978  1.0000
  H   H118      1.0  0.40687  0.13738  0.87271  1.0000
  H   H119      1.0  0.18606  0.12193  0.96512  1.0000
  H   H120      1.0  0.06012  0.35438  0.97117  1.0000
  C   C108      1.0  0.27806  0.32279  0.54018  1.0000
  H   H121      1.0  0.43971  0.08814  0.73889  1.0000
  H   H122      1.0  0.12486  0.27999  0.95430  1.0000
  H   H123      1.0  0.04477  0.16463  0.89732  1.0000
  H   H124      1.0  0.43781  0.08534  0.78506  1.0000
  H   H125      1.0  0.18742  0.20278  0.73634  1.0000
  H   H126      1.0  0.10691  0.11999  0.74078  1.0000
  H   H127      1.0  0.11539  0.14809  0.90181  1.0000
  H   H128      1.0  0.27497  0.14132  0.72757  1.0000
  H   H129      1.0  0.47683  0.05534  0.95901  1.0000
  H   H130      1.0  0.07842  0.14665  0.72874  1.0000
  H   H131      1.0  0.09505  0.29282  0.53825  1.0000
  Fe  Fe13      1.0  0.04667  0.20709  0.67172  1.0000
  H   H132      1.0  0.36422  0.32883  0.01986  1.0000
  H   H133      1.0  0.05529  0.13767  0.87890  1.0000
  H   H134      1.0  0.06428  0.11695  0.71767  1.0000
  H   H135      1.0  0.09624  0.16300  0.68600  1.0000
  H   H136      1.0  0.40141  0.06771  0.87955  1.0000
  C   C109      1.0  0.10636  0.14385  0.68207  1.0000
  C   C110      1.0  0.23002  0.28936  0.56976  1.0000
  H   H137      1.0  0.09202  0.29602  0.91561  1.0000
  H   H138      1.0  0.04838  0.10541  0.96009  1.0000
  H   H139      1.0  0.11848  0.10254  0.98242  1.0000
  S   S29       1.0  0.50553  0.08675  0.82238  1.0000
  Fe  Fe14      1.0  0.34119  0.14125  0.02021  1.0000
  C   C111      1.0  0.51936  0.14772  0.92459  1.0000
  H   H140      1.0  0.03699  0.18038  0.76326  1.0000
  H   H141      1.0  0.03500  0.28999  0.90877  1.0000
  C   C112      1.0  0.03896  0.29372  0.95787  1.0000
  H   H142      1.0  0.04589  0.33590  0.61714  1.0000
  N   N8        1.0  0.03096  0.12993  0.91603  1.0000
  C   C113      1.0  0.02758  0.25159  0.94196  1.0000
  H   H143      1.0  0.04147  0.23705  0.92992  1.0000
  H   H144      1.0  0.52243  0.19358  0.61635  1.0000
  C   C114      1.0  0.39184  0.34243  0.02024  1.0000
  C   C115      1.0  0.52219  0.12829  0.94199  1.0000
  C   C116      1.0  0.49596  0.07236  0.02189  1.0000
  Fe  Fe15      1.0  0.18363  0.41400  0.47819  1.0000
  S   S30       1.0  0.24619  0.42830  0.49481  1.0000
  S   S31       1.0  0.16118  0.43289  0.44285  1.0000
  Fe  Fe16      1.0  0.26517  0.38880  0.50062  1.0000
  Fe  Fe17      1.0  0.18958  0.64161  0.03772  1.0000
  C   C117      1.0  0.13309  0.64337  0.12842  1.0000
  C   C118      1.0  0.38094  0.44348  0.46919  1.0000
  S   S32       1.0  0.24908  0.66254  0.05095  1.0000
  H   H145      1.0  0.05909  0.49119  0.02816  1.0000
  S   S33       1.0  0.15116  0.60917  0.05431  1.0000
  H   H146      1.0  0.16541  0.63981  0.13760  1.0000
  Fe  Fe18      1.0  0.08996  0.47890  0.18514  1.0000
  S   S34       1.0  0.10798  0.44615  0.16207  1.0000
  H   H147      1.0  0.11519  0.51417  0.43132  1.0000
  Fe  Fe19      1.0  0.15695  0.51177  0.15773  1.0000
  S   S35       1.0  0.17984  0.48146  0.13308  1.0000
  S   S36       1.0  0.19308  0.54822  0.15324  1.0000
  Fe  Fe20      1.0  0.10782  0.47260  0.12971  1.0000
  Fe  Fe21      1.0  0.17846  0.45761  0.16733  1.0000
  S   S37       1.0  0.23050  0.42928  0.17799  1.0000
  S   S38       1.0  0.08437  0.50476  0.15185  1.0000
  S   S39       1.0  0.16097  0.48850  0.19289  1.0000
  C   C119      1.0  0.09311  0.49790  0.43391  1.0000
  S   S40       1.0  0.38691  0.39458  0.10781  1.0000
  H   H148      1.0  0.38500  0.42335  0.32817  1.0000
  N   N9        1.0  0.51475  0.43432  0.44255  1.0000
  C   C120      1.0  0.27477  0.42085  0.15840  1.0000
  C   C121      1.0  0.27858  0.42998  0.13402  1.0000
  C   C122      1.0  0.31348  0.42208  0.11877  1.0000
  C   C123      1.0  0.34511  0.40527  0.12787  1.0000
  C   C124      1.0  0.34189  0.39660  0.15243  1.0000
  C   C125      1.0  0.30672  0.40430  0.16758  1.0000
  H   H149      1.0  0.25452  0.44291  0.12679  1.0000
  H   H150      1.0  0.31593  0.42888  0.09980  1.0000
  H   H151      1.0  0.34726  0.44478  0.47606  1.0000
  H   H152      1.0  0.30401  0.39721  0.18642  1.0000
  H   H153      1.0  0.05159  0.52780  0.28065  1.0000
  C   C126      1.0  0.03242  0.52293  0.44684  1.0000
  C   C127      1.0  0.16957  0.66806  0.09678  1.0000
  C   C128      1.0  0.16572  0.59199  0.08121  1.0000
  C   C129      1.0  0.14056  0.57102  0.08750  1.0000
  C   C130      1.0  0.14928  0.55732  0.10931  1.0000
  C   C131      1.0  0.18285  0.56474  0.12529  1.0000
  C   C132      1.0  0.20825  0.58569  0.11905  1.0000
  C   C133      1.0  0.19998  0.59919  0.09692  1.0000
  H   H154      1.0  0.11415  0.56532  0.07544  1.0000
  H   H155      1.0  0.12967  0.54118  0.11389  1.0000
  H   H156      1.0  0.23441  0.59145  0.13131  1.0000
  H   H157      1.0  0.21975  0.61524  0.09216  1.0000
  S   S41       1.0  0.14559  0.41341  0.51403  1.0000
  H   H158      1.0  0.17771  0.41745  0.09573  1.0000
  C   C134      1.0  0.33130  0.39298  0.26504  1.0000
  C   C135      1.0  0.10665  0.42757  0.43315  1.0000
  H   H159      1.0  0.48772  0.41314  0.04550  1.0000
  H   H160      1.0  0.06322  0.54347  0.48501  1.0000
  H   H161      1.0  0.16601  0.65367  0.08245  1.0000
  H   H162      1.0  0.09611  0.38300  0.10207  1.0000
  C   C136      1.0  0.36248  0.37322  0.46727  1.0000
  C   C137      1.0  0.02654  0.48012  0.24275  1.0000
  Fe  Fe22      1.0  0.44359  0.37248  0.12439  1.0000
  C   C138      1.0  0.03324  0.41047  0.43984  1.0000
  C   C139      1.0  0.07761  0.41281  0.44721  1.0000
  H   H163      1.0  0.20216  0.66471  0.10562  1.0000
  H   H164      1.0  0.10702  0.64260  0.14306  1.0000
  H   H165      1.0  0.11642  0.46915  0.47850  1.0000
  C   C140      1.0  0.45982  0.44752  0.47580  1.0000
  H   H166      1.0  0.05193  0.54005  0.44336  1.0000
  H   H167      1.0  0.40971  0.45624  0.50295  1.0000
  C   C141      1.0  0.43232  0.43220  0.43678  1.0000
  C   C142      1.0  0.42088  0.38126  0.26800  1.0000
  H   H168      1.0  0.30537  0.38330  0.44563  1.0000
  C   C143      1.0  0.08314  0.52800  0.49109  1.0000
  C   C144      1.0  0.41626  0.44984  0.48433  1.0000
  C   C145      1.0  0.09079  0.66846  0.10010  1.0000
  H   H169      1.0  0.08845  0.68605  0.08915  1.0000
  H   H170      1.0  0.03557  0.44712  0.38788  1.0000
  S   S42       1.0  0.03391  0.46948  0.21203  1.0000
  C   C146      1.0  0.07919  0.52888  0.03185  1.0000
  S   S43       1.0  0.49134  0.38591  0.15303  1.0000
  C   C147      1.0  0.44448  0.37105  0.32113  1.0000
  C   C148      1.0  0.16282  0.41376  0.11430  1.0000
  S   S44       1.0  0.20542  0.37457  0.48087  1.0000
  C   C149      1.0  0.39915  0.40497  0.33308  1.0000
  N   N10       1.0  0.31165  0.50453  0.15129  1.0000
  C   C150      1.0  0.27883  0.49661  0.17043  1.0000
  C   C151      1.0  0.32691  0.52962  0.15769  1.0000
  C   C152      1.0  0.28836  0.50595  0.12707  1.0000
  C   C153      1.0  0.35011  0.48772  0.14947  1.0000
  C   C154      1.0  0.35591  0.46677  0.16546  1.0000
  C   C155      1.0  0.38322  0.49202  0.13112  1.0000
  C   C156      1.0  0.39219  0.45103  0.16278  1.0000
  C   C157      1.0  0.41904  0.47595  0.12843  1.0000
  C   C158      1.0  0.42334  0.45541  0.14413  1.0000
  H   H171      1.0  0.26523  0.47802  0.16649  1.0000
  H   H172      1.0  0.29330  0.49627  0.18941  1.0000
  H   H173      1.0  0.25011  0.50942  0.17118  1.0000
  H   H174      1.0  0.34531  0.52932  0.17557  1.0000
  H   H175      1.0  0.29849  0.54261  0.15964  1.0000
  H   H176      1.0  0.34908  0.53778  0.14323  1.0000
  H   H177      1.0  0.27871  0.48725  0.12085  1.0000
  H   H178      1.0  0.25777  0.51736  0.12815  1.0000
  H   H179      1.0  0.30878  0.51462  0.11213  1.0000
  H   H180      1.0  0.33248  0.46174  0.17987  1.0000
  H   H181      1.0  0.38142  0.50771  0.11851  1.0000
  H   H182      1.0  0.39559  0.43490  0.17484  1.0000
  H   H183      1.0  0.44348  0.47927  0.11397  1.0000
  H   H184      1.0  0.45066  0.44269  0.14172  1.0000
  S   S45       1.0  0.08562  0.46427  0.09085  1.0000
  C   C159      1.0  0.04712  0.50154  0.25107  1.0000
  C   C160      1.0  0.09145  0.43956  0.41155  1.0000
  H   H185      1.0  0.04916  0.52368  0.09428  1.0000
  C   C161      1.0  0.03201  0.47969  0.45670  1.0000
  H   H186      1.0  0.46223  0.37300  0.33904  1.0000
  H   H187      1.0  0.21747  0.38500  0.08131  1.0000
  C   C162      1.0  0.13701  0.49001  0.50943  1.0000
  N   N11       1.0  0.42567  0.39488  0.31231  1.0000
  H   H188      1.0  0.06107  0.66660  0.11222  1.0000
  N   N12       1.0  0.13233  0.66737  0.11475  1.0000
  S   S46       1.0  0.14890  0.67562  0.02970  1.0000
  H   H189      1.0  0.11399  0.45068  0.40041  1.0000
  H   H190      1.0  0.48295  0.41553  0.32389  1.0000
  C   C163      1.0  0.04703  0.43766  0.40450  1.0000
  H   H191      1.0  0.50042  0.43871  0.40325  1.0000
  H   H192      1.0  0.44988  0.43049  0.30018  1.0000
  H   H193      1.0  0.37201  0.39213  0.33875  1.0000
  H   H194      1.0  0.33506  0.38017  0.22745  1.0000
  N   N13       1.0  0.06090  0.50177  0.45429  1.0000
  C   C164      1.0  0.10798  0.53124  0.51268  1.0000
  H   H195      1.0  0.18350  0.42327  0.12824  1.0000
  C   C165      1.0  0.04031  0.44435  0.08779  1.0000
  H   H196      1.0  0.08905  0.65329  0.08639  1.0000
  H   H197      1.0  0.12988  0.42290  0.11403  1.0000
  H   H198      1.0  0.51414  0.46674  0.41888  1.0000
  C   C166      1.0  0.11270  0.48663  0.48772  1.0000
  H   H199      1.0  0.05110  0.46242  0.45981  1.0000
  H   H200      1.0  0.48578  0.40542  0.29282  1.0000
  H   H201      1.0  0.07622  0.49454  0.41590  1.0000
  C   C167      1.0  0.46916  0.43852  0.45167  1.0000
  C   C168      1.0  0.38897  0.43495  0.44538  1.0000
  H   H202      1.0  0.11481  0.48170  0.43753  1.0000
  C   C169      1.0  0.17617  0.69002  0.14680  1.0000
  H   H203      1.0  0.08919  0.40341  0.46385  1.0000
  C   C170      1.0  0.13700  0.68774  0.13253  1.0000
  Fe  Fe23      1.0  0.17220  0.37457  0.51844  1.0000
  H   H204      1.0  0.07013  0.51135  0.23906  1.0000
  H   H205      1.0  0.43670  0.42430  0.41864  1.0000
  H   H206      1.0  0.04508  0.44448  0.04786  1.0000
  C   C171      1.0  0.39999  0.39105  0.28931  1.0000
  H   H207      1.0  0.17145  0.68632  0.08701  1.0000
  H   H208      1.0  0.33537  0.40425  0.30237  1.0000
  H   H209      1.0  0.36604  0.38360  0.15959  1.0000
  C   C172      1.0  0.08506  0.50554  0.47780  1.0000
  C   C173      1.0  0.46247  0.41236  0.30709  1.0000
  H   H210      1.0  0.15501  0.39428  0.15973  1.0000
  H   H211      1.0  0.12742  0.62763  0.11577  1.0000
  H   H212      1.0  0.41965  0.40749  0.35003  1.0000
  C   C174      1.0  0.20351  0.37560  0.12017  1.0000
  H   H213      1.0  0.29643  0.39751  0.26374  1.0000
  H   H214      1.0  0.09829  0.52518  0.04854  1.0000
  H   H215      1.0  0.15836  0.47537  0.51646  1.0000
  C   C175      1.0  0.02656  0.43802  0.06394  1.0000
  N   N14       1.0  0.15904  0.38708  0.12045  1.0000
  C   C176      1.0  0.52144  0.44666  0.41796  1.0000
  C   C177      1.0  0.03644  0.51085  0.27463  1.0000
  C   C178      1.0  0.36244  0.37703  0.42221  1.0000
  H   H216      1.0  0.36136  0.42969  0.43382  1.0000
  H   H217      1.0  0.02691  0.44060  0.12701  1.0000
  C   C179      1.0  0.35424  0.39682  0.28720  1.0000
  C   C180      1.0  0.35295  0.38324  0.24453  1.0000
  H   H218      1.0  0.20292  0.67696  0.14509  1.0000
  H   H219      1.0  0.09366  0.56777  0.03115  1.0000
  C   C181      1.0  0.39766  0.37735  0.24603  1.0000
  H   H220      1.0  0.42615  0.38409  0.04642  1.0000
  H   H221      1.0  0.48550  0.45250  0.48863  1.0000
  H   H222      1.0  0.03259  0.56716  0.08275  1.0000
  H   H223      1.0  0.14270  0.37855  0.08243  1.0000
  C   C182      1.0  0.49337  0.39408  0.04063  1.0000
  H   H224      1.0  0.10279  0.39341  0.14444  1.0000
  C   C183      1.0  0.33997  0.37824  0.44511  1.0000
  C   C184      1.0  0.45828  0.37724  0.04103  1.0000
  C   C185      1.0  0.13621  0.38476  0.14488  1.0000
  H   H225      1.0  0.34486  0.38121  0.40519  1.0000
  S   S47       1.0  0.33569  0.37478  0.49647  1.0000
  C   C186      1.0  0.13038  0.37539  0.10168  1.0000
  H   H226      1.0  0.45550  0.37646  0.26816  1.0000
  S   S48       1.0  0.43469  0.37094  0.39204  1.0000
  C   C187      1.0  0.40753  0.37082  0.42124  1.0000
  C   C188      1.0  0.22934  0.37604  0.09808  1.0000
  Fe  Fe24      1.0  0.20997  0.69652  0.04026  1.0000
  H   H227      1.0  0.50017  0.39960  0.42526  1.0000
  C   C189      1.0  0.52168  0.40747  0.43985  1.0000
  H   H228      1.0  0.51439  0.39726  0.45753  1.0000
  H   H229      1.0  0.41458  0.36959  0.23013  1.0000
  C   C190      1.0  0.13479  0.51229  0.52181  1.0000
  H   H230      1.0  0.10696  0.54867  0.52222  1.0000
  S   S49       1.0  0.23693  0.69855  0.00123  1.0000
  S   S50       1.0  0.23373  0.38609  0.53859  1.0000
  Fe  Fe25      1.0  0.27187  0.66330  0.01097  1.0000
  H   H231      1.0  0.15140  0.59923  0.74868  1.0000
  S   S51       1.0  0.06788  0.62215  0.58413  1.0000
  Fe  Fe26      1.0  0.10176  0.55144  0.63978  1.0000
  S   S52       1.0  0.14634  0.57893  0.62081  1.0000
  S   S53       1.0  0.09302  0.51171  0.62850  1.0000
  Fe  Fe27      1.0  0.06030  0.59023  0.67380  1.0000
  S   S54       1.0  0.10091  0.62103  0.65682  1.0000
  C   C191      1.0  0.31063  0.68123  0.90710  1.0000
  Fe  Fe28      1.0  0.08630  0.60334  0.62029  1.0000
  Fe  Fe29      1.0  0.15704  0.59394  0.65897  1.0000
  S   S55       1.0  0.22281  0.60288  0.67662  1.0000
  S   S56       1.0  0.04110  0.57489  0.63692  1.0000
  S   S57       1.0  0.11712  0.56413  0.67840  1.0000
  C   C192      1.0  0.03325  0.51423  0.99837  1.0000
  S   S58       1.0  0.46411  0.67471  0.66707  1.0000
  H   H232      1.0  0.29248  0.46631  0.60914  1.0000
  H   H233      1.0  0.27125  0.64219  0.93309  1.0000
  Fe  Fe30      1.0  0.17931  0.67430  0.99168  1.0000
  S   S59       1.0  0.21585  0.63903  0.99879  1.0000
  S   S60       1.0  0.14479  0.67936  0.95483  1.0000
  H   H234      1.0  0.19748  0.60371  0.72781  1.0000
  S   S61       1.0  0.34224  0.65448  0.99865  1.0000
  Fe  Fe31      1.0  0.41591  0.69369  0.64164  1.0000
  H   H235      1.0  0.26131  0.49167  0.69799  1.0000
  C   C193      1.0  0.10481  0.64635  0.77040  1.0000
  C   C194      1.0  0.37439  0.67447  0.97936  1.0000
  H   H236      1.0  0.28447  0.50049  0.63776  1.0000
  C   C195      1.0  0.35918  0.69788  0.97227  1.0000
  C   C196      1.0  0.26453  0.46674  0.62180  1.0000
  H   H237      1.0  0.42781  0.64843  0.97592  1.0000
  C   C197      1.0  0.05736  0.58667  0.77076  1.0000
  Fe  Fe32      1.0  0.51740  0.69448  0.64536  1.0000
  C   C198      1.0  0.07917  0.65913  0.92667  1.0000
  C   C199      1.0  0.09798  0.66061  0.95039  1.0000
  C   C200      1.0  0.07888  0.64745  0.97027  1.0000
  C   C201      1.0  0.23230  0.67371  0.90125  1.0000
  C   C202      1.0  0.21483  0.53224  0.65703  1.0000
  H   H238      1.0  0.42643  0.68742  0.87446  1.0000
  H   H239      1.0  0.09319  0.64848  0.98861  1.0000
  H   H240      1.0  0.19910  0.67194  0.91023  1.0000
  C   C203      1.0  0.25907  0.62405  0.66164  1.0000
  C   C204      1.0  0.25061  0.63308  0.63764  1.0000
  C   C205      1.0  0.28069  0.64939  0.62592  1.0000
  C   C206      1.0  0.31915  0.65703  0.63819  1.0000
  C   C207      1.0  0.32724  0.64831  0.66236  1.0000
  C   C208      1.0  0.29738  0.63178  0.67399  1.0000
  H   H241      1.0  0.22125  0.62723  0.62793  1.0000
  H   H242      1.0  0.27423  0.65600  0.60721  1.0000
  H   H243      1.0  0.35677  0.65407  0.67198  1.0000
  H   H244      1.0  0.30422  0.62487  0.69255  1.0000
  H   H245      1.0  0.25341  0.52432  0.70194  1.0000
  H   H246      1.0  0.28849  0.66517  0.95502  1.0000
  C   C209      1.0  0.38754  0.66764  0.90177  1.0000
  H   H247      1.0  0.17049  0.43499  0.63481  1.0000
  C   C210      1.0  0.18432  0.47368  0.57294  1.0000
  C   C211      1.0  0.19434  0.49745  0.58115  1.0000
  C   C212      1.0  0.16543  0.50985  0.59711  1.0000
  C   C213      1.0  0.12718  0.49810  0.60588  1.0000
  C   C214      1.0  0.11654  0.47454  0.59720  1.0000
  C   C215      1.0  0.14473  0.46247  0.58048  1.0000
  H   H248      1.0  0.22488  0.50623  0.57528  1.0000
  H   H249      1.0  0.17351  0.52821  0.60302  1.0000
  H   H250      1.0  0.08689  0.46535  0.60385  1.0000
  H   H251      1.0  0.13687  0.44409  0.57434  1.0000
  C   C216      1.0  0.04122  0.64470  0.92285  1.0000
  C   C217      1.0  0.25667  0.50959  0.68788  1.0000
  H   H252      1.0  0.09156  0.67861  0.60266  1.0000
  H   H253      1.0  0.15962  0.46862  0.66306  1.0000
  N   N15       1.0  0.16371  0.63703  0.73803  1.0000
  H   H254      1.0  0.18492  0.53254  0.64511  1.0000
  C   C218      1.0  0.04044  0.63344  0.96656  1.0000
  H   H255      1.0  0.02678  0.64374  0.90453  1.0000
  H   H256      1.0  0.07955  0.58211  0.73286  1.0000
  H   H257      1.0  0.10802  0.69981  0.56265  1.0000
  H   H258      1.0  0.22891  0.68807  0.88642  1.0000
  C   C219      1.0  0.05713  0.50971  0.02024  1.0000
  H   H259      1.0  0.21290  0.54845  0.66943  1.0000
  H   H260      1.0  0.06788  0.54872  0.94361  1.0000
  H   H261      1.0  0.15437  0.51495  0.53835  1.0000
  C   C220      1.0  0.03094  0.53834  0.98752  1.0000
  H   H262      1.0  0.12703  0.64300  0.78571  1.0000
  C   C221      1.0  0.05226  0.55758  0.00049  1.0000
  H   H263      1.0  0.46088  0.68679  0.78211  1.0000
  H   H264      1.0  0.04638  0.56265  0.55430  1.0000
  C   C222      1.0  0.17903  0.65098  0.71553  1.0000
  C   C223      1.0  0.39412  0.68533  0.88305  1.0000
  H   H265      1.0  0.05109  0.65225  0.79611  1.0000
  S   S62       1.0  0.03069  0.59413  0.81883  1.0000
  H   H266      1.0  0.23142  0.66042  0.94873  1.0000
  H   H267      1.0  0.23644  0.43338  0.60772  1.0000
  H   H268      1.0  0.23974  0.65588  0.89220  1.0000
  H   H269      1.0  0.24391  0.53544  0.64474  1.0000
  C   C224      1.0  0.03278  0.55785  0.57299  1.0000
  H   H270      1.0  0.39049  0.69658  0.57752  1.0000
  H   H271      1.0  0.14661  0.50752  0.67623  1.0000
  H   H272      1.0  0.05077  0.57653  0.99389  1.0000
  S   S63       1.0  0.22394  0.45811  0.55498  1.0000
  H   H273      1.0  0.21455  0.64740  0.71128  1.0000
  H   H274      1.0  0.03715  0.51716  0.54625  1.0000
  H   H275      1.0  0.04286  0.57715  0.95328  1.0000
  H   H276      1.0  0.09121  0.64410  0.70751  1.0000
  C   C225      1.0  0.35953  0.70080  0.87592  1.0000
  H   H277      1.0  0.14208  0.60628  0.71643  1.0000
  H   H278      1.0  0.09381  0.66928  0.91123  1.0000
  H   H279      1.0  0.17761  0.48980  0.69909  1.0000
  C   C226      1.0  0.02937  0.65517  0.75828  1.0000
  H   H280      1.0  0.16155  0.64544  0.69839  1.0000
  C   C227      1.0  0.31829  0.69875  0.88761  1.0000
  H   H281      1.0  0.04526  0.50941  0.57820  1.0000
  H   H282      1.0  0.19166  0.62863  0.77418  1.0000
  C   C228      1.0  0.19660  0.64136  0.75796  1.0000
  H   H283      1.0  0.06076  0.55185  0.58510  1.0000
  C   C229      1.0  0.08475  0.64722  0.72690  1.0000
  C   C230      1.0  0.03579  0.55822  0.94673  1.0000
  Fe  Fe33      1.0  0.20997  0.42496  0.53116  1.0000
  C   C231      1.0  0.25933  0.48632  0.63811  1.0000
  C   C232      1.0  0.17757  0.50698  0.68746  1.0000
  C   C233      1.0  0.16373  0.61039  0.73253  1.0000
  C   C234      1.0  0.22198  0.48784  0.65409  1.0000
  C   C235      1.0  0.41562  0.66647  0.97041  1.0000
  H   H284      1.0  0.28768  0.51374  0.67748  1.0000
  H   H285      1.0  0.02521  0.62382  0.98214  1.0000
  C   C236      1.0  0.06493  0.68635  0.59157  1.0000
  H   H286      1.0  0.19510  0.66076  0.76436  1.0000
  C   C237      1.0  0.44098  0.68152  0.95412  1.0000
  C   C238      1.0  0.23295  0.44809  0.62099  1.0000
  C   C239      1.0  0.18998  0.46868  0.65247  1.0000
  H   H287      1.0  0.34457  0.65213  0.92881  1.0000
  C   C240      1.0  0.05232  0.58704  0.74476  1.0000
  H   H288      1.0  0.47241  0.67504  0.94715  1.0000
  C   C241      1.0  0.06104  0.65180  0.77673  1.0000
  C   C242      1.0  0.34662  0.66562  0.91383  1.0000
  C   C243      1.0  0.19577  0.44908  0.63623  1.0000
  H   H289      1.0  0.17537  0.52273  0.70041  1.0000
  N   N16       1.0  0.21753  0.50868  0.67137  1.0000
  H   H290      1.0  0.08884  0.58168  0.77885  1.0000
  H   H291      1.0  0.41491  0.65604  0.90765  1.0000
  C   C244      1.0  0.04119  0.65287  0.73343  1.0000
  N   N17       1.0  0.26693  0.67991  0.91957  1.0000
  C   C245      1.0  0.26472  0.66107  0.93992  1.0000
  C   C246      1.0  0.11822  0.64428  0.74516  1.0000
  H   H292      1.0  0.17478  0.67120  0.71779  1.0000
  C   C247      1.0  0.07405  0.69810  0.56892  1.0000
  S   S64       1.0  0.35644  0.67709  0.62244  1.0000
  H   H293      1.0  0.23106  0.63790  0.75149  1.0000
  H   H294      1.0  0.38365  0.70252  0.54519  1.0000
  H   H295      1.0  0.51607  0.66044  0.72951  1.0000
  S   S65       1.0  0.45294  0.70085  0.73084  1.0000
  C   C248      1.0  0.48262  0.70237  0.77885  1.0000
  C   C249      1.0  0.07651  0.55280  0.02209  1.0000
  Fe  Fe34      1.0  0.29979  0.88617  0.49502  1.0000
  H   H296      1.0  0.49861  0.99565  0.43155  1.0000
  S   S66       1.0  0.26506  0.87280  0.46042  1.0000
  Fe  Fe35      1.0  0.39433  0.89765  0.50967  1.0000
  S   S67       1.0  0.46498  0.90317  0.49761  1.0000
  S   S68       1.0  0.34007  0.92105  0.49382  1.0000
  S   S69       1.0  0.21389  0.72959  0.06548  1.0000
  Fe  Fe36      1.0  0.43692  0.96264  0.12588  1.0000
  S   S70       1.0  0.47498  0.98967  0.14839  1.0000
  S   S71       1.0  0.46666  0.93792  0.09695  1.0000
  Fe  Fe37      1.0  0.34901  0.97492  0.15071  1.0000
  S   S72       1.0  0.38049  0.00329  0.17531  1.0000
  S   S73       1.0  0.27469  0.96881  0.15192  1.0000
  Fe  Fe38      1.0  0.41763  0.01516  0.14064  1.0000
  Fe  Fe39      1.0  0.43501  0.97548  0.18082  1.0000
  S   S74       1.0  0.46461  0.95986  0.21666  1.0000
  S   S75       1.0  0.38243  0.98894  0.11577  1.0000
  S   S76       1.0  0.40059  0.94632  0.15863  1.0000
  S   S77       1.0  0.35613  0.86224  0.50832  1.0000
  H   H297      1.0  0.41618  0.00625  0.02680  1.0000
  Fe  Fe40      1.0  0.11002  0.85578  0.15147  1.0000
  S   S78       1.0  0.08221  0.82310  0.17304  1.0000
  S   S79       1.0  0.18410  0.86262  0.15320  1.0000
  Fe  Fe41      1.0  0.05114  0.81298  0.13675  1.0000
  H   H298      1.0  0.47285  0.99686  0.08788  1.0000
  H   H299      1.0  0.48058  0.85786  0.45950  1.0000
  H   H300      1.0  0.10905  0.84767  0.04998  1.0000
  S   S80       1.0  0.08241  0.84377  0.11495  1.0000
  H   H301      1.0  0.13875  0.81195  0.07071  1.0000
  S   S81       1.0  0.05629  0.87360  0.44797  1.0000
  H   H302      1.0  0.20259  0.88262  0.35498  1.0000
  C   C250      1.0  0.14906  0.90239  0.08927  1.0000
  H   H303      1.0  0.48414  0.98997  0.35083  1.0000
  H   H304      1.0  0.22078  0.90650  0.37493  1.0000
  C   C251      1.0  0.25005  0.93913  0.15188  1.0000
  C   C252      1.0  0.27551  0.91762  0.15138  1.0000
  C   C253      1.0  0.25477  0.89434  0.15177  1.0000
  C   C254      1.0  0.20845  0.89233  0.15262  1.0000
  C   C255      1.0  0.18292  0.91382  0.15286  1.0000
  C   C256      1.0  0.20369  0.93711  0.15250  1.0000
  H   H305      1.0  0.31116  0.91891  0.15085  1.0000
  H   H306      1.0  0.27475  0.87781  0.15159  1.0000
  H   H307      1.0  0.14725  0.91251  0.15348  1.0000
  H   H308      1.0  0.18376  0.95366  0.15287  1.0000
  C   C257      1.0  0.41198  0.97293  0.50504  1.0000
  C   C258      1.0  0.39620  0.97536  0.29693  1.0000
  C   C259      1.0  0.46959  0.98535  0.33258  1.0000
  N   N18       1.0  0.43841  0.00468  0.32379  1.0000
  C   C260      1.0  0.51626  0.93998  0.43817  1.0000
  C   C261      1.0  0.37797  0.96858  0.27420  1.0000
  H   H309      1.0  0.19573  0.87874  0.38781  1.0000
  C   C262      1.0  0.09340  0.76343  0.10413  1.0000
  C   C263      1.0  0.08751  0.74477  0.08667  1.0000
  C   C264      1.0  0.12410  0.73440  0.07447  1.0000
  C   C265      1.0  0.16688  0.74234  0.07999  1.0000
  C   C266      1.0  0.17275  0.76094  0.09749  1.0000
  C   C267      1.0  0.13616  0.77160  0.10939  1.0000
  H   H310      1.0  0.05448  0.73842  0.08251  1.0000
  H   H311      1.0  0.39244  0.98577  0.49304  1.0000
  H   H312      1.0  0.20582  0.76690  0.10207  1.0000
  H   H313      1.0  0.14103  0.78561  0.12317  1.0000
  C   C268      1.0  0.47058  0.91790  0.46844  1.0000
  S   S82       1.0  0.48631  0.95446  0.39175  1.0000
  H   H314      1.0  0.47246  0.88286  0.37065  1.0000
  C   C269      1.0  0.48080  0.94092  0.42155  1.0000
  C   C270      1.0  0.44005  0.93071  0.42862  1.0000
  C   C271      1.0  0.43493  0.91926  0.45202  1.0000
  H   H315      1.0  0.08471  0.89194  0.35989  1.0000
  H   H316      1.0  0.41504  0.01276  0.36066  1.0000
  H   H317      1.0  0.41253  0.93128  0.41585  1.0000
  H   H318      1.0  0.40379  0.91071  0.45692  1.0000
  C   C272      1.0  0.20683  0.87149  0.45829  1.0000
  C   C273      1.0  0.18752  0.85974  0.43796  1.0000
  C   C274      1.0  0.14133  0.85975  0.43475  1.0000
  C   C275      1.0  0.11419  0.87167  0.45184  1.0000
  C   C276      1.0  0.13346  0.88273  0.47258  1.0000
  C   C277      1.0  0.17961  0.88268  0.47581  1.0000
  H   H319      1.0  0.20842  0.85055  0.42468  1.0000
  H   H320      1.0  0.12669  0.85041  0.41926  1.0000
  H   H321      1.0  0.11259  0.89178  0.48599  1.0000
  H   H322      1.0  0.19410  0.89169  0.49159  1.0000
  H   H323      1.0  0.22559  0.84401  0.10798  1.0000
  C   C278      1.0  0.51443  0.96127  0.25884  1.0000
  H   H324      1.0  0.17358  0.93759  0.35309  1.0000
  H   H325      1.0  0.16018  0.91316  0.33203  1.0000
  H   H326      1.0  0.51492  0.93550  0.14272  1.0000
  C   C279      1.0  0.36221  0.79185  0.51448  1.0000
  N   N19       1.0  0.45246  0.98494  0.51469  1.0000
  H   H327      1.0  0.20741  0.88209  0.09717  1.0000
  C   C280      1.0  0.10936  0.72480  0.15310  1.0000
  C   C281      1.0  0.50504  0.99880  0.45105  1.0000
  C   C282      1.0  0.20415  0.83048  0.09850  1.0000
  H   H328      1.0  0.07051  0.92652  0.38111  1.0000
  H   H329      1.0  0.37708  0.02051  0.33596  1.0000
  C   C283      1.0  0.47633  0.87693  0.38975  1.0000
  H   H330      1.0  0.42020  0.95611  0.49440  1.0000
  C   C284      1.0  0.51837  0.87545  0.40149  1.0000
  H   H331      1.0  0.15333  0.74215  0.17871  1.0000
  H   H332      1.0  0.22287  0.81282  0.09869  1.0000
  C   C285      1.0  0.23247  0.84462  0.05884  1.0000
  H   H333      1.0  0.06166  0.78282  0.29766  1.0000
  N   N20       1.0  0.14987  0.90426  0.37085  1.0000
  C   C286      1.0  0.11741  0.88449  0.36556  1.0000
  C   C287      1.0  0.15028  0.92212  0.34967  1.0000
  C   C288      1.0  0.19424  0.89258  0.37229  1.0000
  C   C289      1.0  0.13698  0.91711  0.39382  1.0000
  C   C290      1.0  0.46296  0.02846  0.32312  1.0000
  C   C291      1.0  0.48578  0.01208  0.07571  1.0000
  C   C292      1.0  0.51776  0.92704  0.16158  1.0000
  N   N21       1.0  0.47483  0.00810  0.04927  1.0000
  H   H334      1.0  0.16307  0.82085  0.04104  1.0000
  H   H335      1.0  0.15935  0.91780  0.10046  1.0000
  H   H336      1.0  0.12813  0.87270  0.34992  1.0000
  H   H337      1.0  0.11190  0.87229  0.38211  1.0000
  H   H338      1.0  0.11707  0.93033  0.34627  1.0000
  H   H339      1.0  0.08331  0.79101  0.25456  1.0000
  S   S83       1.0  0.04711  0.77483  0.12036  1.0000
  C   C293      1.0  0.51873  0.86803  0.42694  1.0000
  H   H340      1.0  0.22450  0.85112  0.03963  1.0000
  H   H341      1.0  0.47445  0.96836  0.05335  1.0000
  H   H342      1.0  0.48804  0.95091  0.51980  1.0000
  H   H343      1.0  0.03308  0.79951  0.33245  1.0000
  H   H344      1.0  0.49693  0.01084  0.22058  1.0000
  C   C294      1.0  0.09490  0.88324  0.06313  1.0000
  C   C295      1.0  0.38897  0.77133  0.51083  1.0000
  H   H345      1.0  0.47136  0.02950  0.08279  1.0000
  H   H346      1.0  0.50660  0.94184  0.26060  1.0000
  C   C296      1.0  0.04858  0.78938  0.25937  1.0000
  S   S84       1.0  0.05257  0.88074  0.15975  1.0000
  C   C297      1.0  0.10342  0.70563  0.13639  1.0000
  C   C298      1.0  0.12202  0.86247  0.06093  1.0000
  H   H347      1.0  0.11917  0.72037  0.06074  1.0000
  C   C299      1.0  0.17633  0.88169  0.08733  1.0000
  N   N22       1.0  0.19164  0.83854  0.07294  1.0000
  C   C300      1.0  0.14864  0.72686  0.16629  1.0000
  H   H348      1.0  0.49100  0.02795  0.30966  1.0000
  H   H349      1.0  0.06589  0.85342  0.23333  1.0000
  H   H350      1.0  0.40972  0.77058  0.49440  1.0000
  H   H351      1.0  0.09151  0.85653  0.27696  1.0000
  C   C301      1.0  0.51125  0.92830  0.46149  1.0000
  C   C302      1.0  0.40228  0.00683  0.34231  1.0000
  C   C303      1.0  0.04205  0.85395  0.24834  1.0000
  H   H352      1.0  0.45378  0.96702  0.33528  1.0000
  C   C304      1.0  0.10817  0.90301  0.07747  1.0000
  C   C305      1.0  0.16310  0.86074  0.07371  1.0000
  C   C306      1.0  0.50896  0.00008  0.23627  1.0000
  C   C307      1.0  0.42323  0.01330  0.27783  1.0000
  C   C308      1.0  0.49831  0.97501  0.23847  1.0000
  H   H353      1.0  0.36106  0.95106  0.27248  1.0000
  C   C309      1.0  0.48315  0.99377  0.49490  1.0000
  C   C310      1.0  0.17017  0.81711  0.06100  1.0000
  H   H354      1.0  0.25471  0.82833  0.05749  1.0000
  H   H355      1.0  0.19901  0.91230  0.41474  1.0000
  H   H356      1.0  0.39210  0.96270  0.31248  1.0000
  C   C311      1.0  0.03575  0.78484  0.28401  1.0000
  H   H357      1.0  0.40563  0.87289  0.39368  1.0000
  C   C312      1.0  0.15208  0.93153  0.43597  1.0000
  H   H358      1.0  0.25171  0.85952  0.06780  1.0000
  H   H359      1.0  0.49743  0.98323  0.31931  1.0000
  H   H360      1.0  0.19157  0.80038  0.06157  1.0000
  H   H361      1.0  0.08634  0.91868  0.07971  1.0000
  C   C313      1.0  0.43742  0.87121  0.40279  1.0000
  H   H362      1.0  0.41086  0.99180  0.05709  1.0000
  C   C314      1.0  0.41967  0.99789  0.29944  1.0000
  C   C315      1.0  0.18191  0.70942  0.16326  1.0000
  H   H363      1.0  0.44645  0.98057  0.46248  1.0000
  H   H364      1.0  0.40872  0.86033  0.43797  1.0000
  C   C316      1.0  0.43906  0.86403  0.42774  1.0000
  H   H365      1.0  0.17438  0.82772  0.11043  1.0000
  C   C317      1.0  0.05647  0.85567  0.27310  1.0000
  H   H366      1.0  0.08369  0.73859  0.15530  1.0000
  H   H367      1.0  0.38510  0.98896  0.34578  1.0000
  C   C318      1.0  0.38206  0.98409  0.25343  1.0000
  C   C319      1.0  0.42595  0.00767  0.04664  1.0000
  S   S85       1.0  0.04590  0.85838  0.32366  1.0000
  C   C320      1.0  0.09412  0.92751  0.39606  1.0000
  C   C321      1.0  0.47515  0.99025  0.46917  1.0000
  C   C322      1.0  0.49403  0.02837  0.03384  1.0000
  H   H368      1.0  0.52174  0.91081  0.06377  1.0000
  H   H369      1.0  0.47795  0.03265  0.34144  1.0000
  H   H370      1.0  0.06259  0.88372  0.05439  1.0000
  C   C323      1.0  0.16594  0.91978  0.41439  1.0000
  C   C324      1.0  0.47962  0.86252  0.43981  1.0000
  H   H371      1.0  0.17421  0.93263  0.45173  1.0000
  H   H372      1.0  0.38941  0.96676  0.52035  1.0000
  H   H373      1.0  0.36885  0.97853  0.23566  1.0000
  H   H374      1.0  0.42276  0.02078  0.51827  1.0000
  H   H375      1.0  0.36208  0.80693  0.50098  1.0000
  H   H376      1.0  0.09811  0.94882  0.45503  1.0000
  H   H377      1.0  0.40990  0.02436  0.05418  1.0000
  H   H378      1.0  0.21252  0.71111  0.17351  1.0000
  H   H379      1.0  0.52220  0.01304  0.07850  1.0000
  C   C325      1.0  0.49142  0.98329  0.04252  1.0000
  H   H380      1.0  0.49279  0.93598  0.17361  1.0000
  H   H381      1.0  0.07256  0.70570  0.12636  1.0000
  H   H382      1.0  0.50710  0.90753  0.16032  1.0000
  C   C326      1.0  0.08036  0.93879  0.41790  1.0000
  C   C327      1.0  0.10922  0.94067  0.43787  1.0000
  H   H383      1.0  0.04677  0.94557  0.41957  1.0000
  S   S86       1.0  0.02711  0.83029  0.38831  1.0000
  C   C328      1.0  0.52301  0.94108  0.08917  1.0000
  C   C329      1.0  0.52287  0.00618  0.50119  1.0000
  C   C330      1.0  0.40443  0.00642  0.25528  1.0000
  H   H384      1.0  0.44114  0.03052  0.27761  1.0000
  H   H385      1.0  0.40846  0.01806  0.23882  1.0000
  C   C331      1.0  0.02594  0.85632  0.29282  1.0000
  H   H386      1.0  0.02674  0.79708  0.22201  1.0000
  H   H387      1.0  0.03247  0.75467  0.32582  1.0000
  H   H388      1.0  0.31439  0.77560  0.56914  1.0000
  S   S87       1.0  0.37707  0.90474  0.54942  1.0000
  S   S88       1.0  0.30123  0.96396  0.54672  1.0000
  Fe  Fe42      1.0  0.33310  0.87157  0.54669  1.0000
  S   S89       1.0  0.32140  0.84462  0.57876  1.0000
  H   H389      1.0  0.32812  0.70449  0.97951  1.0000
  H   H390      1.0  0.30552  0.92472  0.58558  1.0000
  H   H391      1.0  0.51552  0.74202  0.73272  1.0000
  H   H392      1.0  0.36286  0.88476  0.60402  1.0000
  Fe  Fe43      1.0  0.46546  0.74258  0.64292  1.0000
  C   C332      1.0  0.36378  0.90167  0.61545  1.0000
  C   C333      1.0  0.38913  0.75180  0.52819  1.0000
  H   H393      1.0  0.37385  0.72646  0.60770  1.0000
  H   H394      1.0  0.33617  0.99777  0.66738  1.0000
  H   H395      1.0  0.26474  0.89697  0.64509  1.0000
  C   C334      1.0  0.35363  0.95929  0.66786  1.0000
  S   S90       1.0  0.40811  0.72727  0.66512  1.0000
  H   H396      1.0  0.33868  0.03475  0.59838  1.0000
  H   H397      1.0  0.38434  0.89681  0.63186  1.0000
  S   S91       1.0  0.51665  0.72774  0.66958  1.0000
  N   N23       1.0  0.36094  0.73195  0.56857  1.0000
  C   C335      1.0  0.51348  0.73337  0.75095  1.0000
  C   C336      1.0  0.47463  0.76328  0.98688  1.0000
  C   C337      1.0  0.33549  0.77364  0.55305  1.0000
  S   S92       1.0  0.27380  0.89319  0.53341  1.0000
  C   C338      1.0  0.49331  0.78681  0.94983  1.0000
  C   C339      1.0  0.36521  0.82668  0.59088  1.0000
  C   C340      1.0  0.35668  0.80995  0.61053  1.0000
  C   C341      1.0  0.39084  0.79538  0.62066  1.0000
  C   C342      1.0  0.43376  0.79743  0.61114  1.0000
  C   C343      1.0  0.44237  0.81434  0.59164  1.0000
  C   C344      1.0  0.40817  0.82884  0.58143  1.0000
  H   H398      1.0  0.32353  0.80831  0.61801  1.0000
  H   H399      1.0  0.38404  0.78267  0.63594  1.0000
  H   H400      1.0  0.47556  0.81612  0.58428  1.0000
  H   H401      1.0  0.41505  0.84169  0.56629  1.0000
  C   C345      1.0  0.38341  0.00447  0.60481  1.0000
  C   C346      1.0  0.34785  0.01629  0.59308  1.0000
  C   C347      1.0  0.32310  0.00379  0.57509  1.0000
  C   C348      1.0  0.33413  0.97960  0.56849  1.0000
  C   C349      1.0  0.37063  0.96819  0.57962  1.0000
  C   C350      1.0  0.39489  0.98048  0.59784  1.0000
  H   H402      1.0  0.29260  0.71127  0.88154  1.0000
  H   H403      1.0  0.29497  0.01279  0.56649  1.0000
  H   H404      1.0  0.37981  0.94980  0.57454  1.0000
  H   H405      1.0  0.42230  0.97125  0.60692  1.0000
  C   C351      1.0  0.42493  0.70460  0.94641  1.0000
  H   H406      1.0  0.28283  0.71019  0.94319  1.0000
  H   H407      1.0  0.45276  0.95873  0.54538  1.0000
  C   C352      1.0  0.43809  0.00601  0.53001  1.0000
  C   C353      1.0  0.29792  0.95538  0.62683  1.0000
  N   N24       1.0  0.31869  0.91005  0.62235  1.0000
  H   H408      1.0  0.36702  0.92111  0.66387  1.0000
  H   H409      1.0  0.44799  0.77649  0.99158  1.0000
  S   S93       1.0  0.45376  0.72384  0.92487  1.0000
  H   H410      1.0  0.31376  0.70557  0.58334  1.0000
  C   C354      1.0  0.29849  0.89126  0.63921  1.0000
  H   H411      1.0  0.37586  0.96110  0.68349  1.0000
  H   H412      1.0  0.50822  0.84924  0.01582  1.0000
  Fe  Fe44      1.0  0.31992  0.92587  0.53355  1.0000
  S   S94       1.0  0.41286  0.01813  0.62923  1.0000
  C   C355      1.0  0.29183  0.91110  0.59929  1.0000
  S   S95       1.0  0.47749  0.77934  0.62321  1.0000
  H   H413      1.0  0.31507  0.80914  0.53846  1.0000
  C   C356      1.0  0.47534  0.96660  0.53088  1.0000
  H   H414      1.0  0.25677  0.91596  0.60315  1.0000
  C   C357      1.0  0.30276  0.97792  0.63875  1.0000
  H   H415      1.0  0.37160  0.73065  0.94999  1.0000
  H   H416      1.0  0.40578  0.75052  0.59288  1.0000
  C   C358      1.0  0.39191  0.71148  0.56301  1.0000
  H   H417      1.0  0.45864  0.74841  0.97597  1.0000
  H   H418      1.0  0.29094  0.89298  0.58992  1.0000
  H   H419      1.0  0.22489  0.70348  0.94137  1.0000
  C   C359      1.0  0.50792  0.71152  0.79857  1.0000
  H   H420      1.0  0.50387  0.97467  0.54081  1.0000
  C   C360      1.0  0.37275  0.74144  0.59333  1.0000
  H   H421      1.0  0.41321  0.00030  0.54428  1.0000
  H   H422      1.0  0.48669  0.75475  0.00456  1.0000
  H   H423      1.0  0.46589  0.79980  0.95367  1.0000
  H   H424      1.0  0.31837  0.88811  0.65630  1.0000
  H   H425      1.0  0.25177  0.71892  0.91613  1.0000
  C   C361      1.0  0.33099  0.97997  0.65897  1.0000
  H   H426      1.0  0.38167  0.91623  0.60461  1.0000
  H   H427      1.0  0.29560  0.87304  0.63000  1.0000
  C   C362      1.0  0.50782  0.81469  0.99650  1.0000
  H   H428      1.0  0.47970  0.77285  0.93697  1.0000
  C   C363      1.0  0.03956  0.70717  0.55413  1.0000
  C   C364      1.0  0.34864  0.93656  0.65631  1.0000
  H   H429      1.0  0.27673  0.95550  0.61072  1.0000
  C   C365      1.0  0.32138  0.93401  0.63507  1.0000
  H   H430      1.0  0.04830  0.71617  0.53673  1.0000
  H   H431      1.0  0.28592  0.99421  0.63161  1.0000
  S   S96       1.0  0.46988  0.71030  0.61760  1.0000
  C   C366      1.0  0.36220  0.75238  0.54991  1.0000
  C   C367      1.0  0.33559  0.79301  0.53555  1.0000
  H   H432      1.0  0.47320  0.81663  0.99203  1.0000
  H   H433      1.0  0.34836  0.75496  0.60028  1.0000
  Fe  Fe45      1.0  0.46008  0.70927  0.68952  1.0000
  C   C368      1.0  0.48531  0.71321  0.75497  1.0000
  C   C369      1.0  0.38413  0.71277  0.95573  1.0000
  N   N25       1.0  0.51141  0.77516  0.97280  1.0000
  H   H434      1.0  0.29089  0.73512  0.57622  1.0000
  H   H435      1.0  0.30493  0.71474  0.55146  1.0000
  C   C370      1.0  0.31567  0.72145  0.56990  1.0000
  H   H436      1.0  0.46580  0.01442  0.54040  1.0000
  H   H437      1.0  0.42683  0.71798  0.56245  1.0000
  H   H438      1.0  0.51937  0.79727  0.93951  1.0000
  C   C371      1.0  0.25623  0.70417  0.93045  1.0000
  Fe  Fe46      1.0  0.52133  0.71768  0.90710  1.0000
  H   H439      1.0  0.36509  0.71473  0.86154  1.0000
  H   H440      1.0  0.50572  0.70295  0.81683  1.0000
  H   H441      1.0  0.41064  0.73651  0.52415  1.0000
  H   H442      1.0  0.48543  0.97941  0.02259  1.0000
  C   C372      1.0  0.71981  0.34352  0.16268  1.0000
  H   H443      1.0  0.53074  0.33524  0.29440  1.0000
  Fe  Fe47      1.0  0.59005  0.33175  0.38140  1.0000
  S   S97       1.0  0.62418  0.29483  0.38661  1.0000
  H   H444      1.0  0.90148  0.08749  0.43279  1.0000
  S   S98       1.0  0.72951  0.13834  0.50243  1.0000
  C   C373      1.0  0.80440  0.12986  0.45279  1.0000
  H   H445      1.0  0.65921  0.19056  0.42815  1.0000
  Fe  Fe48      1.0  0.68088  0.20390  0.49482  1.0000
  S   S99       1.0  0.73510  0.18999  0.47025  1.0000
  S   S100      1.0  0.64939  0.24180  0.49171  1.0000
  Fe  Fe49      1.0  0.69533  0.15494  0.46940  1.0000
  S   S101      1.0  0.68647  0.13725  0.43191  1.0000
  C   C374      1.0  0.88071  0.12231  0.46167  1.0000
  S   S102      1.0  0.63858  0.16992  0.49144  1.0000
  C   C375      1.0  0.83270  0.08871  0.44608  1.0000
  C   C376      1.0  0.67517  0.10544  0.42957  1.0000
  C   C377      1.0  0.67293  0.09008  0.45065  1.0000
  C   C378      1.0  0.66671  0.06455  0.44805  1.0000
  C   C379      1.0  0.66172  0.05429  0.42445  1.0000
  C   C380      1.0  0.66262  0.06976  0.40340  1.0000
  C   C381      1.0  0.66961  0.09526  0.40597  1.0000
  H   H446      1.0  0.67687  0.09776  0.46892  1.0000
  H   H447      1.0  0.66618  0.05265  0.46441  1.0000
  H   H448      1.0  0.77844  0.32890  0.17977  1.0000
  H   H449      1.0  0.67144  0.10705  0.38958  1.0000
  H   H450      1.0  0.86380  0.34811  0.08052  1.0000
  H   H451      1.0  0.69960  0.34117  0.17924  1.0000
  N   N26       1.0  0.83607  0.11082  0.46174  1.0000
  C   C382      1.0  0.56342  0.23074  0.39949  1.0000
  C   C383      1.0  0.63444  0.28208  0.41648  1.0000
  C   C384      1.0  0.66157  0.26118  0.41861  1.0000
  C   C385      1.0  0.66734  0.24902  0.44168  1.0000
  C   C386      1.0  0.64613  0.25780  0.46286  1.0000
  C   C387      1.0  0.62054  0.27937  0.46094  1.0000
  C   C388      1.0  0.61461  0.29147  0.43782  1.0000
  H   H452      1.0  0.67782  0.25431  0.40223  1.0000
  H   H453      1.0  0.68794  0.23281  0.44312  1.0000
  H   H454      1.0  0.60429  0.28636  0.47730  1.0000
  H   H455      1.0  0.59370  0.30757  0.43644  1.0000
  H   H456      1.0  0.89055  0.12870  0.44269  1.0000
  C   C389      1.0  0.58201  0.21021  0.41257  1.0000
  N   N27       1.0  0.60816  0.19085  0.40017  1.0000
  C   C390      1.0  0.84523  0.34494  0.09823  1.0000
  C   C391      1.0  0.65503  0.19295  0.40772  1.0000
  H   H457      1.0  0.73556  0.32108  0.37674  1.0000
  C   C392      1.0  0.77792  0.34019  0.07546  1.0000
  H   H458      1.0  0.55559  0.16419  0.40400  1.0000
  C   C393      1.0  0.86441  0.05819  0.41787  1.0000
  H   H459      1.0  0.62503  0.17722  0.36387  1.0000
  H   H460      1.0  0.80151  0.34510  0.36546  1.0000
  C   C394      1.0  0.53983  0.24896  0.41195  1.0000
  C   C395      1.0  0.78080  0.35177  0.38026  1.0000
  H   H461      1.0  0.84753  0.08928  0.49509  1.0000
  S   S103      1.0  0.54663  0.33409  0.14423  1.0000
  H   H462      1.0  0.66889  0.21125  0.40239  1.0000
  H   H463      1.0  0.67603  0.17868  0.39887  1.0000
  H   H464      1.0  0.60916  0.15105  0.39758  1.0000
  H   H465      1.0  0.66676  0.35908  0.14095  1.0000
  H   H466      1.0  0.56778  0.23370  0.37976  1.0000
  C   C396      1.0  0.54366  0.36167  0.02938  1.0000
  H   H467      1.0  0.62240  0.20994  0.36548  1.0000
  N   N28       1.0  0.79876  0.35361  0.09619  1.0000
  Fe  Fe50      1.0  0.76522  0.17452  0.50543  1.0000
  H   H468      1.0  0.65279  0.35042  0.04445  1.0000
  S   S104      1.0  0.63011  0.36170  0.36259  1.0000
  H   H469      1.0  0.77452  0.32018  0.08000  1.0000
  H   H470      1.0  0.65924  0.06198  0.38514  1.0000
  C   C397      1.0  0.60660  0.19262  0.37261  1.0000
  C   C398      1.0  0.79185  0.07597  0.44413  1.0000
  C   C399      1.0  0.71451  0.34582  0.40498  1.0000
  H   H471      1.0  0.80695  0.14715  0.46361  1.0000
  H   H472      1.0  0.57195  0.19184  0.36575  1.0000
  H   H473      1.0  0.76951  0.12366  0.45446  1.0000
  C   C400      1.0  0.59162  0.16597  0.40763  1.0000
  C   C401      1.0  0.55024  0.36828  0.27445  1.0000
  H   H474      1.0  0.57701  0.35568  0.02515  1.0000
  C   C402      1.0  0.78753  0.05511  0.42946  1.0000
  H   H475      1.0  0.93885  0.27106  0.51711  1.0000
  H   H476      1.0  0.76278  0.08209  0.45393  1.0000
  C   C403      1.0  0.82513  0.10401  0.48787  1.0000
  H   H477      1.0  0.68511  0.33514  0.40955  1.0000
  C   C404      1.0  0.74316  0.33791  0.38649  1.0000
  H   H478      1.0  0.79067  0.09714  0.49002  1.0000
  C   C405      1.0  0.55256  0.22776  0.45100  1.0000
  H   H479      1.0  0.74442  0.34727  0.07090  1.0000
  H   H480      1.0  0.79726  0.34215  0.05790  1.0000
  H   H481      1.0  0.71119  0.36458  0.10355  1.0000
  H   H482      1.0  0.90614  0.10938  0.46918  1.0000
  C   C406      1.0  0.86910  0.07915  0.43248  1.0000
  H   H483      1.0  0.88169  0.13890  0.47366  1.0000
  H   H484      1.0  0.81016  0.13471  0.43287  1.0000
  H   H485      1.0  0.82814  0.12011  0.50038  1.0000
  S   S105      1.0  0.56426  0.35566  0.41185  1.0000
  C   C407      1.0  0.53077  0.34494  0.27666  1.0000
  H   H486      1.0  0.82451  0.33414  0.14302  1.0000
  H   H487      1.0  0.84688  0.32483  0.10259  1.0000
  C   C408      1.0  0.65683  0.36695  0.05516  1.0000
  C   C409      1.0  0.57623  0.20948  0.43875  1.0000
  H   H488      1.0  0.87415  0.36425  0.40630  1.0000
  H   H489      1.0  0.60395  0.35757  0.08085  1.0000
  H   H490      1.0  0.59141  0.19527  0.45012  1.0000
  H   H491      1.0  0.59736  0.16161  0.42762  1.0000
  C   C410      1.0  0.76423  0.33664  0.16289  1.0000
  S   S106      1.0  0.53074  0.33749  0.35657  1.0000
  H   H492      1.0  0.75583  0.04577  0.42820  1.0000
  H   H493      1.0  0.89247  0.05114  0.40762  1.0000
  C   C411      1.0  0.72709  0.35665  0.11972  1.0000
  C   C412      1.0  0.82373  0.04623  0.41635  1.0000
  H   H494      1.0  0.98957  0.28759  0.52053  1.0000
  C   C413      1.0  0.77239  0.34983  0.11918  1.0000
  C   C414      1.0  0.70132  0.35354  0.14112  1.0000
  H   H495      1.0  0.55034  0.22728  0.47113  1.0000
  H   H496      1.0  0.86377  0.35529  0.11254  1.0000
  H   H497      1.0  0.87085  0.35744  0.37377  1.0000
  C   C415      1.0  0.53429  0.24743  0.43762  1.0000
  C   C416      1.0  0.79038  0.33973  0.14153  1.0000
  H   H498      1.0  0.52754  0.26497  0.40175  1.0000
  S   S107      1.0  0.84011  0.17302  0.50995  1.0000
  C   C417      1.0  0.72306  0.36777  0.41712  1.0000
  Fe  Fe51      1.0  0.56678  0.08621  0.84694  1.0000
  S   S108      1.0  0.58675  0.11998  0.86777  1.0000
  S   S109      1.0  0.99298  0.25088  0.87523  1.0000
  C   C418      1.0  0.54203  0.17838  0.62359  1.0000
  S   S110      1.0  0.66066  0.08520  0.89705  1.0000
  Fe  Fe52      1.0  0.58923  0.09561  0.90163  1.0000
  Fe  Fe53      1.0  0.65668  0.10727  0.86138  1.0000
  S   S111      1.0  0.70218  0.13877  0.85013  1.0000
  H   H499      1.0  0.98918  0.34970  0.99367  1.0000
  S   S112      1.0  0.63655  0.07515  0.83788  1.0000
  H   H500      1.0  0.89467  0.28725  0.56507  1.0000
  C   C419      1.0  0.99832  0.14129  0.93302  1.0000
  S   S113      1.0  0.93215  0.21603  0.60637  1.0000
  H   H501      1.0  0.82932  0.16962  0.92334  1.0000
  Fe  Fe54      1.0  0.93490  0.18690  0.87799  1.0000
  S   S114      1.0  0.89942  0.22160  0.86692  1.0000
  S   S115      1.0  0.90391  0.14886  0.88071  1.0000
  H   H502      1.0  0.76521  0.23984  0.92647  1.0000
  H   H503      1.0  0.95057  0.30962  0.99452  1.0000
  Fe  Fe55      1.0  0.93525  0.23864  0.89879  1.0000
  S   S116      1.0  0.89722  0.25765  0.92921  1.0000
  Fe  Fe56      1.0  0.96037  0.23026  0.84426  1.0000
  C   C420      1.0  0.74814  0.19216  0.80460  1.0000
  S   S117      1.0  0.96716  0.20314  0.91144  1.0000
  S   S118      1.0  0.99361  0.19431  0.85323  1.0000
  H   H504      1.0  0.65583  0.10974  0.61755  1.0000
  H   H505      1.0  0.67833  0.09582  0.64512  1.0000
  Fe  Fe57      1.0  0.67591  0.15602  0.52484  1.0000
  S   S119      1.0  0.64957  0.13187  0.55612  1.0000
  H   H506      1.0  0.72038  0.22696  0.81513  1.0000
  C   C421      1.0  0.54938  0.14259  0.65074  1.0000
  C   C422      1.0  0.90177  0.28947  0.93517  1.0000
  C   C423      1.0  0.93131  0.30466  0.92198  1.0000
  C   C424      1.0  0.93538  0.32970  0.92808  1.0000
  C   C425      1.0  0.90973  0.33973  0.94723  1.0000
  C   C426      1.0  0.87970  0.32461  0.96013  1.0000
  C   C427      1.0  0.87592  0.29954  0.95418  1.0000
  H   H507      1.0  0.95107  0.29714  0.90717  1.0000
  H   H508      1.0  0.95863  0.34134  0.91803  1.0000
  H   H509      1.0  0.85974  0.33217  0.97486  1.0000
  H   H510      1.0  0.85293  0.28788  0.96441  1.0000
  C   C428      1.0  0.90771  0.20324  0.57966  1.0000
  C   C429      1.0  0.93223  0.19042  0.56198  1.0000
  C   C430      1.0  0.91120  0.18130  0.54065  1.0000
  C   C431      1.0  0.86555  0.18473  0.53694  1.0000
  C   C432      1.0  0.84123  0.19761  0.55461  1.0000
  C   C433      1.0  0.86226  0.20688  0.57576  1.0000
  H   H511      1.0  0.96726  0.18750  0.56476  1.0000
  N   N29       1.0  0.61738  0.11586  0.65072  1.0000
  H   H512      1.0  0.80617  0.20047  0.55198  1.0000
  H   H513      1.0  0.84305  0.21683  0.58930  1.0000
  H   H514      1.0  0.95828  0.25997  0.75329  1.0000
  H   H515      1.0  0.99873  0.32176  0.54443  1.0000
  H   H516      1.0  0.91412  0.26156  0.58317  1.0000
  H   H517      1.0  0.89732  0.20968  0.77083  1.0000
  H   H518      1.0  0.58105  0.09514  0.74123  1.0000
  H   H519      1.0  0.00507  0.20063  0.80005  1.0000
  C   C434      1.0  0.75716  0.14097  0.86065  1.0000
  C   C435      1.0  0.77775  0.16410  0.85972  1.0000
  C   C436      1.0  0.82240  0.16662  0.86603  1.0000
  C   C437      1.0  0.84704  0.14606  0.87359  1.0000
  C   C438      1.0  0.82613  0.12293  0.87531  1.0000
  C   C439      1.0  0.78118  0.12037  0.86891  1.0000
  H   H520      1.0  0.75905  0.18023  0.85417  1.0000
  H   H521      1.0  0.83743  0.18459  0.86507  1.0000
  H   H522      1.0  0.84478  0.10689  0.88130  1.0000
  H   H523      1.0  0.76551  0.10242  0.86979  1.0000
  H   H524      1.0  0.64173  0.13483  0.91998  1.0000
  C   C440      1.0  0.58408  0.17408  0.61403  1.0000
  C   C441      1.0  0.56587  0.15251  0.55617  1.0000
  C   C442      1.0  0.59296  0.13282  0.56363  1.0000
  C   C443      1.0  0.57550  0.11397  0.57882  1.0000
  C   C444      1.0  0.00381  0.33401  0.98450  1.0000
  C   C445      1.0  0.64647  0.17694  0.94362  1.0000
  H   H525      1.0  0.57917  0.16713  0.54442  1.0000
  H   H526      1.0  0.59609  0.09847  0.58410  1.0000
  H   H527      1.0  0.89679  0.25674  0.55223  1.0000
  H   H528      1.0  0.89535  0.14247  0.78120  1.0000
  C   C446      1.0  0.86361  0.15160  0.78612  1.0000
  C   C447      1.0  0.98513  0.25163  0.55455  1.0000
  H   H529      1.0  0.84074  0.14869  0.77028  1.0000
  N   N30       1.0  0.96006  0.27513  0.55509  1.0000
  H   H530      1.0  0.99477  0.25674  0.93408  1.0000
  C   C448      1.0  0.66047  0.11238  0.63789  1.0000
  C   C449      1.0  0.80156  0.20596  0.92528  1.0000
  H   H531      1.0  0.60997  0.07622  0.65385  1.0000
  C   C450      1.0  0.78660  0.17922  0.79860  1.0000
  H   H532      1.0  0.92004  0.18082  0.76223  1.0000
  H   H533      1.0  0.79249  0.24872  0.81418  1.0000
  H   H534      1.0  0.56045  0.09280  0.65877  1.0000
  H   H535      1.0  0.97593  0.26887  0.60508  1.0000
  H   H536      1.0  0.85042  0.14164  0.80290  1.0000
  H   H537      1.0  0.69343  0.13683  0.90402  1.0000
  H   H538      1.0  0.61370  0.16742  0.94353  1.0000
  H   H539      1.0  0.64601  0.10343  0.68546  1.0000
  C   C451      1.0  0.88883  0.18995  0.76815  1.0000
  H   H540      1.0  0.97920  0.27489  0.97211  1.0000
  C   C452      1.0  0.00032  0.31550  0.56354  1.0000
  H   H541      1.0  0.91218  0.19953  0.81481  1.0000
  H   H542      1.0  0.78245  0.15981  0.79515  1.0000
  S   S120      1.0  0.71395  0.19113  0.53036  1.0000
  C   C453      1.0  0.59209  0.13739  0.64114  1.0000
  H   H543      1.0  0.69149  0.13500  0.93764  1.0000
  C   C454      1.0  0.53177  0.11519  0.58743  1.0000
  H   H544      1.0  0.67155  0.17605  0.88208  1.0000
  H   H545      1.0  0.99112  0.23987  0.71635  1.0000
  C   C455      1.0  0.79078  0.22931  0.80971  1.0000
  C   C456      1.0  0.97944  0.23170  0.77931  1.0000
  H   H546      1.0  0.98661  0.24241  0.57310  1.0000
  C   C457      1.0  0.54628  0.04422  0.00226  1.0000
  H   H547      1.0  0.88914  0.17227  0.82902  1.0000
  N   N31       1.0  0.86992  0.17826  0.79096  1.0000
  S   S121      1.0  0.56349  0.06267  0.88177  1.0000
  C   C458      1.0  0.97567  0.24264  0.75553  1.0000
  Fe  Fe58      1.0  0.63471  0.05399  0.87447  1.0000
  H   H548      1.0  0.54356  0.08306  0.99378  1.0000
  C   C459      1.0  0.98806  0.28620  0.59741  1.0000
  H   H549      1.0  0.75878  0.14873  0.92125  1.0000
  H   H550      1.0  0.93381  0.17027  0.80705  1.0000
  H   H551      1.0  0.66344  0.17144  0.96119  1.0000
  C   C460      1.0  0.82938  0.21661  0.80355  1.0000
  H   H552      1.0  0.59705  0.18594  0.59927  1.0000
  C   C461      1.0  0.82856  0.19114  0.79780  1.0000
  H   H553      1.0  0.64356  0.19942  0.89922  1.0000
  H   H554      1.0  0.98204  0.10683  0.89888  1.0000
  H   H555      1.0  0.69263  0.21991  0.92465  1.0000
  N   N32       1.0  0.67365  0.17046  0.92168  1.0000
  C   C462      1.0  0.65088  0.17937  0.89886  1.0000
  C   C463      1.0  0.67543  0.14312  0.92082  1.0000
  C   C464      1.0  0.71782  0.18222  0.92321  1.0000
  C   C465      1.0  0.72162  0.20829  0.92459  1.0000
  C   C466      1.0  0.75800  0.16855  0.92288  1.0000
  H   H556      1.0  0.64057  0.15136  0.61361  1.0000
  C   C467      1.0  0.79909  0.18037  0.92402  1.0000
  C   C468      1.0  0.54969  0.09299  0.75072  1.0000
  H   H557      1.0  0.93031  0.17137  0.52708  1.0000
  H   H558      1.0  0.61876  0.16973  0.89609  1.0000
  H   H559      1.0  0.63934  0.19701  0.94441  1.0000
  C   C469      1.0  0.62629  0.11901  0.67756  1.0000
  C   C470      1.0  0.91454  0.27002  0.56424  1.0000
  C   C471      1.0  0.76292  0.21990  0.92559  1.0000
  C   C472      1.0  0.99897  0.29149  0.97175  1.0000
  H   H560      1.0  0.00859  0.09294  0.92522  1.0000
  C   C473      1.0  0.00177  0.20924  0.78194  1.0000
  H   H561      1.0  0.57915  0.09222  0.78733  1.0000
  C   C474      1.0  0.75022  0.21712  0.81019  1.0000
  H   H562      1.0  0.57289  0.04101  0.98911  1.0000
  Fe  Fe59      1.0  0.00258  0.21252  0.62072  1.0000
  H   H563      1.0  0.68285  0.12843  0.64053  1.0000
  C   C475      1.0  0.60890  0.15392  0.62254  1.0000
  H   H564      1.0  0.83352  0.21507  0.92583  1.0000
  S   S122      1.0  0.01789  0.23953  0.65097  1.0000
  C   C476      1.0  0.01429  0.10535  0.90885  1.0000
  C   C477      1.0  0.98248  0.29248  0.57188  1.0000
  S   S123      1.0  0.95342  0.24573  0.80497  1.0000
  C   C478      1.0  0.01631  0.20875  0.73725  1.0000
  H   H565      1.0  0.59526  0.11961  0.68874  1.0000
  H   H566      1.0  0.71667  0.18251  0.80562  1.0000
  H   H567      1.0  0.99025  0.12925  0.94931  1.0000
  C   C479      1.0  0.90256  0.18017  0.81133  1.0000
  H   H568      1.0  0.86000  0.22698  0.80331  1.0000
  C   C480      1.0  0.54872  0.09132  0.77688  1.0000
  H   H569      1.0  0.86508  0.18929  0.75242  1.0000
  S   S124      1.0  0.56267  0.10512  0.93955  1.0000
  C   C481      1.0  0.59136  0.09290  0.64763  1.0000
  C   C482      1.0  0.01029  0.30186  0.61350  1.0000
  C   C483      1.0  0.95638  0.28447  0.52907  1.0000
  H   H570      1.0  0.64450  0.13648  0.68085  1.0000
  H   H571      1.0  0.96959  0.23805  0.54198  1.0000
  H   H572      1.0  0.96622  0.14508  0.92354  1.0000
  H   H573      1.0  0.01988  0.25478  0.54839  1.0000
  H   H574      1.0  0.58181  0.09043  0.62793  1.0000
  C   C484      1.0  0.99422  0.23129  0.73456  1.0000
  C   C485      1.0  0.02240  0.33104  0.57986  1.0000
  H   H575      1.0  0.53445  0.13097  0.66500  1.0000
  C   C486      1.0  0.52980  0.06800  0.00490  1.0000
  C   C487      1.0  0.98200  0.31139  0.98490  1.0000
  C   C488      1.0  0.01988  0.19778  0.76101  1.0000
  H   H576      1.0  0.54258  0.14886  0.90932  1.0000
  H   H577      1.0  0.01095  0.15908  0.94018  1.0000
  H   H578      1.0  0.00005  0.14759  0.88427  1.0000
  H   H579      1.0  0.01543  0.29630  0.63274  1.0000
  H   H580      1.0  0.93723  0.30199  0.52803  1.0000
  C   C489      1.0  0.52477  0.16272  0.64196  1.0000
  H   H581      1.0  0.02250  0.24280  0.96059  1.0000
  Fe  Fe60      1.0  0.02249  0.21407  0.88578  1.0000
  C   C490      1.0  0.87344  0.50335  0.05215  1.0000
  H   H582      1.0  0.81183  0.42378  0.39981  1.0000
  S   S125      1.0  0.91395  0.39955  0.07753  1.0000
  H   H583      1.0  0.56579  0.39849  0.24930  1.0000
  Fe  Fe61      1.0  0.54450  0.37222  0.12709  1.0000
  H   H584      1.0  0.79235  0.51929  0.29377  1.0000
  H   H585      1.0  0.88694  0.46245  0.07665  1.0000
  Fe  Fe62      1.0  0.80415  0.65198  0.48448  1.0000
  S   S126      1.0  0.80136  0.62937  0.44953  1.0000
  S   S127      1.0  0.86586  0.66699  0.50205  1.0000
  S   S128      1.0  0.99077  0.51234  0.31881  1.0000
  Fe  Fe63      1.0  0.93814  0.45629  0.39107  1.0000
  S   S129      1.0  0.97616  0.49166  0.38839  1.0000
  S   S130      1.0  0.96164  0.42163  0.41054  1.0000
  Fe  Fe64      1.0  0.85700  0.47841  0.36698  1.0000
  S   S131      1.0  0.88809  0.51611  0.36275  1.0000
  S   S132      1.0  0.79201  0.46758  0.34955  1.0000
  Fe  Fe65      1.0  0.94837  0.49545  0.34982  1.0000
  C   C491      1.0  0.01777  0.42323  0.41870  1.0000
  Fe  Fe66      1.0  0.91341  0.50945  0.40153  1.0000
  S   S133      1.0  0.92320  0.53540  0.43368  1.0000
  S   S134      1.0  0.91563  0.45826  0.35145  1.0000
  S   S135      1.0  0.87706  0.47355  0.40679  1.0000
  S   S136      1.0  0.63943  0.41472  0.41216  1.0000
  H   H586      1.0  0.86096  0.47682  0.28998  1.0000
  C   C492      1.0  0.74948  0.45355  0.36741  1.0000
  C   C493      1.0  0.71803  0.43897  0.35542  1.0000
  C   C494      1.0  0.68450  0.42685  0.36904  1.0000
  C   C495      1.0  0.68161  0.42962  0.39476  1.0000
  C   C496      1.0  0.71260  0.44454  0.40677  1.0000
  C   C497      1.0  0.74658  0.45641  0.39315  1.0000
  H   H587      1.0  0.71981  0.43680  0.33550  1.0000
  C   C498      1.0  0.00951  0.55267  0.07804  1.0000
  H   H588      1.0  0.71041  0.44689  0.42664  1.0000
  H   H589      1.0  0.77029  0.46789  0.40253  1.0000
  C   C499      1.0  0.89004  0.51556  0.26193  1.0000
  H   H590      1.0  0.76450  0.39881  0.42093  1.0000
  H   H591      1.0  0.54935  0.43357  0.47762  1.0000
  H   H592      1.0  0.90406  0.49278  0.30584  1.0000
  H   H593      1.0  0.00639  0.52657  0.46099  1.0000
  C   C500      1.0  0.98924  0.50950  0.07837  1.0000
  H   H594      1.0  0.97055  0.47362  0.04256  1.0000
  C   C501      1.0  0.83553  0.60333  0.44544  1.0000
  C   C502      1.0  0.82714  0.58751  0.42561  1.0000
  C   C503      1.0  0.85377  0.56664  0.42173  1.0000
  C   C504      1.0  0.88930  0.56160  0.43755  1.0000
  C   C505      1.0  0.89815  0.57762  0.45714  1.0000
  C   C506      1.0  0.87118  0.59831  0.46122  1.0000
  H   H595      1.0  0.79968  0.59135  0.41330  1.0000
  H   H596      1.0  0.84670  0.55445  0.40656  1.0000
  H   H597      1.0  0.92604  0.57407  0.46917  1.0000
  H   H598      1.0  0.87817  0.61053  0.47638  1.0000
  C   C507      1.0  0.96396  0.41557  0.08133  1.0000
  C   C508      1.0  0.97864  0.42113  0.10528  1.0000
  C   C509      1.0  0.55063  0.38046  0.25118  1.0000
  H   H599      1.0  0.69989  0.37425  0.43097  1.0000
  H   H600      1.0  0.66060  0.41560  0.35955  1.0000
  C   C510      1.0  0.98840  0.42374  0.06070  1.0000
  H   H601      1.0  0.95984  0.41484  0.12133  1.0000
  S   S137      1.0  0.72635  0.37694  0.02372  1.0000
  H   H602      1.0  0.86622  0.55584  0.28953  1.0000
  H   H603      1.0  0.97801  0.41904  0.04224  1.0000
  H   H604      1.0  0.80782  0.53348  0.26445  1.0000
  C   C511      1.0  0.88376  0.49673  0.24427  1.0000
  C   C512      1.0  0.66824  0.40892  0.08360  1.0000
  C   C513      1.0  0.69562  0.40504  0.06281  1.0000
  H   H605      1.0  0.67297  0.42514  0.09471  1.0000
  H   H606      1.0  0.72106  0.41830  0.05789  1.0000
  N   N33       1.0  0.86167  0.51652  0.28438  1.0000
  C   C514      1.0  0.76060  0.38178  0.41109  1.0000
  C   C515      1.0  0.99648  0.46769  0.25856  1.0000
  H   H607      1.0  0.01071  0.39921  0.45082  1.0000
  Fe  Fe67      1.0  0.60058  0.38613  0.39127  1.0000
  C   C516      1.0  0.92517  0.53250  0.25725  1.0000
  S   S138      1.0  0.76874  0.68859  0.48371  1.0000
  H   H608      1.0  0.90627  0.48018  0.21032  1.0000
  S   S139      1.0  0.60389  0.39638  0.11768  1.0000
  H   H609      1.0  0.90477  0.53761  0.30790  1.0000
  C   C517      1.0  0.87100  0.37260  0.38734  1.0000
  C   C518      1.0  0.93713  0.48099  0.03827  1.0000
  C   C519      1.0  0.69047  0.38381  0.04873  1.0000
  H   H610      1.0  0.87400  0.51398  0.03427  1.0000
  H   H611      1.0  0.96435  0.57737  0.05961  1.0000
  H   H612      1.0  0.99892  0.49088  0.08318  1.0000
  H   H613      1.0  0.84257  0.40441  0.42142  1.0000
  H   H614      1.0  0.79592  0.40902  0.35745  1.0000
  H   H615      1.0  0.85841  0.51487  0.06683  1.0000
  C   C520      1.0  0.62917  0.37094  0.07580  1.0000
  C   C521      1.0  0.80021  0.38028  0.08971  1.0000
  H   H616      1.0  0.85034  0.48772  0.04873  1.0000
  N   N34       1.0  0.83099  0.38841  0.38557  1.0000
  C   C522      1.0  0.87062  0.53820  0.30011  1.0000
  S   S140      1.0  0.57163  0.38372  0.30045  1.0000
  H   H617      1.0  0.94247  0.46644  0.08524  1.0000
  H   H618      1.0  0.96590  0.51051  0.20299  1.0000
  C   C523      1.0  0.97096  0.55837  0.06505  1.0000
  C   C524      1.0  0.91052  0.49519  0.22313  1.0000
  H   H619      1.0  0.86965  0.41999  0.39616  1.0000
  C   C525      1.0  0.91202  0.47692  0.08070  1.0000
  C   C526      1.0  0.81433  0.51752  0.27721  1.0000
  C   C527      1.0  0.95145  0.53090  0.23592  1.0000
  C   C528      1.0  0.63509  0.39183  0.09029  1.0000
  H   H620      1.0  0.80327  0.50050  0.26787  1.0000
  H   H621      1.0  0.84792  0.53879  0.31644  1.0000
  S   S141      1.0  0.82099  0.42687  0.03729  1.0000
  C   C529      1.0  0.82641  0.39769  0.35962  1.0000
  N   N35       1.0  0.91816  0.49449  0.05943  1.0000
  H   H622      1.0  0.93412  0.54666  0.27016  1.0000
  H   H623      1.0  0.91220  0.53306  0.49887  1.0000
  C   C530      1.0  0.94413  0.51232  0.21891  1.0000
  C   C531      1.0  0.98658  0.47668  0.28233  1.0000
  Fe  Fe68      1.0  0.88229  0.40375  0.03975  1.0000
  H   H624      1.0  0.97901  0.54346  0.23312  1.0000
  C   C532      1.0  0.01870  0.52825  0.08460  1.0000
  H   H625      1.0  0.98043  0.45111  0.25227  1.0000
  H   H626      1.0  0.85887  0.48264  0.24702  1.0000
  H   H627      1.0  0.58344  0.44078  0.45151  1.0000
  H   H628      1.0  0.84817  0.49405  0.31691  1.0000
  C   C533      1.0  0.86899  0.49405  0.29986  1.0000
  H   H629      1.0  0.96363  0.46679  0.29427  1.0000
  C   C534      1.0  0.53602  0.38628  0.03494  1.0000
  H   H630      1.0  0.91199  0.54543  0.04876  1.0000
  H   H631      1.0  0.55618  0.44461  0.41121  1.0000
  H   H632      1.0  0.76689  0.38810  0.08645  1.0000
  H   H633      1.0  0.85486  0.40958  0.35389  1.0000
  H   H634      1.0  0.00824  0.48149  0.47236  1.0000
  S   S142      1.0  0.54252  0.39650  0.36774  1.0000
  C   C535      1.0  0.53087  0.36968  0.23037  1.0000
  H   H635      1.0  0.55642  0.40328  0.43458  1.0000
  H   H636      1.0  0.90129  0.48666  0.09771  1.0000
  C   C536      1.0  0.83881  0.41001  0.40154  1.0000
  C   C537      1.0  0.94880  0.51470  0.06598  1.0000
  H   H637      1.0  0.90189  0.38338  0.38363  1.0000
  H   H638      1.0  0.91590  0.46510  0.03318  1.0000
  H   H639      1.0  0.81948  0.38386  0.07241  1.0000
  C   C538      1.0  0.94098  0.53975  0.05899  1.0000
  H   H640      1.0  0.81590  0.39105  0.10474  1.0000
  H   H641      1.0  0.82425  0.38251  0.34611  1.0000
  H   H642      1.0  0.86891  0.57007  0.50931  1.0000
  C   C539      1.0  0.54964  0.44360  0.45939  1.0000
  C   C540      1.0  0.00583  0.49863  0.29029  1.0000
  H   H643      1.0  0.54601  0.46374  0.46248  1.0000
  H   H644      1.0  0.53085  0.37938  0.21263  1.0000
  Fe  Fe69      1.0  0.56885  0.36944  0.34029  1.0000
  C   C541      1.0  0.79103  0.37401  0.39261  1.0000
  H   H645      1.0  0.56343  0.39920  0.03527  1.0000
  C   C542      1.0  0.91951  0.54279  0.51585  1.0000
  H   H646      1.0  0.01455  0.51941  0.42921  1.0000
  H   H647      1.0  0.01229  0.47670  0.43956  1.0000
  C   C543      1.0  0.01663  0.43566  0.10852  1.0000
  S   S143      1.0  0.77243  0.63942  0.52040  1.0000
  C   C544      1.0  0.96234  0.70263  0.52025  1.0000
  C   C545      1.0  0.89512  0.56373  0.52159  1.0000
  Fe  Fe70      1.0  0.74178  0.67715  0.52123  1.0000
  H   H648      1.0  0.96208  0.68213  0.52165  1.0000
  Fe  Fe71      1.0  0.82787  0.70258  0.50399  1.0000
  S   S144      1.0  0.00565  0.59742  0.70161  1.0000
  S   S145      1.0  0.81489  0.41073  0.97865  1.0000
  Fe  Fe72      1.0  0.84854  0.44026  0.00054  1.0000
  S   S146      1.0  0.85149  0.48157  0.99320  1.0000
  H   H649      1.0  0.86937  0.45577  0.94735  1.0000
  S   S147      1.0  0.91215  0.41956  0.00484  1.0000
  C   C546      1.0  0.62011  0.65044  0.70776  1.0000
  Fe  Fe73      1.0  0.97308  0.59456  0.84608  1.0000
  S   S148      1.0  0.94825  0.62851  0.86524  1.0000
  S   S149      1.0  0.79827  0.69406  0.54153  1.0000
  Fe  Fe74      1.0  0.91216  0.56035  0.87671  1.0000
  S   S150      1.0  0.88129  0.59143  0.89739  1.0000
  S   S151      1.0  0.89656  0.52006  0.88402  1.0000
  Fe  Fe75      1.0  0.88073  0.61155  0.86062  1.0000
  S   S152      1.0  0.82443  0.63446  0.84478  1.0000
  Fe  Fe76      1.0  0.95100  0.60554  0.90037  1.0000
  C   C547      1.0  0.98655  0.69240  0.58480  1.0000
  S   S153      1.0  0.90560  0.57905  0.83915  1.0000
  S   S154      1.0  0.98167  0.57310  0.88189  1.0000
  C   C548      1.0  0.77258  0.51354  0.88747  1.0000
  H   H650      1.0  0.94445  0.57946  0.57522  1.0000
  S   S155      1.0  0.64191  0.65278  0.89997  1.0000
  C   C549      1.0  0.93819  0.56859  0.55896  1.0000
  Fe  Fe77      1.0  0.83149  0.65728  0.53797  1.0000
  H   H651      1.0  0.77560  0.48539  0.91627  1.0000
  S   S156      1.0  0.86245  0.64143  0.57284  1.0000
  H   H652      1.0  0.76185  0.55944  0.94146  1.0000
  H   H653      1.0  0.65342  0.65857  0.71084  1.0000
  H   H654      1.0  0.99548  0.49984  0.56349  1.0000
  H   H655      1.0  0.97639  0.52619  0.93271  1.0000
  C   C550      1.0  0.80837  0.53777  0.84176  1.0000
  H   H656      1.0  0.72675  0.54528  0.82331  1.0000
  C   C551      1.0  0.60145  0.68685  0.56324  1.0000
  H   H657      1.0  0.70788  0.67316  0.57816  1.0000
  H   H658      1.0  0.71620  0.68284  0.92197  1.0000
  N   N36       1.0  0.99798  0.53866  0.57155  1.0000
  H   H659      1.0  0.80810  0.51736  0.84052  1.0000
  C   C552      1.0  0.67287  0.67652  0.58053  1.0000
  N   N37       1.0  0.76946  0.54771  0.85515  1.0000
  C   C553      1.0  0.76797  0.52145  0.93148  1.0000
  H   H660      1.0  0.72697  0.51831  0.84301  1.0000
  H   H661      1.0  0.87356  0.66480  0.87941  1.0000
  C   C554      1.0  0.77089  0.57501  0.85214  1.0000
  C   C555      1.0  0.77523  0.64055  0.86130  1.0000
  C   C556      1.0  0.76639  0.62949  0.88446  1.0000
  C   C557      1.0  0.72534  0.63332  0.89614  1.0000
  C   C558      1.0  0.69357  0.64893  0.88520  1.0000
  C   C559      1.0  0.70322  0.66082  0.86258  1.0000
  C   C560      1.0  0.74369  0.65640  0.85054  1.0000
  H   H662      1.0  0.79094  0.61780  0.89320  1.0000
  H   H663      1.0  0.71824  0.62429  0.91380  1.0000
  H   H664      1.0  0.67905  0.67293  0.85403  1.0000
  H   H665      1.0  0.75046  0.66514  0.83270  1.0000
  H   H666      1.0  0.61346  0.65151  0.68736  1.0000
  H   H667      1.0  0.01518  0.63567  0.54152  1.0000
  C   C561      1.0  0.94772  0.63800  0.55459  1.0000
  C   C562      1.0  0.91954  0.63583  0.57517  1.0000
  C   C563      1.0  0.93697  0.62899  0.59837  1.0000
  C   C564      1.0  0.77196  0.50494  0.91211  1.0000
  C   C565      1.0  0.80229  0.69376  0.91926  1.0000
  H   H668      1.0  0.93427  0.64262  0.53654  1.0000
  H   H669      1.0  0.91525  0.62723  0.61433  1.0000
  C   C566      1.0  0.02148  0.63210  0.94288  1.0000
  H   H670      1.0  0.76245  0.57518  0.89911  1.0000
  C   C567      1.0  0.87544  0.66089  0.91914  1.0000
  C   C568      1.0  0.76967  0.53912  0.88146  1.0000
  S   S157      1.0  0.53803  0.69417  0.87412  1.0000
  H   H671      1.0  0.88563  0.59307  0.54733  1.0000
  C   C569      1.0  0.76528  0.55547  0.90171  1.0000
  C   C570      1.0  0.86532  0.49199  0.96296  1.0000
  C   C571      1.0  0.86915  0.51743  0.95805  1.0000
  C   C572      1.0  0.87926  0.52627  0.93396  1.0000
  C   C573      1.0  0.88547  0.50969  0.91465  1.0000
  C   C574      1.0  0.88208  0.48427  0.91966  1.0000
  C   C575      1.0  0.87218  0.47542  0.94375  1.0000
  H   H672      1.0  0.86344  0.53035  0.97278  1.0000
  H   H673      1.0  0.88122  0.54588  0.93020  1.0000
  H   H674      1.0  0.88689  0.47134  0.90481  1.0000
  C   C576      1.0  0.60320  0.64034  0.76184  1.0000
  C   C577      1.0  0.99335  0.63383  0.55740  1.0000
  H   H675      1.0  0.01731  0.49853  0.99018  1.0000
  C   C578      1.0  0.60815  0.67935  0.60774  1.0000
  C   C579      1.0  0.61346  0.63940  0.78717  1.0000
  C   C580      1.0  0.02136  0.68378  0.59961  1.0000
  H   H676      1.0  0.94011  0.49312  0.02144  1.0000
  C   C581      1.0  0.82247  0.68625  0.89672  1.0000
  H   H677      1.0  0.59949  0.62303  0.75247  1.0000
  H   H678      1.0  0.76830  0.51467  0.95056  1.0000
  C   C582      1.0  0.95305  0.53441  0.53177  1.0000
  S   S158      1.0  0.97263  0.61491  0.93916  1.0000
  H   H679      1.0  0.69870  0.54555  0.85288  1.0000
  C   C583      1.0  0.98237  0.62461  0.60113  1.0000
  C   C584      1.0  0.76463  0.54664  0.92630  1.0000
  C   C585      1.0  0.59728  0.66319  0.74893  1.0000
  H   H680      1.0  0.67390  0.67023  0.62025  1.0000
  S   S159      1.0  0.58514  0.67813  0.63807  1.0000
  H   H681      1.0  0.95362  0.68881  0.59183  1.0000
  H   H682      1.0  0.62567  0.66037  0.82005  1.0000
  C   C586      1.0  0.65352  0.67487  0.60437  1.0000
  H   H683      1.0  0.58110  0.69133  0.54731  1.0000
  Fe  Fe78      1.0  0.60380  0.68821  0.89323  1.0000
  C   C587      1.0  0.58217  0.68530  0.58705  1.0000
  H   H684      1.0  0.62182  0.63050  0.71270  1.0000
  H   H685      1.0  0.96706  0.51073  0.96157  1.0000
  C   C588      1.0  0.98110  0.59903  0.77584  1.0000
  H   H686      1.0  0.94497  0.60519  0.74177  1.0000
  H   H687      1.0  0.99546  0.61982  0.61924  1.0000
  H   H688      1.0  0.97574  0.57649  0.97835  1.0000
  H   H689      1.0  0.77289  0.58106  0.83228  1.0000
  C   C589      1.0  0.64685  0.68253  0.55986  1.0000
  H   H690      1.0  0.54319  0.63151  0.72467  1.0000
  C   C590      1.0  0.72870  0.53881  0.84303  1.0000
  N   N38       1.0  0.58581  0.66362  0.72218  1.0000
  H   H691      1.0  0.01590  0.65404  0.71921  1.0000
  H   H692      1.0  0.77588  0.49993  0.87320  1.0000
  H   H693      1.0  0.74083  0.58396  0.85985  1.0000
  H   H694      1.0  0.81081  0.54511  0.82235  1.0000
  H   H695      1.0  0.80064  0.58282  0.86126  1.0000
  C   C591      1.0  0.02189  0.59285  0.78640  1.0000
  Fe  Fe79      1.0  0.79271  0.39541  0.01604  1.0000
  H   H696      1.0  0.81087  0.69229  0.87867  1.0000
  H   H697      1.0  0.83940  0.54283  0.85133  1.0000
  Fe  Fe80      1.0  0.87713  0.38882  0.98542  1.0000
  H   H698      1.0  0.94834  0.56334  0.95251  1.0000
  H   H699      1.0  0.95361  0.60389  0.78768  1.0000
  H   H700      1.0  0.53247  0.65161  0.69881  1.0000
  H   H701      1.0  0.96585  0.55197  0.60482  1.0000
  H   H702      1.0  0.02001  0.57524  0.58090  1.0000
  H   H703      1.0  0.94448  0.54847  0.98259  1.0000
  H   H704      1.0  0.61752  0.62178  0.79672  1.0000
  C   C592      1.0  0.96313  0.54701  0.55404  1.0000
  S   S160      1.0  0.66971  0.68589  0.52967  1.0000
  C   C593      1.0  0.97860  0.53464  0.59669  1.0000
  C   C594      1.0  0.54263  0.65120  0.71868  1.0000
  C   C595      1.0  0.60228  0.68498  0.76299  1.0000
  C   C596      1.0  0.97630  0.59978  0.74982  1.0000
  C   C597      1.0  0.61817  0.66110  0.80036  1.0000
  S   S161      1.0  0.91770  0.37085  0.95528  1.0000
  H   H705      1.0  0.90818  0.68782  0.55687  1.0000
  H   H706      1.0  0.95066  0.52129  0.59621  1.0000
  C   C598      1.0  0.96718  0.55861  0.96972  1.0000
  C   C599      1.0  0.01073  0.62716  0.58070  1.0000
  H   H707      1.0  0.54715  0.68846  0.58933  1.0000
  S   S162      1.0  0.85267  0.37116  0.02090  1.0000
  C   C600      1.0  0.61276  0.68379  0.78827  1.0000
  C   C601      1.0  0.90456  0.57665  0.54303  1.0000
  H   H708      1.0  0.86927  0.66015  0.95881  1.0000
  C   C602      1.0  0.85600  0.66752  0.94152  1.0000
  H   H709      1.0  0.97040  0.51801  0.52623  1.0000
  H   H710      1.0  0.00351  0.52729  0.61015  1.0000
  C   C603      1.0  0.99238  0.52141  0.95083  1.0000
  C   C604      1.0  0.85865  0.67020  0.89684  1.0000
  H   H711      1.0  0.01442  0.67405  0.61697  1.0000
  H   H712      1.0  0.90358  0.64850  0.91908  1.0000
  H   H713      1.0  0.02077  0.50914  0.94654  1.0000
  N   N39       1.0  0.00699  0.54381  0.96410  1.0000
  C   C605      1.0  0.58214  0.68889  0.71128  1.0000
  C   C606      1.0  0.81992  0.68367  0.94167  1.0000
  C   C607      1.0  0.01203  0.59411  0.73418  1.0000
  H   H714      1.0  0.99516  0.65841  0.76333  1.0000
  C   C608      1.0  0.01973  0.51525  0.56440  1.0000
  H   H715      1.0  0.80606  0.68833  0.95949  1.0000
  C   C609      1.0  0.72605  0.69979  0.93192  1.0000
  H   H716      1.0  0.73198  0.69442  0.95162  1.0000
  H   H717      1.0  0.01988  0.56117  0.92836  1.0000
  H   H718      1.0  0.57455  0.68848  0.69107  1.0000
  H   H719      1.0  0.61604  0.70066  0.79868  1.0000
  H   H720      1.0  0.55476  0.69938  0.72001  1.0000
  H   H721      1.0  0.61352  0.69940  0.71313  1.0000
  H   H722      1.0  0.92101  0.77536  0.34164  1.0000
  H   H723      1.0  0.99290  0.70826  0.51019  1.0000
  H   H724      1.0  0.55273  0.96156  0.29253  1.0000
  S   S163      1.0  0.69440  0.88481  0.03503  1.0000
  S   S164      1.0  0.66919  0.94831  0.06868  1.0000
  C   C610      1.0  0.57025  0.95659  0.17591  1.0000
  S   S165      1.0  0.85771  0.74083  0.49984  1.0000
  Fe  Fe81      1.0  0.64574  0.95198  0.36275  1.0000
  S   S166      1.0  0.66590  0.99089  0.35251  1.0000
  S   S167      1.0  0.68213  0.91603  0.35639  1.0000
  Fe  Fe82      1.0  0.55405  0.96781  0.38021  1.0000
  S   S168      1.0  0.56641  0.00774  0.37142  1.0000
  Fe  Fe83      1.0  0.59723  0.99402  0.33605  1.0000
  S   S169      1.0  0.57907  0.01290  0.29932  1.0000
  Fe  Fe84      1.0  0.63305  0.00134  0.38865  1.0000
  S   S170      1.0  0.57978  0.95459  0.34385  1.0000
  S   S171      1.0  0.61823  0.96200  0.39988  1.0000
  S   S172      1.0  0.98874  0.83420  0.14405  1.0000
  S   S173      1.0  0.98909  0.89239  0.09765  1.0000
  Fe  Fe85      1.0  0.92819  0.87608  0.39105  1.0000
  S   S174      1.0  0.93119  0.84639  0.36244  1.0000
  S   S175      1.0  0.87586  0.90441  0.40013  1.0000
  C   C611      1.0  0.99637  0.79884  0.33288  1.0000
  C   C612      1.0  0.01682  0.79270  0.24097  1.0000
  H   H725      1.0  0.98660  0.79635  0.35273  1.0000
  C   C613      1.0  0.54180  0.92507  0.07191  1.0000
  Fe  Fe86      1.0  0.95487  0.82206  0.39408  1.0000
  S   S176      1.0  0.92798  0.78307  0.39610  1.0000
  Fe  Fe87      1.0  0.01696  0.86150  0.41454  1.0000
  S   S177      1.0  0.94665  0.85094  0.42283  1.0000
  C   C614      1.0  0.58213  0.90245  0.40085  1.0000
  H   H726      1.0  0.95683  0.85598  0.30253  1.0000
  H   H727      1.0  0.93441  0.70837  0.50798  1.0000
  H   H728      1.0  0.61486  0.86618  0.12171  1.0000
  H   H729      1.0  0.56714  0.01708  0.44380  1.0000
  S   S178      1.0  0.81433  0.86202  0.03984  1.0000
  C   C615      1.0  0.73663  0.91334  0.36775  1.0000
  C   C616      1.0  0.76324  0.89350  0.36040  1.0000
  C   C617      1.0  0.80658  0.89080  0.36956  1.0000
  C   C618      1.0  0.82311  0.90771  0.38654  1.0000
  C   C619      1.0  0.79632  0.92740  0.39398  1.0000
  C   C620      1.0  0.75338  0.93033  0.38449  1.0000
  H   H730      1.0  0.75050  0.88039  0.34730  1.0000
  H   H731      1.0  0.82709  0.87574  0.36348  1.0000
  H   H732      1.0  0.80889  0.94052  0.40712  1.0000
  H   H733      1.0  0.73316  0.94567  0.39029  1.0000
  H   H734      1.0  0.55778  0.89678  0.19421  1.0000
  H   H735      1.0  0.58907  0.89868  0.42079  1.0000
  C   C621      1.0  0.54976  0.99771  0.27550  1.0000
  C   C622      1.0  0.87855  0.75171  0.47100  1.0000
  C   C623      1.0  0.89640  0.77558  0.46939  1.0000
  C   C624      1.0  0.91246  0.78513  0.44665  1.0000
  C   C625      1.0  0.91034  0.77098  0.42523  1.0000
  C   C626      1.0  0.89287  0.74699  0.42687  1.0000
  C   C627      1.0  0.87722  0.73730  0.44972  1.0000
  H   H736      1.0  0.89771  0.78678  0.48579  1.0000
  H   H737      1.0  0.92654  0.80341  0.44575  1.0000
  H   H738      1.0  0.89120  0.73586  0.41043  1.0000
  H   H739      1.0  0.86356  0.71884  0.45078  1.0000
  C   C628      1.0  0.61266  0.94563  0.07576  1.0000
  C   C629      1.0  0.59377  0.96180  0.09281  1.0000
  H   H740      1.0  0.63983  0.95146  0.15006  1.0000
  C   C630      1.0  0.98071  0.85524  0.28758  1.0000
  H   H741      1.0  0.54178  0.03089  0.25327  1.0000
  C   C631      1.0  0.58655  0.92736  0.06516  1.0000
  H   H742      1.0  0.61389  0.97604  0.10093  1.0000
  C   C632      1.0  0.53436  0.01140  0.25483  1.0000
  H   H743      1.0  0.60097  0.91485  0.05196  1.0000
  C   C633      1.0  0.86303  0.87092  0.05555  1.0000
  C   C634      1.0  0.88796  0.85280  0.06816  1.0000
  C   C635      1.0  0.92659  0.85912  0.08112  1.0000
  C   C636      1.0  0.94087  0.88365  0.08139  1.0000
  C   C637      1.0  0.91596  0.90180  0.06881  1.0000
  C   C638      1.0  0.87707  0.89550  0.05603  1.0000
  H   H744      1.0  0.87736  0.83374  0.06787  1.0000
  H   H745      1.0  0.94556  0.84494  0.09063  1.0000
  H   H746      1.0  0.92671  0.92083  0.06892  1.0000
  H   H747      1.0  0.85816  0.90963  0.04643  1.0000
  C   C639      1.0  0.62008  0.88469  0.12842  1.0000
  N   N40       1.0  0.81101  0.83705  0.43256  1.0000
  C   C640      1.0  0.77320  0.85389  0.42793  1.0000
  C   C641      1.0  0.84160  0.84888  0.45030  1.0000
  C   C642      1.0  0.83529  0.83439  0.40872  1.0000
  C   C643      1.0  0.79466  0.81328  0.44310  1.0000
  C   C644      1.0  0.77422  0.81234  0.46690  1.0000
  C   C645      1.0  0.79825  0.79059  0.43034  1.0000
  C   C646      1.0  0.75997  0.79001  0.47764  1.0000
  C   C647      1.0  0.78325  0.76845  0.44112  1.0000
  C   C648      1.0  0.76473  0.76809  0.46482  1.0000
  H   H748      1.0  0.75462  0.85792  0.44522  1.0000
  H   H749      1.0  0.78446  0.87203  0.42009  1.0000
  H   H750      1.0  0.74958  0.84588  0.41447  1.0000
  H   H751      1.0  0.82488  0.85464  0.46762  1.0000
  H   H752      1.0  0.85676  0.86603  0.44223  1.0000
  H   H753      1.0  0.86894  0.83611  0.45565  1.0000
  H   H754      1.0  0.81355  0.82745  0.39376  1.0000
  H   H755      1.0  0.84872  0.85237  0.40180  1.0000
  H   H756      1.0  0.86402  0.82171  0.41089  1.0000
  H   H757      1.0  0.76973  0.82884  0.47756  1.0000
  H   H758      1.0  0.81364  0.78923  0.41229  1.0000
  C   C649      1.0  0.92924  0.77871  0.32163  1.0000
  Fe  Fe88      1.0  0.69413  0.92614  0.03654  1.0000
  H   H759      1.0  0.75486  0.75068  0.47344  1.0000
  H   H760      1.0  0.56095  0.91913  0.39972  1.0000
  H   H761      1.0  0.59967  0.91811  0.20376  1.0000
  H   H762      1.0  0.91298  0.76373  0.31114  1.0000
  C   C650      1.0  0.99044  0.78361  0.29100  1.0000
  C   C651      1.0  0.54036  0.97247  0.27711  1.0000
  S   S179      1.0  0.65802  0.02192  0.42217  1.0000
  H   H763      1.0  0.74988  0.91558  0.08454  1.0000
  C   C652      1.0  0.56589  0.91669  0.19576  1.0000
  H   H764      1.0  0.91388  0.79674  0.31641  1.0000
  H   H765      1.0  0.60224  0.96008  0.18536  1.0000
  C   C653      1.0  0.59050  0.86003  0.38926  1.0000
  C   C654      1.0  0.54904  0.95960  0.09943  1.0000
  C   C655      1.0  0.99574  0.75505  0.32611  1.0000
  H   H766      1.0  0.57461  0.84360  0.38096  1.0000
  C   C656      1.0  0.66238  0.92235  0.12789  1.0000
  H   H767      1.0  0.58665  0.89376  0.35285  1.0000
  H   H768      1.0  0.98563  0.75082  0.34570  1.0000
  H   H769      1.0  0.61440  0.90721  0.39198  1.0000
  C   C657      1.0  0.97212  0.79156  0.24712  1.0000
  H   H770      1.0  0.53138  0.00941  0.52033  1.0000
  H   H771      1.0  0.74586  0.78954  0.49617  1.0000
  H   H772      1.0  0.58762  0.84702  0.02623  1.0000
  C   C658      1.0  0.65559  0.89857  0.11939  1.0000
  H   H773      1.0  0.53882  0.92755  0.47424  1.0000
  C   C659      1.0  0.55442  0.88895  0.36193  1.0000
  H   H774      1.0  0.53953  0.87383  0.35104  1.0000
  C   C660      1.0  0.96630  0.85351  0.26281  1.0000
  H   H775      1.0  0.56901  0.96754  0.15823  1.0000
  H   H776      1.0  0.93129  0.85266  0.25889  1.0000
  H   H777      1.0  0.54920  0.86700  0.43731  1.0000
  H   H778      1.0  0.60046  0.85494  0.40852  1.0000
  C   C661      1.0  0.59080  0.89473  0.14568  1.0000
  H   H779      1.0  0.67757  0.89107  0.10548  1.0000
  H   H780      1.0  0.53338  0.90575  0.36003  1.0000
  H   H781      1.0  0.54744  0.94844  0.43325  1.0000
  S   S180      1.0  0.99813  0.88866  0.38450  1.0000
  H   H782      1.0  0.52735  0.98114  0.04657  1.0000
  H   H783      1.0  0.68959  0.93324  0.12044  1.0000
  H   H784      1.0  0.78752  0.75123  0.43143  1.0000
  H   H785      1.0  0.94772  0.79513  0.23277  1.0000
  H   H786      1.0  0.98377  0.73977  0.31435  1.0000
  H   H787      1.0  0.56383  0.88320  0.15215  1.0000
  C   C662      1.0  0.99685  0.85284  0.24308  1.0000
  N   N41       1.0  0.56321  0.92988  0.17146  1.0000
  N   N42       1.0  0.88485  0.90485  0.14951  1.0000
  C   C663      1.0  0.90522  0.87990  0.15015  1.0000
  C   C664      1.0  0.91984  0.92281  0.14216  1.0000
  C   C665      1.0  0.86991  0.91020  0.17512  1.0000
  C   C666      1.0  0.84707  0.90714  0.13213  1.0000
  C   C667      1.0  0.82541  0.93020  0.12866  1.0000
  C   C668      1.0  0.83114  0.88710  0.11799  1.0000
  C   C669      1.0  0.79067  0.93311  0.11174  1.0000
  C   C670      1.0  0.79601  0.89018  0.10136  1.0000
  C   C671      1.0  0.77614  0.91315  0.09805  1.0000
  H   H788      1.0  0.91855  0.87495  0.13163  1.0000
  H   H789      1.0  0.93364  0.87879  0.16329  1.0000
  H   H790      1.0  0.88134  0.86544  0.15639  1.0000
  H   H791      1.0  0.91016  0.94221  0.14556  1.0000
  H   H792      1.0  0.92762  0.92151  0.12200  1.0000
  H   H793      1.0  0.95132  0.91951  0.15240  1.0000
  H   H794      1.0  0.84297  0.89736  0.18107  1.0000
  H   H795      1.0  0.89744  0.90808  0.18874  1.0000
  H   H796      1.0  0.85724  0.92932  0.17683  1.0000
  H   H797      1.0  0.83585  0.94628  0.13864  1.0000
  H   H798      1.0  0.84602  0.86900  0.11877  1.0000
  H   H799      1.0  0.77534  0.95101  0.10879  1.0000
  H   H800      1.0  0.78522  0.87482  0.09022  1.0000
  C   C672      1.0  0.95884  0.78711  0.27172  1.0000
  Fe  Fe89      1.0  0.00305  0.85670  0.35847  1.0000
  C   C673      1.0  0.55260  0.01452  0.48290  1.0000
  H   H801      1.0  0.62177  0.86390  0.37879  1.0000
  S   S181      1.0  0.97713  0.84987  0.21231  1.0000
  C   C674      1.0  0.63306  0.93270  0.14491  1.0000
  N   N43       1.0  0.56032  0.88158  0.38844  1.0000
  C   C675      1.0  0.59573  0.91930  0.15400  1.0000
  H   H802      1.0  0.54428  0.96429  0.18828  1.0000
  S   S182      1.0  0.76620  0.93052  0.02728  1.0000
  H   H803      1.0  0.53486  0.97227  0.11240  1.0000
  H   H804      1.0  0.98454  0.81726  0.32642  1.0000
  H   H805      1.0  0.82011  0.03003  0.40499  1.0000
  H   H806      1.0  0.58290  0.02384  0.48807  1.0000
  H   H807      1.0  0.92369  0.78705  0.27514  1.0000
  H   H808      1.0  0.54217  0.92450  0.20948  1.0000
  N   N44       1.0  0.97782  0.77912  0.31732  1.0000
  C   C676      1.0  0.54374  0.01080  0.45790  1.0000
  Fe  Fe90      1.0  0.02253  0.86590  0.12478  1.0000
  Fe  Fe91      1.0  0.02257  0.84730  0.17863  1.0000
  Fe  Fe92      1.0  0.76554  0.88946  0.02314  1.0000
  Fe  Fe93      1.0  0.74296  0.93255  0.98763  1.0000
  S   S183      1.0  0.67102  0.93140  0.99732  1.0000
  S   S184      1.0  0.77211  0.95904  0.95898  1.0000
  Fe  Fe94      1.0  0.67839  0.89019  0.99450  1.0000
  S   S185      1.0  0.62602  0.87047  0.97221  1.0000
  S   S186      1.0  0.74924  0.89160  0.98233  1.0000
  S   S187      1.0  0.65505  0.01395  0.87869  1.0000
  H   H809      1.0  0.74904  0.01046  0.88485  1.0000
  H   H810      1.0  0.60010  0.77887  0.98904  1.0000
  Fe  Fe95      1.0  0.61299  0.74189  0.90805  1.0000
  C   C677      1.0  0.54213  0.75532  0.96517  1.0000
  S   S188      1.0  0.66311  0.76398  0.92962  1.0000
  H   H811      1.0  0.63699  0.73939  0.55403  1.0000
  C   C678      1.0  0.65313  0.79412  0.94019  1.0000
  C   C679      1.0  0.61479  0.80707  0.93373  1.0000
  C   C680      1.0  0.60692  0.83056  0.94354  1.0000
  C   C681      1.0  0.63767  0.84139  0.95954  1.0000
  C   C682      1.0  0.67665  0.82875  0.96538  1.0000
  C   C683      1.0  0.68420  0.80515  0.95583  1.0000
  H   H812      1.0  0.59130  0.79895  0.92118  1.0000
  H   H813      1.0  0.57685  0.84035  0.93883  1.0000
  H   H814      1.0  0.70058  0.83695  0.97766  1.0000
  H   H815      1.0  0.71408  0.79531  0.96081  1.0000
  C   C684      1.0  0.73914  0.97826  0.93966  1.0000
  C   C685      1.0  0.69344  0.98065  0.94315  1.0000
  C   C686      1.0  0.66768  0.99352  0.92538  1.0000
  C   C687      1.0  0.68761  0.00441  0.90427  1.0000
  C   C688      1.0  0.73348  0.00275  0.90138  1.0000
  C   C689      1.0  0.75910  0.98992  0.91905  1.0000
  H   H816      1.0  0.67775  0.97192  0.95908  1.0000
  H   H817      1.0  0.63212  0.99417  0.92745  1.0000
  C   C690      1.0  0.59393  0.74895  0.62060  1.0000
  H   H818      1.0  0.79438  0.98813  0.91618  1.0000
  N   N45       1.0  0.68849  0.90667  0.90893  1.0000
  C   C691      1.0  0.73410  0.91661  0.91072  1.0000
  C   C692      1.0  0.66138  0.91681  0.92931  1.0000
  C   C693      1.0  0.69105  0.87952  0.91306  1.0000
  C   C694      1.0  0.66884  0.91410  0.88478  1.0000
  C   C695      1.0  0.65173  0.89683  0.86769  1.0000
  C   C696      1.0  0.66557  0.93946  0.87794  1.0000
  C   C697      1.0  0.64654  0.94709  0.85550  1.0000
  C   C698      1.0  0.63018  0.92974  0.83914  1.0000
  H   H819      1.0  0.75207  0.74770  0.93472  1.0000
  H   H820      1.0  0.73499  0.93707  0.91015  1.0000
  H   H821      1.0  0.75022  0.91116  0.92857  1.0000
  H   H822      1.0  0.75527  0.91006  0.89525  1.0000
  H   H823      1.0  0.65921  0.93721  0.92836  1.0000
  H   H824      1.0  0.67548  0.91194  0.94777  1.0000
  H   H825      1.0  0.62700  0.90945  0.92896  1.0000
  H   H826      1.0  0.71165  0.87057  0.89865  1.0000
  H   H827      1.0  0.70612  0.87475  0.93141  1.0000
  H   H828      1.0  0.65760  0.87092  0.91345  1.0000
  H   H829      1.0  0.65236  0.87718  0.87131  1.0000
  H   H830      1.0  0.67741  0.95374  0.89002  1.0000
  N   N46       1.0  0.76521  0.71159  0.92002  1.0000
  C   C699      1.0  0.96255  0.74090  0.54239  1.0000
  C   C700      1.0  0.73023  0.75790  0.59913  1.0000
  H   H831      1.0  0.78460  0.72851  0.95452  1.0000
  N   N47       1.0  0.60463  0.76257  0.59722  1.0000
  H   H832      1.0  0.61999  0.79583  0.61721  1.0000
  H   H833      1.0  0.99396  0.74663  0.53321  1.0000
  C   C701      1.0  0.73977  0.74657  0.57673  1.0000
  C   C702      1.0  0.65071  0.75705  0.58974  1.0000
  H   H834      1.0  0.52494  0.74125  0.95393  1.0000
  H   H835      1.0  0.61434  0.75492  0.63650  1.0000
  H   H836      1.0  0.53697  0.76011  0.58459  1.0000
  H   H837      1.0  0.59930  0.72880  0.61854  1.0000
  C   C703      1.0  0.91381  0.70808  0.55496  1.0000
  N   N48       1.0  0.95877  0.71371  0.54520  1.0000
  H   H838      1.0  0.57149  0.73535  0.57526  1.0000
  C   C704      1.0  0.52743  0.83338  0.01025  1.0000
  C   C705      1.0  0.59721  0.81202  0.00891  1.0000
  H   H839      1.0  0.69688  0.71236  0.93183  1.0000
  C   C706      1.0  0.68642  0.76310  0.60560  1.0000
  C   C707      1.0  0.66165  0.74542  0.56706  1.0000
  C   C708      1.0  0.52901  0.02463  0.01654  1.0000
  S   S189      1.0  0.54918  0.75272  0.88996  1.0000
  C   C709      1.0  0.99466  0.70431  0.56145  1.0000
  H   H840      1.0  0.54392  0.00679  0.01377  1.0000
  H   H841      1.0  0.55622  0.74522  0.98148  1.0000
  H   H842      1.0  0.56482  0.79429  0.60617  1.0000
  H   H843      1.0  0.64431  0.96667  0.85094  1.0000
  H   H844      1.0  0.73887  0.70564  0.88341  1.0000
  H   H845      1.0  0.68064  0.77160  0.62331  1.0000
  H   H846      1.0  0.77907  0.73040  0.88515  1.0000
  C   C710      1.0  0.57811  0.79333  0.99492  1.0000
  H   H847      1.0  0.56032  0.75821  0.76751  1.0000
  H   H848      1.0  0.59769  0.70322  0.75506  1.0000
  Fe  Fe96      1.0  0.56995  0.72862  0.85834  1.0000
  C   C711      1.0  0.53601  0.73171  0.79458  1.0000
  C   C712      1.0  0.57120  0.75556  0.57844  1.0000
  H   H849      1.0  0.75691  0.76238  0.61167  1.0000
  S   S190      1.0  0.58412  0.70865  0.92746  1.0000
  H   H850      1.0  0.55885  0.75166  0.62616  1.0000
  C   C713      1.0  0.59964  0.78941  0.60146  1.0000
  C   C714      1.0  0.63278  0.90468  0.84521  1.0000
  H   H851      1.0  0.80893  0.74201  0.92697  1.0000
  H   H852      1.0  0.56969  0.76269  0.95344  1.0000
  C   C715      1.0  0.53868  0.74256  0.77070  1.0000
  S   S191      1.0  0.56935  0.74350  0.81859  1.0000
  C   C716      1.0  0.77836  0.73331  0.93470  1.0000
  H   H853      1.0  0.61532  0.93580  0.82178  1.0000
  H   H854      1.0  0.72413  0.73458  0.89640  1.0000
  H   H855      1.0  0.57678  0.76545  0.56041  1.0000
  H   H856      1.0  0.60926  0.80037  0.58461  1.0000
  C   C717      1.0  0.75145  0.72086  0.89508  1.0000
  H   H857      1.0  0.61981  0.89124  0.83245  1.0000
  H   H858      1.0  0.88768  0.71526  0.54233  1.0000
  S   S192      1.0  0.63665  0.72078  0.87513  1.0000
  H   H859      1.0  0.93536  0.74870  0.53071  1.0000
  H   H860      1.0  0.90776  0.71672  0.57323  1.0000
  H   H861      1.0  0.96101  0.74993  0.56077  1.0000
  H   H862      1.0  0.63224  0.81147  0.01315  1.0000
  H   H863      1.0  0.71309  0.73109  0.54357  1.0000
  H   H864      1.0  0.77364  0.74222  0.57183  1.0000
  C   C718      1.0  0.70559  0.74041  0.56076  1.0000
  C   C719      1.0  0.57208  0.83210  0.01633  1.0000
  C   C720      1.0  0.53266  0.79419  0.98816  1.0000
