data_image0
_chemical_formula_structural       FeSHFeS2FeSFeHSH2CHCHSHFeSFeSH2S2FeS2FeS2FeSFeS3C3H5C6H2C3HSHCH3C2HC5FeH2C4H2C6H3NHC6HFeC2H5SHCHC2NH2SH3C2H4CHC2H3SHCH4C3H2C2NCHCH3CH2CH3CHSHC3H5C2HCH4NC9H14NC9H4C2HCH3C5H3CHFeSHFeSHFeSFeS3HNSCH2FeS2FeS2FeSFeS3FeSCS2C2HFeC3H2SH3CH2CH4C7H3C3NCH2CHC6H5CH2CH2C6H2SHCHSHCH4SCH2CH3C2HFeC3H2C2SCHNC9H14NC9H14C2NHFeC2SH2CHC2H2CHSC2H10CHC2HCH2FeS2FeS2FeSFeS3H3SHSFeSFeSCFeS2FeNSFeHFeS3CHC2H3CFeHCHC3HCH3C3HC2HCHCHCHCHCH2SH2C7H4C6HCH2C2HC2H4NFeHCHCH2CHCH6CH2CSH2NCHCH2CNC2HC2HCHC4H6CHC3H2C2NCNC7H14CHCHCHCH2CH2CHCH2C4HCH2CSHSH3CH3CHSH2CH3C2H2FeH5CHCHFeS2FeS2FeSFeS4FeS2HSHSFeSHFeSFeS2HSHCH3CSCH3C7HNHC6H3C7H14C2NSH3CH2SNC2HCFeCHCH3CH2CH2CFe2H2C2H7SCHC4HCHCH8C2HNC7H3SHC3HCH2CHCHSHC7HNC3HSCH7CH3FeCHCH4CFeS2FeS2FeSFeS3FeSCFeS2FeSFeS2HSFeS2H3C6H2C4H3C6H5NH2C6HC2HC2HCH3C2SCNCNC7HCH9C2NC5H2CH2CH4SHCHC3H2NC3H12SHCHFeHCH5C2HCH2CNHCFeCH2C2HC3H3FeH3CHCHCHSH4C2H2CH2CHCSH2CHCHSHC2HCH2CHC3SCHCH2C3FeSCFeS2FeSFeHS2C3HCHFeSCFeS2FeS2FeHFeS3HS2CFeSH2CHC3HC2H2C2HC2HC3HNH2C6HCH2C6H5CHSC2SC7H6C2FeNC9H19CHC2HC2HC3HNCHNSCH2CH2C2HCNHCH2C2H2C3SHNH2C2H3CH9C2HCH2CHSHCH2SHC2H2CH2SCH3CHCH2CFe2CHCH2CHCH2CHC2HS2FeS2FeS2FeSFeS3FeHSFeSHFeSFeSCFeS2CSCFeSCFeSH2FeH8C3H2C5H5CH5CH2CH2C7H4C6HCH2SH5C2H3C2NC9H12NC9NH3SC2H4SH5C3NCHSC4HCHCH2NCHNCH4C2H4CH3C2HSHCH2CH6CH2CHC2HC6H3SC2HCH2C2H2C3H3CHC2H2FeS2FeSFe2CS2HSCFeS2FeS2FeSFeS4HFeSHC2HC6HCSHC3HC2H5C3HCHCHC6H3C6H5C2H2C7H5C3HC2H2CH2SCHCHFeHNCHSH2CH5CH3SH2CSNH2C2HCH5CH2CH2CH5CFeC2NC2HCHNC7HCH14SHCHC2H3FeCHSH5CHC2SHC3NHNHCSHCHCHCH3CHC2HCH6FeS2FeS2FeHFeS3H2CFeS2FeS2FeSFeS3FeSFeS3H3C4HC6H2C3H3C3H4C5NH2CHC7H5CHC2HC2H2SH2CH7CHCFeCNH5NHCH3CHSH2CH2C3HNH5C3SH2CH3CH2CHCH8CH4C4NCHCH2FeH2C2NHCHC2HCH2C2HSHC2H3CHNC4H2SHC3H3CH4C2HCHC2HCHCNCHSCHC2HC4HS2H2FeS2FeSHFeSFeS3FeS2FeS2FeSFeS3FeS2CSHC6H3NC6H4C6H5C2H4C3H2C3HCH3CH2CH3CSH2FeCHC3H2CH4C2H3CNH6CH2CH4CNCHC4HCNC9H12SC2NC9H14CHC4H2CH2C2H4C3HCH4NSFeHCHCHCH2CH2FeS2FeS2FeSFeS3HFeSFeS2C2S2FeS2FeS2FeSFeCS2HCH2C3HC2HCHFeHC3H2C2H2CHCHCHCSC2H3C2H2C3H2CHC6H4C6H2C3H2CHCHCH2NSH3C2H2CH2CH2CNC9H14CH3NC9H13CH2CH2C2H6C2H4NCHNHCHFeHC2HCH2C2FeH8FeS2FeS2FeSFeS5FeSCSFeS2FeH2FeHFeHS2CHCNH3CSH2CH2C2NHCHC2H3C4H2C3FeHC2H2C6H4C4H4CH2FeHC3HCSCHSH2SHCH2CHCH2SCHC2NC9H14C2HSHC3H2CNSHC2H4C2HSNC9H11C2FeHC2H2CH3CHC2HCH2CH3CNH3CH3C2HC2H5CH2CSCH6CHCFeSCFeS2FeHFeSHSHSCFeS2FeS2FeSFeS3FeSHS4C2HCH2C6H3C2H2CHCHCH2C3H5C2HC3HCH2CNHC4H2C6H8CH8NHC3SH4CHCH2C2H3C2HCHNC3H13CHCHCHC4HCHC2HCH2CH5NCHSHFeCFeCH2C2HCHNH3NC5HCSH8C2HC3HC2H3CHFeH2C7HCH3CFeSHFeS2FeSFeS4CFeSHSH2FeS2FeHSFeHFeCS2HCFeS2HNHC4NH2C2HC3H3C4H3C2HC3HCH2C6H3SC6H4CNFeCHC2HC5HSHSCHCH2SCHCH4C2H3CH3CH2SCHCH2CH2CSCSHCH2CH2NC6HC2H13CNCH3CNH5FeCHCH2CHCHC6H4C2HNH2CH2CH4CHC4H3CHC2H6CHCH2CH2CHCNHC3FeSHFeSHFeSFeS3FeSFeS2FeS2FeSFeS3HSC2HC6SH2C4H3C3H2CH2CHCHC3HNC6H4CS2C2SC3HCHSCHC2NC9H16CFeH5NH2CH7C2HC2HC2SHNC5H2CH12C2HC2NCHC3SHC4H2CHCHCH2C2H9CH3C2H2CHC2H2CH2CHS2HCHCH3CHCHCSC2SHSFeSHFeS2FeSFeS3FeS2FeS2FeCFeS3C4NHFeS2C6H2C5H3FeHC2HC7H6CHC4H2C4H7C2H3CH3CHCH2CH5C7HCH3C2HCHNSC2NC9H14CHC2HCH2CHSHNCHCH3CH4FeH3CHCH2CHSNC2H3CH4CH2CH3C2H3CNHC3H3C2SFeH2CHCH3CNHC6HCHC2HCSHC2H4C2
_chemical_formula_sum              "Fe192 S384 H1728 C1440 N96"
_cell_length_a       78.2317
_cell_length_b       78.7192
_cell_length_c       36.5267
_cell_angle_alpha    88.7843
_cell_angle_beta     88.6328
_cell_angle_gamma    87.7509

_space_group_name_H-M_alt    "P 1"
_space_group_IT_number       1

loop_
  _space_group_symop_operation_xyz
  'x, y, z'

loop_
  _atom_site_type_symbol
  _atom_site_label
  _atom_site_symmetry_multiplicity
  _atom_site_fract_x
  _atom_site_fract_y
  _atom_site_fract_z
  _atom_site_occupancy
  Fe  Fe1       1.0  0.01364  0.12088  0.23345  1.0000
  S   S1        1.0  0.02515  0.11611  0.17757  1.0000
  H   H1        1.0  0.19272  0.23542  0.24304  1.0000
  Fe  Fe2       1.0  0.02870  0.08656  0.26542  1.0000
  S   S2        1.0  0.04070  0.07992  0.21048  1.0000
  S   S3        1.0  0.03571  0.06653  0.31034  1.0000
  Fe  Fe3       1.0  0.04912  0.10700  0.20693  1.0000
  S   S4        1.0  0.07604  0.11106  0.18180  1.0000
  Fe  Fe4       1.0  0.01611  0.08952  0.18619  1.0000
  H   H2        1.0  0.22384  0.12720  0.33254  1.0000
  S   S5        1.0  0.03823  0.11346  0.26290  1.0000
  H   H3        1.0  0.18336  0.03149  0.76201  1.0000
  H   H4        1.0  0.20783  0.00291  0.80561  1.0000
  C   C1        1.0  0.19403  0.00260  0.80712  1.0000
  H   H5        1.0  0.15772  0.13493  0.03894  1.0000
  C   C2        1.0  0.19631  0.20342  0.27500  1.0000
  H   H6        1.0  0.00331  0.02291  0.62449  1.0000
  S   S6        1.0  0.02119  0.01136  0.05558  1.0000
  H   H7        1.0  0.19061  0.21998  0.20763  1.0000
  Fe  Fe5       1.0  0.22039  0.04350  0.86167  1.0000
  S   S7        1.0  0.19454  0.03122  0.85190  1.0000
  Fe  Fe6       1.0  0.23291  0.07376  0.90575  1.0000
  S   S8        1.0  0.22775  0.09568  0.94689  1.0000
  H   H8        1.0  0.06261  0.03810  0.47547  1.0000
  H   H9        1.0  0.10952  0.11249  0.14806  1.0000
  S   S9        1.0  0.21973  0.07198  0.85130  1.0000
  S   S10       1.0  0.23193  0.04564  0.91784  1.0000
  Fe  Fe7       1.0  0.20379  0.13372  0.15772  1.0000
  S   S11       1.0  0.17844  0.14800  0.15156  1.0000
  S   S12       1.0  0.21218  0.11220  0.11765  1.0000
  Fe  Fe8       1.0  0.21050  0.15029  0.23332  1.0000
  S   S13       1.0  0.18542  0.16535  0.22994  1.0000
  S   S14       1.0  0.22847  0.15676  0.28128  1.0000
  Fe  Fe9       1.0  0.17349  0.14162  0.21096  1.0000
  S   S15       1.0  0.14755  0.13627  0.23915  1.0000
  Fe  Fe10      1.0  0.19197  0.17097  0.17075  1.0000
  S   S16       1.0  0.18272  0.19732  0.14819  1.0000
  S   S17       1.0  0.19818  0.12604  0.21728  1.0000
  S   S18       1.0  0.21778  0.15712  0.17401  1.0000
  C   C3        1.0  0.19219  0.21639  0.13136  1.0000
  C   C4        1.0  0.20990  0.21842  0.13013  1.0000
  C   C5        1.0  0.01234  0.03908  0.53930  1.0000
  H   H10       1.0  0.14437  0.00166  0.81011  1.0000
  H   H11       1.0  0.04170  0.00475  0.49017  1.0000
  H   H12       1.0  0.21842  0.20794  0.13829  1.0000
  H   H13       1.0  0.16565  0.17694  0.33855  1.0000
  H   H14       1.0  0.15764  0.17990  0.10199  1.0000
  C   C6        1.0  0.22220  0.09992  0.99420  1.0000
  C   C7        1.0  0.21980  0.08702  0.02069  1.0000
  C   C8        1.0  0.21645  0.09107  0.05788  1.0000
  C   C9        1.0  0.21503  0.10808  0.06946  1.0000
  C   C10       1.0  0.21690  0.12100  0.04282  1.0000
  C   C11       1.0  0.22056  0.11694  0.00569  1.0000
  H   H15       1.0  0.21596  0.13414  0.05094  1.0000
  H   H16       1.0  0.00052  0.07129  0.34036  1.0000
  C   C12       1.0  0.18484  0.03275  0.73267  1.0000
  C   C13       1.0  0.24235  0.11973  0.70376  1.0000
  C   C14       1.0  0.03030  0.04609  0.47188  1.0000
  H   H17       1.0  0.11865  0.19369  0.10521  1.0000
  S   S19       1.0  0.99982  0.07796  0.14319  1.0000
  H   H18       1.0  0.20388  0.07859  0.70226  1.0000
  C   C15       1.0  0.99345  0.05024  0.10249  1.0000
  H   H19       1.0  0.17380  0.00847  0.94896  1.0000
  H   H20       1.0  0.10198  0.16909  0.13510  1.0000
  H   H21       1.0  0.21513  0.22915  0.29256  1.0000
  C   C16       1.0  0.18467  0.01474  0.82772  1.0000
  C   C17       1.0  0.16669  0.01410  0.82878  1.0000
  H   H22       1.0  0.15924  0.02354  0.84405  1.0000
  C   C18       1.0  0.02267  0.05423  0.34104  1.0000
  C   C19       1.0  0.02964  0.03904  0.35676  1.0000
  C   C20       1.0  0.02017  0.02934  0.38261  1.0000
  C   C21       1.0  0.00372  0.03496  0.39405  1.0000
  C   C22       1.0  0.21308  0.07073  0.71886  1.0000
  Fe  Fe11      1.0  0.00203  0.99900  0.02009  1.0000
  H   H23       1.0  0.04241  0.03466  0.34862  1.0000
  H   H24       1.0  0.02561  0.01757  0.39376  1.0000
  C   C23       1.0  0.00572  0.05847  0.12237  1.0000
  C   C24       1.0  0.01477  0.02883  0.08302  1.0000
  C   C25       1.0  0.02697  0.03681  0.10366  1.0000
  C   C26       1.0  0.02245  0.05156  0.12343  1.0000
  H   H25       1.0  0.04002  0.03176  0.10379  1.0000
  H   H26       1.0  0.03200  0.05781  0.13864  1.0000
  C   C27       1.0  0.09564  0.11874  0.19799  1.0000
  C   C28       1.0  0.09699  0.12565  0.23275  1.0000
  C   C29       1.0  0.11291  0.13110  0.24458  1.0000
  C   C30       1.0  0.12767  0.12996  0.22178  1.0000
  C   C31       1.0  0.12626  0.12343  0.18668  1.0000
  C   C32       1.0  0.11036  0.11782  0.17499  1.0000
  H   H27       1.0  0.08580  0.12681  0.25059  1.0000
  H   H28       1.0  0.11381  0.13614  0.27176  1.0000
  H   H29       1.0  0.13748  0.12233  0.16887  1.0000
  N   N1        1.0  0.03732  0.03195  0.49537  1.0000
  H   H30       1.0  0.17067  0.16187  0.05490  1.0000
  C   C33       1.0  0.05557  0.03527  0.50160  1.0000
  C   C34       1.0  0.02543  0.01583  0.59134  1.0000
  C   C35       1.0  0.02797  0.02998  0.53089  1.0000
  C   C36       1.0  0.15817  0.00150  0.81000  1.0000
  C   C37       1.0  0.03415  0.01817  0.55789  1.0000
  C   C38       1.0  0.01631  0.07959  0.04227  1.0000
  H   H31       1.0  0.14275  0.16058  0.18383  1.0000
  Fe  Fe12      1.0  0.99473  0.99854  0.46043  1.0000
  C   C39       1.0  0.23779  0.13255  0.38153  1.0000
  C   C40       1.0  0.01022  0.02502  0.59882  1.0000
  H   H32       1.0  0.11962  0.20086  0.15160  1.0000
  H   H33       1.0  0.04132  0.06763  0.04803  1.0000
  H   H34       1.0  0.06254  0.02412  0.51422  1.0000
  H   H35       1.0  0.05673  0.04627  0.51992  1.0000
  H   H36       1.0  0.15358  0.19741  0.29287  1.0000
  S   S20       1.0  0.00081  0.00488  0.95965  1.0000
  H   H37       1.0  0.13496  0.18110  0.19864  1.0000
  C   C41       1.0  0.00608  0.05962  0.35183  1.0000
  H   H38       1.0  0.22568  0.18453  0.68712  1.0000
  C   C42       1.0  0.19664  0.04581  0.67754  1.0000
  C   C43       1.0  0.99679  0.05015  0.37839  1.0000
  N   N2        1.0  0.20830  0.21239  0.24996  1.0000
  H   H39       1.0  0.21502  0.08091  0.07797  1.0000
  H   H40       1.0  0.03034  0.00654  0.61121  1.0000
  S   S21       1.0  0.99781  0.99758  0.52200  1.0000
  H   H41       1.0  0.14610  0.99591  0.94502  1.0000
  H   H42       1.0  0.00718  0.04104  0.98290  1.0000
  H   H43       1.0  0.23306  0.13025  0.70501  1.0000
  C   C44       1.0  0.17643  0.02125  0.71146  1.0000
  C   C45       1.0  0.16733  0.19601  0.29559  1.0000
  H   H44       1.0  0.15280  0.17926  0.16722  1.0000
  H   H45       1.0  0.22361  0.06559  0.70073  1.0000
  H   H46       1.0  0.16873  0.01157  0.72465  1.0000
  H   H47       1.0  0.13095  0.12628  0.07022  1.0000
  C   C46       1.0  0.15631  0.99077  0.92768  1.0000
  H   H48       1.0  0.20439  0.05481  0.66271  1.0000
  C   C47       1.0  0.23153  0.13626  0.34587  1.0000
  C   C48       1.0  0.21715  0.19986  0.22559  1.0000
  H   H49       1.0  0.23410  0.10882  0.75607  1.0000
  H   H50       1.0  0.01694  0.04386  0.46384  1.0000
  H   H51       1.0  0.00627  0.04789  0.52014  1.0000
  S   S22       1.0  0.00341  0.09453  0.24103  1.0000
  H   H52       1.0  0.04368  0.01670  0.44815  1.0000
  C   C49       1.0  0.15149  0.14310  0.05920  1.0000
  H   H53       1.0  0.23019  0.21161  0.28535  1.0000
  H   H54       1.0  0.22053  0.07388  0.01270  1.0000
  H   H55       1.0  0.03765  0.04738  0.44553  1.0000
  H   H56       1.0  0.04552  0.01022  0.55298  1.0000
  C   C50       1.0  0.19516  0.04542  0.71645  1.0000
  C   C51       1.0  0.00941  0.05231  0.99814  1.0000
  C   C52       1.0  0.17223  0.99810  0.93041  1.0000
  H   H57       1.0  0.19866  0.07516  0.78243  1.0000
  H   H58       1.0  0.18747  0.05616  0.78782  1.0000
  C   C53       1.0  0.99792  0.03539  0.08317  1.0000
  C   C54       1.0  0.19974  0.22562  0.22638  1.0000
  N   N3        1.0  0.20440  0.05700  0.73979  1.0000
  C   C55       1.0  0.19238  0.06527  0.76670  1.0000
  H   H59       1.0  0.11228  0.15648  0.17090  1.0000
  C   C56       1.0  0.00368  0.03659  0.57285  1.0000
  H   H60       1.0  0.10587  0.17793  0.17883  1.0000
  H   H61       1.0  0.21206  0.03734  0.77904  1.0000
  H   H62       1.0  0.03046  0.05849  0.48588  1.0000
  C   C57       1.0  0.22133  0.22088  0.27130  1.0000
  H   H63       1.0  0.19822  0.99861  0.90990  1.0000
  H   H64       1.0  0.99967  0.15171  0.16751  1.0000
  C   C58       1.0  0.20269  0.19172  0.30195  1.0000
  H   H65       1.0  0.22661  0.20592  0.20677  1.0000
  H   H66       1.0  0.18119  0.07146  0.75282  1.0000
  H   H67       1.0  0.13871  0.19869  0.12470  1.0000
  C   C59       1.0  0.18810  0.03427  0.65651  1.0000
  H   H68       1.0  0.20904  0.23228  0.20811  1.0000
  S   S23       1.0  0.99556  0.14394  0.24617  1.0000
  H   H69       1.0  0.23472  0.12064  0.39498  1.0000
  C   C60       1.0  0.17804  0.02202  0.67344  1.0000
  C   C61       1.0  0.17409  0.18449  0.32141  1.0000
  C   C62       1.0  0.17820  0.20535  0.27253  1.0000
  H   H70       1.0  0.22229  0.12711  0.98572  1.0000
  H   H71       1.0  0.19706  0.17305  0.34395  1.0000
  H   H72       1.0  0.01886  0.08973  0.06082  1.0000
  H   H73       1.0  0.11712  0.14379  0.11676  1.0000
  H   H74       1.0  0.17209  0.21367  0.25251  1.0000
  C   C63       1.0  0.23546  0.15147  0.32733  1.0000
  C   C64       1.0  0.03644  0.01603  0.47469  1.0000
  H   H75       1.0  0.16770  0.22887  0.12101  1.0000
  C   C65       1.0  0.21767  0.04698  0.76003  1.0000
  H   H76       1.0  0.22415  0.18958  0.24121  1.0000
  H   H77       1.0  0.02296  0.01346  0.46839  1.0000
  H   H78       1.0  0.20786  0.19358  0.20826  1.0000
  H   H79       1.0  0.22962  0.22890  0.25344  1.0000
  N   N4        1.0  0.08795  0.07453  0.27444  1.0000
  C   C66       1.0  0.08829  0.06385  0.30844  1.0000
  C   C67       1.0  0.07685  0.08988  0.28115  1.0000
  C   C68       1.0  0.07980  0.06460  0.24591  1.0000
  C   C69       1.0  0.10544  0.07972  0.26407  1.0000
  C   C70       1.0  0.11304  0.07676  0.22887  1.0000
  C   C71       1.0  0.11528  0.08849  0.28928  1.0000
  C   C72       1.0  0.12954  0.08200  0.22000  1.0000
  C   C73       1.0  0.13172  0.09376  0.27999  1.0000
  C   C74       1.0  0.13885  0.09046  0.24549  1.0000
  H   H80       1.0  0.09230  0.07096  0.33251  1.0000
  H   H81       1.0  0.07534  0.05916  0.31582  1.0000
  H   H82       1.0  0.09718  0.05257  0.30514  1.0000
  H   H83       1.0  0.08166  0.09789  0.30301  1.0000
  H   H84       1.0  0.06364  0.08649  0.28968  1.0000
  H   H85       1.0  0.07580  0.09794  0.25591  1.0000
  H   H86       1.0  0.08746  0.05279  0.23948  1.0000
  H   H87       1.0  0.06680  0.06060  0.25494  1.0000
  H   H88       1.0  0.07799  0.07228  0.22020  1.0000
  H   H89       1.0  0.10639  0.07076  0.20737  1.0000
  H   H90       1.0  0.11017  0.09172  0.31607  1.0000
  H   H91       1.0  0.13496  0.07997  0.19278  1.0000
  H   H92       1.0  0.13882  0.10094  0.29914  1.0000
  H   H93       1.0  0.15139  0.09506  0.23806  1.0000
  N   N5        1.0  0.12837  0.17477  0.14352  1.0000
  C   C75       1.0  0.14019  0.17397  0.17464  1.0000
  C   C76       1.0  0.12624  0.19274  0.13062  1.0000
  C   C77       1.0  0.11138  0.16930  0.15746  1.0000
  C   C78       1.0  0.13572  0.16407  0.11373  1.0000
  C   C79       1.0  0.12859  0.14851  0.10378  1.0000
  C   C80       1.0  0.15104  0.16864  0.09499  1.0000
  C   C81       1.0  0.13643  0.13824  0.07692  1.0000
  C   C82       1.0  0.15873  0.15830  0.06810  1.0000
  C   C83       1.0  0.21664  0.23403  0.11794  1.0000
  H   H94       1.0  0.22537  0.05533  0.77679  1.0000
  H   H95       1.0  0.21626  0.18918  0.30489  1.0000
  H   H96       1.0  0.23035  0.23538  0.11696  1.0000
  H   H97       1.0  0.17155  0.01301  0.65715  1.0000
  C   C84       1.0  0.18141  0.23019  0.12012  1.0000
  C   C85       1.0  0.19174  0.18236  0.32459  1.0000
  H   H98       1.0  0.24151  0.17749  0.71951  1.0000
  C   C86       1.0  0.02557  0.05353  0.01313  1.0000
  H   H99       1.0  0.03518  0.04337  0.00920  1.0000
  H   H100      1.0  0.23685  0.16422  0.68240  1.0000
  H   H101      1.0  0.22673  0.04014  0.74097  1.0000
  C   C87       1.0  0.00013  0.07859  0.02715  1.0000
  C   C88       1.0  0.99622  0.06490  0.00429  1.0000
  C   C89       1.0  0.24286  0.10751  0.73287  1.0000
  C   C90       1.0  0.23834  0.17774  0.69001  1.0000
  C   C91       1.0  0.02901  0.06713  0.03517  1.0000
  H   H102      1.0  0.23442  0.18974  0.62163  1.0000
  H   H103      1.0  0.21935  0.07954  0.73741  1.0000
  H   H104      1.0  0.18939  0.03475  0.62689  1.0000
  C   C92       1.0  0.18606  0.99250  0.90856  1.0000
  H   H105      1.0  0.18917  0.43482  0.43808  1.0000
  Fe  Fe13      1.0  0.01634  0.34454  0.02295  1.0000
  S   S24       1.0  0.03956  0.35059  0.05536  1.0000
  H   H106      1.0  0.00636  0.48633  0.52523  1.0000
  Fe  Fe14      1.0  0.01673  0.37915  0.98104  1.0000
  S   S25       1.0  0.03976  0.38756  0.01048  1.0000
  H   H107      1.0  0.02465  0.44416  0.94035  1.0000
  Fe  Fe15      1.0  0.05102  0.36092  0.00298  1.0000
  S   S26       1.0  0.07938  0.35858  0.98466  1.0000
  Fe  Fe16      1.0  0.02710  0.37677  0.06116  1.0000
  S   S27       1.0  0.03016  0.38968  0.11552  1.0000
  S   S28       1.0  0.02876  0.35322  0.96944  1.0000
  S   S29       1.0  0.00312  0.37004  0.03296  1.0000
  H   H108      1.0  0.01280  0.47558  0.62107  1.0000
  N   N6        1.0  0.23300  0.35737  0.71935  1.0000
  S   S30       1.0  0.01294  0.44971  0.81250  1.0000
  C   C93       1.0  0.23282  0.37608  0.20219  1.0000
  H   H109      1.0  0.01293  0.43591  0.19823  1.0000
  H   H110      1.0  0.01352  0.46662  0.90047  1.0000
  Fe  Fe17      1.0  0.17399  0.31726  0.04615  1.0000
  S   S31       1.0  0.19173  0.33729  0.02473  1.0000
  S   S32       1.0  0.14455  0.31795  0.05183  1.0000
  Fe  Fe18      1.0  0.20388  0.29211  0.06553  1.0000
  S   S33       1.0  0.22341  0.31064  0.04427  1.0000
  S   S34       1.0  0.21517  0.26731  0.09187  1.0000
  Fe  Fe19      1.0  0.20747  0.33063  0.07501  1.0000
  S   S35       1.0  0.22087  0.35039  0.10968  1.0000
  Fe  Fe20      1.0  0.20656  0.31585  0.99549  1.0000
  S   S36       1.0  0.21234  0.31587  0.93197  1.0000
  S   S37       1.0  0.18882  0.31192  0.09785  1.0000
  S   S38       1.0  0.18789  0.29606  0.01534  1.0000
  Fe  Fe21      1.0  0.22392  0.42285  0.36888  1.0000
  S   S39       1.0  0.20578  0.44671  0.36931  1.0000
  C   C94       1.0  0.00302  0.41309  0.10813  1.0000
  S   S40       1.0  0.22514  0.37377  0.27801  1.0000
  S   S41       1.0  0.21992  0.39451  0.37318  1.0000
  C   C95       1.0  0.20844  0.36800  0.76120  1.0000
  C   C96       1.0  0.22110  0.35724  0.15650  1.0000
  H   H111      1.0  0.17303  0.43685  0.32404  1.0000
  Fe  Fe22      1.0  0.23544  0.39253  0.31999  1.0000
  C   C97       1.0  0.22345  0.36825  0.23061  1.0000
  C   C98       1.0  0.21272  0.35506  0.22144  1.0000
  C   C99       1.0  0.21142  0.34969  0.18482  1.0000
  H   H112      1.0  0.20533  0.34890  0.24294  1.0000
  H   H113      1.0  0.20291  0.33971  0.17867  1.0000
  S   S42       1.0  0.14382  0.47771  0.46875  1.0000
  H   H114      1.0  0.17964  0.25616  0.09901  1.0000
  H   H115      1.0  0.13417  0.47555  0.30592  1.0000
  H   H116      1.0  0.09396  0.46938  0.40874  1.0000
  C   C100      1.0  0.10163  0.47023  0.33868  1.0000
  H   H117      1.0  0.20059  0.37214  0.73855  1.0000
  H   H118      1.0  0.00271  0.47405  0.09071  1.0000
  C   C101      1.0  0.13801  0.44703  0.37738  1.0000
  H   H119      1.0  0.20498  0.36687  0.85445  1.0000
  H   H120      1.0  0.16508  0.44734  0.47557  1.0000
  H   H121      1.0  0.12822  0.48804  0.39792  1.0000
  H   H122      1.0  0.22205  0.48095  0.36264  1.0000
  C   C102      1.0  0.00881  0.43399  0.84733  1.0000
  C   C103      1.0  0.20585  0.24780  0.10640  1.0000
  C   C104      1.0  0.15306  0.43848  0.36539  1.0000
  C   C105      1.0  0.00361  0.40950  0.90480  1.0000
  C   C106      1.0  0.02019  0.41386  0.89405  1.0000
  C   C107      1.0  0.02273  0.42603  0.86560  1.0000
  C   C108      1.0  0.05502  0.48939  0.62070  1.0000
  H   H123      1.0  0.10328  0.44900  0.39771  1.0000
  H   H124      1.0  0.03106  0.40797  0.90782  1.0000
  H   H125      1.0  0.03562  0.42937  0.85778  1.0000
  C   C109      1.0  0.01697  0.40734  0.12887  1.0000
  C   C110      1.0  0.02049  0.41568  0.16133  1.0000
  C   C111      1.0  0.01013  0.42964  0.17311  1.0000
  N   N7        1.0  0.24249  0.30441  0.15957  1.0000
  C   C112      1.0  0.03931  0.48608  0.34407  1.0000
  H   H126      1.0  0.08927  0.47657  0.34768  1.0000
  H   H127      1.0  0.24206  0.33593  0.68751  1.0000
  C   C113      1.0  0.01143  0.44864  0.94388  1.0000
  H   H128      1.0  0.15893  0.42849  0.38235  1.0000
  C   C114      1.0  0.09732  0.34799  0.00583  1.0000
  C   C115      1.0  0.11398  0.35263  0.99536  1.0000
  C   C116      1.0  0.12857  0.34400  0.00990  1.0000
  C   C117      1.0  0.12671  0.33027  0.03446  1.0000
  C   C118      1.0  0.11005  0.32580  0.04534  1.0000
  C   C119      1.0  0.09546  0.33468  0.03146  1.0000
  H   H129      1.0  0.11561  0.36293  0.97567  1.0000
  H   H130      1.0  0.14122  0.34790  0.00185  1.0000
  H   H131      1.0  0.10840  0.31527  0.06444  1.0000
  H   H132      1.0  0.08278  0.33085  0.03971  1.0000
  H   H133      1.0  0.03811  0.48294  0.66632  1.0000
  C   C120      1.0  0.99583  0.33068  0.92365  1.0000
  H   H134      1.0  0.23324  0.30403  0.23271  1.0000
  H   H135      1.0  0.16111  0.49014  0.40108  1.0000
  C   C121      1.0  0.20133  0.37032  0.79639  1.0000
  H   H136      1.0  0.16051  0.46034  0.28609  1.0000
  H   H137      1.0  0.03124  0.41128  0.17754  1.0000
  C   C122      1.0  0.18893  0.45528  0.39811  1.0000
  C   C123      1.0  0.18086  0.47097  0.38806  1.0000
  C   C124      1.0  0.16715  0.47812  0.40930  1.0000
  C   C125      1.0  0.16131  0.46966  0.44100  1.0000
  C   C126      1.0  0.16946  0.45403  0.45112  1.0000
  C   C127      1.0  0.18318  0.44689  0.42993  1.0000
  H   H138      1.0  0.18510  0.47756  0.36341  1.0000
  H   H139      1.0  0.99412  0.36561  0.89721  1.0000
  S   S43       1.0  0.00538  0.31768  0.02640  1.0000
  H   H140      1.0  0.21893  0.37687  0.68884  1.0000
  C   C128      1.0  0.15403  0.45651  0.31132  1.0000
  H   H141      1.0  0.21966  0.29614  0.13458  1.0000
  S   S44       1.0  0.02399  0.47187  0.32953  1.0000
  H   H142      1.0  0.00601  0.43007  0.98618  1.0000
  C   C129      1.0  0.00811  0.47956  0.59349  1.0000
  H   H143      1.0  0.00018  0.40673  0.08314  1.0000
  H   H144      1.0  0.20987  0.31022  0.85407  1.0000
  H   H145      1.0  0.21669  0.30180  0.18139  1.0000
  H   H146      1.0  0.99844  0.28251  0.04110  1.0000
  S   S45       1.0  0.01162  0.48307  0.22335  1.0000
  C   C130      1.0  0.00479  0.46164  0.92104  1.0000
  H   H147      1.0  0.22532  0.33138  0.72039  1.0000
  H   H148      1.0  0.23899  0.45870  0.38823  1.0000
  C   C131      1.0  0.99607  0.43525  0.15260  1.0000
  H   H149      1.0  0.09888  0.45711  0.33039  1.0000
  H   H150      1.0  0.22834  0.36035  0.66141  1.0000
  H   H151      1.0  0.23922  0.37661  0.14420  1.0000
  C   C132      1.0  0.23420  0.35571  0.78807  1.0000
  C   C133      1.0  0.22515  0.36049  0.75602  1.0000
  H   H152      1.0  0.21907  0.31806  0.14685  1.0000
  Fe  Fe23      1.0  0.00599  0.47995  0.28397  1.0000
  C   C134      1.0  0.22694  0.35795  0.82304  1.0000
  C   C135      1.0  0.22295  0.31342  0.85855  1.0000
  C   C136      1.0  0.16106  0.44321  0.33250  1.0000
  H   H153      1.0  0.23407  0.35380  0.84701  1.0000
  H   H154      1.0  0.24301  0.47162  0.29083  1.0000
  C   C137      1.0  0.22193  0.36294  0.68849  1.0000
  C   C138      1.0  0.22368  0.30510  0.15558  1.0000
  S   S46       1.0  0.23816  0.42094  0.31428  1.0000
  C   C139      1.0  0.13891  0.46508  0.32289  1.0000
  H   H155      1.0  0.11453  0.46343  0.42584  1.0000
  N   N8        1.0  0.15864  0.31629  0.92253  1.0000
  C   C140      1.0  0.16478  0.29832  0.92802  1.0000
  C   C141      1.0  0.16673  0.32264  0.88789  1.0000
  C   C142      1.0  0.16479  0.32648  0.95278  1.0000
  C   C143      1.0  0.13969  0.31761  0.92287  1.0000
  C   C144      1.0  0.13007  0.31016  0.95207  1.0000
  C   C145      1.0  0.13033  0.32732  0.89624  1.0000
  C   C146      1.0  0.11225  0.31215  0.95425  1.0000
  C   C147      1.0  0.11249  0.32942  0.89902  1.0000
  C   C148      1.0  0.10349  0.32191  0.92803  1.0000
  H   H156      1.0  0.17904  0.29696  0.92594  1.0000
  H   H157      1.0  0.16138  0.29313  0.95562  1.0000
  H   H158      1.0  0.15943  0.28998  0.90730  1.0000
  H   H159      1.0  0.16213  0.31584  0.86383  1.0000
  H   H160      1.0  0.18094  0.32070  0.88804  1.0000
  H   H161      1.0  0.16435  0.33656  0.88383  1.0000
  H   H162      1.0  0.16022  0.32167  0.97998  1.0000
  H   H163      1.0  0.17900  0.32623  0.95332  1.0000
  H   H164      1.0  0.16026  0.34001  0.95012  1.0000
  H   H165      1.0  0.13626  0.30339  0.97450  1.0000
  H   H166      1.0  0.13648  0.33375  0.87345  1.0000
  H   H167      1.0  0.10525  0.30671  0.97735  1.0000
  H   H168      1.0  0.10558  0.33723  0.87906  1.0000
  H   H169      1.0  0.08973  0.32404  0.93082  1.0000
  N   N9        1.0  0.08166  0.37234  0.11433  1.0000
  C   C149      1.0  0.07550  0.37688  0.07720  1.0000
  C   C150      1.0  0.07024  0.35929  0.13013  1.0000
  C   C151      1.0  0.07969  0.38758  0.13753  1.0000
  C   C152      1.0  0.09991  0.36657  0.11196  1.0000
  C   C153      1.0  0.11241  0.37762  0.09739  1.0000
  C   C154      1.0  0.10582  0.35004  0.12353  1.0000
  C   C155      1.0  0.12967  0.37240  0.09425  1.0000
  C   C156      1.0  0.12314  0.34500  0.12041  1.0000
  C   C157      1.0  0.13501  0.35611  0.10567  1.0000
  H   H170      1.0  0.07653  0.36569  0.05921  1.0000
  H   H171      1.0  0.06186  0.38144  0.07791  1.0000
  H   H172      1.0  0.08278  0.38712  0.06346  1.0000
  H   H173      1.0  0.07051  0.34771  0.11307  1.0000
  H   H174      1.0  0.05661  0.36402  0.13136  1.0000
  H   H175      1.0  0.07371  0.35562  0.15865  1.0000
  H   H176      1.0  0.08633  0.39865  0.12542  1.0000
  H   H177      1.0  0.06597  0.39179  0.14108  1.0000
  H   H178      1.0  0.08488  0.38492  0.16526  1.0000
  H   H179      1.0  0.10888  0.39033  0.08780  1.0000
  H   H180      1.0  0.09734  0.34059  0.13437  1.0000
  H   H181      1.0  0.13895  0.38093  0.08241  1.0000
  H   H182      1.0  0.12737  0.33216  0.12818  1.0000
  H   H183      1.0  0.14832  0.35189  0.10236  1.0000
  C   C158      1.0  0.23171  0.37055  0.16562  1.0000
  C   C159      1.0  0.00094  0.44068  0.96977  1.0000
  N   N10       1.0  0.11447  0.46996  0.36804  1.0000
  H   H184      1.0  0.13296  0.44312  0.40387  1.0000
  Fe  Fe24      1.0  0.99635  0.46745  0.77565  1.0000
  C   C160      1.0  0.04833  0.48233  0.37627  1.0000
  C   C161      1.0  0.13032  0.46050  0.35613  1.0000
  S   S47       1.0  0.99948  0.39464  0.94133  1.0000
  H   H185      1.0  0.20982  0.35597  0.68884  1.0000
  H   H186      1.0  0.06234  0.47745  0.62231  1.0000
  C   C162      1.0  0.10627  0.46254  0.40151  1.0000
  H   H187      1.0  0.04563  0.47093  0.39207  1.0000
  C   C163      1.0  0.11859  0.48770  0.37599  1.0000
  C   C164      1.0  0.23693  0.33890  0.71545  1.0000
  H   H188      1.0  0.99500  0.32199  0.90019  1.0000
  H   H189      1.0  0.00109  0.32312  0.94731  1.0000
  C   C165      1.0  0.22800  0.31673  0.89453  1.0000
  H   H190      1.0  0.18859  0.37606  0.79980  1.0000
  S   S48       1.0  0.99728  0.46759  0.71360  1.0000
  C   C166      1.0  0.18815  0.24574  0.10761  1.0000
  C   C167      1.0  0.21053  0.36522  0.82722  1.0000
  H   H191      1.0  0.23747  0.37251  0.58050  1.0000
  H   H192      1.0  0.99753  0.47814  0.85404  1.0000
  H   H193      1.0  0.10577  0.47749  0.31386  1.0000
  H   H194      1.0  0.00557  0.34011  0.91607  1.0000
  H   H195      1.0  0.23041  0.31118  0.80109  1.0000
  H   H196      1.0  0.23998  0.32439  0.27935  1.0000
  H   H197      1.0  0.01332  0.46977  0.57430  1.0000
  H   H198      1.0  0.23342  0.45757  0.32333  1.0000
  H   H199      1.0  0.23616  0.38369  0.51636  1.0000
  H   H200      1.0  0.24115  0.38621  0.20844  1.0000
  C   C168      1.0  0.23466  0.31393  0.82820  1.0000
  H   H201      1.0  0.00704  0.48534  0.04891  1.0000
  C   C169      1.0  0.99747  0.48414  0.07167  1.0000
  C   C170      1.0  0.23351  0.48804  0.35331  1.0000
  H   H202      1.0  0.99854  0.45451  0.42043  1.0000
  C   C171      1.0  0.24126  0.31438  0.22467  1.0000
  H   H203      1.0  0.24134  0.28237  0.19592  1.0000
  H   H204      1.0  0.06744  0.49041  0.41332  1.0000
  Fe  Fe25      1.0  0.14276  0.66430  0.45351  1.0000
  S   S49       1.0  0.12986  0.68969  0.46757  1.0000
  S   S50       1.0  0.12799  0.63984  0.44612  1.0000
  Fe  Fe26      1.0  0.17609  0.68140  0.42719  1.0000
  S   S51       1.0  0.16517  0.70770  0.43900  1.0000
  S   S52       1.0  0.20081  0.67155  0.39793  1.0000
  Fe  Fe27      1.0  0.15496  0.69643  0.49283  1.0000
  S   S53       1.0  0.16034  0.70780  0.55021  1.0000
  Fe  Fe28      1.0  0.14084  0.69917  0.41319  1.0000
  S   S54       1.0  0.12509  0.71523  0.37092  1.0000
  S   S55       1.0  0.16717  0.67023  0.48150  1.0000
  S   S56       1.0  0.15244  0.67382  0.39862  1.0000
  H   H205      1.0  0.00276  0.49400  0.88679  1.0000
  H   H206      1.0  0.16341  0.72649  0.36360  1.0000
  H   H207      1.0  0.02010  0.60454  0.16426  1.0000
  S   S57       1.0  0.08038  0.70799  0.10848  1.0000
  H   H208      1.0  0.10491  0.65062  0.34940  1.0000
  S   S58       1.0  0.04681  0.71598  0.16269  1.0000
  Fe  Fe29      1.0  0.07547  0.71957  0.16427  1.0000
  S   S59       1.0  0.09281  0.70829  0.21067  1.0000
  Fe  Fe30      1.0  0.05162  0.70559  0.10600  1.0000
  S   S60       1.0  0.04228  0.68004  0.08502  1.0000
  C   C172      1.0  0.12797  0.71122  0.74310  1.0000
  Fe  Fe31      1.0  0.11505  0.53863  0.48709  1.0000
  S   S61       1.0  0.11974  0.51507  0.52258  1.0000
  S   S62       1.0  0.12706  0.56277  0.50820  1.0000
  Fe  Fe32      1.0  0.09408  0.51889  0.43477  1.0000
  N   N11       1.0  0.17358  0.71662  0.31244  1.0000
  S   S63       1.0  0.08053  0.52171  0.38069  1.0000
  Fe  Fe33      1.0  0.09179  0.51021  0.51661  1.0000
  H   H209      1.0  0.00811  0.51950  0.11642  1.0000
  Fe  Fe34      1.0  0.12472  0.50069  0.47043  1.0000
  S   S64       1.0  0.08667  0.53453  0.48412  1.0000
  S   S65       1.0  0.12220  0.52452  0.43534  1.0000
  S   S66       1.0  0.01470  0.51273  0.67582  1.0000
  C   C173      1.0  0.15563  0.69633  0.73036  1.0000
  H   H210      1.0  0.05826  0.52299  0.31952  1.0000
  C   C174      1.0  0.10385  0.67690  0.39378  1.0000
  C   C175      1.0  0.06443  0.50799  0.36779  1.0000
  H   H211      1.0  0.07229  0.67611  0.25795  1.0000
  H   H212      1.0  0.01110  0.60924  0.10577  1.0000
  H   H213      1.0  0.10994  0.72419  0.82572  1.0000
  C   C176      1.0  0.08960  0.54617  0.57361  1.0000
  Fe  Fe35      1.0  0.99962  0.49589  0.71618  1.0000
  H   H214      1.0  0.10702  0.49524  0.38529  1.0000
  C   C177      1.0  0.19014  0.71568  0.29190  1.0000
  H   H215      1.0  0.09112  0.73578  0.26512  1.0000
  C   C178      1.0  0.03194  0.50797  0.64454  1.0000
  C   C179      1.0  0.03643  0.52025  0.61775  1.0000
  C   C180      1.0  0.05012  0.51714  0.59256  1.0000
  H   H216      1.0  0.00890  0.63346  0.03877  1.0000
  C   C181      1.0  0.20451  0.70685  0.30726  1.0000
  H   H217      1.0  0.02932  0.53232  0.61662  1.0000
  H   H218      1.0  0.05345  0.52675  0.57234  1.0000
  H   H219      1.0  0.00578  0.69078  0.09382  1.0000
  C   C182      1.0  0.02259  0.67040  0.07494  1.0000
  C   C183      1.0  0.02318  0.65408  0.05958  1.0000
  C   C184      1.0  0.00805  0.64582  0.05115  1.0000
  H   H220      1.0  0.03550  0.64786  0.05379  1.0000
  C   C185      1.0  0.05547  0.51168  0.33554  1.0000
  C   C186      1.0  0.99426  0.51778  0.03193  1.0000
  H   H221      1.0  0.07235  0.67951  0.42266  1.0000
  C   C187      1.0  0.07991  0.67138  0.31389  1.0000
  H   H222      1.0  0.11335  0.71635  0.69356  1.0000
  C   C188      1.0  0.20854  0.72236  0.23841  1.0000
  H   H223      1.0  0.10777  0.57192  0.63338  1.0000
  C   C189      1.0  0.07486  0.69503  0.35465  1.0000
  H   H224      1.0  0.11365  0.67838  0.37156  1.0000
  C   C190      1.0  0.15592  0.72071  0.59028  1.0000
  H   H225      1.0  0.08978  0.51736  0.62979  1.0000
  C   C191      1.0  0.07263  0.68113  0.28537  1.0000
  H   H226      1.0  0.09844  0.69917  0.76778  1.0000
  H   H227      1.0  0.09734  0.55036  0.54935  1.0000
  S   S67       1.0  0.09701  0.49442  0.46668  1.0000
  H   H228      1.0  0.07581  0.70117  0.38067  1.0000
  H   H229      1.0  0.18241  0.73021  0.24250  1.0000
  C   C192      1.0  0.23354  0.67022  0.36791  1.0000
  C   C193      1.0  0.12838  0.61840  0.46359  1.0000
  C   C194      1.0  0.13768  0.61311  0.49434  1.0000
  C   C195      1.0  0.13705  0.59611  0.50758  1.0000
  C   C196      1.0  0.12732  0.58408  0.49012  1.0000
  C   C197      1.0  0.11819  0.58933  0.45911  1.0000
  C   C198      1.0  0.11867  0.60636  0.44612  1.0000
  H   H230      1.0  0.14513  0.62215  0.50835  1.0000
  H   H231      1.0  0.14423  0.59225  0.53150  1.0000
  H   H232      1.0  0.11063  0.58031  0.44530  1.0000
  H   H233      1.0  0.11138  0.61023  0.42235  1.0000
  C   C199      1.0  0.11628  0.71291  0.32621  1.0000
  C   C200      1.0  0.10611  0.72637  0.31112  1.0000
  C   C201      1.0  0.09903  0.72535  0.27589  1.0000
  C   C202      1.0  0.10202  0.71079  0.25486  1.0000
  C   C203      1.0  0.11240  0.69742  0.26976  1.0000
  C   C204      1.0  0.11946  0.69843  0.30500  1.0000
  H   H234      1.0  0.17642  0.69140  0.33712  1.0000
  C   C205      1.0  0.05962  0.50172  0.59414  1.0000
  H   H235      1.0  0.11484  0.68608  0.25395  1.0000
  H   H236      1.0  0.12734  0.68795  0.31553  1.0000
  C   C206      1.0  0.22106  0.68032  0.38669  1.0000
  C   C207      1.0  0.07257  0.52212  0.67443  1.0000
  H   H237      1.0  0.08119  0.65899  0.43440  1.0000
  C   C208      1.0  0.22484  0.69707  0.39468  1.0000
  C   C209      1.0  0.06755  0.70462  0.32596  1.0000
  H   H238      1.0  0.21544  0.70504  0.40906  1.0000
  H   H239      1.0  0.08761  0.53234  0.57080  1.0000
  H   H240      1.0  0.12380  0.54450  0.58693  1.0000
  H   H241      1.0  0.00516  0.63000  0.15235  1.0000
  N   N12       1.0  0.99388  0.50042  0.09070  1.0000
  Fe  Fe36      1.0  0.07662  0.73432  0.08346  1.0000
  H   H242      1.0  0.20357  0.70055  0.33374  1.0000
  C   C210      1.0  0.09815  0.71325  0.76396  1.0000
  H   H243      1.0  0.12104  0.54141  0.63577  1.0000
  C   C211      1.0  0.01065  0.59665  0.17738  1.0000
  H   H244      1.0  0.23120  0.69922  0.30138  1.0000
  H   H245      1.0  0.01982  0.50843  0.08091  1.0000
  C   C212      1.0  0.04128  0.49247  0.64574  1.0000
  H   H246      1.0  0.09023  0.57638  0.60247  1.0000
  C   C213      1.0  0.00479  0.57397  0.22112  1.0000
  H   H247      1.0  0.00927  0.56427  0.24058  1.0000
  H   H248      1.0  0.18591  0.57302  0.51025  1.0000
  H   H249      1.0  0.11350  0.52632  0.60415  1.0000
  H   H250      1.0  0.00145  0.55211  0.12989  1.0000
  H   H251      1.0  0.06418  0.66108  0.40196  1.0000
  H   H252      1.0  0.03603  0.50386  0.29899  1.0000
  C   C214      1.0  0.08119  0.67807  0.34959  1.0000
  H   H253      1.0  0.21529  0.73251  0.02756  1.0000
  H   H254      1.0  0.15670  0.72038  0.26667  1.0000
  C   C215      1.0  0.04286  0.50086  0.32385  1.0000
  S   S68       1.0  0.04831  0.73122  0.07784  1.0000
  H   H255      1.0  0.16105  0.68979  0.67418  1.0000
  H   H256      1.0  0.12093  0.70430  0.81606  1.0000
  N   N13       1.0  0.09812  0.54982  0.60813  1.0000
  C   C216      1.0  0.01634  0.58460  0.20351  1.0000
  H   H257      1.0  0.99382  0.53368  0.98278  1.0000
  C   C217      1.0  0.17581  0.72491  0.34805  1.0000
  H   H258      1.0  0.11105  0.57142  0.58460  1.0000
  H   H259      1.0  0.08383  0.64309  0.36157  1.0000
  C   C218      1.0  0.11980  0.71793  0.80745  1.0000
  N   N14       1.0  0.08879  0.66818  0.38056  1.0000
  C   C219      1.0  0.13633  0.70230  0.68089  1.0000
  C   C220      1.0  0.01023  0.50688  0.10351  1.0000
  H   H260      1.0  0.23081  0.65729  0.36137  1.0000
  C   C221      1.0  0.10190  0.56820  0.60743  1.0000
  C   C222      1.0  0.07605  0.66690  0.41115  1.0000
  H   H261      1.0  0.07678  0.55277  0.57214  1.0000
  C   C223      1.0  0.00652  0.67829  0.08198  1.0000
  H   H262      1.0  0.10012  0.64350  0.39495  1.0000
  C   C224      1.0  0.16879  0.57161  0.46557  1.0000
  C   C225      1.0  0.16298  0.73459  0.95695  1.0000
  C   C226      1.0  0.09461  0.65060  0.37096  1.0000
  C   C227      1.0  0.14046  0.73011  0.59571  1.0000
  H   H263      1.0  0.18460  0.71740  0.36626  1.0000
  H   H264      1.0  0.09626  0.72239  0.98627  1.0000
  H   H265      1.0  0.12385  0.49454  0.35160  1.0000
  H   H266      1.0  0.06322  0.71770  0.33017  1.0000
  H   H267      1.0  0.05430  0.53009  0.71606  1.0000
  H   H268      1.0  0.06133  0.70531  0.26882  1.0000
  C   C228      1.0  0.06609  0.55140  0.68904  1.0000
  H   H269      1.0  0.10054  0.68984  0.40406  1.0000
  C   C229      1.0  0.15983  0.72642  0.29286  1.0000
  C   C230      1.0  0.08686  0.54469  0.63930  1.0000
  C   C231      1.0  0.15180  0.69538  0.69343  1.0000
  H   H270      1.0  0.08470  0.65879  0.30697  1.0000
  H   H271      1.0  0.11004  0.66966  0.41670  1.0000
  C   C232      1.0  0.06355  0.53416  0.69538  1.0000
  C   C233      1.0  0.22241  0.71372  0.25455  1.0000
  N   N15       1.0  0.11547  0.71995  0.76815  1.0000
  C   C234      1.0  0.08390  0.52724  0.64654  1.0000
  N   N16       1.0  0.18685  0.62060  0.43000  1.0000
  C   C235      1.0  0.19459  0.61947  0.39261  1.0000
  C   C236      1.0  0.17203  0.63289  0.42900  1.0000
  C   C237      1.0  0.19975  0.62772  0.45403  1.0000
  C   C238      1.0  0.18101  0.60370  0.44243  1.0000
  C   C239      1.0  0.18731  0.59508  0.47430  1.0000
  C   C240      1.0  0.16842  0.59545  0.42265  1.0000
  C   C241      1.0  0.11479  0.54010  0.60899  1.0000
  H   H272      1.0  0.15241  0.57383  0.41935  1.0000
  H   H273      1.0  0.13373  0.70216  0.65184  1.0000
  H   H274      1.0  0.18522  0.61581  0.37207  1.0000
  H   H275      1.0  0.19955  0.63194  0.38293  1.0000
  H   H276      1.0  0.20547  0.60993  0.39186  1.0000
  H   H277      1.0  0.16223  0.62948  0.40921  1.0000
  H   H278      1.0  0.17604  0.64584  0.42075  1.0000
  H   H279      1.0  0.16549  0.63372  0.45635  1.0000
  H   H280      1.0  0.21161  0.61947  0.45508  1.0000
  H   H281      1.0  0.20376  0.64048  0.44391  1.0000
  H   H282      1.0  0.19451  0.62962  0.48234  1.0000
  H   H283      1.0  0.19678  0.60035  0.49131  1.0000
  H   H284      1.0  0.16281  0.60130  0.39851  1.0000
  H   H285      1.0  0.02981  0.58331  0.20980  1.0000
  C   C242      1.0  0.14396  0.70411  0.75499  1.0000
  H   H286      1.0  0.10986  0.72153  0.92402  1.0000
  C   C243      1.0  0.06641  0.69766  0.29143  1.0000
  H   H287      1.0  0.16373  0.55959  0.47493  1.0000
  C   C244      1.0  0.18121  0.57928  0.48554  1.0000
  H   H288      1.0  0.99391  0.49588  0.46792  1.0000
  C   C245      1.0  0.07757  0.55668  0.66148  1.0000
  H   H289      1.0  0.13192  0.72414  0.81354  1.0000
  H   H290      1.0  0.07031  0.50872  0.67895  1.0000
  C   C246      1.0  0.19582  0.73862  0.98797  1.0000
  H   H291      1.0  0.05887  0.56071  0.70523  1.0000
  H   H292      1.0  0.07869  0.57022  0.65769  1.0000
  C   C247      1.0  0.19259  0.72336  0.25663  1.0000
  H   H293      1.0  0.99556  0.55261  0.88368  1.0000
  C   C248      1.0  0.12466  0.71030  0.70514  1.0000
  H   H294      1.0  0.18032  0.71438  0.61430  1.0000
  H   H295      1.0  0.16791  0.69135  0.73977  1.0000
  C   C249      1.0  0.16756  0.69921  0.31960  1.0000
  C   C250      1.0  0.16243  0.57966  0.43416  1.0000
  C   C251      1.0  0.22038  0.70595  0.28887  1.0000
  C   C252      1.0  0.06073  0.49331  0.38830  1.0000
  H   H296      1.0  0.14794  0.70474  0.78299  1.0000
  C   C253      1.0  0.16828  0.72146  0.61777  1.0000
  H   H297      1.0  0.21018  0.72833  0.21159  1.0000
  H   H298      1.0  0.01397  0.49194  0.58657  1.0000
  C   C254      1.0  0.10977  0.73320  0.93916  1.0000
  S   S69       1.0  0.07782  0.49737  0.56509  1.0000
  H   H299      1.0  0.16885  0.72149  0.95648  1.0000
  S   S70       1.0  0.00063  0.52903  0.19193  1.0000
  H   H300      1.0  0.01622  0.49822  0.12451  1.0000
  H   H301      1.0  0.16614  0.69235  0.29358  1.0000
  H   H302      1.0  0.23598  0.49754  0.37450  1.0000
  C   C255      1.0  0.11480  0.73837  0.75898  1.0000
  H   H303      1.0  0.15493  0.69949  0.33426  1.0000
  H   H304      1.0  0.15050  0.73409  0.94293  1.0000
  H   H305      1.0  0.18717  0.73016  0.00190  1.0000
  C   C256      1.0  0.10201  0.73362  0.97465  1.0000
  H   H306      1.0  0.18482  0.73016  0.89745  1.0000
  S   S71       1.0  0.00112  0.49559  0.77790  1.0000
  H   H307      1.0  0.08877  0.71879  0.78427  1.0000
  H   H308      1.0  0.09279  0.71640  0.73664  1.0000
  C   C257      1.0  0.24077  0.70362  0.38351  1.0000
  H   H309      1.0  0.99616  0.59317  0.09674  1.0000
  H   H310      1.0  0.13075  0.72987  0.57517  1.0000
  H   H311      1.0  0.14769  0.72714  0.30940  1.0000
  C   C258      1.0  0.99727  0.60673  0.10413  1.0000
  C   C259      1.0  0.16534  0.73134  0.64969  1.0000
  H   H312      1.0  0.22974  0.49503  0.32787  1.0000
  H   H313      1.0  0.10359  0.73772  0.32689  1.0000
  Fe  Fe37      1.0  0.99373  0.50610  0.22691  1.0000
  H   H314      1.0  0.17506  0.73164  0.67019  1.0000
  H   H315      1.0  0.00665  0.51218  0.02449  1.0000
  H   H316      1.0  0.23478  0.71302  0.24047  1.0000
  H   H317      1.0  0.15975  0.73808  0.98575  1.0000
  H   H318      1.0  0.18111  0.73775  0.34401  1.0000
  C   C260      1.0  0.13748  0.73990  0.62769  1.0000
  H   H319      1.0  0.16429  0.73994  0.88673  1.0000
  C   C261      1.0  0.21198  0.73987  0.00314  1.0000
  H   H320      1.0  0.16332  0.73981  0.28729  1.0000
  Fe  Fe38      1.0  0.09568  0.95441  0.73304  1.0000
  S   S72       1.0  0.09058  0.93212  0.77094  1.0000
  S   S73       1.0  0.07189  0.96151  0.69887  1.0000
  Fe  Fe39      1.0  0.13141  0.95926  0.76727  1.0000
  S   S74       1.0  0.12825  0.93673  0.80589  1.0000
  S   S75       1.0  0.15743  0.97252  0.76652  1.0000
  Fe  Fe40      1.0  0.11765  0.92289  0.75855  1.0000
  S   S76       1.0  0.12163  0.89553  0.73763  1.0000
  Fe  Fe41      1.0  0.10138  0.94759  0.81483  1.0000
  S   S77       1.0  0.09076  0.95031  0.87297  1.0000
  S   S78       1.0  0.12248  0.94467  0.71856  1.0000
  S   S79       1.0  0.10491  0.97069  0.77856  1.0000
  S   S80       1.0  0.01512  0.97818  0.45049  1.0000
  Fe  Fe42      1.0  0.01692  0.97588  0.51220  1.0000
  S   S81       1.0  0.04400  0.97364  0.53584  1.0000
  S   S82       1.0  0.00379  0.97055  0.01307  1.0000
  H   H321      1.0  0.14457  0.94655  0.92428  1.0000
  S   S83       1.0  0.01108  0.96381  0.90227  1.0000
  H   H322      1.0  0.04272  0.93289  0.54840  1.0000
  S   S84       1.0  0.17309  0.78344  0.76133  1.0000
  Fe  Fe43      1.0  0.14310  0.76215  0.83634  1.0000
  S   S85       1.0  0.16238  0.78136  0.84959  1.0000
  H   H323      1.0  0.02792  0.77021  0.21385  1.0000
  Fe  Fe44      1.0  0.15328  0.79618  0.79926  1.0000
  S   S86       1.0  0.14874  0.82471  0.81151  1.0000
  Fe  Fe45      1.0  0.18077  0.76760  0.81124  1.0000
  S   S87       1.0  0.20743  0.75672  0.82745  1.0000
  S   S88       1.0  0.13296  0.77746  0.78783  1.0000
  H   H324      1.0  0.07215  0.92230  0.53363  1.0000
  S   S89       1.0  0.02379  0.76301  0.13555  1.0000
  H   H325      1.0  0.00788  0.89225  0.01302  1.0000
  C   C262      1.0  0.05191  0.77639  0.06522  1.0000
  H   H326      1.0  0.03212  0.93295  0.61253  1.0000
  H   H327      1.0  0.12546  0.74701  0.63110  1.0000
  H   H328      1.0  0.12901  0.98993  0.85937  1.0000
  C   C263      1.0  0.22491  0.76519  0.85079  1.0000
  S   S90       1.0  0.07351  0.74620  0.13949  1.0000
  C   C264      1.0  0.22565  0.78247  0.85849  1.0000
  H   H329      1.0  0.14632  0.94610  0.87512  1.0000
  H   H330      1.0  0.21531  0.79117  0.85034  1.0000
  H   H331      1.0  0.09933  0.88751  0.67182  1.0000
  C   C265      1.0  0.06457  0.96487  0.65314  1.0000
  C   C266      1.0  0.04690  0.96776  0.64763  1.0000
  C   C267      1.0  0.04036  0.97038  0.61211  1.0000
  C   C268      1.0  0.05144  0.97029  0.58145  1.0000
  C   C269      1.0  0.06911  0.96751  0.58695  1.0000
  C   C270      1.0  0.07564  0.96475  0.62245  1.0000
  C   C271      1.0  0.18548  0.98986  0.78867  1.0000
  H   H332      1.0  0.03472  0.90321  0.00918  1.0000
  N   N17       1.0  0.13694  0.97016  0.89740  1.0000
  H   H333      1.0  0.08925  0.96268  0.62604  1.0000
  C   C272      1.0  0.03336  0.96128  0.89384  1.0000
  C   C273      1.0  0.03927  0.95489  0.86006  1.0000
  C   C274      1.0  0.05687  0.95193  0.85298  1.0000
  C   C275      1.0  0.06867  0.95497  0.88001  1.0000
  C   C276      1.0  0.06275  0.96132  0.91386  1.0000
  C   C277      1.0  0.04517  0.96471  0.92060  1.0000
  H   H334      1.0  0.03022  0.95223  0.83920  1.0000
  H   H335      1.0  0.06129  0.94703  0.82682  1.0000
  H   H336      1.0  0.03773  0.77728  0.06299  1.0000
  C   C278      1.0  0.10177  0.74851  0.99508  1.0000
  C   C279      1.0  0.12915  0.87596  0.75886  1.0000
  C   C280      1.0  0.12980  0.86095  0.73835  1.0000
  C   C281      1.0  0.13567  0.84519  0.75380  1.0000
  C   C282      1.0  0.14103  0.84418  0.79014  1.0000
  C   C283      1.0  0.14033  0.85919  0.81063  1.0000
  C   C284      1.0  0.13444  0.87494  0.79521  1.0000
  H   H337      1.0  0.12581  0.86150  0.71021  1.0000
  H   H338      1.0  0.13613  0.83385  0.73756  1.0000
  H   H339      1.0  0.14444  0.85864  0.83871  1.0000
  H   H340      1.0  0.13406  0.88628  0.81145  1.0000
  H   H341      1.0  0.10582  0.74566  0.77746  1.0000
  H   H342      1.0  0.12256  0.77387  0.93174  1.0000
  H   H343      1.0  0.05032  0.92324  0.66201  1.0000
  H   H344      1.0  0.08439  0.78575  0.04506  1.0000
  H   H345      1.0  0.03000  0.89090  0.96946  1.0000
  H   H346      1.0  0.08031  0.88373  0.64689  1.0000
  H   H347      1.0  0.02717  0.93451  0.00913  1.0000
  H   H348      1.0  0.99406  0.93870  0.95186  1.0000
  H   H349      1.0  0.09112  0.91190  0.58212  1.0000
  H   H350      1.0  0.00063  0.79152  0.12215  1.0000
  C   C285      1.0  0.01916  0.77972  0.20230  1.0000
  C   C286      1.0  0.01524  0.77919  0.16515  1.0000
  N   N18       1.0  0.17434  0.74705  0.93868  1.0000
  S   S91       1.0  0.16194  0.74734  0.80006  1.0000
  H   H351      1.0  0.01476  0.92819  0.91316  1.0000
  H   H352      1.0  0.06525  0.90175  0.69534  1.0000
  H   H353      1.0  0.10647  0.92163  0.63040  1.0000
  C   C287      1.0  0.99981  0.80486  0.21050  1.0000
  H   H354      1.0  0.06272  0.78572  0.13940  1.0000
  H   H355      1.0  0.10837  0.91726  0.67819  1.0000
  S   S92       1.0  0.09236  0.74994  0.04050  1.0000
  N   N19       1.0  0.05923  0.79344  0.06615  1.0000
  C   C288      1.0  0.05604  0.80199  0.03016  1.0000
  C   C289      1.0  0.23996  0.78861  0.87626  1.0000
  H   H356      1.0  0.01784  0.90557  0.91438  1.0000
  C   C290      1.0  0.12384  0.97528  0.92564  1.0000
  Fe  Fe46      1.0  0.00022  0.97669  0.95311  1.0000
  C   C291      1.0  0.11704  0.76255  0.94347  1.0000
  H   H357      1.0  0.04718  0.90523  0.96778  1.0000
  C   C292      1.0  0.16749  0.98901  0.79038  1.0000
  H   H358      1.0  0.07783  0.96740  0.56351  1.0000
  H   H359      1.0  0.05734  0.76875  0.04204  1.0000
  H   H360      1.0  0.04076  0.96978  0.94662  1.0000
  C   C293      1.0  0.00374  0.79173  0.15082  1.0000
  H   H361      1.0  0.03116  0.82620  0.18297  1.0000
  H   H362      1.0  0.19289  0.98050  0.77311  1.0000
  C   C294      1.0  0.19125  0.74805  0.95575  1.0000
  H   H363      1.0  0.20124  0.76640  0.91565  1.0000
  H   H364      1.0  0.04216  0.80274  0.02404  1.0000
  C   C295      1.0  0.06751  0.92197  0.56183  1.0000
  Fe  Fe47      1.0  0.04524  0.74200  0.13470  1.0000
  Fe  Fe48      1.0  0.15324  0.76372  0.75205  1.0000
  H   H365      1.0  0.08554  0.90531  0.71469  1.0000
  H   H366      1.0  0.09905  0.89166  0.62386  1.0000
  C   C296      1.0  0.99900  0.90202  0.00311  1.0000
  C   C297      1.0  0.05087  0.92786  0.57004  1.0000
  H   H367      1.0  0.03677  0.82248  0.06714  1.0000
  H   H368      1.0  0.23649  0.75145  0.99867  1.0000
  H   H369      1.0  0.18294  0.75195  0.88287  1.0000
  H   H370      1.0  0.03588  0.91921  0.91416  1.0000
  H   H371      1.0  0.04210  0.93521  0.97071  1.0000
  H   H372      1.0  0.03819  0.96789  0.67107  1.0000
  H   H373      1.0  0.16277  0.76800  0.96851  1.0000
  S   S93       1.0  0.14496  0.75306  0.69574  1.0000
  C   C298      1.0  0.16531  0.76396  0.93981  1.0000
  H   H374      1.0  0.00485  0.93594  0.21964  1.0000
  C   C299      1.0  0.01143  0.79242  0.22478  1.0000
  C   C300      1.0  0.99622  0.80456  0.17318  1.0000
  C   C301      1.0  0.04042  0.81740  0.09358  1.0000
  C   C302      1.0  0.10940  0.76293  0.97907  1.0000
  H   H375      1.0  0.09474  0.93477  0.66255  1.0000
  C   C303      1.0  0.18406  0.97957  0.88381  1.0000
  H   H376      1.0  0.00316  0.90819  0.36992  1.0000
  C   C304      1.0  0.13858  0.95128  0.89850  1.0000
  H   H377      1.0  0.24042  0.80205  0.88164  1.0000
  H   H378      1.0  0.05041  0.80091  0.19184  1.0000
  H   H379      1.0  0.02450  0.83666  0.12057  1.0000
  H   H380      1.0  0.16705  0.96313  0.85911  1.0000
  H   H381      1.0  0.02675  0.97245  0.60847  1.0000
  H   H382      1.0  0.05459  0.76884  0.09054  1.0000
  H   H383      1.0  0.10936  0.77456  0.99430  1.0000
  H   H384      1.0  0.17274  0.77404  0.92579  1.0000
  C   C305      1.0  0.03392  0.90351  0.97875  1.0000
  C   C306      1.0  0.04795  0.80571  0.16434  1.0000
  H   H385      1.0  0.07215  0.92320  0.70179  1.0000
  N   N20       1.0  0.08444  0.91013  0.65629  1.0000
  C   C307      1.0  0.09913  0.92144  0.65677  1.0000
  C   C308      1.0  0.07639  0.91011  0.69355  1.0000
  C   C309      1.0  0.09101  0.89251  0.64926  1.0000
  C   C310      1.0  0.07263  0.91601  0.62711  1.0000
  C   C311      1.0  0.05560  0.92220  0.63454  1.0000
  C   C312      1.0  0.07825  0.91609  0.58983  1.0000
  C   C313      1.0  0.04492  0.92788  0.60626  1.0000
  H   H386      1.0  0.99685  0.91917  0.19191  1.0000
  H   H387      1.0  0.02132  0.94482  0.96687  1.0000
  H   H388      1.0  0.07181  0.96376  0.93486  1.0000
  S   S94       1.0  0.99577  0.93670  0.41630  1.0000
  H   H389      1.0  0.08170  0.78239  0.09271  1.0000
  C   C314      1.0  0.05499  0.79715  0.13407  1.0000
  C   C315      1.0  0.05162  0.80282  0.09771  1.0000
  C   C316      1.0  0.03706  0.81995  0.15939  1.0000
  H   H390      1.0  0.06238  0.79480  0.00725  1.0000
  C   C317      1.0  0.16815  0.97236  0.88037  1.0000
  H   H391      1.0  0.15281  0.76386  0.92586  1.0000
  H   H392      1.0  0.08392  0.80372  0.07479  1.0000
  C   C318      1.0  0.03328  0.82576  0.12412  1.0000
  H   H393      1.0  0.06114  0.81500  0.02914  1.0000
  C   C319      1.0  0.07807  0.79133  0.06995  1.0000
  H   H394      1.0  0.12590  0.94540  0.89668  1.0000
  S   S95       1.0  0.99719  0.95590  0.51593  1.0000
  H   H395      1.0  0.11772  0.97075  0.85608  1.0000
  C   C320      1.0  0.99583  0.92537  0.21912  1.0000
  C   C321      1.0  0.22395  0.75053  0.98698  1.0000
  C   C322      1.0  0.11737  0.74762  0.92314  1.0000
  C   C323      1.0  0.21980  0.76004  0.95567  1.0000
  C   C324      1.0  0.23856  0.75414  0.86169  1.0000
  C   C325      1.0  0.17671  0.74203  0.89989  1.0000
  C   C326      1.0  0.02263  0.91755  0.92524  1.0000
  H   H396      1.0  0.00043  0.91563  0.23959  1.0000
  N   N21       1.0  0.02196  0.91739  0.96591  1.0000
  C   C327      1.0  0.20374  0.75883  0.94017  1.0000
  C   C328      1.0  0.15381  0.97758  0.90253  1.0000
  C   C329      1.0  0.00408  0.91557  0.97930  1.0000
  H   H397      1.0  0.12765  0.74369  0.76148  1.0000
  S   S96       1.0  0.12745  0.74598  0.87835  1.0000
  C   C330      1.0  0.02842  0.93363  0.97878  1.0000
  H   H398      1.0  0.01435  0.79251  0.25358  1.0000
  H   H399      1.0  0.12052  0.98915  0.92399  1.0000
  H   H400      1.0  0.11155  0.96888  0.92183  1.0000
  H   H401      1.0  0.99426  0.94640  0.16548  1.0000
  H   H402      1.0  0.00128  0.91463  0.09788  1.0000
  H   H403      1.0  0.12819  0.97182  0.95370  1.0000
  H   H404      1.0  0.22912  0.76835  0.94316  1.0000
  C   C331      1.0  0.13046  0.97583  0.86125  1.0000
  H   H405      1.0  0.13911  0.97158  0.83834  1.0000
  H   H406      1.0  0.23811  0.74073  0.85610  1.0000
  H   H407      1.0  0.19469  0.97563  0.86597  1.0000
  Fe  Fe49      1.0  0.99383  0.95961  0.45491  1.0000
  C   C332      1.0  0.14984  0.74068  0.65515  1.0000
  H   H408      1.0  0.11090  0.74111  0.73028  1.0000
  C   C333      1.0  0.30523  0.10106  0.47786  1.0000
  H   H409      1.0  0.28328  0.04929  0.03350  1.0000
  H   H410      1.0  0.48040  0.02330  0.45333  1.0000
  H   H411      1.0  0.30668  0.11097  0.38710  1.0000
  H   H412      1.0  0.29741  0.06574  0.01882  1.0000
  C   C334      1.0  0.34227  0.21024  0.61565  1.0000
  Fe  Fe50      1.0  0.46197  0.09310  0.46990  1.0000
  S   S97       1.0  0.43584  0.08578  0.48963  1.0000
  S   S98       1.0  0.47777  0.07876  0.42522  1.0000
  Fe  Fe51      1.0  0.46522  0.11948  0.53197  1.0000
  S   S99       1.0  0.43918  0.11307  0.55602  1.0000
  S   S100      1.0  0.25544  0.07718  0.76697  1.0000
  Fe  Fe52      1.0  0.44708  0.08578  0.54577  1.0000
  S   S101      1.0  0.44086  0.06297  0.58198  1.0000
  Fe  Fe53      1.0  0.42985  0.11370  0.49826  1.0000
  S   S102      1.0  0.40501  0.12760  0.47907  1.0000
  S   S103      1.0  0.47354  0.09182  0.52615  1.0000
  S   S104      1.0  0.45552  0.12142  0.47408  1.0000
  Fe  Fe54      1.0  0.26864  0.14739  0.49810  1.0000
  S   S105      1.0  0.29226  0.16300  0.50017  1.0000
  C   C335      1.0  0.32683  0.23710  0.57572  1.0000
  Fe  Fe55      1.0  0.26747  0.14239  0.58446  1.0000
  S   S106      1.0  0.29079  0.15788  0.59069  1.0000
  S   S107      1.0  0.25213  0.13435  0.63693  1.0000
  Fe  Fe56      1.0  0.27945  0.17604  0.54887  1.0000
  S   S108      1.0  0.27884  0.20521  0.55110  1.0000
  Fe  Fe57      1.0  0.30205  0.14377  0.54205  1.0000
  S   S109      1.0  0.32889  0.13144  0.54886  1.0000
  S   S110      1.0  0.27926  0.12718  0.53795  1.0000
  H   H413      1.0  0.25748  0.12327  0.04655  1.0000
  S   S111      1.0  0.25893  0.07155  0.87762  1.0000
  Fe  Fe58      1.0  0.25771  0.04323  0.88832  1.0000
  S   S112      1.0  0.28229  0.03283  0.91664  1.0000
  S   S113      1.0  0.47508  0.00151  0.21443  1.0000
  H   H414      1.0  0.42371  0.99424  0.87616  1.0000
  H   H415      1.0  0.45403  0.02776  0.71521  1.0000
  H   H416      1.0  0.25989  0.19855  0.73340  1.0000
  C   C336      1.0  0.25956  0.10975  0.05182  1.0000
  C   C337      1.0  0.36731  0.10531  0.43195  1.0000
  C   C338      1.0  0.25368  0.11848  0.67316  1.0000
  C   C339      1.0  0.45021  0.02752  0.74463  1.0000
  C   C340      1.0  0.26588  0.09232  0.70112  1.0000
  C   C341      1.0  0.26553  0.10467  0.67225  1.0000
  H   H417      1.0  0.27504  0.08168  0.69970  1.0000
  H   H418      1.0  0.27433  0.10336  0.64910  1.0000
  C   C342      1.0  0.28328  0.22086  0.58397  1.0000
  C   C343      1.0  0.29080  0.21671  0.61754  1.0000
  C   C344      1.0  0.29394  0.22961  0.64260  1.0000
  C   C345      1.0  0.33705  0.20719  0.57938  1.0000
  H   H419      1.0  0.29434  0.20364  0.62409  1.0000
  H   H420      1.0  0.29970  0.22623  0.66851  1.0000
  H   H421      1.0  0.46361  0.01490  0.65551  1.0000
  C   C346      1.0  0.38416  0.12928  0.50012  1.0000
  C   C347      1.0  0.37983  0.12006  0.53194  1.0000
  C   C348      1.0  0.36292  0.12105  0.54645  1.0000
  C   C349      1.0  0.35008  0.13129  0.52955  1.0000
  C   C350      1.0  0.35444  0.14076  0.49806  1.0000
  C   C351      1.0  0.37136  0.13974  0.48350  1.0000
  H   H422      1.0  0.38945  0.11195  0.54506  1.0000
  H   H423      1.0  0.35975  0.11367  0.57082  1.0000
  H   H424      1.0  0.34476  0.14860  0.48451  1.0000
  H   H425      1.0  0.37452  0.14685  0.45876  1.0000
  H   H426      1.0  0.44199  0.03006  0.61688  1.0000
  N   N22       1.0  0.46275  0.03073  0.49667  1.0000
  H   H427      1.0  0.27833  0.99762  0.89236  1.0000
  H   H428      1.0  0.45982  0.99762  0.52056  1.0000
  C   C352      1.0  0.46599  0.02750  0.64476  1.0000
  C   C353      1.0  0.45382  0.03605  0.62260  1.0000
  C   C354      1.0  0.45687  0.05230  0.60787  1.0000
  C   C355      1.0  0.47222  0.05992  0.61519  1.0000
  C   C356      1.0  0.25721  0.05851  0.99167  1.0000
  C   C357      1.0  0.47573  0.08781  0.32457  1.0000
  H   H429      1.0  0.31410  0.13381  0.47224  1.0000
  C   C358      1.0  0.46649  0.03554  0.34567  1.0000
  C   C359      1.0  0.31993  0.99835  0.94868  1.0000
  H   H430      1.0  0.38117  0.10475  0.42930  1.0000
  C   C360      1.0  0.47285  0.06151  0.39655  1.0000
  C   C361      1.0  0.45608  0.05819  0.38712  1.0000
  H   H431      1.0  0.26803  0.16325  0.66424  1.0000
  C   C362      1.0  0.30756  0.12842  0.44861  1.0000
  H   H432      1.0  0.47556  0.05543  0.20499  1.0000
  H   H433      1.0  0.33638  0.09447  0.49286  1.0000
  H   H434      1.0  0.43635  0.03794  0.48568  1.0000
  C   C363      1.0  0.29464  0.01334  0.92251  1.0000
  C   C364      1.0  0.46667  0.04899  0.49286  1.0000
  S   S114      1.0  0.25524  0.16156  0.54458  1.0000
  C   C365      1.0  0.48634  0.05140  0.38122  1.0000
  N   N23       1.0  0.45250  0.04404  0.76217  1.0000
  C   C366      1.0  0.44892  0.04159  0.80205  1.0000
  N   N24       1.0  0.25161  0.18593  0.66676  1.0000
  C   C367      1.0  0.47068  0.04860  0.75754  1.0000
  C   C368      1.0  0.44128  0.05722  0.74444  1.0000
  C   C369      1.0  0.44361  0.06135  0.70667  1.0000
  C   C370      1.0  0.42762  0.06600  0.76339  1.0000
  C   C371      1.0  0.43300  0.07342  0.68890  1.0000
  C   C372      1.0  0.41709  0.07813  0.74535  1.0000
  C   C373      1.0  0.41976  0.08181  0.70820  1.0000
  H   H435      1.0  0.45771  0.03163  0.81434  1.0000
  C   C374      1.0  0.24968  0.21773  0.65150  1.0000
  H   H436      1.0  0.43579  0.03702  0.80750  1.0000
  H   H437      1.0  0.27871  0.18282  0.65658  1.0000
  H   H438      1.0  0.25694  0.18892  0.60875  1.0000
  H   H439      1.0  0.44103  0.03466  0.53318  1.0000
  H   H440      1.0  0.47946  0.03929  0.77177  1.0000
  H   H441      1.0  0.47511  0.04869  0.72838  1.0000
  H   H442      1.0  0.45363  0.05517  0.69040  1.0000
  H   H443      1.0  0.42477  0.06370  0.79208  1.0000
  H   H444      1.0  0.38459  0.02162  0.78041  1.0000
  C   C375      1.0  0.30371  0.10361  0.41258  1.0000
  C   C376      1.0  0.47094  0.06771  0.27691  1.0000
  N   N25       1.0  0.27176  0.06928  0.99934  1.0000
  C   C377      1.0  0.28655  0.05809  0.01048  1.0000
  C   C378      1.0  0.28988  0.99795  0.90801  1.0000
  C   C379      1.0  0.27676  0.07804  0.96451  1.0000
  C   C380      1.0  0.26669  0.08112  0.02905  1.0000
  C   C381      1.0  0.26304  0.07476  0.06498  1.0000
  H   H445      1.0  0.41154  0.09114  0.69421  1.0000
  H   H446      1.0  0.26070  0.04899  0.97040  1.0000
  C   C382      1.0  0.27921  0.23810  0.57574  1.0000
  H   H447      1.0  0.29122  0.04976  0.98769  1.0000
  H   H448      1.0  0.36713  0.09229  0.48410  1.0000
  C   C383      1.0  0.33968  0.22626  0.63124  1.0000
  H   H449      1.0  0.24883  0.17472  0.33212  1.0000
  H   H450      1.0  0.40672  0.08469  0.76020  1.0000
  H   H451      1.0  0.33139  0.99868  0.96459  1.0000
  H   H452      1.0  0.40816  0.00236  0.75767  1.0000
  S   S115      1.0  0.47915  0.13898  0.56625  1.0000
  H   H453      1.0  0.26618  0.10499  0.99654  1.0000
  C   C384      1.0  0.26459  0.09900  0.02319  1.0000
  H   H454      1.0  0.24615  0.06638  0.98138  1.0000
  C   C385      1.0  0.32938  0.22118  0.55982  1.0000
  C   C386      1.0  0.48885  0.06512  0.27038  1.0000
  C   C387      1.0  0.39876  0.99774  0.77733  1.0000
  H   H455      1.0  0.26367  0.06129  0.07122  1.0000
  H   H456      1.0  0.47277  0.06142  0.76849  1.0000
  N   N26       1.0  0.33917  0.19033  0.56215  1.0000
  C   C388      1.0  0.34613  0.17670  0.58707  1.0000
  C   C389      1.0  0.32235  0.18490  0.54975  1.0000
  C   C390      1.0  0.35101  0.19150  0.52995  1.0000
  H   H457      1.0  0.33759  0.17490  0.61158  1.0000
  H   H458      1.0  0.34725  0.16413  0.57341  1.0000
  H   H459      1.0  0.35923  0.17939  0.59602  1.0000
  H   H460      1.0  0.31259  0.18581  0.57235  1.0000
  H   H461      1.0  0.32307  0.17154  0.54015  1.0000
  H   H462      1.0  0.31728  0.19285  0.52662  1.0000
  H   H463      1.0  0.36371  0.19591  0.53804  1.0000
  H   H464      1.0  0.35316  0.17894  0.51667  1.0000
  H   H465      1.0  0.34602  0.20053  0.50856  1.0000
  H   H466      1.0  0.25269  0.05133  0.01630  1.0000
  H   H467      1.0  0.32488  0.21983  0.53233  1.0000
  H   H468      1.0  0.45815  0.01720  0.75775  1.0000
  S   S116      1.0  0.46169  0.02039  0.31176  1.0000
  H   H469      1.0  0.30850  0.08718  0.47720  1.0000
  C   C391      1.0  0.48320  0.03838  0.35639  1.0000
  H   H470      1.0  0.43939  0.01687  0.50357  1.0000
  Fe  Fe59      1.0  0.49133  0.00125  0.71441  1.0000
  H   H471      1.0  0.45870  0.05563  0.47174  1.0000
  C   C392      1.0  0.25280  0.20398  0.67674  1.0000
  H   H472      1.0  0.44553  0.06589  0.39833  1.0000
  H   H473      1.0  0.34816  0.20044  0.63276  1.0000
  H   H474      1.0  0.29348  0.13059  0.45288  1.0000
  H   H475      1.0  0.36373  0.01150  0.82586  1.0000
  H   H476      1.0  0.28107  0.06880  0.94316  1.0000
  C   C393      1.0  0.45297  0.04540  0.36170  1.0000
  C   C394      1.0  0.35935  0.09827  0.46288  1.0000
  H   H477      1.0  0.29100  0.10249  0.47975  1.0000
  C   C395      1.0  0.48116  0.03530  0.65291  1.0000
  H   H478      1.0  0.36380  0.11938  0.38161  1.0000
  H   H479      1.0  0.31003  0.10625  0.50370  1.0000
  C   C396      1.0  0.25740  0.20827  0.71269  1.0000
  N   N27       1.0  0.31227  0.11011  0.44505  1.0000
  H   H480      1.0  0.31366  0.02518  0.95414  1.0000
  C   C397      1.0  0.46654  0.02277  0.46080  1.0000
  Fe  Fe60      1.0  0.24574  0.06773  0.82435  1.0000
  C   C398      1.0  0.25131  0.23459  0.66175  1.0000
  H   H481      1.0  0.31115  0.13599  0.42378  1.0000
  H   H482      1.0  0.26576  0.08555  0.95264  1.0000
  C   C399      1.0  0.34155  0.09963  0.46749  1.0000
  C   C400      1.0  0.33967  0.11500  0.40947  1.0000
  H   H483      1.0  0.45937  0.02942  0.43832  1.0000
  C   C401      1.0  0.46458  0.07898  0.30350  1.0000
  C   C402      1.0  0.26829  0.17675  0.67269  1.0000
  C   C403      1.0  0.25625  0.10310  0.08677  1.0000
  H   H484      1.0  0.30754  0.09005  0.40788  1.0000
  H   H485      1.0  0.34062  0.99569  0.83952  1.0000
  H   H486      1.0  0.48912  0.04226  0.54044  1.0000
  Fe  Fe61      1.0  0.47632  0.00031  0.27640  1.0000
  H   H487      1.0  0.35993  0.00360  0.88696  1.0000
  H   H488      1.0  0.48019  0.05083  0.48392  1.0000
  H   H489      1.0  0.43998  0.04336  0.35381  1.0000
  C   C404      1.0  0.30978  0.01340  0.94276  1.0000
  H   H490      1.0  0.28948  0.10455  0.41591  1.0000
  C   C405      1.0  0.25460  0.09359  0.73177  1.0000
  H   H491      1.0  0.47465  0.07248  0.60411  1.0000
  C   C406      1.0  0.44412  0.02993  0.50513  1.0000
  H   H492      1.0  0.25931  0.16838  0.39497  1.0000
  S   S117      1.0  0.25582  0.13822  0.44508  1.0000
  H   H493      1.0  0.45062  0.05348  0.81726  1.0000
  H   H494      1.0  0.46303  0.00924  0.46062  1.0000
  H   H495      1.0  0.28747  0.08665  0.96844  1.0000
  H   H496      1.0  0.33266  0.12191  0.38843  1.0000
  C   C407      1.0  0.25792  0.08564  0.09332  1.0000
  C   C408      1.0  0.33111  0.10796  0.44067  1.0000
  H   H497      1.0  0.43667  0.02373  0.74681  1.0000
  H   H498      1.0  0.43501  0.07619  0.65985  1.0000
  C   C409      1.0  0.35749  0.11365  0.40529  1.0000
  H   H499      1.0  0.25165  0.11143  0.10848  1.0000
  H   H500      1.0  0.46401  0.05575  0.51896  1.0000
  C   C410      1.0  0.47262  0.02157  0.52560  1.0000
  H   H501      1.0  0.45091  0.08042  0.30877  1.0000
  C   C411      1.0  0.38555  0.00855  0.79032  1.0000
  S   S118      1.0  0.44728  0.99349  0.81436  1.0000
  H   H502      1.0  0.48894  0.03658  0.19978  1.0000
  H   H503      1.0  0.46155  0.06082  0.26269  1.0000
  C   C412      1.0  0.46927  0.00438  0.53489  1.0000
  H   H504      1.0  0.48909  0.16467  0.61541  1.0000
  C   C413      1.0  0.48564  0.02925  0.54536  1.0000
  H   H505      1.0  0.25468  0.08053  0.12029  1.0000
  S   S119      1.0  0.24612  0.03905  0.83315  1.0000
  H   H506      1.0  0.26317  0.22819  0.74974  1.0000
  C   C414      1.0  0.48429  0.05147  0.63779  1.0000
  C   C415      1.0  0.47779  0.99573  0.56339  1.0000
  H   H507      1.0  0.47074  0.09603  0.34612  1.0000
  C   C416      1.0  0.25160  0.15934  0.38167  1.0000
  H   H508      1.0  0.47398  0.03772  0.23723  1.0000
  H   H509      1.0  0.45228  0.23688  0.67537  1.0000
  C   C417      1.0  0.25921  0.22519  0.72244  1.0000
  H   H510      1.0  0.27193  0.17635  0.70189  1.0000
  C   C418      1.0  0.37364  0.00261  0.81627  1.0000
  C   C419      1.0  0.24788  0.14401  0.39999  1.0000
  C   C420      1.0  0.48301  0.04542  0.22038  1.0000
  S   S120      1.0  0.49225  0.00185  0.77591  1.0000
  C   C421      1.0  0.49010  0.00381  0.58290  1.0000
  H   H511      1.0  0.24622  0.16996  0.62142  1.0000
  C   C422      1.0  0.24711  0.18365  0.62794  1.0000
  H   H512      1.0  0.24645  0.21585  0.62332  1.0000
  H   H513      1.0  0.34333  0.22831  0.65921  1.0000
  C   C423      1.0  0.25627  0.23831  0.69695  1.0000
  C   C424      1.0  0.24557  0.16293  0.34576  1.0000
  C   C425      1.0  0.33196  0.23964  0.61136  1.0000
  Fe  Fe62      1.0  0.47544  0.34397  0.72944  1.0000
  S   S121      1.0  0.45865  0.34655  0.68066  1.0000
  C   C426      1.0  0.44937  0.30431  0.72617  1.0000
  Fe  Fe63      1.0  0.45920  0.37724  0.76436  1.0000
  S   S122      1.0  0.44167  0.38167  0.71642  1.0000
  S   S123      1.0  0.45310  0.39489  0.81312  1.0000
  Fe  Fe64      1.0  0.43687  0.35356  0.71982  1.0000
  S   S124      1.0  0.41238  0.33843  0.72764  1.0000
  Fe  Fe65      1.0  0.46487  0.37428  0.68180  1.0000
  H   H514      1.0  0.42500  0.28171  0.73689  1.0000
  S   S125      1.0  0.45341  0.34943  0.76905  1.0000
  S   S126      1.0  0.48276  0.37147  0.72922  1.0000
  C   C427      1.0  0.42376  0.29028  0.71239  1.0000
  C   C428      1.0  0.48951  0.46627  0.33861  1.0000
  C   C429      1.0  0.40672  0.38318  0.77892  1.0000
  H   H515      1.0  0.48972  0.40276  0.81645  1.0000
  C   C430      1.0  0.26086  0.34237  0.20700  1.0000
  H   H516      1.0  0.26989  0.32473  0.87321  1.0000
  Fe  Fe66      1.0  0.46902  0.47068  0.51923  1.0000
  S   S127      1.0  0.45013  0.45514  0.55238  1.0000
  C   C431      1.0  0.25178  0.31800  0.83291  1.0000
  Fe  Fe67      1.0  0.28984  0.29158  0.67310  1.0000
  S   S128      1.0  0.26423  0.30472  0.68638  1.0000
  S   S129      1.0  0.29429  0.26253  0.66724  1.0000
  Fe  Fe68      1.0  0.30983  0.32403  0.68548  1.0000
  S   S130      1.0  0.28540  0.33879  0.70003  1.0000
  S   S131      1.0  0.33394  0.34001  0.67896  1.0000
  Fe  Fe69      1.0  0.27716  0.31616  0.73436  1.0000
  H   H517      1.0  0.44095  0.31468  0.73779  1.0000
  Fe  Fe70      1.0  0.27404  0.32671  0.65113  1.0000
  S   S132      1.0  0.25685  0.34520  0.61617  1.0000
  S   S133      1.0  0.30249  0.30212  0.72265  1.0000
  S   S134      1.0  0.29876  0.31277  0.63510  1.0000
  H   H518      1.0  0.48601  0.48551  0.37933  1.0000
  S   S135      1.0  0.26044  0.38909  0.34977  1.0000
  S   S136      1.0  0.25488  0.37336  0.44831  1.0000
  C   C432      1.0  0.47430  0.44245  0.67826  1.0000
  Fe  Fe71      1.0  0.26203  0.41772  0.34755  1.0000
  S   S137      1.0  0.28761  0.43149  0.34604  1.0000
  H   H519      1.0  0.43153  0.45827  0.28156  1.0000
  H   H520      1.0  0.26204  0.28592  0.17530  1.0000
  C   C433      1.0  0.47607  0.39745  0.51403  1.0000
  H   H521      1.0  0.42672  0.46634  0.34684  1.0000
  C   C434      1.0  0.45686  0.24971  0.67477  1.0000
  C   C435      1.0  0.45617  0.47661  0.31547  1.0000
  C   C436      1.0  0.25665  0.35278  0.56923  1.0000
  H   H522      1.0  0.27387  0.34561  0.48372  1.0000
  C   C437      1.0  0.47100  0.42912  0.70307  1.0000
  C   C438      1.0  0.26690  0.34536  0.54142  1.0000
  H   H523      1.0  0.24693  0.29834  0.10260  1.0000
  H   H524      1.0  0.27545  0.33466  0.54803  1.0000
  C   C439      1.0  0.48215  0.45988  0.72857  1.0000
  C   C440      1.0  0.28245  0.25101  0.60071  1.0000
  H   H525      1.0  0.27922  0.26417  0.59386  1.0000
  C   C441      1.0  0.46491  0.40886  0.84038  1.0000
  C   C442      1.0  0.48266  0.41026  0.83663  1.0000
  H   H526      1.0  0.46727  0.46619  0.62109  1.0000
  C   C443      1.0  0.48255  0.43107  0.88618  1.0000
  C   C444      1.0  0.46478  0.42983  0.88962  1.0000
  C   C445      1.0  0.45607  0.41879  0.86698  1.0000
  H   H527      1.0  0.25822  0.25139  0.70417  1.0000
  N   N28       1.0  0.43853  0.48194  0.30500  1.0000
  H   H528      1.0  0.45774  0.43725  0.90996  1.0000
  H   H529      1.0  0.44236  0.41791  0.87026  1.0000
  C   C446      1.0  0.46896  0.40656  0.61274  1.0000
  C   C447      1.0  0.24803  0.28683  0.17058  1.0000
  C   C448      1.0  0.48092  0.46893  0.62565  1.0000
  C   C449      1.0  0.45762  0.43674  0.57640  1.0000
  C   C450      1.0  0.44626  0.42747  0.59865  1.0000
  C   C451      1.0  0.45192  0.41241  0.61692  1.0000
  H   H530      1.0  0.41539  0.35119  0.80183  1.0000
  C   C452      1.0  0.46593  0.46350  0.29743  1.0000
  H   H531      1.0  0.43300  0.43180  0.60131  1.0000
  H   H532      1.0  0.44302  0.40510  0.63331  1.0000
  C   C453      1.0  0.39074  0.33897  0.71291  1.0000
  C   C454      1.0  0.37986  0.32615  0.72566  1.0000
  C   C455      1.0  0.36257  0.32605  0.71522  1.0000
  C   C456      1.0  0.35586  0.33887  0.69195  1.0000
  C   C457      1.0  0.36675  0.35169  0.67925  1.0000
  C   C458      1.0  0.38407  0.35173  0.68949  1.0000
  H   H533      1.0  0.38477  0.31627  0.74403  1.0000
  H   H534      1.0  0.35438  0.31618  0.72550  1.0000
  H   H535      1.0  0.36172  0.36171  0.66134  1.0000
  H   H536      1.0  0.39219  0.36168  0.67937  1.0000
  H   H537      1.0  0.34067  0.34474  0.81208  1.0000
  C   C459      1.0  0.24514  0.46480  0.31733  1.0000
  H   H538      1.0  0.25596  0.45539  0.31311  1.0000
  S   S138      1.0  0.24799  0.42075  0.40178  1.0000
  C   C460      1.0  0.37810  0.35838  0.84468  1.0000
  C   C461      1.0  0.48043  0.47939  0.35629  1.0000
  S   S139      1.0  0.47085  0.47219  0.45774  1.0000
  C   C462      1.0  0.42666  0.47980  0.33693  1.0000
  C   C463      1.0  0.31611  0.47295  0.27875  1.0000
  C   C464      1.0  0.30071  0.46671  0.26615  1.0000
  C   C465      1.0  0.29188  0.45399  0.28598  1.0000
  C   C466      1.0  0.29825  0.44738  0.31906  1.0000
  C   C467      1.0  0.31372  0.45353  0.33156  1.0000
  C   C468      1.0  0.32260  0.46618  0.31162  1.0000
  H   H539      1.0  0.29558  0.47173  0.24072  1.0000
  H   H540      1.0  0.28030  0.44918  0.27527  1.0000
  H   H541      1.0  0.31889  0.44852  0.35694  1.0000
  H   H542      1.0  0.25888  0.36201  0.73527  1.0000
  H   H543      1.0  0.26452  0.30779  0.12381  1.0000
  H   H544      1.0  0.35747  0.34414  0.86872  1.0000
  C   C469      1.0  0.43183  0.47207  0.27455  1.0000
  C   C470      1.0  0.40154  0.38770  0.84284  1.0000
  Fe  Fe72      1.0  0.46846  0.48520  0.01761  1.0000
  N   N29       1.0  0.30480  0.39715  0.43668  1.0000
  C   C471      1.0  0.31768  0.40714  0.41591  1.0000
  C   C472      1.0  0.30018  0.38290  0.41336  1.0000
  C   C473      1.0  0.28940  0.40847  0.44257  1.0000
  C   C474      1.0  0.31089  0.39029  0.47237  1.0000
  C   C475      1.0  0.29970  0.38122  0.49607  1.0000
  C   C476      1.0  0.32785  0.39216  0.48453  1.0000
  C   C477      1.0  0.30504  0.37447  0.52979  1.0000
  C   C478      1.0  0.33309  0.38533  0.51837  1.0000
  C   C479      1.0  0.32171  0.37649  0.54092  1.0000
  H   H545      1.0  0.32929  0.39919  0.40866  1.0000
  H   H546      1.0  0.31257  0.41223  0.38943  1.0000
  H   H547      1.0  0.32143  0.41834  0.43153  1.0000
  H   H548      1.0  0.29566  0.38756  0.38609  1.0000
  H   H549      1.0  0.28963  0.37547  0.42573  1.0000
  H   H550      1.0  0.31128  0.37386  0.40881  1.0000
  H   H551      1.0  0.29193  0.41869  0.46208  1.0000
  H   H552      1.0  0.28514  0.41467  0.41651  1.0000
  H   H553      1.0  0.27821  0.40150  0.45345  1.0000
  H   H554      1.0  0.28669  0.37925  0.48856  1.0000
  H   H555      1.0  0.33732  0.39883  0.46847  1.0000
  H   H556      1.0  0.29616  0.36758  0.54734  1.0000
  H   H557      1.0  0.34607  0.38685  0.52723  1.0000
  H   H558      1.0  0.32580  0.37115  0.56708  1.0000
  H   H559      1.0  0.45337  0.29567  0.74919  1.0000
  H   H560      1.0  0.39958  0.38215  0.87076  1.0000
  H   H561      1.0  0.39121  0.39759  0.83824  1.0000
  H   H562      1.0  0.41395  0.39424  0.84329  1.0000
  H   H563      1.0  0.42952  0.31783  0.67281  1.0000
  C   C480      1.0  0.25073  0.46581  0.38135  1.0000
  H   H564      1.0  0.35160  0.35919  0.75626  1.0000
  C   C481      1.0  0.47472  0.43110  0.57327  1.0000
  C   C482      1.0  0.35900  0.35911  0.78106  1.0000
  H   H565      1.0  0.45080  0.39174  0.53437  1.0000
  C   C483      1.0  0.46015  0.42593  0.48062  1.0000
  C   C484      1.0  0.25032  0.30798  0.12288  1.0000
  H   H566      1.0  0.41606  0.28416  0.69149  1.0000
  C   C485      1.0  0.47315  0.43114  0.74045  1.0000
  C   C486      1.0  0.24472  0.37301  0.52297  1.0000
  C   C487      1.0  0.45181  0.28022  0.68578  1.0000
  H   H567      1.0  0.40803  0.37393  0.75626  1.0000
  N   N30       1.0  0.48397  0.47257  0.66468  1.0000
  C   C488      1.0  0.25678  0.32153  0.86880  1.0000
  H   H568      1.0  0.41324  0.35539  0.84982  1.0000
  N   N31       1.0  0.44079  0.29498  0.69735  1.0000
  S   S140      1.0  0.47391  0.48932  0.95669  1.0000
  C   C489      1.0  0.46407  0.48454  0.34493  1.0000
  H   H569      1.0  0.43167  0.29999  0.64291  1.0000
  H   H570      1.0  0.48038  0.44795  0.78239  1.0000
  C   C490      1.0  0.45835  0.40028  0.51749  1.0000
  H   H571      1.0  0.26132  0.45602  0.37815  1.0000
  H   H572      1.0  0.38506  0.35764  0.86988  1.0000
  C   C491      1.0  0.37477  0.36689  0.78105  1.0000
  C   C492      1.0  0.38484  0.36677  0.81302  1.0000
  H   H573      1.0  0.45003  0.31165  0.65402  1.0000
  C   C493      1.0  0.47949  0.26899  0.66160  1.0000
  N   N32       1.0  0.40171  0.37468  0.81401  1.0000
  H   H574      1.0  0.41322  0.48376  0.33027  1.0000
  C   C494      1.0  0.36233  0.35058  0.84431  1.0000
  H   H575      1.0  0.46099  0.31058  0.71560  1.0000
  H   H576      1.0  0.41845  0.47627  0.26799  1.0000
  C   C495      1.0  0.48036  0.41608  0.59135  1.0000
  C   C496      1.0  0.35282  0.35092  0.81252  1.0000
  H   H577      1.0  0.28094  0.47647  0.38078  1.0000
  H   H578      1.0  0.24515  0.27753  0.14909  1.0000
  C   C497      1.0  0.43790  0.30659  0.66539  1.0000
  C   C498      1.0  0.28981  0.24686  0.63443  1.0000
  C   C499      1.0  0.45042  0.41452  0.50099  1.0000
  S   S141      1.0  0.26721  0.31924  0.79511  1.0000
  H   H579      1.0  0.37885  0.37266  0.75540  1.0000
  N   N33       1.0  0.24868  0.47639  0.34746  1.0000
  H   H580      1.0  0.24674  0.33399  0.73495  1.0000
  H   H581      1.0  0.46112  0.45685  0.27450  1.0000
  C   C500      1.0  0.41515  0.36145  0.82240  1.0000
  C   C501      1.0  0.48004  0.45828  0.69025  1.0000
  H   H582      1.0  0.45395  0.43724  0.46874  1.0000
  H   H583      1.0  0.27347  0.24152  0.54982  1.0000
  H   H584      1.0  0.47408  0.29515  0.67165  1.0000
  C   C502      1.0  0.47353  0.25255  0.66256  1.0000
  H   H585      1.0  0.48810  0.47881  0.21635  1.0000
  H   H586      1.0  0.41597  0.30170  0.72131  1.0000
  H   H587      1.0  0.32944  0.25189  0.62399  1.0000
  H   H588      1.0  0.43332  0.26017  0.69532  1.0000
  H   H589      1.0  0.46679  0.41709  0.69321  1.0000
  H   H590      1.0  0.42812  0.36687  0.82225  1.0000
  H   H591      1.0  0.47227  0.44000  0.64984  1.0000
  H   H592      1.0  0.48348  0.43806  0.55611  1.0000
  H   H593      1.0  0.43943  0.47393  0.24867  1.0000
  C   C503      1.0  0.47319  0.48784  0.67423  1.0000
  C   C504      1.0  0.44607  0.26328  0.68622  1.0000
  H   H594      1.0  0.24565  0.32054  0.11148  1.0000
  C   C505      1.0  0.48233  0.45843  0.30907  1.0000
  H   H595      1.0  0.33441  0.47077  0.32177  1.0000
  H   H596      1.0  0.41933  0.38919  0.78079  1.0000
  C   C506      1.0  0.46883  0.28264  0.67294  1.0000
  H   H597      1.0  0.26787  0.35365  0.20004  1.0000
  S   S142      1.0  0.47640  0.38687  0.63116  1.0000
  H   H598      1.0  0.48944  0.44819  0.29541  1.0000
  C   C507      1.0  0.26592  0.35161  0.50477  1.0000
  H   H599      1.0  0.25319  0.47371  0.40540  1.0000
  H   H600      1.0  0.45935  0.48507  0.67348  1.0000
  S   S143      1.0  0.48234  0.45957  0.01857  1.0000
  H   H601      1.0  0.39732  0.39352  0.77111  1.0000
  C   C508      1.0  0.47787  0.42326  0.47698  1.0000
  C   C509      1.0  0.25487  0.36552  0.49510  1.0000
  H   H602      1.0  0.43679  0.41704  0.50500  1.0000
  H   H603      1.0  0.47051  0.42078  0.75958  1.0000
  C   C510      1.0  0.48644  0.40903  0.49393  1.0000
  H   H604      1.0  0.43006  0.48759  0.36042  1.0000
  H   H605      1.0  0.48487  0.43270  0.46149  1.0000
  S   S144      1.0  0.32635  0.48947  0.25296  1.0000
  C   C511      1.0  0.49138  0.42123  0.85941  1.0000
  H   H606      1.0  0.48393  0.47994  0.60719  1.0000
  H   H607      1.0  0.48915  0.45802  0.61587  1.0000
  H   H608      1.0  0.26135  0.33426  0.15226  1.0000
  C   C512      1.0  0.47870  0.44649  0.75320  1.0000
  H   H609      1.0  0.32035  0.24743  0.56080  1.0000
  C   C513      1.0  0.26389  0.48628  0.33750  1.0000
  H   H610      1.0  0.25522  0.36478  0.68753  1.0000
  H   H611      1.0  0.48132  0.38647  0.52867  1.0000
  C   C514      1.0  0.24554  0.36662  0.55953  1.0000
  Fe  Fe73      1.0  0.24517  0.39229  0.40273  1.0000
  Fe  Fe74      1.0  0.48962  0.46460  0.95928  1.0000
  C   C515      1.0  0.27930  0.48498  0.35747  1.0000
  H   H612      1.0  0.48653  0.47148  0.73983  1.0000
  C   C516      1.0  0.24916  0.36656  0.71524  1.0000
  H   H613      1.0  0.24941  0.24486  0.64181  1.0000
  H   H614      1.0  0.24687  0.38045  0.71915  1.0000
  C   C517      1.0  0.25698  0.33104  0.17969  1.0000
  H   H615      1.0  0.48189  0.24202  0.65377  1.0000
  C   C518      1.0  0.24713  0.31656  0.18781  1.0000
  H   H616      1.0  0.24940  0.32347  0.92639  1.0000
  H   H617      1.0  0.49248  0.27117  0.65210  1.0000
  C   C519      1.0  0.24509  0.32589  0.25165  1.0000
  H   H618      1.0  0.25727  0.34909  0.26354  1.0000
  C   C520      1.0  0.25491  0.33983  0.24285  1.0000
  C   C521      1.0  0.24511  0.32081  0.89924  1.0000
  H   H619      1.0  0.24696  0.34994  0.78637  1.0000
  S   S145      1.0  0.44133  0.49000  0.04199  1.0000
  S   S146      1.0  0.49279  0.32006  0.73904  1.0000
  Fe  Fe75      1.0  0.29778  0.69191  0.32311  1.0000
  S   S147      1.0  0.31727  0.71171  0.30972  1.0000
  S   S148      1.0  0.27282  0.70278  0.35008  1.0000
  Fe  Fe76      1.0  0.32318  0.66286  0.30192  1.0000
  S   S149      1.0  0.34425  0.68083  0.28798  1.0000
  S   S150      1.0  0.32396  0.63353  0.30697  1.0000
  Fe  Fe77      1.0  0.33625  0.69460  0.33982  1.0000
  S   S151      1.0  0.35559  0.70800  0.37557  1.0000
  Fe  Fe78      1.0  0.32413  0.69731  0.25829  1.0000
  S   S152      1.0  0.33329  0.71199  0.20508  1.0000
  S   S153      1.0  0.31651  0.67567  0.35568  1.0000
  S   S154      1.0  0.30328  0.67839  0.26971  1.0000
  Fe  Fe79      1.0  0.37749  0.51322  0.31603  1.0000
  H   H620      1.0  0.47204  0.59627  0.76802  1.0000
  S   S155      1.0  0.42766  0.72285  0.56921  1.0000
  Fe  Fe80      1.0  0.47264  0.50028  0.46450  1.0000
  S   S156      1.0  0.40283  0.71130  0.63901  1.0000
  H   H621      1.0  0.39447  0.52776  0.17141  1.0000
  Fe  Fe81      1.0  0.43124  0.71398  0.62803  1.0000
  S   S157      1.0  0.45481  0.69586  0.63625  1.0000
  Fe  Fe82      1.0  0.39931  0.72166  0.58076  1.0000
  S   S158      1.0  0.37985  0.70893  0.54368  1.0000
  C   C522      1.0  0.25323  0.69352  0.36461  1.0000
  Fe  Fe83      1.0  0.38871  0.50805  0.23569  1.0000
  S   S159      1.0  0.39169  0.52915  0.27531  1.0000
  S   S160      1.0  0.41472  0.50126  0.20779  1.0000
  C   C523      1.0  0.43936  0.51638  0.41104  1.0000
  S   S161      1.0  0.35167  0.52488  0.30225  1.0000
  C   C524      1.0  0.47480  0.65042  0.70837  1.0000
  Fe  Fe84      1.0  0.36583  0.53958  0.25831  1.0000
  S   S162      1.0  0.36613  0.56818  0.24413  1.0000
  C   C525      1.0  0.31341  0.72516  0.14564  1.0000
  Fe  Fe85      1.0  0.35110  0.50356  0.26196  1.0000
  S   S163      1.0  0.36344  0.51924  0.21604  1.0000
  H   H622      1.0  0.27785  0.51451  0.27119  1.0000
  H   H623      1.0  0.35647  0.72679  0.15166  1.0000
  Fe  Fe86      1.0  0.40242  0.73876  0.65701  1.0000
  H   H624      1.0  0.48688  0.67709  0.63838  1.0000
  H   H625      1.0  0.25259  0.49883  0.28942  1.0000
  H   H626      1.0  0.36942  0.53988  0.13789  1.0000
  H   H627      1.0  0.43341  0.49874  0.45493  1.0000
  H   H628      1.0  0.40761  0.49407  0.07444  1.0000
  H   H629      1.0  0.40597  0.73540  0.30181  1.0000
  H   H630      1.0  0.24339  0.71666  0.38937  1.0000
  H   H631      1.0  0.47838  0.65439  0.57896  1.0000
  C   C526      1.0  0.41172  0.50376  0.42014  1.0000
  C   C527      1.0  0.43305  0.52526  0.38017  1.0000
  C   C528      1.0  0.41628  0.52304  0.36868  1.0000
  H   H632      1.0  0.44129  0.53369  0.36481  1.0000
  H   H633      1.0  0.41163  0.52979  0.34464  1.0000
  C   C529      1.0  0.40557  0.51228  0.38870  1.0000
  C   C530      1.0  0.46195  0.67836  0.66478  1.0000
  C   C531      1.0  0.45160  0.67104  0.69217  1.0000
  C   C532      1.0  0.45802  0.65721  0.71385  1.0000
  C   C533      1.0  0.47871  0.67150  0.65929  1.0000
  H   H634      1.0  0.43870  0.67611  0.69679  1.0000
  H   H635      1.0  0.44990  0.65178  0.73505  1.0000
  H   H636      1.0  0.30240  0.73400  0.78184  1.0000
  H   H637      1.0  0.39228  0.54901  0.40517  1.0000
  H   H638      1.0  0.36374  0.54074  0.39942  1.0000
  C   C534      1.0  0.42901  0.53615  0.07776  1.0000
  H   H639      1.0  0.37660  0.72398  0.74622  1.0000
  H   H640      1.0  0.36037  0.72140  0.80540  1.0000
  H   H641      1.0  0.41299  0.56973  0.15485  1.0000
  H   H642      1.0  0.37012  0.69866  0.24415  1.0000
  H   H643      1.0  0.39005  0.72832  0.47665  1.0000
  C   C535      1.0  0.39803  0.54111  0.17556  1.0000
  H   H644      1.0  0.30421  0.51161  0.30691  1.0000
  H   H645      1.0  0.46691  0.60518  0.64741  1.0000
  C   C536      1.0  0.29349  0.49433  0.34683  1.0000
  H   H646      1.0  0.47031  0.55821  0.82533  1.0000
  H   H647      1.0  0.39784  0.70741  0.29411  1.0000
  C   C537      1.0  0.42044  0.54304  0.10837  1.0000
  C   C538      1.0  0.33588  0.61563  0.28871  1.0000
  C   C539      1.0  0.34984  0.61729  0.26436  1.0000
  C   C540      1.0  0.35894  0.60267  0.25123  1.0000
  C   C541      1.0  0.35432  0.58617  0.26233  1.0000
  C   C542      1.0  0.34046  0.58451  0.28691  1.0000
  C   C543      1.0  0.33131  0.59912  0.29983  1.0000
  H   H648      1.0  0.35358  0.62983  0.25551  1.0000
  H   H649      1.0  0.36959  0.60418  0.23220  1.0000
  H   H650      1.0  0.33658  0.57199  0.29554  1.0000
  H   H651      1.0  0.32054  0.59763  0.31861  1.0000
  C   C544      1.0  0.36253  0.70753  0.42231  1.0000
  C   C545      1.0  0.37491  0.71896  0.43275  1.0000
  C   C546      1.0  0.38063  0.71937  0.46929  1.0000
  C   C547      1.0  0.37398  0.70840  0.49631  1.0000
  C   C548      1.0  0.36168  0.69689  0.48578  1.0000
  C   C549      1.0  0.35606  0.69639  0.44919  1.0000
  H   H652      1.0  0.42487  0.50460  0.28566  1.0000
  C   C550      1.0  0.47111  0.56358  0.85215  1.0000
  H   H653      1.0  0.35637  0.68834  0.50623  1.0000
  H   H654      1.0  0.34674  0.68735  0.44193  1.0000
  S   S164      1.0  0.46804  0.49903  0.52552  1.0000
  H   H655      1.0  0.31702  0.69447  0.42740  1.0000
  H   H656      1.0  0.25889  0.66879  0.34244  1.0000
  H   H657      1.0  0.37689  0.70075  0.30672  1.0000
  H   H658      1.0  0.39503  0.52875  0.02539  1.0000
  H   H659      1.0  0.47250  0.54851  0.94009  1.0000
  C   C551      1.0  0.47529  0.58640  0.89409  1.0000
  C   C552      1.0  0.47643  0.60599  0.57680  1.0000
  H   H660      1.0  0.48958  0.60373  0.64491  1.0000
  H   H661      1.0  0.47667  0.57889  0.95119  1.0000
  H   H662      1.0  0.27645  0.72100  0.42473  1.0000
  C   C553      1.0  0.37455  0.55275  0.14118  1.0000
  C   C554      1.0  0.24953  0.67672  0.35708  1.0000
  N   N34       1.0  0.37281  0.56480  0.37868  1.0000
  C   C555      1.0  0.38855  0.56271  0.40047  1.0000
  C   C556      1.0  0.35950  0.55442  0.39699  1.0000
  C   C557      1.0  0.37630  0.55764  0.34196  1.0000
  C   C558      1.0  0.36777  0.58308  0.37474  1.0000
  C   C559      1.0  0.37911  0.59456  0.35737  1.0000
  C   C560      1.0  0.35159  0.58996  0.38701  1.0000
  C   C561      1.0  0.37449  0.61177  0.35224  1.0000
  C   C562      1.0  0.34715  0.60723  0.38183  1.0000
  C   C563      1.0  0.35854  0.61808  0.36444  1.0000
  H   H663      1.0  0.38671  0.56863  0.42776  1.0000
  H   H664      1.0  0.39976  0.56853  0.38663  1.0000
  H   H665      1.0  0.35652  0.55875  0.42532  1.0000
  H   H666      1.0  0.34752  0.55476  0.38106  1.0000
  H   H667      1.0  0.38720  0.56357  0.32720  1.0000
  H   H668      1.0  0.37953  0.54378  0.34387  1.0000
  H   H669      1.0  0.36497  0.55954  0.32425  1.0000
  H   H670      1.0  0.39153  0.59024  0.34692  1.0000
  H   H671      1.0  0.34198  0.58227  0.39998  1.0000
  H   H672      1.0  0.38314  0.62022  0.33801  1.0000
  H   H673      1.0  0.33454  0.61220  0.39012  1.0000
  H   H674      1.0  0.35474  0.63132  0.35942  1.0000
  N   N35       1.0  0.47829  0.61994  0.60289  1.0000
  C   C564      1.0  0.34381  0.72870  0.14075  1.0000
  C   C565      1.0  0.47346  0.58119  0.85744  1.0000
  C   C566      1.0  0.46155  0.60782  0.83212  1.0000
  C   C567      1.0  0.45205  0.66098  0.58237  1.0000
  C   C568      1.0  0.40230  0.54501  0.11008  1.0000
  C   C569      1.0  0.43297  0.63956  0.60440  1.0000
  C   C570      1.0  0.27805  0.50653  0.29575  1.0000
  C   C571      1.0  0.36354  0.73387  0.79491  1.0000
  C   C572      1.0  0.43802  0.50010  0.29325  1.0000
  N   N36       1.0  0.30309  0.71789  0.43863  1.0000
  H   H675      1.0  0.47548  0.49865  0.65468  1.0000
  H   H676      1.0  0.45403  0.67400  0.57334  1.0000
  H   H677      1.0  0.28425  0.73744  0.45278  1.0000
  S   S165      1.0  0.37627  0.49110  0.27854  1.0000
  C   C573      1.0  0.34188  0.73690  0.10602  1.0000
  C   C574      1.0  0.33963  0.73570  0.49227  1.0000
  H   H678      1.0  0.47755  0.59948  0.90021  1.0000
  H   H679      1.0  0.39229  0.57517  0.17373  1.0000
  H   H680      1.0  0.42814  0.54644  0.13104  1.0000
  H   H681      1.0  0.48156  0.57647  0.78330  1.0000
  S   S166      1.0  0.49126  0.49923  0.03490  1.0000
  H   H682      1.0  0.32015  0.71325  0.56036  1.0000
  H   H683      1.0  0.32090  0.72146  0.39333  1.0000
  H   H684      1.0  0.46457  0.59896  0.58233  1.0000
  H   H685      1.0  0.30531  0.49276  0.36167  1.0000
  H   H686      1.0  0.36993  0.71619  0.21331  1.0000
  C   C575      1.0  0.44681  0.62785  0.60751  1.0000
  C   C576      1.0  0.43941  0.49621  0.15346  1.0000
  C   C577      1.0  0.48509  0.65765  0.68081  1.0000
  N   N37       1.0  0.37733  0.72208  0.26839  1.0000
  C   C578      1.0  0.46601  0.64947  0.58587  1.0000
  H   H687      1.0  0.44281  0.53412  0.07753  1.0000
  S   S167      1.0  0.46077  0.51873  0.42315  1.0000
  C   C579      1.0  0.38714  0.73720  0.25797  1.0000
  C   C580      1.0  0.26371  0.49741  0.30635  1.0000
  C   C581      1.0  0.29290  0.50500  0.31596  1.0000
  C   C582      1.0  0.47153  0.58640  0.79036  1.0000
  H   H688      1.0  0.44844  0.60287  0.83506  1.0000
  C   C583      1.0  0.31145  0.71555  0.50473  1.0000
  H   H689      1.0  0.29898  0.72265  0.38094  1.0000
  C   C584      1.0  0.39909  0.56943  0.14948  1.0000
  H   H690      1.0  0.44409  0.61513  0.61701  1.0000
  H   H691      1.0  0.42654  0.52530  0.02474  1.0000
  N   N38       1.0  0.39353  0.55194  0.14326  1.0000
  C   C585      1.0  0.41032  0.49741  0.13257  1.0000
  H   H692      1.0  0.46161  0.61710  0.80855  1.0000
  N   N39       1.0  0.47449  0.59374  0.82672  1.0000
  C   C586      1.0  0.30788  0.72592  0.40285  1.0000
  H   H693      1.0  0.30082  0.70753  0.51088  1.0000
  H   H694      1.0  0.46918  0.53863  0.87723  1.0000
  H   H695      1.0  0.48729  0.59641  0.57843  1.0000
  H   H696      1.0  0.42014  0.63587  0.61192  1.0000
  C   C587      1.0  0.41656  0.49469  0.09645  1.0000
  C   C588      1.0  0.32966  0.72259  0.16105  1.0000
  H   H697      1.0  0.40345  0.49548  0.43586  1.0000
  H   H698      1.0  0.41192  0.54072  0.18128  1.0000
  H   H699      1.0  0.30230  0.72062  0.16043  1.0000
  H   H700      1.0  0.47581  0.49253  0.70193  1.0000
  C   C589      1.0  0.28518  0.72355  0.44757  1.0000
  H   H701      1.0  0.29911  0.69217  0.45846  1.0000
  H   H702      1.0  0.35196  0.71666  0.28789  1.0000
  H   H703      1.0  0.46394  0.61534  0.85674  1.0000
  C   C590      1.0  0.31446  0.72214  0.46873  1.0000
  C   C591      1.0  0.39333  0.53983  0.07900  1.0000
  H   H704      1.0  0.32173  0.73944  0.80354  1.0000
  S   S168      1.0  0.38444  0.50932  0.37533  1.0000
  H   H705      1.0  0.39008  0.70669  0.22716  1.0000
  C   C592      1.0  0.38449  0.71213  0.29992  1.0000
  H   H706      1.0  0.47888  0.62278  0.66120  1.0000
  H   H707      1.0  0.39643  0.57787  0.12527  1.0000
  C   C593      1.0  0.32237  0.71879  0.53332  1.0000
  H   H708      1.0  0.39134  0.54573  0.20090  1.0000
  H   H709      1.0  0.45874  0.58076  0.78942  1.0000
  H   H710      1.0  0.36839  0.55790  0.16671  1.0000
  H   H711      1.0  0.37956  0.54066  0.07774  1.0000
  H   H712      1.0  0.47599  0.61099  0.54809  1.0000
  H   H713      1.0  0.45926  0.49220  0.11165  1.0000
  C   C594      1.0  0.43561  0.65613  0.59205  1.0000
  H   H714      1.0  0.37011  0.56126  0.11834  1.0000
  H   H715      1.0  0.42496  0.66535  0.59033  1.0000
  C   C595      1.0  0.46383  0.63252  0.59892  1.0000
  H   H716      1.0  0.35255  0.73366  0.25530  1.0000
  C   C596      1.0  0.32570  0.73940  0.09041  1.0000
  C   C597      1.0  0.47835  0.61261  0.64066  1.0000
  H   H717      1.0  0.44651  0.50220  0.26880  1.0000
  C   C598      1.0  0.30371  0.69923  0.43375  1.0000
  C   C599      1.0  0.40207  0.53301  0.04848  1.0000
  C   C600      1.0  0.41984  0.53115  0.04790  1.0000
  C   C601      1.0  0.47230  0.55764  0.91740  1.0000
  C   C602      1.0  0.42867  0.50558  0.43098  1.0000
  C   C603      1.0  0.47043  0.55209  0.88184  1.0000
  H   H718      1.0  0.44838  0.49674  0.17542  1.0000
  H   H719      1.0  0.38012  0.72766  0.41248  1.0000
  H   H720      1.0  0.38410  0.71970  0.32539  1.0000
  S   S169      1.0  0.48234  0.63289  0.73640  1.0000
  C   C604      1.0  0.37693  0.71046  0.23693  1.0000
  C   C605      1.0  0.42172  0.49815  0.16139  1.0000
  H   H721      1.0  0.27989  0.71683  0.47210  1.0000
  C   C606      1.0  0.37279  0.73529  0.76116  1.0000
  H   H722      1.0  0.33263  0.73758  0.43687  1.0000
  H   H723      1.0  0.44208  0.50856  0.31507  1.0000
  C   C607      1.0  0.47475  0.57476  0.92352  1.0000
  C   C608      1.0  0.35955  0.72760  0.27862  1.0000
  H   H724      1.0  0.29549  0.69556  0.41092  1.0000
  H   H725      1.0  0.30744  0.74003  0.40426  1.0000
  C   C609      1.0  0.49172  0.60092  0.82525  1.0000
  C   C610      1.0  0.44564  0.49360  0.11728  1.0000
  C   C611      1.0  0.33647  0.72880  0.52706  1.0000
  H   H726      1.0  0.35928  0.73673  0.30153  1.0000
  H   H727      1.0  0.45760  0.49474  0.35981  1.0000
  H   H728      1.0  0.39670  0.49870  0.13806  1.0000
  C   C612      1.0  0.43424  0.49280  0.08845  1.0000
  H   H729      1.0  0.34529  0.73082  0.54892  1.0000
  C   C613      1.0  0.31147  0.73348  0.11079  1.0000
  C   C614      1.0  0.32893  0.73238  0.46334  1.0000
  H   H730      1.0  0.29887  0.73515  0.09942  1.0000
  H   H731      1.0  0.49291  0.61048  0.80247  1.0000
  Fe  Fe87      1.0  0.33175  0.79592  0.94470  1.0000
  S   S170      1.0  0.34611  0.77083  0.95515  1.0000
  S   S171      1.0  0.34697  0.82041  0.94201  1.0000
  Fe  Fe88      1.0  0.29862  0.77797  0.92641  1.0000
  S   S172      1.0  0.27148  0.78634  0.90862  1.0000
  Fe  Fe89      1.0  0.32242  0.76286  0.98717  1.0000
  Fe  Fe90      1.0  0.33378  0.76195  0.90380  1.0000
  C   C615      1.0  0.43989  0.82612  0.59395  1.0000
  S   S173      1.0  0.30863  0.78852  0.97853  1.0000
  S   S174      1.0  0.32077  0.78733  0.89197  1.0000
  H   H732      1.0  0.33701  0.79595  0.11283  1.0000
  S   S175      1.0  0.43697  0.77236  0.55903  1.0000
  C   C616      1.0  0.31754  0.91821  0.99298  1.0000
  Fe  Fe91      1.0  0.36534  0.91798  0.99722  1.0000
  S   S176      1.0  0.35482  0.94196  0.02420  1.0000
  S   S177      1.0  0.35319  0.89301  0.01652  1.0000
  Fe  Fe92      1.0  0.38805  0.93879  0.94485  1.0000
  S   S178      1.0  0.37878  0.96388  0.96730  1.0000
  S   S179      1.0  0.40587  0.93521  0.89535  1.0000
  Fe  Fe93      1.0  0.38218  0.95062  0.02265  1.0000
  S   S180      1.0  0.39369  0.96633  0.06799  1.0000
  Fe  Fe94      1.0  0.35233  0.95342  0.96737  1.0000
  S   S181      1.0  0.32725  0.96340  0.94079  1.0000
  S   S182      1.0  0.39279  0.92590  0.99970  1.0000
  S   S183      1.0  0.36158  0.92900  0.94087  1.0000
  S   S184      1.0  0.39724  0.74880  0.59955  1.0000
  H   H733      1.0  0.24534  0.77554  0.77555  1.0000
  Fe  Fe95      1.0  0.47115  0.97333  0.21653  1.0000
  S   S185      1.0  0.45585  0.95599  0.18014  1.0000
  H   H734      1.0  0.38078  0.84153  0.01080  1.0000
  C   C617      1.0  0.31541  0.77389  0.79663  1.0000
  C   C618      1.0  0.32231  0.89361  0.93072  1.0000
  H   H735      1.0  0.32835  0.80762  0.05261  1.0000
  C   C619      1.0  0.41145  0.96325  0.09798  1.0000
  C   C620      1.0  0.42069  0.94771  0.10145  1.0000
  C   C621      1.0  0.43423  0.94582  0.12647  1.0000
  C   C622      1.0  0.43893  0.95943  0.14815  1.0000
  C   C623      1.0  0.42984  0.97502  0.14433  1.0000
  C   C624      1.0  0.41618  0.97686  0.11963  1.0000
  H   H736      1.0  0.41726  0.93709  0.08520  1.0000
  C   C625      1.0  0.38818  0.97487  0.81588  1.0000
  S   S186      1.0  0.38888  0.75406  0.70425  1.0000
  H   H737      1.0  0.47608  0.90839  0.77096  1.0000
  C   C626      1.0  0.41803  0.95154  0.87511  1.0000
  C   C627      1.0  0.42931  0.94750  0.84583  1.0000
  C   C628      1.0  0.43872  0.96017  0.82778  1.0000
  H   H738      1.0  0.31816  0.85184  0.91193  1.0000
  C   C629      1.0  0.34444  0.98210  0.84441  1.0000
  C   C630      1.0  0.41620  0.96842  0.88629  1.0000
  H   H739      1.0  0.43061  0.93451  0.83683  1.0000
  H   H740      1.0  0.44721  0.95689  0.80501  1.0000
  H   H741      1.0  0.37928  0.85766  0.06801  1.0000
  H   H742      1.0  0.40759  0.97167  0.90886  1.0000
  H   H743      1.0  0.27629  0.91281  0.97140  1.0000
  C   C631      1.0  0.48161  0.91523  0.79277  1.0000
  C   C632      1.0  0.28848  0.76516  0.77364  1.0000
  C   C633      1.0  0.49053  0.98960  0.91613  1.0000
  H   H744      1.0  0.34180  0.77525  0.09646  1.0000
  C   C634      1.0  0.31167  0.74426  0.78442  1.0000
  H   H745      1.0  0.32624  0.77085  0.81521  1.0000
  C   C635      1.0  0.36462  0.78260  0.04567  1.0000
  H   H746      1.0  0.36646  0.84500  0.12426  1.0000
  C   C636      1.0  0.45473  0.78599  0.56145  1.0000
  C   C637      1.0  0.45780  0.79761  0.53233  1.0000
  C   C638      1.0  0.47108  0.80929  0.53358  1.0000
  C   C639      1.0  0.46905  0.90701  0.21817  1.0000
  C   C640      1.0  0.39124  0.76195  0.21699  1.0000
  C   C641      1.0  0.46533  0.78612  0.59181  1.0000
  H   H747      1.0  0.44973  0.79768  0.50868  1.0000
  H   H748      1.0  0.47309  0.81817  0.51104  1.0000
  H   H749      1.0  0.46326  0.77730  0.61440  1.0000
  C   C642      1.0  0.34786  0.84074  0.96258  1.0000
  C   C643      1.0  0.33767  0.84545  0.99302  1.0000
  C   C644      1.0  0.33941  0.86151  0.00895  1.0000
  C   C645      1.0  0.35114  0.87317  0.99444  1.0000
  C   C646      1.0  0.36118  0.86852  0.96379  1.0000
  C   C647      1.0  0.35960  0.85240  0.94816  1.0000
  H   H750      1.0  0.32859  0.83670  0.00453  1.0000
  H   H751      1.0  0.33163  0.86490  0.03274  1.0000
  H   H752      1.0  0.37035  0.87724  0.95241  1.0000
  H   H753      1.0  0.36760  0.84891  0.92472  1.0000
  H   H754      1.0  0.46068  0.84233  0.60399  1.0000
  C   C648      1.0  0.36280  0.76431  0.80107  1.0000
  C   C649      1.0  0.37199  0.76574  0.76724  1.0000
  H   H755      1.0  0.35920  0.77560  0.81624  1.0000
  H   H756      1.0  0.37523  0.77819  0.75686  1.0000
  C   C650      1.0  0.25370  0.77762  0.88682  1.0000
  C   C651      1.0  0.25816  0.77311  0.76418  1.0000
  C   C652      1.0  0.30742  0.89684  0.95287  1.0000
  C   C653      1.0  0.29654  0.88297  0.95956  1.0000
  C   C654      1.0  0.32592  0.87764  0.91572  1.0000
  C   C655      1.0  0.30039  0.86699  0.94467  1.0000
  C   C656      1.0  0.31502  0.86434  0.92276  1.0000
  H   H757      1.0  0.31541  0.93108  0.00473  1.0000
  H   H758      1.0  0.31580  0.92821  0.92354  1.0000
  H   H759      1.0  0.28505  0.88404  0.97641  1.0000
  H   H760      1.0  0.33048  0.78577  0.03926  1.0000
  H   H761      1.0  0.47487  0.89556  0.20466  1.0000
  C   C657      1.0  0.25279  0.76025  0.87987  1.0000
  C   C658      1.0  0.48861  0.90235  0.26892  1.0000
  C   C659      1.0  0.36868  0.81961  0.03448  1.0000
  H   H762      1.0  0.41219  0.77773  0.22881  1.0000
  C   C660      1.0  0.33743  0.79780  0.04097  1.0000
  C   C661      1.0  0.35849  0.74832  0.81534  1.0000
  H   H763      1.0  0.35490  0.98540  0.91420  1.0000
  H   H764      1.0  0.48175  0.93361  0.34225  1.0000
  C   C662      1.0  0.26112  0.77441  0.72651  1.0000
  H   H765      1.0  0.29382  0.92348  0.91662  1.0000
  H   H766      1.0  0.37130  0.74461  0.21140  1.0000
  S   S187      1.0  0.48419  0.96136  0.77542  1.0000
  C   C663      1.0  0.36058  0.82148  0.09872  1.0000
  H   H767      1.0  0.37691  0.78119  0.06030  1.0000
  C   C664      1.0  0.49255  0.92671  0.35402  1.0000
  H   H768      1.0  0.46377  0.89394  0.28915  1.0000
  Fe  Fe96      1.0  0.48446  0.96369  0.71398  1.0000
  H   H769      1.0  0.46660  0.93846  0.24284  1.0000
  N   N40       1.0  0.35283  0.79536  0.06346  1.0000
  C   C665      1.0  0.36106  0.81192  0.06604  1.0000
  H   H770      1.0  0.30872  0.75277  0.85337  1.0000
  S   S188      1.0  0.46988  0.97246  0.27869  1.0000
  H   H771      1.0  0.47685  0.90954  0.38571  1.0000
  H   H772      1.0  0.35478  0.81688  0.12392  1.0000
  C   C666      1.0  0.37546  0.83575  0.03557  1.0000
  H   H773      1.0  0.33754  0.87539  0.89946  1.0000
  H   H774      1.0  0.28804  0.74711  0.83908  1.0000
  H   H775      1.0  0.37684  0.98916  0.90188  1.0000
  H   H776      1.0  0.30925  0.78616  0.80557  1.0000
  H   H777      1.0  0.37738  0.95906  0.88167  1.0000
  C   C667      1.0  0.37459  0.84487  0.06780  1.0000
  H   H778      1.0  0.44108  0.93367  0.12905  1.0000
  H   H779      1.0  0.49037  0.92587  0.44832  1.0000
  H   H780      1.0  0.36760  0.78590  0.01655  1.0000
  S   S189      1.0  0.32340  0.74954  0.04549  1.0000
  H   H781      1.0  0.44002  0.82893  0.56475  1.0000
  H   H782      1.0  0.49284  0.91154  0.72040  1.0000
  C   C668      1.0  0.47849  0.79791  0.59322  1.0000
  S   S190      1.0  0.34655  0.74555  0.85778  1.0000
  N   N41       1.0  0.30295  0.76018  0.79756  1.0000
  H   H783      1.0  0.47466  0.98279  0.57079  1.0000
  H   H784      1.0  0.36370  0.95310  0.84519  1.0000
  C   C669      1.0  0.29112  0.76694  0.73517  1.0000
  C   C670      1.0  0.48144  0.80965  0.56425  1.0000
  H   H785      1.0  0.46444  0.91606  0.19622  1.0000
  C   C671      1.0  0.27759  0.77144  0.71203  1.0000
  H   H786      1.0  0.29941  0.93977  0.94761  1.0000
  H   H787      1.0  0.26306  0.75155  0.88829  1.0000
  H   H788      1.0  0.46113  0.83543  0.67030  1.0000
  H   H789      1.0  0.48522  0.94581  0.46931  1.0000
  H   H790      1.0  0.32115  0.77595  0.76884  1.0000
  C   C672      1.0  0.47042  0.92024  0.82136  1.0000
  H   H791      1.0  0.47511  0.87399  0.33547  1.0000
  H   H792      1.0  0.26844  0.76830  0.81631  1.0000
  C   C673      1.0  0.30315  0.92684  0.93758  1.0000
  H   H793      1.0  0.46237  0.92446  0.28077  1.0000
  H   H794      1.0  0.27988  0.77264  0.68271  1.0000
  C   C674      1.0  0.27161  0.76872  0.78750  1.0000
  H   H795      1.0  0.39023  0.96181  0.82495  1.0000
  H   H796      1.0  0.33147  0.90333  0.92541  1.0000
  H   H797      1.0  0.30370  0.76495  0.72275  1.0000
  H   H798      1.0  0.47694  0.91112  0.63707  1.0000
  H   H799      1.0  0.29228  0.76893  0.84935  1.0000
  C   C675      1.0  0.43667  0.97710  0.83846  1.0000
  Fe  Fe97      1.0  0.42598  0.74946  0.59128  1.0000
  C   C676      1.0  0.42540  0.98118  0.86780  1.0000
  C   C677      1.0  0.47625  0.92950  0.85030  1.0000
  N   N42       1.0  0.30378  0.91398  0.96791  1.0000
  C   C678      1.0  0.34734  0.78800  0.09948  1.0000
  C   C679      1.0  0.48991  0.91541  0.63488  1.0000
  H   H800      1.0  0.48634  0.79804  0.61718  1.0000
  C   C680      1.0  0.30002  0.98290  0.91395  1.0000
  H   H801      1.0  0.34067  0.80203  0.01246  1.0000
  N   N43       1.0  0.41766  0.79665  0.66323  1.0000
  C   C681      1.0  0.42856  0.78230  0.67750  1.0000
  C   C682      1.0  0.40715  0.80382  0.69399  1.0000
  C   C683      1.0  0.40570  0.78963  0.63695  1.0000
  C   C684      1.0  0.42872  0.80976  0.64675  1.0000
  C   C685      1.0  0.44058  0.81796  0.66860  1.0000
  C   C686      1.0  0.42870  0.81423  0.60880  1.0000
  C   C687      1.0  0.45185  0.82968  0.65334  1.0000
  H   H802      1.0  0.35092  0.74309  0.48742  1.0000
  C   C688      1.0  0.45155  0.83369  0.61605  1.0000
  H   H803      1.0  0.43697  0.78611  0.69970  1.0000
  H   H804      1.0  0.42072  0.77189  0.68921  1.0000
  H   H805      1.0  0.43696  0.77689  0.65525  1.0000
  H   H806      1.0  0.41505  0.80777  0.71695  1.0000
  H   H807      1.0  0.39830  0.79426  0.70595  1.0000
  H   H808      1.0  0.39925  0.81508  0.68466  1.0000
  H   H809      1.0  0.41274  0.78297  0.61426  1.0000
  H   H810      1.0  0.39740  0.77999  0.65027  1.0000
  H   H811      1.0  0.39704  0.79972  0.62507  1.0000
  H   H812      1.0  0.44154  0.81500  0.69751  1.0000
  H   H813      1.0  0.42063  0.80828  0.58961  1.0000
  H   H814      1.0  0.29610  0.97112  0.90262  1.0000
  H   H815      1.0  0.29210  0.85648  0.95041  1.0000
  H   H816      1.0  0.35830  0.78628  0.11822  1.0000
  S   S191      1.0  0.46700  0.98714  0.71359  1.0000
  H   H817      1.0  0.48407  0.92576  0.52692  1.0000
  C   C689      1.0  0.29767  0.75713  0.83643  1.0000
  H   H818      1.0  0.45704  0.91712  0.82085  1.0000
  C   C690      1.0  0.47267  0.92897  0.26193  1.0000
  C   C691      1.0  0.31507  0.98294  0.93444  1.0000
  H   H819      1.0  0.35888  0.76984  0.04501  1.0000
  H   H820      1.0  0.25062  0.77784  0.70860  1.0000
  H   H821      1.0  0.33481  0.97713  0.86450  1.0000
  Fe  Fe98      1.0  0.46899  0.98599  0.77496  1.0000
  C   C692      1.0  0.37716  0.75126  0.74695  1.0000
  H   H822      1.0  0.45730  0.90326  0.23340  1.0000
  S   S192      1.0  0.47852  0.94098  0.68005  1.0000
  H   H823      1.0  0.28725  0.90688  0.01333  1.0000
  H   H824      1.0  0.31864  0.90875  0.01602  1.0000
  H   H825      1.0  0.35495  0.95754  0.88959  1.0000
  H   H826      1.0  0.28492  0.92865  0.99931  1.0000
  H   H827      1.0  0.33027  0.91824  0.97895  1.0000
  C   C693      1.0  0.36727  0.83772  0.09937  1.0000
  H   H828      1.0  0.36881  0.81357  0.00814  1.0000
  C   C694      1.0  0.28729  0.91555  0.98884  1.0000
  C   C695      1.0  0.47749  0.89250  0.29130  1.0000
  S   S193      1.0  0.31096  0.75196  0.93640  1.0000
  H   H829      1.0  0.31842  0.74599  0.75759  1.0000
  C   C696      1.0  0.38224  0.74756  0.22738  1.0000
  C   C697      1.0  0.37461  0.98559  0.82997  1.0000
  C   C698      1.0  0.40000  0.98094  0.78993  1.0000
  N   N44       1.0  0.36211  0.97979  0.85818  1.0000
  H   H830      1.0  0.38726  0.76962  0.19347  1.0000
  N   N45       1.0  0.48154  0.91491  0.24195  1.0000
  H   H831      1.0  0.42117  0.76044  0.28281  1.0000
  C   C699      1.0  0.36472  0.96159  0.86895  1.0000
  S   S194      1.0  0.43114  0.74076  0.64912  1.0000
  H   H832      1.0  0.48183  0.93580  0.27853  1.0000
  C   C700      1.0  0.41032  0.75676  0.26724  1.0000
  H   H833      1.0  0.46740  0.93362  0.87197  1.0000
  C   C701      1.0  0.40526  0.76654  0.23685  1.0000
  H   H834      1.0  0.40915  0.98893  0.11738  1.0000
  C   C702      1.0  0.48383  0.88106  0.31799  1.0000
  H   H835      1.0  0.34307  0.97529  0.81832  1.0000
  H   H836      1.0  0.41045  0.97263  0.78017  1.0000
  H   H837      1.0  0.43316  0.98562  0.16077  1.0000
  C   C703      1.0  0.48980  0.91309  0.37902  1.0000
  H   H838      1.0  0.48901  0.93134  0.19660  1.0000
  C   C704      1.0  0.40144  0.74230  0.27784  1.0000
  C   C705      1.0  0.36352  0.98995  0.89164  1.0000
  H   H839      1.0  0.47944  0.98759  0.89966  1.0000
  C   C706      1.0  0.48885  0.99010  0.95417  1.0000
  H   H840      1.0  0.47640  0.98846  0.96724  1.0000
  H   H841      1.0  0.49232  0.90854  0.49963  1.0000
  H   H842      1.0  0.35306  0.74108  0.09094  1.0000
  H   H843      1.0  0.56891  0.11246  0.91989  1.0000
  H   H844      1.0  0.62079  0.09889  0.89037  1.0000
  H   H845      1.0  0.60289  0.17985  0.92066  1.0000
  Fe  Fe99      1.0  0.60854  0.04616  0.97778  1.0000
  S   S195      1.0  0.61896  0.02412  0.01281  1.0000
  S   S196      1.0  0.60859  0.07506  0.98777  1.0000
  Fe  Fe100     1.0  0.59102  0.02180  0.92720  1.0000
  S   S197      1.0  0.60017  0.99832  0.95781  1.0000
  S   S198      1.0  0.57505  0.02417  0.87632  1.0000
  Fe  Fe101     1.0  0.59273  0.01305  0.00890  1.0000
  H   H846      1.0  0.69235  0.19706  0.05260  1.0000
  Fe  Fe102     1.0  0.62558  0.01085  0.95929  1.0000
  S   S199      1.0  0.50474  0.99493  0.27653  1.0000
  S   S200      1.0  0.58199  0.03567  0.97744  1.0000
  S   S201      1.0  0.61666  0.03367  0.92514  1.0000
  H   H847      1.0  0.56719  0.17145  0.61148  1.0000
  H   H848      1.0  0.57903  0.15314  0.63017  1.0000
  C   C707      1.0  0.54300  0.02157  0.12301  1.0000
  Fe  Fe103     1.0  0.64395  0.19891  0.90601  1.0000
  S   S202      1.0  0.66391  0.17818  0.89456  1.0000
  S   S203      1.0  0.62459  0.21061  0.86420  1.0000
  Fe  Fe104     1.0  0.65502  0.20204  0.98798  1.0000
  S   S204      1.0  0.67479  0.18064  0.98066  1.0000
  S   S205      1.0  0.65608  0.22010  0.03802  1.0000
  Fe  Fe105     1.0  0.68214  0.19309  0.92691  1.0000
  S   S206      1.0  0.71112  0.19690  0.92357  1.0000
  Fe  Fe106     1.0  0.65536  0.16684  0.94904  1.0000
  S   S207      1.0  0.65658  0.13759  0.94712  1.0000
  S   S208      1.0  0.66293  0.21489  0.93457  1.0000
  S   S209      1.0  0.63468  0.18724  0.95995  1.0000
  Fe  Fe107     1.0  0.55241  0.21105  0.59720  1.0000
  S   S210      1.0  0.54224  0.18926  0.56348  1.0000
  Fe  Fe108     1.0  0.57598  0.21937  0.66165  1.0000
  S   S211      1.0  0.58928  0.20277  0.70703  1.0000
  S   S212      1.0  0.54717  0.22157  0.65376  1.0000
  S   S213      1.0  0.58072  0.20789  0.60599  1.0000
  H   H849      1.0  0.72819  0.21041  0.98591  1.0000
  H   H850      1.0  0.58003  0.16367  0.86464  1.0000
  H   H851      1.0  0.57059  0.14169  0.69273  1.0000
  C   C708      1.0  0.65455  0.22657  0.08532  1.0000
  C   C709      1.0  0.64660  0.22190  0.15009  1.0000
  C   C710      1.0  0.64727  0.21647  0.11322  1.0000
  C   C711      1.0  0.59756  0.22032  0.38807  1.0000
  H   H852      1.0  0.64211  0.20441  0.10643  1.0000
  C   C712      1.0  0.61566  0.20841  0.81950  1.0000
  C   C713      1.0  0.61846  0.19382  0.79842  1.0000
  C   C714      1.0  0.61040  0.19243  0.76426  1.0000
  C   C715      1.0  0.59971  0.20571  0.74988  1.0000
  C   C716      1.0  0.59714  0.22039  0.77068  1.0000
  C   C717      1.0  0.60490  0.22163  0.80521  1.0000
  H   H853      1.0  0.62680  0.18358  0.80841  1.0000
  H   H854      1.0  0.61262  0.18102  0.74862  1.0000
  C   C718      1.0  0.58812  0.19428  0.51083  1.0000
  C   C719      1.0  0.72497  0.18657  0.85584  1.0000
  C   C720      1.0  0.72788  0.19318  0.89030  1.0000
  H   H855      1.0  0.73359  0.23758  0.03782  1.0000
  H   H856      1.0  0.71210  0.18390  0.84820  1.0000
  H   H857      1.0  0.52001  0.06531  0.23235  1.0000
  C   C721      1.0  0.51191  0.17599  0.59291  1.0000
  C   C722      1.0  0.52402  0.17609  0.56405  1.0000
  C   C723      1.0  0.52201  0.16494  0.53485  1.0000
  H   H858      1.0  0.53123  0.16482  0.51232  1.0000
  H   H859      1.0  0.51313  0.18443  0.61557  1.0000
  H   H860      1.0  0.70101  0.14390  0.86543  1.0000
  H   H861      1.0  0.73292  0.20540  0.03304  1.0000
  C   C724      1.0  0.49821  0.16476  0.59269  1.0000
  C   C725      1.0  0.53032  0.14505  0.67005  1.0000
  C   C726      1.0  0.56229  0.00838  0.85877  1.0000
  C   C727      1.0  0.55569  0.01878  0.09528  1.0000
  C   C728      1.0  0.54597  0.14353  0.61210  1.0000
  N   N46       1.0  0.71140  0.14049  0.91969  1.0000
  H   H862      1.0  0.55839  0.21136  0.50944  1.0000
  H   H863      1.0  0.71485  0.19665  0.01154  1.0000
  C   C729      1.0  0.62132  0.21356  0.42726  1.0000
  H   H864      1.0  0.49377  0.03074  0.34523  1.0000
  C   C730      1.0  0.60001  0.16609  0.92293  1.0000
  C   C731      1.0  0.62237  0.09217  0.97681  1.0000
  C   C732      1.0  0.61701  0.10887  0.98624  1.0000
  C   C733      1.0  0.62722  0.12291  0.97749  1.0000
  C   C734      1.0  0.64304  0.12045  0.95928  1.0000
  C   C735      1.0  0.64843  0.10375  0.94997  1.0000
  C   C736      1.0  0.63820  0.08973  0.95859  1.0000
  H   H865      1.0  0.60482  0.11095  0.00035  1.0000
  H   H866      1.0  0.62287  0.13557  0.98512  1.0000
  H   H867      1.0  0.66064  0.10161  0.93599  1.0000
  H   H868      1.0  0.64256  0.07701  0.95124  1.0000
  H   H869      1.0  0.59532  0.20412  0.52486  1.0000
  C   C737      1.0  0.57166  0.16505  0.63719  1.0000
  H   H870      1.0  0.62480  0.17439  0.87659  1.0000
  C   C738      1.0  0.59445  0.10386  0.90534  1.0000
  C   C739      1.0  0.56129  0.00220  0.08660  1.0000
  H   H871      1.0  0.58619  0.16566  0.93034  1.0000
  C   C740      1.0  0.65332  0.23746  0.16022  1.0000
  C   C741      1.0  0.50514  0.03870  0.26300  1.0000
  H   H872      1.0  0.60729  0.16039  0.94633  1.0000
  H   H873      1.0  0.59703  0.18333  0.50439  1.0000
  S   S214      1.0  0.49648  0.02540  0.68190  1.0000
  H   H874      1.0  0.57421  0.14254  0.90847  1.0000
  H   H875      1.0  0.62718  0.12842  0.87998  1.0000
  C   C742      1.0  0.51964  0.99459  0.95923  1.0000
  H   H876      1.0  0.63134  0.15544  0.90102  1.0000
  H   H877      1.0  0.57278  0.21490  0.40902  1.0000
  H   H878      1.0  0.51358  0.07253  0.29009  1.0000
  H   H879      1.0  0.70841  0.16143  0.95675  1.0000
  H   H880      1.0  0.53456  0.12859  0.57094  1.0000
  H   H881      1.0  0.57797  0.17719  0.45168  1.0000
  H   H882      1.0  0.72707  0.13052  0.85500  1.0000
  C   C743      1.0  0.49622  0.15356  0.56357  1.0000
  H   H883      1.0  0.57429  0.16284  0.70806  1.0000
  C   C744      1.0  0.53973  0.00114  0.81748  1.0000
  Fe  Fe109     1.0  0.50344  0.99491  0.21461  1.0000
  C   C745      1.0  0.55103  0.99799  0.96134  1.0000
  N   N47       1.0  0.49611  0.05289  0.24333  1.0000
  H   H884      1.0  0.62545  0.99577  0.89567  1.0000
  H   H885      1.0  0.57850  0.18963  0.53131  1.0000
  H   H886      1.0  0.55088  0.00939  0.94268  1.0000
  H   H887      1.0  0.56130  0.02945  0.08100  1.0000
  H   H888      1.0  0.73639  0.17821  0.80453  1.0000
  N   N48       1.0  0.60453  0.15710  0.88851  1.0000
  H   H889      1.0  0.56135  0.19254  0.43954  1.0000
  C   C746      1.0  0.58624  0.21415  0.41495  1.0000
  H   H890      1.0  0.60254  0.23300  0.82098  1.0000
  H   H891      1.0  0.71544  0.14136  0.97787  1.0000
  H   H892      1.0  0.53000  0.02365  0.98628  1.0000
  C   C747      1.0  0.59395  0.16462  0.85868  1.0000
  H   H893      1.0  0.50248  0.07264  0.20433  1.0000
  S   S215      1.0  0.55531  0.23698  0.57095  1.0000
  H   H894      1.0  0.68796  0.23596  0.00994  1.0000
  H   H895      1.0  0.70937  0.11609  0.89409  1.0000
  C   C748      1.0  0.60124  0.13875  0.89318  1.0000
  H   H896      1.0  0.62684  0.15493  0.85263  1.0000
  H   H897      1.0  0.54801  0.02656  0.82545  1.0000
  C   C749      1.0  0.72237  0.20827  0.01369  1.0000
  C   C750      1.0  0.70848  0.23169  0.09265  1.0000
  C   C751      1.0  0.50820  0.15384  0.53446  1.0000
  H   H898      1.0  0.70091  0.22782  0.97208  1.0000
  N   N49       1.0  0.55711  0.16164  0.66285  1.0000
  H   H899      1.0  0.58086  0.17374  0.64928  1.0000
  H   H900      1.0  0.69516  0.11946  0.93229  1.0000
  H   H901      1.0  0.70433  0.23759  0.14979  1.0000
  H   H902      1.0  0.55463  0.15322  0.71952  1.0000
  H   H903      1.0  0.63488  0.02089  0.85635  1.0000
  C   C752      1.0  0.51806  0.13450  0.65649  1.0000
  C   C753      1.0  0.49332  0.08543  0.31915  1.0000
  C   C754      1.0  0.54467  0.14993  0.64825  1.0000
  S   S216      1.0  0.65240  0.99944  0.94318  1.0000
  H   H904      1.0  0.68172  0.19221  0.11507  1.0000
  H   H905      1.0  0.51117  0.02938  0.24366  1.0000
  C   C755      1.0  0.53368  0.13289  0.59896  1.0000
  H   H906      1.0  0.57626  0.99413  0.77129  1.0000
  H   H907      1.0  0.50988  0.12079  0.61007  1.0000
  H   H908      1.0  0.55730  0.18743  0.68144  1.0000
  C   C756      1.0  0.61065  0.10858  0.89348  1.0000
  H   H909      1.0  0.59692  0.15820  0.83228  1.0000
  H   H910      1.0  0.69366  0.14498  0.96510  1.0000
  C   C757      1.0  0.54985  0.01328  0.83319  1.0000
  H   H911      1.0  0.59211  0.09058  0.91151  1.0000
  C   C758      1.0  0.69936  0.14884  0.89358  1.0000
  H   H912      1.0  0.59629  0.17843  0.85430  1.0000
  H   H913      1.0  0.52824  0.14969  0.69747  1.0000
  H   H914      1.0  0.53787  0.17706  0.69183  1.0000
  H   H915      1.0  0.50695  0.14533  0.51190  1.0000
  H   H916      1.0  0.61371  0.02186  0.83978  1.0000
  H   H917      1.0  0.57533  0.22580  0.50130  1.0000
  H   H918      1.0  0.51347  0.05244  0.19640  1.0000
  H   H919      1.0  0.49604  0.05755  0.64378  1.0000
  C   C759      1.0  0.51974  0.12845  0.62101  1.0000
  H   H920      1.0  0.71761  0.11513  0.93962  1.0000
  H   H921      1.0  0.53899  0.03446  0.12970  1.0000
  H   H922      1.0  0.58894  0.23073  0.76049  1.0000
  H   H923      1.0  0.50376  0.02665  0.58892  1.0000
  C   C760      1.0  0.49984  0.07428  0.29250  1.0000
  C   C761      1.0  0.61506  0.22000  0.39419  1.0000
  C   C762      1.0  0.70716  0.14738  0.95651  1.0000
  C   C763      1.0  0.54828  0.17818  0.67082  1.0000
  N   N50       1.0  0.71160  0.22318  0.02565  1.0000
  C   C764      1.0  0.56955  0.18781  0.46227  1.0000
  H   H924      1.0  0.63491  0.21387  0.43226  1.0000
  C   C765      1.0  0.56443  0.15448  0.69725  1.0000
  H   H925      1.0  0.60502  0.99732  0.87508  1.0000
  H   H926      1.0  0.68582  0.14682  0.90204  1.0000
  Fe  Fe110     1.0  0.58329  0.23427  0.58232  1.0000
  H   H927      1.0  0.63154  0.02038  0.80779  1.0000
  H   H928      1.0  0.50190  0.09192  0.33655  1.0000
  C   C766      1.0  0.70537  0.22036  0.06387  1.0000
  C   C767      1.0  0.50852  0.06126  0.21812  1.0000
  N   N51       1.0  0.57984  0.20137  0.47734  1.0000
  H   H929      1.0  0.59338  0.00550  0.81910  1.0000
  C   C768      1.0  0.56810  0.21562  0.48877  1.0000
  H   H930      1.0  0.53270  0.99601  0.90537  1.0000
  C   C769      1.0  0.59216  0.20754  0.44908  1.0000
  C   C770      1.0  0.61011  0.20752  0.45452  1.0000
  H   H931      1.0  0.64083  0.21390  0.17103  1.0000
  C   C771      1.0  0.70831  0.12200  0.92143  1.0000
  H   H932      1.0  0.54242  0.18386  0.64564  1.0000
  H   H933      1.0  0.49937  0.05380  0.38823  1.0000
  C   C772      1.0  0.62268  0.16051  0.87927  1.0000
  C   C773      1.0  0.58469  0.13343  0.90405  1.0000
  H   H934      1.0  0.55603  0.14695  0.59295  1.0000
  S   S217      1.0  0.51990  0.01232  0.17774  1.0000
  H   H935      1.0  0.56089  0.22144  0.46557  1.0000
  C   C774      1.0  0.54105  0.99133  0.13333  1.0000
  C   C775      1.0  0.53563  0.00790  0.14240  1.0000
  H   H936      1.0  0.62375  0.22530  0.37374  1.0000
  H   H937      1.0  0.61585  0.20333  0.47991  1.0000
  H   H938      1.0  0.53018  0.00511  0.79781  1.0000
  C   C776      1.0  0.72923  0.14333  0.90709  1.0000
  H   H939      1.0  0.56067  0.18242  0.48348  1.0000
  N   N52       1.0  0.53466  0.99662  0.98251  1.0000
  C   C777      1.0  0.69274  0.21437  0.13640  1.0000
  C   C778      1.0  0.61413  0.12574  0.88764  1.0000
  C   C779      1.0  0.58145  0.11624  0.91035  1.0000
  C   C780      1.0  0.59945  0.99620  0.80124  1.0000
  H   H940      1.0  0.68745  0.21238  0.16383  1.0000
  H   H941      1.0  0.70115  0.16280  0.89196  1.0000
  S   S218      1.0  0.57722  0.99769  0.05172  1.0000
  H   H942      1.0  0.49629  0.99734  0.60581  1.0000
  C   C781      1.0  0.62664  0.01580  0.83493  1.0000
  C   C782      1.0  0.53219  0.01224  0.00434  1.0000
  C   C783      1.0  0.73526  0.13728  0.87256  1.0000
  H   H943      1.0  0.68913  0.21379  0.00074  1.0000
  H   H944      1.0  0.51552  0.04307  0.28031  1.0000
  H   H945      1.0  0.52121  0.01154  0.02413  1.0000
  C   C784      1.0  0.69682  0.22533  0.00108  1.0000
  H   H946      1.0  0.73751  0.15775  0.95404  1.0000
  H   H947      1.0  0.56203  0.99937  0.97973  1.0000
  H   H948      1.0  0.49607  0.03173  0.28116  1.0000
  H   H949      1.0  0.54364  0.01451  0.02095  1.0000
  C   C785      1.0  0.72201  0.23849  0.02065  1.0000
  C   C786      1.0  0.69572  0.20592  0.07318  1.0000
  H   H950      1.0  0.50694  0.13132  0.67314  1.0000
  C   C787      1.0  0.74096  0.15230  0.92790  1.0000
  H   H951      1.0  0.65165  0.99585  0.86038  1.0000
  C   C788      1.0  0.70220  0.22865  0.12831  1.0000
  C   C789      1.0  0.68956  0.20300  0.10892  1.0000
  H   H952      1.0  0.59279  0.22578  0.36261  1.0000
  C   C790      1.0  0.52083  0.99431  0.92031  1.0000
  H   H953      1.0  0.50122  0.99281  0.00490  1.0000
  C   C791      1.0  0.73879  0.18347  0.83095  1.0000
  N   N53       1.0  0.62652  0.99694  0.83677  1.0000
  C   C792      1.0  0.56476  0.99116  0.86824  1.0000
  H   H954      1.0  0.65173  0.99402  0.81173  1.0000
  S   S219      1.0  0.60541  0.23957  0.54097  1.0000
  C   C793      1.0  0.50315  0.99257  0.97549  1.0000
  H   H955      1.0  0.50779  0.99131  0.86960  1.0000
  C   C794      1.0  0.50648  0.99173  0.89926  1.0000
  C   C795      1.0  0.49426  0.02038  0.57339  1.0000
  H   H956      1.0  0.72658  0.24010  0.99168  1.0000
  C   C796      1.0  0.61820  0.99166  0.87181  1.0000
  C   C797      1.0  0.64463  0.99046  0.83732  1.0000
  C   C798      1.0  0.61672  0.99055  0.80609  1.0000
  C   C799      1.0  0.62482  0.28400  0.07104  1.0000
  H   H957      1.0  0.52466  0.40366  0.44788  1.0000
  S   S220      1.0  0.49731  0.46762  0.52560  1.0000
  S   S221      1.0  0.53661  0.27294  0.62652  1.0000
  H   H958      1.0  0.58424  0.43558  0.08756  1.0000
  H   H959      1.0  0.63227  0.30763  0.09068  1.0000
  Fe  Fe111     1.0  0.64329  0.27148  0.33566  1.0000
  S   S222      1.0  0.66299  0.29157  0.34139  1.0000
  S   S223      1.0  0.62039  0.26703  0.37597  1.0000
  Fe  Fe112     1.0  0.65665  0.26202  0.25595  1.0000
  S   S224      1.0  0.67712  0.28134  0.25807  1.0000
  H   H960      1.0  0.53070  0.48543  0.41935  1.0000
  Fe  Fe113     1.0  0.68181  0.27227  0.31619  1.0000
  S   S225      1.0  0.70849  0.26283  0.33552  1.0000
  Fe  Fe114     1.0  0.65682  0.29933  0.28299  1.0000
  S   S226      1.0  0.65448  0.32613  0.25582  1.0000
  S   S227      1.0  0.66227  0.25181  0.31311  1.0000
  S   S228      1.0  0.63618  0.28038  0.27829  1.0000
  Fe  Fe115     1.0  0.59636  0.45931  0.29791  1.0000
  S   S229      1.0  0.60964  0.47440  0.25346  1.0000
  S   S230      1.0  0.57956  0.47590  0.33519  1.0000
  Fe  Fe116     1.0  0.61367  0.42558  0.27336  1.0000
  S   S231      1.0  0.62755  0.43869  0.22660  1.0000
  S   S232      1.0  0.61642  0.39775  0.29442  1.0000
  Fe  Fe117     1.0  0.63341  0.45890  0.26750  1.0000
  S   S233      1.0  0.66130  0.46719  0.27265  1.0000
  Fe  Fe118     1.0  0.60242  0.45328  0.21678  1.0000
  S   S234      1.0  0.59237  0.46172  0.16021  1.0000
  S   S235      1.0  0.62052  0.44515  0.31442  1.0000
  S   S236      1.0  0.58807  0.43889  0.26085  1.0000
  Fe  Fe119     1.0  0.50567  0.47385  0.03334  1.0000
  S   S237      1.0  0.51966  0.46103  0.08229  1.0000
  S   S238      1.0  0.51391  0.47745  0.97410  1.0000
  C   C800      1.0  0.59971  0.25909  0.43600  1.0000
  S   S239      1.0  0.51430  0.45295  0.42775  1.0000
  H   H961      1.0  0.58935  0.26336  0.41858  1.0000
  C   C801      1.0  0.56151  0.46910  0.36064  1.0000
  C   C802      1.0  0.55609  0.45240  0.35945  1.0000
  C   C803      1.0  0.54152  0.44762  0.38000  1.0000
  C   C804      1.0  0.53235  0.45947  0.40190  1.0000
  C   C805      1.0  0.50101  0.48173  0.20758  1.0000
  C   C806      1.0  0.68841  0.48638  0.29267  1.0000
  H   H962      1.0  0.56322  0.44315  0.34305  1.0000
  H   H963      1.0  0.53748  0.43466  0.37924  1.0000
  H   H964      1.0  0.54936  0.45590  0.23885  1.0000
  N   N54       1.0  0.54529  0.48261  0.24848  1.0000
  C   C807      1.0  0.57177  0.46192  0.14001  1.0000
  C   C808      1.0  0.55850  0.45211  0.15409  1.0000
  C   C809      1.0  0.54271  0.45205  0.13603  1.0000
  C   C810      1.0  0.53989  0.46182  0.10377  1.0000
  C   C811      1.0  0.55308  0.47181  0.09000  1.0000
  C   C812      1.0  0.56891  0.47178  0.10793  1.0000
  H   H965      1.0  0.56052  0.44427  0.17837  1.0000
  H   H966      1.0  0.53261  0.44432  0.14704  1.0000
  H   H967      1.0  0.50724  0.41758  0.43575  1.0000
  H   H968      1.0  0.55777  0.46285  0.28101  1.0000
  C   C813      1.0  0.64330  0.34575  0.26665  1.0000
  C   C814      1.0  0.64526  0.35996  0.24298  1.0000
  C   C815      1.0  0.63705  0.37587  0.25063  1.0000
  C   C816      1.0  0.62676  0.37786  0.28228  1.0000
  C   C817      1.0  0.62468  0.36359  0.30574  1.0000
  C   C818      1.0  0.63284  0.34766  0.29802  1.0000
  H   H969      1.0  0.65331  0.35870  0.21863  1.0000
  H   H970      1.0  0.63867  0.38656  0.23197  1.0000
  H   H971      1.0  0.61673  0.36489  0.33024  1.0000
  H   H972      1.0  0.63114  0.33692  0.31654  1.0000
  H   H973      1.0  0.62488  0.28850  0.04277  1.0000
  C   C819      1.0  0.72858  0.28814  0.36362  1.0000
  C   C820      1.0  0.72711  0.27093  0.35569  1.0000
  H   H974      1.0  0.56036  0.41705  0.10380  1.0000
  H   H975      1.0  0.58548  0.44995  0.02692  1.0000
  H   H976      1.0  0.71811  0.29705  0.35761  1.0000
  H   H977      1.0  0.69622  0.47720  0.27749  1.0000
  C   C821      1.0  0.52469  0.28585  0.65864  1.0000
  C   C822      1.0  0.52321  0.28153  0.69593  1.0000
  C   C823      1.0  0.51346  0.29216  0.72000  1.0000
  H   H978      1.0  0.52959  0.27005  0.70630  1.0000
  H   H979      1.0  0.62539  0.26660  0.17090  1.0000
  C   C824      1.0  0.61668  0.25954  0.42215  1.0000
  C   C825      1.0  0.53765  0.47620  0.40265  1.0000
  C   C826      1.0  0.62992  0.25409  0.44530  1.0000
  H   H980      1.0  0.50007  0.32300  0.65964  1.0000
  C   C827      1.0  0.51845  0.43176  0.00539  1.0000
  H   H981      1.0  0.52733  0.43107  0.93431  1.0000
  H   H982      1.0  0.51250  0.28869  0.74878  1.0000
  H   H983      1.0  0.62503  0.30909  0.21828  1.0000
  C   C828      1.0  0.63855  0.31759  0.15464  1.0000
  H   H984      1.0  0.52395  0.40433  0.96273  1.0000
  H   H985      1.0  0.61880  0.28826  0.20820  1.0000
  C   C829      1.0  0.62942  0.28914  0.13618  1.0000
  H   H986      1.0  0.60907  0.30618  0.18445  1.0000
  H   H987      1.0  0.51714  0.30437  0.61715  1.0000
  H   H988      1.0  0.62710  0.32425  0.14276  1.0000
  C   C830      1.0  0.62618  0.24812  0.48137  1.0000
  S   S240      1.0  0.58074  0.24578  0.63860  1.0000
  H   H989      1.0  0.50952  0.43383  0.49266  1.0000
  H   H990      1.0  0.54994  0.42942  0.94014  1.0000
  Fe  Fe120     1.0  0.55224  0.24748  0.62811  1.0000
  C   C831      1.0  0.59598  0.25328  0.47215  1.0000
  H   H991      1.0  0.50511  0.42203  0.85632  1.0000
  C   C832      1.0  0.51056  0.40571  0.45148  1.0000
  C   C833      1.0  0.53768  0.43377  0.95357  1.0000
  C   C834      1.0  0.56228  0.48732  0.23317  1.0000
  H   H992      1.0  0.64304  0.25434  0.43532  1.0000
  H   H993      1.0  0.51459  0.42495  0.03103  1.0000
  C   C835      1.0  0.54878  0.42810  0.01598  1.0000
  H   H994      1.0  0.57907  0.47937  0.09663  1.0000
  H   H995      1.0  0.50925  0.39166  0.53991  1.0000
  H   H996      1.0  0.65579  0.30018  0.20366  1.0000
  H   H997      1.0  0.69454  0.36023  0.26553  1.0000
  C   C836      1.0  0.56115  0.42280  0.07661  1.0000
  C   C837      1.0  0.65071  0.29215  0.18205  1.0000
  H   H998      1.0  0.53535  0.46065  0.27736  1.0000
  H   H999      1.0  0.50422  0.39513  0.43816  1.0000
  H   H1000     1.0  0.53742  0.44785  0.95589  1.0000
  C   C838      1.0  0.62079  0.26724  0.07919  1.0000
  N   N55       1.0  0.53503  0.42522  0.98983  1.0000
  H   H1001     1.0  0.64231  0.32528  0.17830  1.0000
  H   H1002     1.0  0.53006  0.39955  0.00850  1.0000
  H   H1003     1.0  0.52647  0.39010  0.50701  1.0000
  H   H1004     1.0  0.67870  0.34421  0.31321  1.0000
  H   H1005     1.0  0.71438  0.25030  0.02736  1.0000
  H   H1006     1.0  0.64860  0.27950  0.19505  1.0000
  C   C839      1.0  0.62074  0.26133  0.11536  1.0000
  H   H1007     1.0  0.61794  0.25870  0.05741  1.0000
  H   H1008     1.0  0.51920  0.44536  0.01241  1.0000
  C   C840      1.0  0.60920  0.24757  0.49513  1.0000
  H   H1009     1.0  0.66610  0.25945  0.13922  1.0000
  H   H1010     1.0  0.56373  0.44588  0.98213  1.0000
  H   H1011     1.0  0.52764  0.42066  0.50388  1.0000
  H   H1012     1.0  0.66097  0.29035  0.16071  1.0000
  C   C841      1.0  0.74096  0.25957  0.36383  1.0000
  N   N56       1.0  0.63488  0.29987  0.16629  1.0000
  C   C842      1.0  0.57526  0.44138  0.03331  1.0000
  H   H1013     1.0  0.71550  0.24310  0.08835  1.0000
  C   C843      1.0  0.62908  0.29488  0.09899  1.0000
  C   C844      1.0  0.50430  0.48628  0.17110  1.0000
  C   C845      1.0  0.54838  0.42026  0.05136  1.0000
  C   C846      1.0  0.56258  0.43891  0.00778  1.0000
  H   H1014     1.0  0.50709  0.37960  0.49870  1.0000
  C   C847      1.0  0.66076  0.24751  0.13235  1.0000
  N   N57       1.0  0.67007  0.41259  0.30154  1.0000
  C   C848      1.0  0.65862  0.42036  0.33015  1.0000
  C   C849      1.0  0.68673  0.42094  0.30300  1.0000
  C   C850      1.0  0.66238  0.41663  0.26558  1.0000
  C   C851      1.0  0.67259  0.39390  0.30592  1.0000
  C   C852      1.0  0.66363  0.38422  0.33297  1.0000
  C   C853      1.0  0.68391  0.38474  0.28182  1.0000
  C   C854      1.0  0.66613  0.36655  0.33582  1.0000
  C   C855      1.0  0.68618  0.36705  0.28475  1.0000
  C   C856      1.0  0.67732  0.35798  0.31173  1.0000
  H   H1015     1.0  0.66360  0.41781  0.35807  1.0000
  H   H1016     1.0  0.65730  0.43445  0.32643  1.0000
  H   H1017     1.0  0.64541  0.41557  0.32898  1.0000
  H   H1018     1.0  0.69335  0.41752  0.32893  1.0000
  H   H1019     1.0  0.68504  0.43509  0.30141  1.0000
  H   H1020     1.0  0.69548  0.41743  0.27978  1.0000
  H   H1021     1.0  0.64966  0.41086  0.26375  1.0000
  H   H1022     1.0  0.66049  0.43062  0.26110  1.0000
  H   H1023     1.0  0.67045  0.41190  0.24227  1.0000
  H   H1024     1.0  0.65423  0.38988  0.35159  1.0000
  H   H1025     1.0  0.69080  0.39115  0.25996  1.0000
  H   H1026     1.0  0.65884  0.35934  0.35595  1.0000
  S   S241      1.0  0.49452  0.44427  0.91488  1.0000
  C   C857      1.0  0.51343  0.42167  0.50651  1.0000
  C   C858      1.0  0.62499  0.27206  0.14347  1.0000
  N   N58       1.0  0.57855  0.29360  0.55272  1.0000
  C   C859      1.0  0.57888  0.27550  0.56475  1.0000
  C   C860      1.0  0.58476  0.30387  0.58293  1.0000
  C   C861      1.0  0.56037  0.29893  0.54668  1.0000
  C   C862      1.0  0.58981  0.29558  0.51983  1.0000
  C   C863      1.0  0.60747  0.29075  0.52129  1.0000
  C   C864      1.0  0.58371  0.30195  0.48558  1.0000
  C   C865      1.0  0.61831  0.29215  0.49049  1.0000
  C   C866      1.0  0.59470  0.30324  0.45490  1.0000
  C   C867      1.0  0.61193  0.29835  0.45734  1.0000
  H   H1027     1.0  0.59167  0.27093  0.57435  1.0000
  H   H1028     1.0  0.56969  0.27330  0.58795  1.0000
  H   H1029     1.0  0.57549  0.26717  0.54201  1.0000
  H   H1030     1.0  0.59780  0.29960  0.59156  1.0000
  H   H1031     1.0  0.57630  0.30291  0.60787  1.0000
  H   H1032     1.0  0.58524  0.31753  0.57462  1.0000
  H   H1033     1.0  0.55463  0.29110  0.52548  1.0000
  H   H1034     1.0  0.55231  0.29720  0.57205  1.0000
  H   H1035     1.0  0.55902  0.31261  0.53865  1.0000
  H   H1036     1.0  0.61297  0.28537  0.54603  1.0000
  H   H1037     1.0  0.57049  0.30577  0.48155  1.0000
  H   H1038     1.0  0.63163  0.28785  0.49192  1.0000
  H   H1039     1.0  0.58980  0.30771  0.42873  1.0000
  H   H1040     1.0  0.62027  0.29882  0.43316  1.0000
  C   C868      1.0  0.67053  0.48464  0.29493  1.0000
  H   H1041     1.0  0.50206  0.46212  0.34813  1.0000
  C   C869      1.0  0.51619  0.30088  0.64589  1.0000
  C   C870      1.0  0.50643  0.31148  0.66995  1.0000
  C   C871      1.0  0.57460  0.43328  0.06755  1.0000
  C   C872      1.0  0.62135  0.30087  0.19544  1.0000
  H   H1042     1.0  0.54628  0.40119  0.97304  1.0000
  H   H1043     1.0  0.64944  0.31795  0.13452  1.0000
  C   C873      1.0  0.53383  0.40677  0.98333  1.0000
  H   H1044     1.0  0.58287  0.25333  0.48204  1.0000
  H   H1045     1.0  0.53794  0.41245  0.06012  1.0000
  C   C874      1.0  0.50502  0.30722  0.70729  1.0000
  C   C875      1.0  0.51431  0.48072  0.23257  1.0000
  H   H1046     1.0  0.66697  0.25017  0.07442  1.0000
  H   H1047     1.0  0.50783  0.43075  0.98582  1.0000
  H   H1048     1.0  0.50995  0.42296  0.53603  1.0000
  H   H1049     1.0  0.51118  0.47699  0.26049  1.0000
  C   C876      1.0  0.51227  0.39134  0.50992  1.0000
  C   C877      1.0  0.50224  0.47668  0.66755  1.0000
  C   C878      1.0  0.55216  0.48097  0.38206  1.0000
  H   H1050     1.0  0.74002  0.24624  0.35794  1.0000
  C   C879      1.0  0.54694  0.46474  0.26197  1.0000
  H   H1051     1.0  0.56676  0.47872  0.21079  1.0000
  H   H1052     1.0  0.55116  0.47941  0.06531  1.0000
  H   H1053     1.0  0.52997  0.48965  0.29654  1.0000
  H   H1054     1.0  0.61800  0.24815  0.12159  1.0000
  N   N59       1.0  0.50531  0.40685  0.49070  1.0000
  S   S242      1.0  0.65178  0.24374  0.20766  1.0000
  Fe  Fe121     1.0  0.49935  0.47146  0.46452  1.0000
  H   H1055     1.0  0.63658  0.24383  0.49871  1.0000
  C   C880      1.0  0.66122  0.24219  0.09537  1.0000
  H   H1056     1.0  0.51076  0.46538  0.66145  1.0000
  C   C881      1.0  0.53139  0.48422  0.22163  1.0000
  H   H1057     1.0  0.57233  0.48628  0.25432  1.0000
  C   C882      1.0  0.53428  0.48891  0.18423  1.0000
  H   H1058     1.0  0.50581  0.48705  0.64788  1.0000
  H   H1059     1.0  0.50534  0.48110  0.69521  1.0000
  C   C883      1.0  0.52084  0.49000  0.15959  1.0000
  H   H1060     1.0  0.49354  0.41162  0.58832  1.0000
  H   H1061     1.0  0.49409  0.48672  0.15145  1.0000
  Fe  Fe122     1.0  0.67357  0.63807  0.70813  1.0000
  S   S243      1.0  0.70020  0.62637  0.71619  1.0000
  S   S244      1.0  0.65167  0.62226  0.73247  1.0000
  Fe  Fe123     1.0  0.68819  0.67079  0.67342  1.0000
  S   S245      1.0  0.71538  0.66117  0.68069  1.0000
  S   S246      1.0  0.67854  0.69588  0.64599  1.0000
  Fe  Fe124     1.0  0.70626  0.63634  0.65884  1.0000
  S   S247      1.0  0.72332  0.62204  0.61567  1.0000
  Fe  Fe125     1.0  0.70716  0.65186  0.73758  1.0000
  S   S248      1.0  0.72025  0.65813  0.79246  1.0000
  S   S249      1.0  0.67930  0.64632  0.64974  1.0000
  S   S250      1.0  0.68032  0.66318  0.73113  1.0000
  H   H1062     1.0  0.71375  0.70817  0.64180  1.0000
  Fe  Fe126     1.0  0.73118  0.56927  0.41692  1.0000
  S   S251      1.0  0.71585  0.58441  0.46162  1.0000
  Fe  Fe127     1.0  0.72142  0.54187  0.36120  1.0000
  S   S252      1.0  0.50175  0.58915  0.71593  1.0000
  S   S253      1.0  0.69554  0.52976  0.35090  1.0000
  C   C884      1.0  0.73411  0.59544  0.52171  1.0000
  C   C885      1.0  0.68638  0.55293  0.44008  1.0000
  S   S254      1.0  0.73421  0.54054  0.41629  1.0000
  S   S255      1.0  0.71746  0.57031  0.36330  1.0000
  Fe  Fe128     1.0  0.52216  0.59039  0.67244  1.0000
  S   S256      1.0  0.50142  0.49974  0.46814  1.0000
  S   S257      1.0  0.51832  0.58301  0.61379  1.0000
  Fe  Fe129     1.0  0.54612  0.60941  0.72045  1.0000
  S   S258      1.0  0.52708  0.60965  0.76854  1.0000
  S   S259      1.0  0.57037  0.62451  0.70869  1.0000
  Fe  Fe130     1.0  0.52287  0.58217  0.75489  1.0000
  S   S260      1.0  0.51615  0.55812  0.78830  1.0000
  Fe  Fe131     1.0  0.50682  0.61642  0.72679  1.0000
  C   C886      1.0  0.55563  0.54935  0.58836  1.0000
  S   S261      1.0  0.54326  0.58151  0.70961  1.0000
  S   S262      1.0  0.52582  0.61813  0.68036  1.0000
  H   H1063     1.0  0.56720  0.61436  0.62282  1.0000
  C   C887      1.0  0.51056  0.52704  0.58900  1.0000
  H   H1064     1.0  0.71006  0.50102  0.30750  1.0000
  H   H1065     1.0  0.51999  0.55249  0.65995  1.0000
  C   C888      1.0  0.54121  0.49380  0.28000  1.0000
  C   C889      1.0  0.73533  0.66521  0.85875  1.0000
  C   C890      1.0  0.51455  0.56152  0.60525  1.0000
  H   H1066     1.0  0.56207  0.50068  0.22257  1.0000
  C   C891      1.0  0.50856  0.53321  0.83976  1.0000
  C   C892      1.0  0.72431  0.66009  0.52991  1.0000
  H   H1067     1.0  0.66497  0.55012  0.49743  1.0000
  C   C893      1.0  0.66068  0.49674  0.31459  1.0000
  H   H1068     1.0  0.53860  0.50717  0.27061  1.0000
  Fe  Fe132     1.0  0.74286  0.57238  0.33388  1.0000
  H   H1069     1.0  0.59430  0.60440  0.58797  1.0000
  C   C894      1.0  0.57373  0.55902  0.64904  1.0000
  C   C895      1.0  0.51407  0.54993  0.83418  1.0000
  C   C896      1.0  0.51749  0.55947  0.86490  1.0000
  H   H1070     1.0  0.55326  0.52526  0.61637  1.0000
  H   H1071     1.0  0.71547  0.66073  0.50644  1.0000
  C   C897      1.0  0.51017  0.55681  0.56991  1.0000
  C   C898      1.0  0.49532  0.62726  0.59576  1.0000
  H   H1072     1.0  0.59940  0.58193  0.58588  1.0000
  H   H1073     1.0  0.73165  0.65744  0.60220  1.0000
  C   C899      1.0  0.50643  0.52612  0.87539  1.0000
  H   H1074     1.0  0.73595  0.52157  0.52872  1.0000
  C   C900      1.0  0.69633  0.49993  0.30973  1.0000
  H   H1075     1.0  0.50590  0.52567  0.81632  1.0000
  C   C901      1.0  0.68648  0.51199  0.32947  1.0000
  H   H1076     1.0  0.73719  0.66345  0.51935  1.0000
  C   C902      1.0  0.56739  0.54267  0.64754  1.0000
  S   S263      1.0  0.50964  0.50522  0.57934  1.0000
  C   C903      1.0  0.51654  0.54899  0.63267  1.0000
  C   C904      1.0  0.66860  0.51029  0.33162  1.0000
  H   H1077     1.0  0.51672  0.52213  0.64557  1.0000
  H   H1078     1.0  0.52335  0.49324  0.13096  1.0000
  H   H1079     1.0  0.66075  0.51955  0.34648  1.0000
  C   C905      1.0  0.58866  0.59162  0.58754  1.0000
  C   C906      1.0  0.55845  0.53783  0.61720  1.0000
  H   H1080     1.0  0.55540  0.60061  0.59492  1.0000
  H   H1081     1.0  0.72642  0.67939  0.61189  1.0000
  C   C907      1.0  0.51470  0.53179  0.62445  1.0000
  C   C908      1.0  0.73115  0.65237  0.83440  1.0000
  C   C909      1.0  0.73529  0.60370  0.55562  1.0000
  H   H1082     1.0  0.58148  0.59123  0.56171  1.0000
  H   H1083     1.0  0.65857  0.53592  0.46345  1.0000
  C   C910      1.0  0.57116  0.57108  0.61991  1.0000
  H   H1084     1.0  0.70083  0.52225  0.42925  1.0000
  C   C911      1.0  0.62910  0.62306  0.72514  1.0000
  C   C912      1.0  0.61895  0.61047  0.74168  1.0000
  C   C913      1.0  0.60102  0.61068  0.73719  1.0000
  C   C914      1.0  0.59292  0.62362  0.71629  1.0000
  C   C915      1.0  0.60308  0.63614  0.69963  1.0000
  C   C916      1.0  0.62101  0.63586  0.70390  1.0000
  H   H1085     1.0  0.62501  0.60049  0.75820  1.0000
  H   H1086     1.0  0.59348  0.60093  0.75020  1.0000
  H   H1087     1.0  0.59703  0.64622  0.68335  1.0000
  H   H1088     1.0  0.62854  0.64568  0.69105  1.0000
  C   C917      1.0  0.72082  0.61158  0.57292  1.0000
  C   C918      1.0  0.71035  0.55653  0.54435  1.0000
  C   C919      1.0  0.69805  0.55431  0.51791  1.0000
  C   C920      1.0  0.71839  0.59496  0.50425  1.0000
  C   C921      1.0  0.70392  0.60288  0.52151  1.0000
  C   C922      1.0  0.70509  0.61110  0.55547  1.0000
  H   H1089     1.0  0.69166  0.60263  0.50849  1.0000
  H   H1090     1.0  0.69380  0.61703  0.56816  1.0000
  C   C923      1.0  0.67657  0.72867  0.61765  1.0000
  C   C924      1.0  0.68753  0.71550  0.63130  1.0000
  C   C925      1.0  0.70513  0.71812  0.63149  1.0000
  H   H1091     1.0  0.68851  0.69350  0.55940  1.0000
  H   H1092     1.0  0.68307  0.56526  0.45328  1.0000
  C   C926      1.0  0.71328  0.72373  0.52230  1.0000
  H   H1093     1.0  0.55628  0.49392  0.38307  1.0000
  C   C927      1.0  0.70175  0.66433  0.57452  1.0000
  H   H1094     1.0  0.58014  0.59084  0.67888  1.0000
  C   C928      1.0  0.58793  0.59177  0.65304  1.0000
  H   H1095     1.0  0.68780  0.51089  0.46256  1.0000
  H   H1096     1.0  0.71235  0.73711  0.51450  1.0000
  N   N60       1.0  0.68590  0.53828  0.46625  1.0000
  S   S264      1.0  0.50657  0.52771  0.95190  1.0000
  H   H1097     1.0  0.73255  0.62537  0.82635  1.0000
  H   H1098     1.0  0.72550  0.64653  0.53943  1.0000
  H   H1099     1.0  0.67891  0.57898  0.27312  1.0000
  C   C929      1.0  0.69895  0.54010  0.49453  1.0000
  C   C930      1.0  0.56173  0.56578  0.58972  1.0000
  H   H1100     1.0  0.69664  0.67168  0.59839  1.0000
  H   H1101     1.0  0.69176  0.66430  0.55335  1.0000
  C   C931      1.0  0.72394  0.54475  0.54824  1.0000
  H   H1102     1.0  0.55860  0.57443  0.56730  1.0000
  H   H1103     1.0  0.66294  0.72683  0.61733  1.0000
  C   C932      1.0  0.66862  0.53797  0.48383  1.0000
  H   H1104     1.0  0.70365  0.65092  0.58439  1.0000
  H   H1105     1.0  0.51796  0.55991  0.92404  1.0000
  C   C933      1.0  0.71592  0.68913  0.54595  1.0000
  N   N61       1.0  0.67707  0.63129  0.83734  1.0000
  C   C934      1.0  0.66130  0.62200  0.84625  1.0000
  C   C935      1.0  0.67167  0.64783  0.82007  1.0000
  C   C936      1.0  0.68739  0.62160  0.80973  1.0000
  C   C937      1.0  0.68727  0.63305  0.87064  1.0000
  C   C938      1.0  0.69253  0.64902  0.88296  1.0000
  C   C939      1.0  0.69273  0.61840  0.89123  1.0000
  C   C940      1.0  0.70247  0.65012  0.91409  1.0000
  C   C941      1.0  0.70279  0.61966  0.92216  1.0000
  C   C942      1.0  0.70765  0.63550  0.93354  1.0000
  H   H1106     1.0  0.65354  0.62849  0.86815  1.0000
  H   H1107     1.0  0.65307  0.62117  0.82181  1.0000
  H   H1108     1.0  0.66408  0.60868  0.85551  1.0000
  H   H1109     1.0  0.66378  0.65583  0.83929  1.0000
  H   H1110     1.0  0.66375  0.64605  0.79552  1.0000
  H   H1111     1.0  0.68292  0.65509  0.81036  1.0000
  H   H1112     1.0  0.69109  0.60856  0.81951  1.0000
  H   H1113     1.0  0.68019  0.62016  0.78409  1.0000
  H   H1114     1.0  0.69941  0.62815  0.80240  1.0000
  H   H1115     1.0  0.68961  0.66083  0.86846  1.0000
  H   H1116     1.0  0.68957  0.60582  0.88308  1.0000
  H   H1117     1.0  0.70673  0.66237  0.92245  1.0000
  H   H1118     1.0  0.70713  0.60830  0.93705  1.0000
  H   H1119     1.0  0.71587  0.63643  0.95688  1.0000
  C   C943      1.0  0.50805  0.53962  0.56184  1.0000
  H   H1120     1.0  0.68893  0.56282  0.30175  1.0000
  H   H1121     1.0  0.55403  0.59864  0.64353  1.0000
  H   H1122     1.0  0.68679  0.72279  0.53845  1.0000
  N   N62       1.0  0.70111  0.56648  0.24833  1.0000
  C   C944      1.0  0.69147  0.57300  0.28094  1.0000
  C   C945      1.0  0.71691  0.55731  0.26069  1.0000
  C   C946      1.0  0.70634  0.58145  0.22582  1.0000
  C   C947      1.0  0.69053  0.55462  0.22855  1.0000
  C   C948      1.0  0.68428  0.53996  0.24682  1.0000
  C   C949      1.0  0.68639  0.55697  0.19101  1.0000
  C   C950      1.0  0.67452  0.52835  0.22885  1.0000
  C   C951      1.0  0.67655  0.54530  0.17327  1.0000
  C   C952      1.0  0.67064  0.53102  0.19213  1.0000
  H   H1123     1.0  0.71489  0.51712  0.48276  1.0000
  H   H1124     1.0  0.69869  0.58273  0.29526  1.0000
  H   H1125     1.0  0.74013  0.72115  0.50938  1.0000
  H   H1126     1.0  0.72425  0.55164  0.23718  1.0000
  H   H1127     1.0  0.71418  0.54684  0.28067  1.0000
  H   H1128     1.0  0.72551  0.56596  0.27454  1.0000
  H   H1129     1.0  0.69505  0.58915  0.21607  1.0000
  H   H1130     1.0  0.71409  0.59017  0.24180  1.0000
  H   H1131     1.0  0.71455  0.57760  0.20185  1.0000
  H   H1132     1.0  0.68699  0.53729  0.27523  1.0000
  H   H1133     1.0  0.69063  0.56767  0.17470  1.0000
  H   H1134     1.0  0.67001  0.51717  0.24351  1.0000
  H   H1135     1.0  0.49473  0.60750  0.85076  1.0000
  C   C953      1.0  0.73027  0.69766  0.53117  1.0000
  H   H1136     1.0  0.52184  0.57227  0.86129  1.0000
  H   H1137     1.0  0.67843  0.52151  0.42367  1.0000
  C   C954      1.0  0.73042  0.67047  0.58972  1.0000
  H   H1138     1.0  0.59929  0.58288  0.65498  1.0000
  H   H1139     1.0  0.54812  0.54569  0.56540  1.0000
  C   C955      1.0  0.51535  0.55238  0.90054  1.0000
  C   C956      1.0  0.72893  0.71474  0.51974  1.0000
  H   H1140     1.0  0.58031  0.56197  0.67363  1.0000
  H   H1141     1.0  0.50594  0.61762  0.59999  1.0000
  H   H1142     1.0  0.50182  0.59072  0.82097  1.0000
  H   H1143     1.0  0.66799  0.52760  0.50498  1.0000
  H   H1144     1.0  0.69941  0.55411  0.42776  1.0000
  H   H1145     1.0  0.49809  0.65279  0.67652  1.0000
  C   C957      1.0  0.50976  0.53568  0.90612  1.0000
  C   C958      1.0  0.71161  0.73359  0.61773  1.0000
  H   H1146     1.0  0.66308  0.52196  0.17830  1.0000
  H   H1147     1.0  0.59285  0.60487  0.65227  1.0000
  H   H1148     1.0  0.67746  0.55162  0.41708  1.0000
  H   H1149     1.0  0.56919  0.53378  0.67034  1.0000
  N   N63       1.0  0.71792  0.67134  0.55976  1.0000
  C   C959      1.0  0.56299  0.60107  0.62019  1.0000
  H   H1150     1.0  0.67351  0.54729  0.14464  1.0000
  N   N64       1.0  0.57763  0.58852  0.62043  1.0000
  H   H1151     1.0  0.73365  0.54675  0.56823  1.0000
  C   C960      1.0  0.68840  0.52250  0.44476  1.0000
  H   H1152     1.0  0.68819  0.56422  0.51502  1.0000
  Fe  Fe133     1.0  0.49773  0.50180  0.97409  1.0000
  H   H1153     1.0  0.54685  0.49143  0.17296  1.0000
  C   C961      1.0  0.70008  0.69865  0.54777  1.0000
  C   C962      1.0  0.71292  0.52820  0.49947  1.0000
  H   H1154     1.0  0.50212  0.51330  0.87909  1.0000
  C   C963      1.0  0.69887  0.71564  0.53584  1.0000
  H   H1155     1.0  0.73205  0.67833  0.85169  1.0000
  H   H1156     1.0  0.50490  0.53606  0.53442  1.0000
  C   C964      1.0  0.73558  0.63548  0.84439  1.0000
  C   C965      1.0  0.72521  0.53060  0.52592  1.0000
  Fe  Fe134     1.0  0.49660  0.49613  0.52893  1.0000
  H   H1157     1.0  0.64694  0.49569  0.31663  1.0000
  H   H1158     1.0  0.70964  0.56777  0.56113  1.0000
  H   H1159     1.0  0.50864  0.56643  0.54854  1.0000
  H   H1160     1.0  0.55197  0.49386  0.29944  1.0000
  H   H1161     1.0  0.72526  0.73530  0.61750  1.0000
  H   H1162     1.0  0.49675  0.63201  0.56700  1.0000
  H   H1163     1.0  0.49750  0.63781  0.61474  1.0000
  H   H1164     1.0  0.74272  0.69129  0.52909  1.0000
  Fe  Fe135     1.0  0.70051  0.79167  0.56126  1.0000
  S   S265      1.0  0.72328  0.80798  0.54997  1.0000
  S   S266      1.0  0.70978  0.76567  0.58558  1.0000
  Fe  Fe136     1.0  0.67561  0.82047  0.53572  1.0000
  S   S267      1.0  0.69730  0.83795  0.52338  1.0000
  S   S268      1.0  0.64917  0.83444  0.53166  1.0000
  Fe  Fe137     1.0  0.71105  0.81556  0.49633  1.0000
  S   S269      1.0  0.72791  0.81979  0.44342  1.0000
  Fe  Fe138     1.0  0.70795  0.82911  0.57770  1.0000
  S   S270      1.0  0.72075  0.84823  0.61508  1.0000
  S   S271      1.0  0.68884  0.79825  0.50610  1.0000
  S   S272      1.0  0.68573  0.81262  0.59145  1.0000
  S   S273      1.0  0.72930  0.92324  0.81750  1.0000
  S   S274      1.0  0.72513  0.87455  0.78092  1.0000
  Fe  Fe139     1.0  0.71747  0.92041  0.87419  1.0000
  S   S275      1.0  0.68949  0.93021  0.88457  1.0000
  C   C966      1.0  0.73421  0.81597  0.39615  1.0000
  S   S276      1.0  0.72216  0.89180  0.87646  1.0000
  Fe  Fe140     1.0  0.54670  0.85177  0.49933  1.0000
  S   S277      1.0  0.52144  0.84434  0.47617  1.0000
  S   S278      1.0  0.57054  0.83513  0.48361  1.0000
  Fe  Fe141     1.0  0.52874  0.87937  0.54605  1.0000
  H   H1165     1.0  0.53596  0.92547  0.35350  1.0000
  H   H1166     1.0  0.59227  0.82533  0.58299  1.0000
  Fe  Fe142     1.0  0.51090  0.84565  0.53405  1.0000
  H   H1167     1.0  0.55670  0.96565  0.85945  1.0000
  Fe  Fe143     1.0  0.51501  0.87268  0.47115  1.0000
  H   H1168     1.0  0.50361  0.91400  0.53905  1.0000
  S   S279      1.0  0.53639  0.85201  0.55721  1.0000
  S   S280      1.0  0.54096  0.87982  0.48951  1.0000
  C   C967      1.0  0.67811  0.85778  0.44430  1.0000
  H   H1169     1.0  0.51773  0.93272  0.82398  1.0000
  C   C968      1.0  0.73337  0.87494  0.70542  1.0000
  N   N65       1.0  0.50632  0.93161  0.49351  1.0000
  H   H1170     1.0  0.53502  0.89991  0.75513  1.0000
  H   H1171     1.0  0.50235  0.91244  0.20236  1.0000
  H   H1172     1.0  0.51464  0.94671  0.66433  1.0000
  C   C969      1.0  0.52608  0.90449  0.77731  1.0000
  S   S281      1.0  0.50878  0.97786  0.71024  1.0000
  H   H1173     1.0  0.53220  0.98391  0.49898  1.0000
  H   H1174     1.0  0.55402  0.98641  0.94511  1.0000
  C   C970      1.0  0.59662  0.97774  0.74989  1.0000
  H   H1175     1.0  0.64828  0.85928  0.40987  1.0000
  H   H1176     1.0  0.72307  0.79518  0.31933  1.0000
  C   C971      1.0  0.50359  0.90405  0.39555  1.0000
  C   C972      1.0  0.52023  0.90887  0.38664  1.0000
  N   N66       1.0  0.67155  0.84453  0.42058  1.0000
  H   H1177     1.0  0.71869  0.81369  0.64105  1.0000
  C   C973      1.0  0.67598  0.82757  0.43687  1.0000
  H   H1178     1.0  0.64709  0.84568  0.44955  1.0000
  C   C974      1.0  0.72961  0.77578  0.68148  1.0000
  C   C975      1.0  0.67790  0.84873  0.31646  1.0000
  H   H1179     1.0  0.52978  0.92973  0.46078  1.0000
  H   H1180     1.0  0.66964  0.82580  0.46424  1.0000
  H   H1181     1.0  0.70251  0.96350  0.90449  1.0000
  C   C976      1.0  0.67953  0.94952  0.90159  1.0000
  C   C977      1.0  0.68877  0.96391  0.90875  1.0000
  C   C978      1.0  0.65310  0.96544  0.92057  1.0000
  C   C979      1.0  0.66161  0.95048  0.90740  1.0000
  H   H1182     1.0  0.63941  0.96577  0.92546  1.0000
  H   H1183     1.0  0.65427  0.93946  0.90227  1.0000
  C   C980      1.0  0.55473  0.97896  0.85219  1.0000
  C   C981      1.0  0.73035  0.80321  0.33628  1.0000
  C   C982      1.0  0.69760  0.84446  0.37884  1.0000
  Fe  Fe144     1.0  0.49833  0.96716  0.27576  1.0000
  H   H1184     1.0  0.53102  0.90203  0.39881  1.0000
  C   C983      1.0  0.54214  0.98394  0.82687  1.0000
  C   C984      1.0  0.72514  0.80553  0.37344  1.0000
  H   H1185     1.0  0.52457  0.93834  0.76349  1.0000
  H   H1186     1.0  0.71401  0.79930  0.38443  1.0000
  C   C985      1.0  0.62732  0.83411  0.51828  1.0000
  C   C986      1.0  0.61596  0.84759  0.52870  1.0000
  C   C987      1.0  0.59860  0.84810  0.51856  1.0000
  C   C988      1.0  0.59234  0.83519  0.49741  1.0000
  C   C989      1.0  0.60374  0.82176  0.48677  1.0000
  C   C990      1.0  0.62106  0.82115  0.49725  1.0000
  H   H1187     1.0  0.62060  0.85773  0.54486  1.0000
  H   H1188     1.0  0.59010  0.85854  0.52694  1.0000
  H   H1189     1.0  0.59908  0.81166  0.47051  1.0000
  H   H1190     1.0  0.62955  0.81069  0.48894  1.0000
  C   C991      1.0  0.72128  0.85560  0.66133  1.0000
  C   C992      1.0  0.71171  0.84843  0.69027  1.0000
  C   C993      1.0  0.71311  0.85437  0.72642  1.0000
  C   C994      1.0  0.72392  0.86769  0.73440  1.0000
  H   H1191     1.0  0.67579  0.87071  0.43210  1.0000
  H   H1192     1.0  0.71044  0.79306  0.63531  1.0000
  H   H1193     1.0  0.70334  0.83823  0.68490  1.0000
  H   H1194     1.0  0.70573  0.84859  0.74841  1.0000
  C   C995      1.0  0.51782  0.93026  0.74434  1.0000
  H   H1195     1.0  0.67440  0.75407  0.59358  1.0000
  H   H1196     1.0  0.63655  0.97312  0.78282  1.0000
  Fe  Fe145     1.0  0.50745  0.97723  0.77186  1.0000
  H   H1197     1.0  0.50982  0.96448  0.59887  1.0000
  C   C996      1.0  0.50746  0.94891  0.55159  1.0000
  C   C997      1.0  0.51115  0.94677  0.51361  1.0000
  C   C998      1.0  0.52300  0.92219  0.36085  1.0000
  H   H1198     1.0  0.64663  0.83647  0.40550  1.0000
  C   C999      1.0  0.68024  0.97891  0.92161  1.0000
  S   S282      1.0  0.74217  0.92450  0.90289  1.0000
  C   C1000     1.0  0.71681  0.80119  0.65501  1.0000
  H   H1199     1.0  0.69210  0.85606  0.44879  1.0000
  S   S283      1.0  0.49956  0.96680  0.21382  1.0000
  H   H1200     1.0  0.68762  0.98989  0.92706  1.0000
  H   H1201     1.0  0.67186  0.85751  0.47210  1.0000
  S   S284      1.0  0.49918  0.88685  0.42670  1.0000
  H   H1202     1.0  0.68999  0.82561  0.44089  1.0000
  C   C1001     1.0  0.52017  0.95985  0.49518  1.0000
  H   H1203     1.0  0.51307  0.90134  0.71099  1.0000
  H   H1204     1.0  0.52165  0.89317  0.79311  1.0000
  C   C1002     1.0  0.51111  0.93542  0.65047  1.0000
  H   H1205     1.0  0.61282  0.80107  0.57457  1.0000
  C   C1003     1.0  0.66237  0.97982  0.92785  1.0000
  H   H1206     1.0  0.50711  0.93819  0.73275  1.0000
  H   H1207     1.0  0.55800  0.97565  0.09944  1.0000
  S   S285      1.0  0.51370  0.94724  0.31021  1.0000
  C   C1004     1.0  0.50922  0.93114  0.34406  1.0000
  H   H1208     1.0  0.49783  0.94121  0.87314  1.0000
  C   C1005     1.0  0.49609  0.91956  0.51596  1.0000
  C   C1006     1.0  0.52207  0.92221  0.48076  1.0000
  N   N67       1.0  0.67458  0.90034  0.79343  1.0000
  C   C1007     1.0  0.68803  0.89368  0.81832  1.0000
  C   C1008     1.0  0.67202  0.91892  0.79900  1.0000
  C   C1009     1.0  0.65840  0.89220  0.80457  1.0000
  C   C1010     1.0  0.68008  0.89704  0.75503  1.0000
  C   C1011     1.0  0.69443  0.90524  0.73931  1.0000
  C   C1012     1.0  0.67188  0.88538  0.73261  1.0000
  C   C1013     1.0  0.70000  0.90224  0.70329  1.0000
  C   C1014     1.0  0.67767  0.88237  0.69669  1.0000
  C   C1015     1.0  0.69167  0.89079  0.68205  1.0000
  H   H1209     1.0  0.70037  0.89986  0.81288  1.0000
  H   H1210     1.0  0.68456  0.89597  0.84764  1.0000
  H   H1211     1.0  0.69061  0.87978  0.81489  1.0000
  H   H1212     1.0  0.68425  0.92568  0.79747  1.0000
  H   H1213     1.0  0.66656  0.92174  0.82680  1.0000
  H   H1214     1.0  0.66328  0.92480  0.77835  1.0000
  H   H1215     1.0  0.65445  0.89535  0.83326  1.0000
  H   H1216     1.0  0.64773  0.89653  0.78660  1.0000
  H   H1217     1.0  0.65985  0.87808  0.80406  1.0000
  H   H1218     1.0  0.70184  0.91360  0.75519  1.0000
  H   H1219     1.0  0.66117  0.87820  0.74230  1.0000
  H   H1220     1.0  0.71128  0.90828  0.69223  1.0000
  H   H1221     1.0  0.67155  0.87315  0.68023  1.0000
  H   H1222     1.0  0.69641  0.88803  0.65456  1.0000
  C   C1016     1.0  0.50221  0.90621  0.61376  1.0000
  C   C1017     1.0  0.51262  0.88879  0.30227  1.0000
  H   H1223     1.0  0.71933  0.84367  0.34137  1.0000
  S   S286      1.0  0.52963  0.96844  0.80740  1.0000
  H   H1224     1.0  0.74152  0.79230  0.06486  1.0000
  C   C1018     1.0  0.49602  0.93693  0.46131  1.0000
  C   C1019     1.0  0.49430  0.93006  0.65323  1.0000
  C   C1020     1.0  0.52520  0.97415  0.51361  1.0000
  H   H1225     1.0  0.51903  0.91032  0.46681  1.0000
  H   H1226     1.0  0.60264  0.77322  0.55618  1.0000
  C   C1021     1.0  0.69567  0.84714  0.31299  1.0000
  N   N68       1.0  0.73317  0.79317  0.66729  1.0000
  S   S287      1.0  0.53466  0.90108  0.58307  1.0000
  H   H1227     1.0  0.52587  0.98101  0.02836  1.0000
  C   C1022     1.0  0.70549  0.84505  0.34413  1.0000
  C   C1023     1.0  0.52340  0.92624  0.62934  1.0000
  H   H1228     1.0  0.52621  0.88776  0.30758  1.0000
  H   H1229     1.0  0.67198  0.81720  0.41908  1.0000
  H   H1230     1.0  0.65606  0.84928  0.35177  1.0000
  H   H1231     1.0  0.70584  0.84265  0.40206  1.0000
  C   C1024     1.0  0.66985  0.84809  0.35111  1.0000
  C   C1025     1.0  0.73206  0.86893  0.66932  1.0000
  H   H1232     1.0  0.64561  0.97642  0.84167  1.0000
  S   S288      1.0  0.50258  0.87335  0.52776  1.0000
  N   N69       1.0  0.54541  0.79400  0.55211  1.0000
  C   C1026     1.0  0.54060  0.77652  0.54315  1.0000
  C   C1027     1.0  0.53528  0.79915  0.58524  1.0000
  C   C1028     1.0  0.54035  0.80536  0.52100  1.0000
  C   C1029     1.0  0.56391  0.79550  0.55870  1.0000
  C   C1030     1.0  0.57609  0.78174  0.55422  1.0000
  C   C1031     1.0  0.57028  0.81123  0.56954  1.0000
  C   C1032     1.0  0.59350  0.78377  0.56018  1.0000
  C   C1033     1.0  0.58767  0.81307  0.57565  1.0000
  C   C1034     1.0  0.59928  0.79941  0.57078  1.0000
  H   H1233     1.0  0.54697  0.77218  0.51723  1.0000
  H   H1234     1.0  0.54383  0.76731  0.56571  1.0000
  H   H1235     1.0  0.52656  0.77587  0.53892  1.0000
  H   H1236     1.0  0.53981  0.79206  0.61006  1.0000
  H   H1237     1.0  0.52142  0.79677  0.58251  1.0000
  H   H1238     1.0  0.53584  0.81298  0.59047  1.0000
  H   H1239     1.0  0.54785  0.80216  0.49560  1.0000
  H   H1240     1.0  0.52645  0.80476  0.51526  1.0000
  H   H1241     1.0  0.54267  0.81886  0.52635  1.0000
  H   H1242     1.0  0.57255  0.76933  0.54580  1.0000
  H   H1243     1.0  0.56191  0.82239  0.57241  1.0000
  C   C1035     1.0  0.68304  0.74418  0.60413  1.0000
  C   C1036     1.0  0.61360  0.97202  0.75351  1.0000
  Fe  Fe146     1.0  0.73477  0.89473  0.82041  1.0000
  H   H1244     1.0  0.49870  0.89493  0.59977  1.0000
  C   C1037     1.0  0.50644  0.90028  0.27553  1.0000
  C   C1038     1.0  0.51899  0.91168  0.61070  1.0000
  H   H1245     1.0  0.73957  0.87461  0.64738  1.0000
  H   H1246     1.0  0.58887  0.97279  0.72863  1.0000
  C   C1039     1.0  0.50469  0.92871  0.82263  1.0000
  H   H1247     1.0  0.71936  0.77599  0.70314  1.0000
  H   H1248     1.0  0.53635  0.93057  0.62695  1.0000
  H   H1249     1.0  0.53561  0.98065  0.14793  1.0000
  C   C1040     1.0  0.52149  0.97581  0.55087  1.0000
  H   H1250     1.0  0.70774  0.80346  0.67849  1.0000
  C   C1041     1.0  0.49916  0.91937  0.79251  1.0000
  C   C1042     1.0  0.65257  0.84661  0.42109  1.0000
  H   H1251     1.0  0.52699  0.92726  0.72139  1.0000
  C   C1043     1.0  0.67953  0.84586  0.38348  1.0000
  H   H1252     1.0  0.70189  0.84746  0.28613  1.0000
  H   H1253     1.0  0.67032  0.85038  0.29207  1.0000
  C   C1044     1.0  0.50136  0.87919  0.32340  1.0000
  H   H1254     1.0  0.53042  0.91855  0.50423  1.0000
  H   H1255     1.0  0.73630  0.87860  0.00038  1.0000
  H   H1256     1.0  0.74135  0.76924  0.69233  1.0000
  C   C1045     1.0  0.74080  0.79981  0.73279  1.0000
  N   N70       1.0  0.51136  0.91464  0.76238  1.0000
  H   H1257     1.0  0.50083  0.93958  0.56806  1.0000
  H   H1258     1.0  0.51587  0.90776  0.26128  1.0000
  H   H1259     1.0  0.52357  0.95896  0.46639  1.0000
  C   C1046     1.0  0.70065  0.74670  0.60378  1.0000
  H   H1260     1.0  0.73851  0.81964  0.03809  1.0000
  H   H1261     1.0  0.73540  0.86439  0.06188  1.0000
  H   H1262     1.0  0.53381  0.91198  0.79586  1.0000
  C   C1047     1.0  0.50371  0.90443  0.73361  1.0000
  C   C1048     1.0  0.49337  0.93371  0.85096  1.0000
  H   H1263     1.0  0.73627  0.78789  0.74354  1.0000
  C   C1049     1.0  0.53659  0.98173  0.00793  1.0000
  C   C1050     1.0  0.58955  0.98979  0.77377  1.0000
  H   H1264     1.0  0.50617  0.87077  0.34503  1.0000
  H   H1265     1.0  0.52558  0.98681  0.56518  1.0000
  H   H1266     1.0  0.54841  0.98221  0.02422  1.0000
  H   H1267     1.0  0.50374  0.94321  0.43931  1.0000
  H   H1268     1.0  0.49907  0.89218  0.74495  1.0000
  C   C1051     1.0  0.62357  0.97823  0.78126  1.0000
  H   H1269     1.0  0.74015  0.78217  0.61496  1.0000
  H   H1270     1.0  0.50374  0.93012  0.23297  1.0000
  C   C1052     1.0  0.51260  0.96324  0.56978  1.0000
  S   S289      1.0  0.49788  0.82467  0.56857  1.0000
  C   C1053     1.0  0.55379  0.98853  0.10573  1.0000
  H   H1271     1.0  0.57448  0.98722  0.88754  1.0000
  H   H1272     1.0  0.73247  0.83887  0.98717  1.0000
  H   H1273     1.0  0.53738  0.96962  0.99270  1.0000
  H   H1274     1.0  0.61738  0.97760  0.87403  1.0000
  H   H1275     1.0  0.61904  0.96264  0.73481  1.0000
  H   H1276     1.0  0.72483  0.76762  0.65958  1.0000
  C   C1054     1.0  0.74051  0.80419  0.69479  1.0000
  H   H1277     1.0  0.74178  0.88513  0.71081  1.0000
  C   C1055     1.0  0.49481  0.92243  0.21745  1.0000
  Fe  Fe147     1.0  0.85353  0.99911  0.75017  1.0000
  S   S290      1.0  0.85609  0.01426  0.80097  1.0000
  C   C1056     1.0  0.78154  0.00954  0.82383  1.0000
  Fe  Fe148     1.0  0.88549  0.01551  0.71285  1.0000
  S   S291      1.0  0.88967  0.03190  0.76193  1.0000
  S   S292      1.0  0.90317  0.01926  0.66208  1.0000
  Fe  Fe149     1.0  0.88429  0.00810  0.79487  1.0000
  H   H1278     1.0  0.97571  0.12252  0.09241  1.0000
  Fe  Fe150     1.0  0.86097  0.03698  0.76352  1.0000
  S   S293      1.0  0.84346  0.06094  0.77341  1.0000
  H   H1279     1.0  0.98678  0.04715  0.94303  1.0000
  S   S294      1.0  0.85704  0.02199  0.71251  1.0000
  H   H1280     1.0  0.97803  0.12482  0.19410  1.0000
  S   S295      1.0  0.95623  0.02405  0.93773  1.0000
  C   C1057     1.0  0.87449  0.16940  0.57740  1.0000
  Fe  Fe151     1.0  0.83457  0.19783  0.84297  1.0000
  S   S296      1.0  0.82114  0.17281  0.84729  1.0000
  S   S297      1.0  0.84386  0.21384  0.89103  1.0000
  Fe  Fe152     1.0  0.82919  0.20093  0.75757  1.0000
  S   S298      1.0  0.81586  0.17614  0.75754  1.0000
  S   S299      1.0  0.83534  0.21816  0.70656  1.0000
  Fe  Fe153     1.0  0.80176  0.18515  0.80898  1.0000
  S   S300      1.0  0.77258  0.18243  0.80762  1.0000
  Fe  Fe154     1.0  0.83607  0.16562  0.79558  1.0000
  S   S301      1.0  0.85290  0.14164  0.78311  1.0000
  S   S302      1.0  0.81416  0.21049  0.80711  1.0000
  S   S303      1.0  0.85043  0.19011  0.79318  1.0000
  Fe  Fe155     1.0  0.93494  0.21756  0.13287  1.0000
  S   S304      1.0  0.95661  0.19691  0.13711  1.0000
  H   H1281     1.0  0.96975  0.05016  0.03751  1.0000
  S   S305      1.0  0.89351  0.21007  0.03058  1.0000
  S   S306      1.0  0.93359  0.22809  0.07491  1.0000
  S   S307      1.0  0.90666  0.21242  0.13568  1.0000
  S   S308      1.0  0.97354  0.00053  0.02892  1.0000
  C   C1058     1.0  0.97085  0.04843  0.00741  1.0000
  C   C1059     1.0  0.96182  0.00038  0.83886  1.0000
  H   H1282     1.0  0.81344  0.01639  0.73509  1.0000
  C   C1060     1.0  0.92915  0.16202  0.14197  1.0000
  H   H1283     1.0  0.94848  0.13300  0.08643  1.0000
  H   H1284     1.0  0.76542  0.99265  0.85517  1.0000
  C   C1061     1.0  0.93337  0.00019  0.91932  1.0000
  C   C1062     1.0  0.85725  0.21214  0.93055  1.0000
  C   C1063     1.0  0.86740  0.19757  0.93897  1.0000
  C   C1064     1.0  0.87824  0.19721  0.96961  1.0000
  C   C1065     1.0  0.87920  0.21134  0.99254  1.0000
  C   C1066     1.0  0.77063  0.99246  0.76285  1.0000
  H   H1285     1.0  0.86809  0.19318  0.21832  1.0000
  H   H1286     1.0  0.86701  0.18660  0.92171  1.0000
  H   H1287     1.0  0.88600  0.18584  0.97550  1.0000
  C   C1067     1.0  0.75568  0.18701  0.83999  1.0000
  C   C1068     1.0  0.75856  0.19386  0.87423  1.0000
  H   H1288     1.0  0.95149  0.13877  0.20437  1.0000
  H   H1289     1.0  0.77144  0.19667  0.88163  1.0000
  C   C1069     1.0  0.81688  0.22416  0.28395  1.0000
  H   H1290     1.0  0.98939  0.11157  0.12404  1.0000
  C   C1070     1.0  0.76304  0.14896  0.88068  1.0000
  H   H1291     1.0  0.83871  0.18500  0.20643  1.0000
  C   C1071     1.0  0.78818  0.01431  0.78863  1.0000
  H   H1292     1.0  0.78543  0.01533  0.84865  1.0000
  H   H1293     1.0  0.82351  0.20021  0.18766  1.0000
  C   C1072     1.0  0.97239  0.17038  0.22953  1.0000
  C   C1073     1.0  0.96365  0.18222  0.20621  1.0000
  C   C1074     1.0  0.96760  0.18283  0.16860  1.0000
  H   H1294     1.0  0.85162  0.22527  0.15520  1.0000
  H   H1295     1.0  0.96779  0.05946  0.93618  1.0000
  H   H1296     1.0  0.96912  0.16997  0.25847  1.0000
  H   H1297     1.0  0.95379  0.19078  0.21729  1.0000
  H   H1298     1.0  0.87340  0.21532  0.21584  1.0000
  C   C1075     1.0  0.91817  0.00614  0.63661  1.0000
  C   C1076     1.0  0.78690  0.20694  0.71943  1.0000
  H   H1299     1.0  0.95144  0.10455  0.10488  1.0000
  C   C1077     1.0  0.93393  0.15345  0.11018  1.0000
  C   C1078     1.0  0.94046  0.00397  0.58797  1.0000
  C   C1079     1.0  0.92827  0.01368  0.60872  1.0000
  H   H1300     1.0  0.98489  0.13389  0.12856  1.0000
  C   C1080     1.0  0.79335  0.04198  0.76094  1.0000
  H   H1301     1.0  0.94811  0.01005  0.56679  1.0000
  H   H1302     1.0  0.92669  0.02720  0.60318  1.0000
  C   C1081     1.0  0.83741  0.19688  0.18943  1.0000
  N   N71       1.0  0.97906  0.06303  0.98891  1.0000
  H   H1303     1.0  0.81195  0.20601  0.65045  1.0000
  C   C1082     1.0  0.93878  0.01675  0.91361  1.0000
  C   C1083     1.0  0.93081  0.02728  0.88698  1.0000
  C   C1084     1.0  0.91799  0.02097  0.86506  1.0000
  C   C1085     1.0  0.84033  0.21397  0.24299  1.0000
  H   H1304     1.0  0.93490  0.04014  0.88250  1.0000
  H   H1305     1.0  0.91221  0.02894  0.84385  1.0000
  C   C1086     1.0  0.84650  0.08333  0.77600  1.0000
  C   C1087     1.0  0.83223  0.09430  0.78372  1.0000
  C   C1088     1.0  0.83388  0.11209  0.78614  1.0000
  C   C1089     1.0  0.84989  0.11923  0.78082  1.0000
  C   C1090     1.0  0.86414  0.10828  0.77289  1.0000
  C   C1091     1.0  0.86249  0.09049  0.77054  1.0000
  H   H1306     1.0  0.81979  0.08899  0.78801  1.0000
  H   H1307     1.0  0.82278  0.12024  0.79224  1.0000
  H   H1308     1.0  0.87661  0.11356  0.76881  1.0000
  H   H1309     1.0  0.87361  0.08232  0.76460  1.0000
  H   H1310     1.0  0.96463  0.09155  0.13434  1.0000
  H   H1311     1.0  0.94440  0.10018  0.15115  1.0000
  H   H1312     1.0  0.92106  0.17350  0.14042  1.0000
  H   H1313     1.0  0.95774  0.04664  0.99723  1.0000
  C   C1092     1.0  0.80686  0.03470  0.81774  1.0000
  H   H1314     1.0  0.98842  0.02910  0.06807  1.0000
  H   H1315     1.0  0.93869  0.23295  0.95672  1.0000
  H   H1316     1.0  0.74657  0.22408  0.72561  1.0000
  H   H1317     1.0  0.82214  0.22401  0.34160  1.0000
  H   H1318     1.0  0.92928  0.15823  0.08403  1.0000
  H   H1319     1.0  0.87033  0.20391  0.17507  1.0000
  H   H1320     1.0  0.78672  0.00829  0.73068  1.0000
  H   H1321     1.0  0.78600  0.20045  0.69280  1.0000
  N   N72       1.0  0.77410  0.22122  0.72252  1.0000
  H   H1322     1.0  0.84215  0.19394  0.16116  1.0000
  C   C1093     1.0  0.76988  0.99657  0.82806  1.0000
  C   C1094     1.0  0.93531  0.15621  0.17560  1.0000
  C   C1095     1.0  0.96744  0.07825  0.99367  1.0000
  S   S309      1.0  0.89848  0.99483  0.84131  1.0000
  H   H1323     1.0  0.98045  0.05541  0.10196  1.0000
  H   H1324     1.0  0.77384  0.22125  0.78176  1.0000
  H   H1325     1.0  0.83103  0.22930  0.17572  1.0000
  H   H1326     1.0  0.80402  0.22962  0.28773  1.0000
  C   C1096     1.0  0.84347  0.21388  0.30978  1.0000
  H   H1327     1.0  0.80019  0.21127  0.72127  1.0000
  C   C1097     1.0  0.75685  0.21391  0.72427  1.0000
  H   H1328     1.0  0.97191  0.00881  0.82788  1.0000
  H   H1329     1.0  0.93367  0.00017  0.78741  1.0000
  C   C1098     1.0  0.84463  0.22631  0.18205  1.0000
  C   C1099     1.0  0.98528  0.15906  0.21576  1.0000
  H   H1330     1.0  0.77578  0.15155  0.87010  1.0000
  H   H1331     1.0  0.96050  0.11089  0.20325  1.0000
  H   H1332     1.0  0.92901  0.00687  0.72277  1.0000
  C   C1100     1.0  0.98063  0.17163  0.15497  1.0000
  C   C1101     1.0  0.75762  0.15494  0.91479  1.0000
  H   H1333     1.0  0.81668  0.04442  0.81257  1.0000
  C   C1102     1.0  0.85622  0.18603  0.63344  1.0000
  H   H1334     1.0  0.99161  0.04341  0.57843  1.0000
  N   N73       1.0  0.86154  0.16174  0.67805  1.0000
  C   C1103     1.0  0.86786  0.17310  0.70628  1.0000
  C   C1104     1.0  0.84311  0.15907  0.68538  1.0000
  C   C1105     1.0  0.87081  0.14499  0.68243  1.0000
  H   H1335     1.0  0.86014  0.18524  0.70832  1.0000
  H   H1336     1.0  0.86734  0.16706  0.73414  1.0000
  H   H1337     1.0  0.88137  0.17637  0.70034  1.0000
  H   H1338     1.0  0.83543  0.17125  0.68584  1.0000
  H   H1339     1.0  0.84091  0.15262  0.71245  1.0000
  H   H1340     1.0  0.83774  0.15101  0.66413  1.0000
  H   H1341     1.0  0.86600  0.13541  0.66362  1.0000
  H   H1342     1.0  0.88484  0.14609  0.67789  1.0000
  H   H1343     1.0  0.86901  0.13951  0.71065  1.0000
  H   H1344     1.0  0.84896  0.19294  0.65417  1.0000
  H   H1345     1.0  0.78989  0.03795  0.73318  1.0000
  H   H1346     1.0  0.81501  0.22335  0.22608  1.0000
  H   H1347     1.0  0.91421  0.21983  0.93708  1.0000
  C   C1106     1.0  0.86376  0.16969  0.64121  1.0000
  H   H1348     1.0  0.95494  0.07668  0.98034  1.0000
  C   C1107     1.0  0.78217  0.00549  0.75823  1.0000
  H   H1349     1.0  0.84951  0.23756  0.19580  1.0000
  C   C1108     1.0  0.85017  0.21049  0.27473  1.0000
  H   H1350     1.0  0.78509  0.19725  0.74163  1.0000
  C   C1109     1.0  0.81545  0.22231  0.60242  1.0000
  C   C1110     1.0  0.85811  0.22622  0.95369  1.0000
  C   C1111     1.0  0.94504  0.13912  0.11186  1.0000
  C   C1112     1.0  0.87298  0.16154  0.61202  1.0000
  H   H1351     1.0  0.86805  0.19151  0.54395  1.0000
  C   C1113     1.0  0.83074  0.22458  0.65988  1.0000
  H   H1352     1.0  0.87910  0.14908  0.61515  1.0000
  C   C1114     1.0  0.94091  0.00043  0.73098  1.0000
  C   C1115     1.0  0.85780  0.19376  0.59880  1.0000
  H   H1353     1.0  0.76627  0.16213  0.93063  1.0000
  C   C1116     1.0  0.81875  0.21659  0.63881  1.0000
  H   H1354     1.0  0.85187  0.20627  0.59362  1.0000
  H   H1355     1.0  0.75611  0.13586  0.83273  1.0000
  C   C1117     1.0  0.82407  0.23609  0.58608  1.0000
  H   H1356     1.0  0.89462  0.21403  0.88906  1.0000
  H   H1357     1.0  0.82176  0.00944  0.77818  1.0000
  H   H1358     1.0  0.95112  0.99930  0.67587  1.0000
  H   H1359     1.0  0.79625  0.04114  0.83352  1.0000
  H   H1360     1.0  0.88155  0.16298  0.55545  1.0000
  N   N74       1.0  0.80086  0.02768  0.78304  1.0000
  C   C1118     1.0  0.81616  0.02063  0.76309  1.0000
  H   H1361     1.0  0.93193  0.16321  0.20014  1.0000
  S   S310      1.0  0.99176  0.02426  0.42941  1.0000
  H   H1362     1.0  0.81310  0.02458  0.83520  1.0000
  Fe  Fe156     1.0  0.97233  0.00392  0.96774  1.0000
  C   C1119     1.0  0.86691  0.18546  0.57081  1.0000
  Fe  Fe157     1.0  0.90521  0.22428  0.07868  1.0000
  C   C1120     1.0  0.86897  0.22587  0.98429  1.0000
  H   H1363     1.0  0.80606  0.21605  0.58677  1.0000
  H   H1364     1.0  0.94941  0.00760  0.83679  1.0000
  C   C1121     1.0  0.98057  0.05977  0.94900  1.0000
  C   C1122     1.0  0.94664  0.14205  0.17758  1.0000
  H   H1365     1.0  0.75475  0.20571  0.70047  1.0000
  C   C1123     1.0  0.82336  0.22064  0.24877  1.0000
  H   H1366     1.0  0.78160  0.04748  0.77457  1.0000
  N   N75       1.0  0.84699  0.21072  0.20535  1.0000
  H   H1367     1.0  0.82622  0.03016  0.75956  1.0000
  H   H1368     1.0  0.80259  0.05236  0.75682  1.0000
  H   H1369     1.0  0.97997  0.10293  0.18286  1.0000
  N   N76       1.0  0.96421  0.11829  0.14630  1.0000
  C   C1124     1.0  0.97088  0.11414  0.18329  1.0000
  C   C1125     1.0  0.95578  0.10302  0.13350  1.0000
  C   C1126     1.0  0.97913  0.12171  0.12169  1.0000
  C   C1127     1.0  0.95195  0.13310  0.14557  1.0000
  C   C1128     1.0  0.88480  0.23922  0.27341  1.0000
  H   H1370     1.0  0.75328  0.22826  0.66148  1.0000
  C   C1129     1.0  0.91300  0.00419  0.87015  1.0000
  S   S311      1.0  0.88164  0.99153  0.74598  1.0000
  H   H1371     1.0  0.93904  0.99214  0.94039  1.0000
  H   H1372     1.0  0.74721  0.20204  0.92566  1.0000
  H   H1373     1.0  0.96431  0.08048  0.02310  1.0000
  H   H1374     1.0  0.92416  0.22600  0.99296  1.0000
  H   H1375     1.0  0.96407  0.99820  0.86865  1.0000
  H   H1376     1.0  0.89630  0.23194  0.26578  1.0000
  H   H1377     1.0  0.85136  0.21169  0.33361  1.0000
  H   H1378     1.0  0.78977  0.23388  0.76106  1.0000
  C   C1130     1.0  0.83951  0.23819  0.64341  1.0000
  C   C1131     1.0  0.82698  0.22090  0.31437  1.0000
  H   H1379     1.0  0.85041  0.23760  0.94765  1.0000
  C   C1132     1.0  0.86547  0.20553  0.20376  1.0000
  C   C1133     1.0  0.98946  0.15993  0.17834  1.0000
  C   C1134     1.0  0.93084  0.23715  0.98091  1.0000
  H   H1380     1.0  0.75518  0.20553  0.74907  1.0000
  C   C1135     1.0  0.76503  0.23497  0.66181  1.0000
  C   C1136     1.0  0.94372  0.99647  0.76791  1.0000
  H   H1381     1.0  0.88579  0.23164  0.33060  1.0000
  H   H1382     1.0  0.98411  0.05469  0.38696  1.0000
  H   H1383     1.0  0.86323  0.20556  0.27334  1.0000
  C   C1137     1.0  0.92051  0.99398  0.89776  1.0000
  H   H1384     1.0  0.97824  0.03629  0.00269  1.0000
  Fe  Fe158     1.0  0.90331  0.23915  0.15763  1.0000
  H   H1385     1.0  0.87472  0.23637  0.86516  1.0000
  H   H1386     1.0  0.86936  0.23686  0.00143  1.0000
  C   C1138     1.0  0.87881  0.23914  0.31031  1.0000
  C   C1139     1.0  0.90642  0.23044  0.92686  1.0000
  C   C1140     1.0  0.89516  0.22686  0.89911  1.0000
  C   C1141     1.0  0.77667  0.23316  0.69113  1.0000
  C   C1142     1.0  0.74475  0.19688  0.89919  1.0000
  C   C1143     1.0  0.77646  0.22985  0.75774  1.0000
  C   C1144     1.0  0.75189  0.14016  0.85959  1.0000
  H   H1387     1.0  0.98396  0.17208  0.12607  1.0000
  C   C1145     1.0  0.95331  0.99612  0.70446  1.0000
  H   H1388     1.0  0.97316  0.08980  0.98119  1.0000
  H   H1389     1.0  0.99081  0.08842  0.03467  1.0000
  H   H1390     1.0  0.98805  0.06967  0.93442  1.0000
  C   C1146     1.0  0.88389  0.23946  0.88561  1.0000
  Fe  Fe159     1.0  0.85070  0.45271  0.46543  1.0000
  S   S312      1.0  0.85844  0.42799  0.43797  1.0000
  H   H1391     1.0  0.81920  0.33068  0.40146  1.0000
  Fe  Fe160     1.0  0.88251  0.45069  0.51551  1.0000
  S   S313      1.0  0.89191  0.42565  0.49248  1.0000
  S   S314      1.0  0.89633  0.46869  0.55306  1.0000
  Fe  Fe161     1.0  0.88525  0.43757  0.43786  1.0000
  S   S315      1.0  0.90548  0.43255  0.39364  1.0000
  Fe  Fe162     1.0  0.86448  0.41761  0.49410  1.0000
  S   S316      1.0  0.85498  0.39207  0.51666  1.0000
  S   S317      1.0  0.87721  0.46304  0.46026  1.0000
  S   S318      1.0  0.85545  0.44184  0.52213  1.0000
  S   S319      1.0  0.96773  0.47087  0.77851  1.0000
  C   C1147     1.0  0.79648  0.32943  0.45832  1.0000
  Fe  Fe163     1.0  0.96869  0.47315  0.71647  1.0000
  S   S320      1.0  0.95309  0.45758  0.67701  1.0000
  H   H1392     1.0  0.80381  0.33740  0.36793  1.0000
  S   S321      1.0  0.81909  0.24293  0.53986  1.0000
  H   H1393     1.0  0.93967  0.44332  0.52871  1.0000
  H   H1394     1.0  0.93972  0.27437  0.33236  1.0000
  Fe  Fe164     1.0  0.83501  0.29443  0.45093  1.0000
  S   S322      1.0  0.84820  0.26875  0.46129  1.0000
  S   S323      1.0  0.84887  0.31949  0.44186  1.0000
  Fe  Fe165     1.0  0.80183  0.27825  0.42667  1.0000
  H   H1395     1.0  0.85400  0.26560  0.23721  1.0000
  S   S324      1.0  0.77623  0.29049  0.40730  1.0000
  Fe  Fe166     1.0  0.82333  0.26065  0.48835  1.0000
  H   H1396     1.0  0.80706  0.25949  0.65488  1.0000
  Fe  Fe167     1.0  0.83739  0.26121  0.40736  1.0000
  C   C1148     1.0  0.74365  0.29382  0.37937  1.0000
  S   S325      1.0  0.81086  0.28703  0.48130  1.0000
  S   S326      1.0  0.82536  0.28700  0.39621  1.0000
  H   H1397     1.0  0.94857  0.33569  0.89342  1.0000
  C   C1149     1.0  0.83623  0.24391  0.60702  1.0000
  Fe  Fe168     1.0  0.92865  0.25379  0.09952  1.0000
  S   S327      1.0  0.93668  0.27972  0.07489  1.0000
  S   S328      1.0  0.93173  0.24379  0.15766  1.0000
  H   H1398     1.0  0.95608  0.37687  0.81774  1.0000
  N   N77       1.0  0.94337  0.44982  0.47132  1.0000
  H   H1399     1.0  0.93674  0.41771  0.19380  1.0000
  C   C1150     1.0  0.94098  0.45734  0.22621  1.0000
  C   C1151     1.0  0.98076  0.35037  0.96395  1.0000
  C   C1152     1.0  0.85505  0.25810  0.29442  1.0000
  C   C1153     1.0  0.86104  0.25819  0.25753  1.0000
  N   N78       1.0  0.97889  0.33884  0.93285  1.0000
  H   H1400     1.0  0.80755  0.39424  0.37801  1.0000
  H   H1401     1.0  0.80128  0.31788  0.39245  1.0000
  C   C1154     1.0  0.75749  0.28243  0.38754  1.0000
  C   C1155     1.0  0.75601  0.26524  0.37964  1.0000
  H   H1402     1.0  0.76644  0.25628  0.38573  1.0000
  C   C1156     1.0  0.95144  0.47186  0.42230  1.0000
  C   C1157     1.0  0.80532  0.33121  0.39528  1.0000
  C   C1158     1.0  0.90490  0.27703  0.27876  1.0000
  H   H1403     1.0  0.95552  0.41714  0.24611  1.0000
  H   H1404     1.0  0.91663  0.25865  0.02764  1.0000
  H   H1405     1.0  0.90115  0.27423  0.25115  1.0000
  C   C1159     1.0  0.97180  0.28102  0.05761  1.0000
  C   C1160     1.0  0.95629  0.29004  0.06420  1.0000
  C   C1161     1.0  0.95599  0.30792  0.06002  1.0000
  C   C1162     1.0  0.97093  0.31665  0.04989  1.0000
  H   H1406     1.0  0.97234  0.26730  0.06044  1.0000
  H   H1407     1.0  0.94411  0.31508  0.06497  1.0000
  H   H1408     1.0  0.95975  0.48918  0.37938  1.0000
  C   C1163     1.0  0.91604  0.44937  0.37129  1.0000
  C   C1164     1.0  0.90877  0.46587  0.37011  1.0000
  H   H1409     1.0  0.98169  0.43120  0.10410  1.0000
  C   C1165     1.0  0.93277  0.47533  0.33197  1.0000
  C   C1166     1.0  0.94031  0.45897  0.33427  1.0000
  C   C1167     1.0  0.93186  0.44597  0.35346  1.0000
  H   H1410     1.0  0.89653  0.46858  0.38355  1.0000
  C   C1168     1.0  0.95099  0.35570  0.85424  1.0000
  H   H1411     1.0  0.95259  0.45632  0.32115  1.0000
  H   H1412     1.0  0.93755  0.43323  0.35433  1.0000
  C   C1169     1.0  0.91222  0.46528  0.58724  1.0000
  C   C1170     1.0  0.91885  0.44907  0.59684  1.0000
  C   C1171     1.0  0.93127  0.44704  0.62430  1.0000
  C   C1172     1.0  0.93722  0.46112  0.64280  1.0000
  C   C1173     1.0  0.93078  0.47737  0.63281  1.0000
  C   C1174     1.0  0.91840  0.47941  0.60523  1.0000
  H   H1413     1.0  0.91423  0.43804  0.58357  1.0000
  H   H1414     1.0  0.93612  0.43440  0.63170  1.0000
  H   H1415     1.0  0.98141  0.43506  0.84348  1.0000
  S   S329      1.0  0.88263  0.24927  0.19924  1.0000
  C   C1175     1.0  0.85338  0.37199  0.49524  1.0000
  C   C1176     1.0  0.85885  0.36925  0.45901  1.0000
  C   C1177     1.0  0.85724  0.35317  0.44325  1.0000
  C   C1178     1.0  0.84995  0.33963  0.46320  1.0000
  C   C1179     1.0  0.84427  0.34241  0.49927  1.0000
  C   C1180     1.0  0.84606  0.35845  0.51518  1.0000
  H   H1416     1.0  0.86441  0.37951  0.44322  1.0000
  H   H1417     1.0  0.86170  0.35122  0.41536  1.0000
  H   H1418     1.0  0.83879  0.33214  0.51518  1.0000
  H   H1419     1.0  0.84178  0.36039  0.54322  1.0000
  C   C1181     1.0  0.98540  0.45946  0.42151  1.0000
  N   N79       1.0  0.97967  0.48069  0.89974  1.0000
  Fe  Fe169     1.0  0.98785  0.46863  0.21559  1.0000
  C   C1182     1.0  0.89509  0.25952  0.92734  1.0000
  H   H1420     1.0  0.91732  0.45270  0.49221  1.0000
  C   C1183     1.0  0.97706  0.45908  0.95116  1.0000
  C   C1184     1.0  0.97613  0.37238  0.85637  1.0000
  H   H1421     1.0  0.98558  0.47932  0.06016  1.0000
  C   C1185     1.0  0.81368  0.48403  0.43856  1.0000
  C   C1186     1.0  0.95674  0.34569  0.88399  1.0000
  C   C1187     1.0  0.98224  0.48708  0.55754  1.0000
  C   C1188     1.0  0.81358  0.39090  0.43475  1.0000
  C   C1189     1.0  0.92627  0.45876  0.47219  1.0000
  H   H1422     1.0  0.84307  0.25445  0.59521  1.0000
  S   S330      1.0  0.98363  0.46321  0.27585  1.0000
  H   H1423     1.0  0.90033  0.24483  0.01369  1.0000
  S   S331      1.0  0.82379  0.46526  0.45809  1.0000
  C   C1190     1.0  0.80153  0.35750  0.42861  1.0000
  H   H1424     1.0  0.93605  0.26370  0.93414  1.0000
  C   C1191     1.0  0.80148  0.36918  0.39841  1.0000
  H   H1425     1.0  0.78662  0.26175  0.60442  1.0000
  H   H1426     1.0  0.89949  0.26685  0.00035  1.0000
  S   S332      1.0  0.81313  0.25154  0.43454  1.0000
  C   C1192     1.0  0.98244  0.46423  0.60280  1.0000
  H   H1427     1.0  0.79689  0.36564  0.37208  1.0000
  C   C1193     1.0  0.98380  0.44593  0.97351  1.0000
  H   H1428     1.0  0.98972  0.48983  0.64877  1.0000
  H   H1429     1.0  0.92975  0.46379  0.21302  1.0000
  H   H1430     1.0  0.96119  0.44067  0.51268  1.0000
  H   H1431     1.0  0.92058  0.27791  0.95607  1.0000
  C   C1194     1.0  0.79184  0.24247  0.68784  1.0000
  C   C1195     1.0  0.98205  0.36239  0.88584  1.0000
  H   H1432     1.0  0.81844  0.40355  0.43713  1.0000
  H   H1433     1.0  0.97040  0.33037  0.04725  1.0000
  H   H1434     1.0  0.94298  0.46334  0.25304  1.0000
  C   C1196     1.0  0.98663  0.28972  0.04658  1.0000
  H   H1435     1.0  0.89039  0.45158  0.30479  1.0000
  H   H1436     1.0  0.95474  0.33042  0.95492  1.0000
  H   H1437     1.0  0.92708  0.47221  0.48052  1.0000
  C   C1197     1.0  0.86389  0.24854  0.32121  1.0000
  H   H1438     1.0  0.84890  0.24450  0.65901  1.0000
  H   H1439     1.0  0.80856  0.35546  0.48660  1.0000
  S   S333      1.0  0.90001  0.25052  0.10062  1.0000
  C   C1198     1.0  0.78363  0.25419  0.62877  1.0000
  H   H1440     1.0  0.74456  0.30713  0.38533  1.0000
  C   C1199     1.0  0.96748  0.32515  0.94560  1.0000
  H   H1441     1.0  0.93998  0.24102  0.00185  1.0000
  H   H1442     1.0  0.95308  0.42423  0.46068  1.0000
  C   C1200     1.0  0.90829  0.25561  0.00456  1.0000
  H   H1443     1.0  0.79142  0.31658  0.45425  1.0000
  H   H1444     1.0  0.96651  0.43528  0.23041  1.0000
  C   C1201     1.0  0.97338  0.45220  0.44552  1.0000
  S   S334      1.0  0.85658  0.24715  0.36811  1.0000
  C   C1202     1.0  0.91243  0.44664  0.26947  1.0000
  S   S335      1.0  0.98232  0.45230  0.16694  1.0000
  H   H1445     1.0  0.91387  0.46015  0.26535  1.0000
  C   C1203     1.0  0.81355  0.37988  0.46503  1.0000
  H   H1446     1.0  0.95513  0.46899  0.89625  1.0000
  H   H1447     1.0  0.96581  0.31570  0.92389  1.0000
  C   C1204     1.0  0.91706  0.47877  0.35021  1.0000
  H   H1448     1.0  0.93848  0.47695  0.42018  1.0000
  H   H1449     1.0  0.92501  0.43688  0.18077  1.0000
  N   N80       1.0  0.88496  0.29469  0.36765  1.0000
  C   C1205     1.0  0.88417  0.28346  0.40076  1.0000
  C   C1206     1.0  0.89050  0.31164  0.37852  1.0000
  C   C1207     1.0  0.86727  0.29693  0.35391  1.0000
  C   C1208     1.0  0.89732  0.28735  0.34036  1.0000
  C   C1209     1.0  0.89279  0.28371  0.30392  1.0000
  C   C1210     1.0  0.91464  0.28390  0.34977  1.0000
  H   H1450     1.0  0.93745  0.43242  0.42933  1.0000
  C   C1211     1.0  0.92660  0.27707  0.32447  1.0000
  C   C1212     1.0  0.92172  0.27363  0.28904  1.0000
  H   H1451     1.0  0.89648  0.28235  0.41524  1.0000
  H   H1452     1.0  0.87448  0.28837  0.42117  1.0000
  H   H1453     1.0  0.88065  0.27038  0.39359  1.0000
  H   H1454     1.0  0.90307  0.31090  0.39213  1.0000
  H   H1455     1.0  0.88123  0.31773  0.39842  1.0000
  H   H1456     1.0  0.89163  0.32037  0.35430  1.0000
  H   H1457     1.0  0.86205  0.28451  0.34661  1.0000
  H   H1458     1.0  0.85835  0.30247  0.37505  1.0000
  H   H1459     1.0  0.86664  0.30576  0.32980  1.0000
  H   H1460     1.0  0.87995  0.28569  0.29413  1.0000
  H   H1461     1.0  0.91906  0.28641  0.37685  1.0000
  H   H1462     1.0  0.99049  0.36002  0.95812  1.0000
  H   H1463     1.0  0.81844  0.38408  0.49078  1.0000
  C   C1213     1.0  0.96359  0.47903  0.39845  1.0000
  N   N81       1.0  0.79523  0.34014  0.42446  1.0000
  C   C1214     1.0  0.77698  0.34116  0.41413  1.0000
  H   H1464     1.0  0.93096  0.26824  0.26946  1.0000
  H   H1465     1.0  0.85965  0.47872  0.52784  1.0000
  H   H1466     1.0  0.90534  0.39910  0.29259  1.0000
  C   C1215     1.0  0.98638  0.30760  0.04274  1.0000
  N   N82       1.0  0.93894  0.43871  0.23048  1.0000
  H   H1467     1.0  0.94794  0.43523  0.17474  1.0000
  H   H1468     1.0  0.77505  0.34766  0.38719  1.0000
  H   H1469     1.0  0.97772  0.44150  0.46231  1.0000
  H   H1470     1.0  0.76900  0.34814  0.43496  1.0000
  H   H1471     1.0  0.78880  0.33504  0.48139  1.0000
  Fe  Fe170     1.0  0.96806  0.48767  0.27681  1.0000
  C   C1216     1.0  0.94941  0.44884  0.50959  1.0000
  H   H1472     1.0  0.97564  0.43944  0.99321  1.0000
  C   C1217     1.0  0.88381  0.25575  0.89975  1.0000
  H   H1473     1.0  0.95226  0.46028  0.20847  1.0000
  H   H1474     1.0  0.77173  0.32824  0.41177  1.0000
  C   C1218     1.0  0.92087  0.41692  0.26245  1.0000
  H   H1475     1.0  0.81004  0.32742  0.46673  1.0000
  C   C1219     1.0  0.94116  0.43231  0.45856  1.0000
  H   H1476     1.0  0.97078  0.46264  0.86197  1.0000
  C   C1220     1.0  0.93703  0.43182  0.19338  1.0000
  C   C1221     1.0  0.97250  0.34881  0.90080  1.0000
  C   C1222     1.0  0.90726  0.41236  0.28568  1.0000
  C   C1223     1.0  0.80750  0.38559  0.40150  1.0000
  C   C1224     1.0  0.90687  0.24702  0.94156  1.0000
  C   C1225     1.0  0.95494  0.43125  0.24623  1.0000
  H   H1477     1.0  0.88609  0.42134  0.31973  1.0000
  H   H1478     1.0  0.97681  0.41397  0.89411  1.0000
  H   H1479     1.0  0.98979  0.47817  0.37882  1.0000
  H   H1480     1.0  0.91995  0.45839  0.44527  1.0000
  C   C1226     1.0  0.89875  0.44191  0.29230  1.0000
  C   C1227     1.0  0.92868  0.26616  0.96006  1.0000
  H   H1481     1.0  0.95203  0.46167  0.51962  1.0000
  N   N83       1.0  0.91852  0.25128  0.97114  1.0000
  H   H1482     1.0  0.93095  0.42577  0.47457  1.0000
  H   H1483     1.0  0.95630  0.43520  0.27505  1.0000
  C   C1228     1.0  0.89629  0.42484  0.30074  1.0000
  H   H1484     1.0  0.98358  0.38290  0.84607  1.0000
  H   H1485     1.0  0.96824  0.46450  0.60434  1.0000
  C   C1229     1.0  0.98969  0.41729  0.88624  1.0000
  H   H1486     1.0  0.87465  0.26536  0.88983  1.0000
  H   H1487     1.0  0.93892  0.35318  0.84182  1.0000
  H   H1488     1.0  0.97291  0.31790  0.96953  1.0000
  H   H1489     1.0  0.92905  0.40678  0.25152  1.0000
  C   C1230     1.0  0.95602  0.45824  0.44686  1.0000
  H   H1490     1.0  0.84344  0.26521  0.30201  1.0000
  C   C1231     1.0  0.92406  0.43423  0.25408  1.0000
  C   C1232     1.0  0.96063  0.36904  0.84056  1.0000
  C   C1233     1.0  0.84876  0.48689  0.51765  1.0000
  C   C1234     1.0  0.80774  0.36338  0.46218  1.0000
  H   H1491     1.0  0.96851  0.35743  0.97059  1.0000
  H   H1492     1.0  0.84982  0.48766  0.48720  1.0000
  H   H1493     1.0  0.89424  0.27221  0.93807  1.0000
  C   C1235     1.0  0.98050  0.47283  0.39798  1.0000
  H   H1494     1.0  0.98681  0.45957  0.63022  1.0000
  C   C1236     1.0  0.87593  0.24875  0.24662  1.0000
  C   C1237     1.0  0.96580  0.47354  0.87854  1.0000
  H   H1495     1.0  0.96002  0.48316  0.85920  1.0000
  H   H1496     1.0  0.93795  0.26922  0.98155  1.0000
  H   H1497     1.0  0.98666  0.45460  0.58232  1.0000
  H   H1498     1.0  0.96362  0.46251  0.95466  1.0000
  H   H1499     1.0  0.98489  0.34331  0.98916  1.0000
  H   H1500     1.0  0.98955  0.48692  0.14201  1.0000
  C   C1238     1.0  0.79513  0.25292  0.65726  1.0000
  H   H1501     1.0  0.93515  0.48835  0.64667  1.0000
  C   C1239     1.0  0.99224  0.42939  0.85765  1.0000
  H   H1502     1.0  0.78838  0.47590  0.45313  1.0000
  H   H1503     1.0  0.83700  0.47991  0.52462  1.0000
  C   C1240     1.0  0.99269  0.48892  0.52538  1.0000
  H   H1504     1.0  0.95565  0.48943  0.57708  1.0000
  H   H1505     1.0  0.76777  0.24132  0.76013  1.0000
  C   C1241     1.0  0.98732  0.46727  0.92399  1.0000
  H   H1506     1.0  0.75977  0.24624  0.60861  1.0000
  C   C1242     1.0  0.76857  0.24533  0.63113  1.0000
  N   N84       1.0  0.98912  0.48115  0.59321  1.0000
  H   H1507     1.0  0.80172  0.24118  0.70805  1.0000
  C   C1243     1.0  0.99257  0.42695  0.12007  1.0000
  C   C1244     1.0  0.79568  0.48590  0.44041  1.0000
  C   C1245     1.0  0.99210  0.48799  0.87296  1.0000
  Fe  Fe171     1.0  0.76822  0.64766  0.00078  1.0000
  S   S336      1.0  0.78902  0.66622  0.01147  1.0000
  H   H1508     1.0  0.86190  0.60378  0.87384  1.0000
  Fe  Fe172     1.0  0.76683  0.63591  0.08442  1.0000
  S   S337      1.0  0.78677  0.65421  0.09908  1.0000
  H   H1509     1.0  0.87593  0.50201  0.54064  1.0000
  Fe  Fe173     1.0  0.77313  0.67335  0.06217  1.0000
  S   S338      1.0  0.76423  0.70033  0.08005  1.0000
  Fe  Fe174     1.0  0.80124  0.64566  0.04798  1.0000
  S   S339      1.0  0.82797  0.63345  0.05855  1.0000
  S   S340      1.0  0.78162  0.62691  0.03445  1.0000
  S   S341      1.0  0.75650  0.57311  0.38762  1.0000
  Fe  Fe175     1.0  0.75885  0.54436  0.38379  1.0000
  S   S342      1.0  0.78615  0.53296  0.39229  1.0000
  Fe  Fe176     1.0  0.96193  0.61869  0.02860  1.0000
  S   S343      1.0  0.93681  0.61281  0.05697  1.0000
  S   S344      1.0  0.97229  0.64383  0.04931  1.0000
  Fe  Fe177     1.0  0.95919  0.58744  0.97799  1.0000
  S   S345      1.0  0.93387  0.58015  0.00292  1.0000
  S   S346      1.0  0.97510  0.57164  0.93617  1.0000
  Fe  Fe178     1.0  0.92649  0.60822  0.00149  1.0000
  S   S347      1.0  0.90160  0.62118  0.98036  1.0000
  Fe  Fe179     1.0  0.94615  0.58553  0.05641  1.0000
  S   S348      1.0  0.94133  0.56910  0.10681  1.0000
  S   S349      1.0  0.95117  0.61535  0.97244  1.0000
  S   S350      1.0  0.97187  0.59141  0.03221  1.0000
  H   H1510     1.0  0.80029  0.60363  0.97892  1.0000
  S   S351      1.0  0.95664  0.51510  0.82045  1.0000
  C   C1246     1.0  0.74989  0.59908  0.24368  1.0000
  C   C1247     1.0  0.85417  0.60411  0.89889  1.0000
  H   H1511     1.0  0.81738  0.64368  0.94133  1.0000
  C   C1248     1.0  0.89916  0.70668  0.02168  1.0000
  C   C1249     1.0  0.96960  0.55596  0.90416  1.0000
  C   C1250     1.0  0.95286  0.55061  0.90083  1.0000
  C   C1251     1.0  0.94917  0.53825  0.87492  1.0000
  C   C1252     1.0  0.96210  0.53103  0.85190  1.0000
  C   C1253     1.0  0.97888  0.53622  0.85555  1.0000
  S   S352      1.0  0.97102  0.50152  0.71707  1.0000
  H   H1512     1.0  0.94272  0.55611  0.91798  1.0000
  H   H1513     1.0  0.93615  0.53433  0.87252  1.0000
  C   C1254     1.0  0.80853  0.63421  0.95331  1.0000
  C   C1255     1.0  0.98166  0.58739  0.18679  1.0000
  C   C1256     1.0  0.95805  0.55780  0.12936  1.0000
  C   C1257     1.0  0.95400  0.54708  0.15920  1.0000
  H   H1514     1.0  0.78877  0.62781  0.89688  1.0000
  H   H1515     1.0  0.79829  0.59371  0.93543  1.0000
  H   H1516     1.0  0.87477  0.59419  0.93228  1.0000
  C   C1258     1.0  0.97519  0.55941  0.11852  1.0000
  C   C1259     1.0  0.82490  0.54039  0.48182  1.0000
  C   C1260     1.0  0.74806  0.64443  0.90225  1.0000
  H   H1517     1.0  0.96367  0.53001  0.20154  1.0000
  H   H1518     1.0  0.97844  0.56744  0.09527  1.0000
  C   C1261     1.0  0.80455  0.51978  0.50197  1.0000
  H   H1519     1.0  0.96964  0.49333  0.62835  1.0000
  H   H1520     1.0  0.79543  0.64029  0.95399  1.0000
  C   C1262     1.0  0.85168  0.59902  0.96405  1.0000
  H   H1521     1.0  0.74538  0.58943  0.50912  1.0000
  C   C1263     1.0  0.79623  0.51369  0.40951  1.0000
  H   H1522     1.0  0.91340  0.49203  0.59820  1.0000
  C   C1264     1.0  0.91390  0.69669  0.01351  1.0000
  C   C1265     1.0  0.98410  0.53991  0.16792  1.0000
  C   C1266     1.0  0.74399  0.63160  0.87777  1.0000
  H   H1523     1.0  0.80962  0.63300  0.88104  1.0000
  N   N85       1.0  0.80914  0.61842  0.93187  1.0000
  C   C1267     1.0  0.84858  0.63108  0.03675  1.0000
  C   C1268     1.0  0.85243  0.63829  0.00232  1.0000
  C   C1269     1.0  0.86874  0.63524  0.98566  1.0000
  C   C1270     1.0  0.88148  0.62513  0.00330  1.0000
  C   C1271     1.0  0.87776  0.61828  0.03808  1.0000
  C   C1272     1.0  0.86142  0.62118  0.05455  1.0000
  H   H1524     1.0  0.84281  0.64601  0.98828  1.0000
  H   H1525     1.0  0.87142  0.64057  0.95870  1.0000
  H   H1526     1.0  0.88738  0.61051  0.05207  1.0000
  H   H1527     1.0  0.85870  0.61559  0.08124  1.0000
  C   C1273     1.0  0.98580  0.51314  0.06534  1.0000
  S   S353      1.0  0.75856  0.63849  0.94455  1.0000
  S   S354      1.0  0.74627  0.54392  0.32837  1.0000
  C   C1274     1.0  0.98363  0.49323  0.62230  1.0000
  C   C1275     1.0  0.98257  0.54857  0.88149  1.0000
  S   S355      1.0  0.75820  0.61313  0.12046  1.0000
  C   C1276     1.0  0.79170  0.71951  0.10103  1.0000
  C   C1277     1.0  0.77398  0.71855  0.09775  1.0000
  C   C1278     1.0  0.96696  0.53807  0.17829  1.0000
  H   H1528     1.0  0.79998  0.70885  0.09293  1.0000
  C   C1279     1.0  0.96822  0.49838  0.48980  1.0000
  H   H1529     1.0  0.75353  0.73434  0.25106  1.0000
  S   S356      1.0  0.74598  0.59430  0.29128  1.0000
  C   C1280     1.0  0.79747  0.60610  0.94960  1.0000
  H   H1530     1.0  0.96294  0.50286  0.46401  1.0000
  C   C1281     1.0  0.83716  0.61031  0.89830  1.0000
  C   C1282     1.0  0.81765  0.50988  0.51817  1.0000
  N   N86       1.0  0.81098  0.60392  0.15652  1.0000
  C   C1283     1.0  0.82989  0.60384  0.15206  1.0000
  C   C1284     1.0  0.80378  0.59606  0.12399  1.0000
  C   C1285     1.0  0.80473  0.62198  0.15688  1.0000
  C   C1286     1.0  0.80615  0.59413  0.19003  1.0000
  C   C1287     1.0  0.81133  0.57670  0.19397  1.0000
  C   C1288     1.0  0.79625  0.60136  0.21939  1.0000
  C   C1289     1.0  0.80696  0.56716  0.22535  1.0000
  C   C1290     1.0  0.79207  0.59173  0.25074  1.0000
  C   C1291     1.0  0.79735  0.57467  0.25368  1.0000
  H   H1531     1.0  0.83563  0.59087  0.14801  1.0000
  H   H1532     1.0  0.83391  0.61161  0.12766  1.0000
  H   H1533     1.0  0.83582  0.60918  0.17650  1.0000
  H   H1534     1.0  0.80943  0.58315  0.11887  1.0000
  H   H1535     1.0  0.80604  0.60383  0.09855  1.0000
  H   H1536     1.0  0.78970  0.59486  0.12746  1.0000
  H   H1537     1.0  0.80903  0.62901  0.13175  1.0000
  H   H1538     1.0  0.79047  0.62309  0.15767  1.0000
  H   H1539     1.0  0.80974  0.62882  0.18044  1.0000
  H   H1540     1.0  0.81874  0.57030  0.17267  1.0000
  H   H1541     1.0  0.79130  0.61436  0.21871  1.0000
  H   H1542     1.0  0.81100  0.55386  0.22775  1.0000
  H   H1543     1.0  0.78437  0.59744  0.27271  1.0000
  H   H1544     1.0  0.79384  0.56726  0.27791  1.0000
  H   H1545     1.0  0.94076  0.54580  0.16775  1.0000
  H   H1546     1.0  0.75479  0.58126  0.15943  1.0000
  C   C1292     1.0  0.75435  0.62073  0.19502  1.0000
  Fe  Fe180     1.0  0.97248  0.49908  0.77880  1.0000
  H   H1547     1.0  0.97069  0.49130  0.11629  1.0000
  H   H1548     1.0  0.97862  0.56697  0.22646  1.0000
  H   H1549     1.0  0.80241  0.61146  0.87735  1.0000
  H   H1550     1.0  0.97910  0.67626  0.07955  1.0000
  H   H1551     1.0  0.96251  0.51936  0.09823  1.0000
  N   N87       1.0  0.84854  0.50407  0.53352  1.0000
  H   H1552     1.0  0.82155  0.52185  0.39508  1.0000
  H   H1553     1.0  0.75537  0.63395  0.18690  1.0000
  C   C1293     1.0  0.75148  0.61618  0.23230  1.0000
  H   H1554     1.0  0.91118  0.49144  0.34861  1.0000
  H   H1555     1.0  0.79159  0.51535  0.50234  1.0000
  H   H1556     1.0  0.98669  0.63769  0.12882  1.0000
  H   H1557     1.0  0.81223  0.63184  0.98224  1.0000
  H   H1558     1.0  0.79804  0.54230  0.47010  1.0000
  H   H1559     1.0  0.82801  0.60619  0.99004  1.0000
  H   H1560     1.0  0.77531  0.73242  0.20570  1.0000
  C   C1294     1.0  0.84518  0.50244  0.57355  1.0000
  C   C1295     1.0  0.75132  0.58652  0.21706  1.0000
  H   H1561     1.0  0.85079  0.53551  0.49506  1.0000
  C   C1296     1.0  0.96911  0.61013  0.13091  1.0000
  C   C1297     1.0  0.78700  0.50057  0.42598  1.0000
  H   H1562     1.0  0.85751  0.59507  0.98966  1.0000
  C   C1298     1.0  0.86598  0.51066  0.52793  1.0000
  C   C1299     1.0  0.98819  0.55060  0.13798  1.0000
  S   S357      1.0  0.75191  0.65538  0.05010  1.0000
  H   H1563     1.0  0.83242  0.61455  0.87200  1.0000
  N   N88       1.0  0.92810  0.66813  0.99645  1.0000
  C   C1300     1.0  0.92686  0.66114  0.95922  1.0000
  C   C1301     1.0  0.94459  0.67685  0.99786  1.0000
  C   C1302     1.0  0.92890  0.65383  0.02345  1.0000
  C   C1303     1.0  0.91286  0.67925  0.00469  1.0000
  C   C1304     1.0  0.89625  0.67259  0.00443  1.0000
  H   H1564     1.0  0.81251  0.73494  0.11644  1.0000
  H   H1565     1.0  0.94400  0.49961  0.51892  1.0000
  C   C1305     1.0  0.98749  0.57552  0.21313  1.0000
  H   H1566     1.0  0.83294  0.49619  0.58004  1.0000
  H   H1567     1.0  0.92546  0.67150  0.93819  1.0000
  H   H1568     1.0  0.93839  0.65308  0.95166  1.0000
  H   H1569     1.0  0.91580  0.65281  0.95689  1.0000
  H   H1570     1.0  0.94524  0.68746  0.97734  1.0000
  H   H1571     1.0  0.95574  0.66796  0.99185  1.0000
  H   H1572     1.0  0.94679  0.68174  0.02567  1.0000
  H   H1573     1.0  0.93012  0.65844  0.05183  1.0000
  H   H1574     1.0  0.91748  0.64590  0.02312  1.0000
  H   H1575     1.0  0.94007  0.64510  0.01765  1.0000
  H   H1576     1.0  0.89447  0.65945  0.99801  1.0000
  H   H1577     1.0  0.86709  0.52327  0.54069  1.0000
  C   C1306     1.0  0.75542  0.60821  0.16832  1.0000
  C   C1307     1.0  0.83473  0.60535  0.96388  1.0000
  H   H1578     1.0  0.78387  0.61089  0.94920  1.0000
  C   C1308     1.0  0.82691  0.61118  0.93098  1.0000
  C   C1309     1.0  0.80232  0.62279  0.89506  1.0000
  N   N89       1.0  0.98765  0.61053  0.13870  1.0000
  C   C1310     1.0  0.96975  0.52160  0.07315  1.0000
  H   H1579     1.0  0.96103  0.61342  0.15540  1.0000
  C   C1311     1.0  0.86144  0.59856  0.93171  1.0000
  C   C1312     1.0  0.88162  0.68265  0.01280  1.0000
  C   C1313     1.0  0.83488  0.51495  0.51659  1.0000
  S   S358      1.0  0.99005  0.50420  0.28816  1.0000
  H   H1580     1.0  0.92595  0.70289  0.01444  1.0000
  C   C1314     1.0  0.88307  0.69968  0.02141  1.0000
  C   C1315     1.0  0.97235  0.49489  0.92197  1.0000
  C   C1316     1.0  0.76349  0.73267  0.10848  1.0000
  C   C1317     1.0  0.96269  0.53380  0.04886  1.0000
  H   H1581     1.0  0.95059  0.54034  0.05571  1.0000
  H   H1582     1.0  0.74976  0.73210  0.10614  1.0000
  C   C1318     1.0  0.98569  0.49445  0.49209  1.0000
  H   H1583     1.0  0.77320  0.50177  0.42779  1.0000
  C   C1319     1.0  0.83813  0.53062  0.49801  1.0000
  H   H1584     1.0  0.86950  0.51167  0.49825  1.0000
  C   C1320     1.0  0.80817  0.53497  0.48375  1.0000
  H   H1585     1.0  0.85542  0.49452  0.58722  1.0000
  H   H1586     1.0  0.96559  0.59742  0.12126  1.0000
  C   C1321     1.0  0.79877  0.73437  0.11438  1.0000
  C   C1322     1.0  0.81424  0.51179  0.40760  1.0000
  H   H1587     1.0  0.98066  0.50798  0.14058  1.0000
  H   H1588     1.0  0.96540  0.61951  0.10900  1.0000
  H   H1589     1.0  0.82763  0.55208  0.46698  1.0000
  H   H1590     1.0  0.86911  0.67714  0.01278  1.0000
  H   H1591     1.0  0.81422  0.49798  0.53109  1.0000
  H   H1592     1.0  0.96680  0.50533  0.90430  1.0000
  H   H1593     1.0  0.84448  0.51513  0.58649  1.0000
  H   H1594     1.0  0.87169  0.70744  0.02797  1.0000
  H   H1595     1.0  0.96817  0.58740  0.18115  1.0000
  C   C1323     1.0  0.99138  0.66998  0.07378  1.0000
  H   H1596     1.0  0.79092  0.72976  0.24086  1.0000
  H   H1597     1.0  0.74755  0.60395  0.56863  1.0000
  H   H1598     1.0  0.90020  0.71995  0.02844  1.0000
  C   C1324     1.0  0.78381  0.73939  0.22376  1.0000
  C   C1325     1.0  0.98708  0.53004  0.00790  1.0000
  H   H1599     1.0  0.75042  0.62605  0.25250  1.0000
  H   H1600     1.0  0.98231  0.50047  0.93877  1.0000
  C   C1326     1.0  0.75391  0.59109  0.17970  1.0000
  H   H1601     1.0  0.74720  0.61847  0.88485  1.0000
  C   C1327     1.0  0.98313  0.49655  0.12365  1.0000
  C   C1328     1.0  0.82292  0.49711  0.42197  1.0000
  H   H1602     1.0  0.83672  0.49595  0.42021  1.0000
  H   H1603     1.0  0.98900  0.53088  0.83811  1.0000
  C   C1329     1.0  0.95761  0.49658  0.52070  1.0000
  H   H1604     1.0  0.75042  0.57330  0.22519  1.0000
  H   H1605     1.0  0.74659  0.67143  0.91040  1.0000
  C   C1330     1.0  0.74364  0.66132  0.89228  1.0000
  H   H1606     1.0  0.76733  0.73424  0.28986  1.0000
  S   S359      1.0  0.97030  0.49191  0.21602  1.0000
  S   S360      1.0  0.94241  0.49171  0.30613  1.0000
  H   H1607     1.0  0.96592  0.54770  0.99792  1.0000
  C   C1331     1.0  0.99200  0.65371  0.05826  1.0000
  H   H1608     1.0  0.98595  0.49807  0.85530  1.0000
  C   C1332     1.0  0.97133  0.53802  0.01637  1.0000
  H   H1609     1.0  0.98481  0.63120  0.17624  1.0000
  H   H1610     1.0  0.98732  0.50643  0.61504  1.0000
  H   H1611     1.0  0.74348  0.67376  0.58020  1.0000
  C   C1333     1.0  0.99124  0.62807  0.14959  1.0000
  H   H1612     1.0  0.99243  0.61473  0.08082  1.0000
  C   C1334     1.0  0.99316  0.59824  0.16778  1.0000
  H   H1613     1.0  0.96178  0.49091  0.94064  1.0000
  C   C1335     1.0  0.96444  0.49087  0.55400  1.0000
  S   S361      1.0  0.76079  0.89740  0.84524  1.0000
  C   C1336     1.0  0.75253  0.83148  0.71002  1.0000
  C   C1337     1.0  0.78830  0.74849  0.12489  1.0000
  S   S362      1.0  0.77436  0.94664  0.84376  1.0000
  H   H1614     1.0  0.94115  0.97032  0.50423  1.0000
  S   S363      1.0  0.76383  0.88033  0.94326  1.0000
  Fe  Fe181     1.0  0.77088  0.81327  0.22664  1.0000
  S   S364      1.0  0.79691  0.79981  0.22264  1.0000
  H   H1615     1.0  0.97803  0.98430  0.69373  1.0000
  Fe  Fe182     1.0  0.77582  0.82906  0.14711  1.0000
  S   S365      1.0  0.80219  0.81668  0.13981  1.0000
  S   S366      1.0  0.75976  0.84404  0.10353  1.0000
  Fe  Fe183     1.0  0.79050  0.79314  0.16484  1.0000
  S   S367      1.0  0.79817  0.76690  0.14129  1.0000
  Fe  Fe184     1.0  0.80680  0.82421  0.19793  1.0000
  S   S368      1.0  0.83093  0.83561  0.22156  1.0000
  S   S369      1.0  0.76406  0.80507  0.16968  1.0000
  S   S370      1.0  0.78086  0.83814  0.20434  1.0000
  Fe  Fe185     1.0  0.93517  0.85511  0.20648  1.0000
  S   S371      1.0  0.94683  0.84868  0.26131  1.0000
  S   S372      1.0  0.91134  0.84292  0.18305  1.0000
  Fe  Fe186     1.0  0.96682  0.87554  0.18217  1.0000
  S   S373      1.0  0.98020  0.86998  0.23507  1.0000
  S   S374      1.0  0.98335  0.89017  0.14143  1.0000
  Fe  Fe187     1.0  0.97159  0.84318  0.22925  1.0000
  C   C1338     1.0  0.97111  0.94405  0.20041  1.0000
  Fe  Fe188     1.0  0.95467  0.87619  0.26193  1.0000
  S   S375      1.0  0.94959  0.89610  0.30690  1.0000
  S   S376      1.0  0.95978  0.84844  0.17479  1.0000
  S   S377      1.0  0.94145  0.88287  0.20869  1.0000
  C   C1339     1.0  0.77026  0.77945  0.03253  1.0000
  C   C1340     1.0  0.99002  0.91228  0.36518  1.0000
  C   C1341     1.0  0.81293  0.77009  0.29177  1.0000
  C   C1342     1.0  0.94303  0.80807  0.21829  1.0000
  N   N90       1.0  0.77403  0.75194  0.24673  1.0000
  H   H1616     1.0  0.75178  0.80900  0.08852  1.0000
  Fe  Fe189     1.0  0.97512  0.97248  0.01803  1.0000
  S   S378      1.0  0.95748  0.95559  0.05104  1.0000
  S   S379      1.0  0.97159  0.97607  0.95743  1.0000
  C   C1343     1.0  0.97603  0.90887  0.11826  1.0000
  C   C1344     1.0  0.92038  0.98861  0.64330  1.0000
  C   C1345     1.0  0.98243  0.93310  0.07801  1.0000
  C   C1346     1.0  0.96505  0.93798  0.07756  1.0000
  C   C1347     1.0  0.95327  0.92847  0.09815  1.0000
  C   C1348     1.0  0.95873  0.91399  0.11857  1.0000
  H   H1617     1.0  0.93982  0.93225  0.09806  1.0000
  H   H1618     1.0  0.94950  0.90663  0.13389  1.0000
  C   C1349     1.0  0.98294  0.92645  0.38400  1.0000
  C   C1350     1.0  0.78316  0.80257  0.06255  1.0000
  C   C1351     1.0  0.98021  0.90311  0.34087  1.0000
  C   C1352     1.0  0.96302  0.90784  0.33531  1.0000
  C   C1353     1.0  0.96851  0.98772  0.71467  1.0000
  H   H1619     1.0  0.95155  0.97636  0.12806  1.0000
  H   H1620     1.0  0.75669  0.84394  0.70132  1.0000
  H   H1621     1.0  0.75582  0.83212  0.39751  1.0000
  Fe  Fe190     1.0  0.74769  0.89615  0.90115  1.0000
  H   H1622     1.0  0.79307  0.74571  0.20484  1.0000
  C   C1354     1.0  0.93388  0.93801  0.48546  1.0000
  C   C1355     1.0  0.97788  0.76550  0.21008  1.0000
  H   H1623     1.0  0.90403  0.95310  0.45759  1.0000
  C   C1356     1.0  0.77731  0.77287  0.29700  1.0000
  C   C1357     1.0  0.85327  0.83744  0.21007  1.0000
  C   C1358     1.0  0.86365  0.84626  0.23373  1.0000
  C   C1359     1.0  0.88133  0.84811  0.22605  1.0000
  C   C1360     1.0  0.88899  0.84114  0.19445  1.0000
  C   C1361     1.0  0.87864  0.83223  0.17086  1.0000
  C   C1362     1.0  0.86096  0.83040  0.17852  1.0000
  H   H1624     1.0  0.85794  0.85179  0.25819  1.0000
  H   H1625     1.0  0.88898  0.85501  0.24456  1.0000
  H   H1626     1.0  0.88431  0.82681  0.14626  1.0000
  H   H1627     1.0  0.85326  0.82361  0.15996  1.0000
  H   H1628     1.0  0.78148  0.81587  0.07229  1.0000
  H   H1629     1.0  0.98856  0.74545  0.17651  1.0000
  C   C1363     1.0  0.80312  0.76024  0.26943  1.0000
  H   H1630     1.0  0.76226  0.75813  0.13016  1.0000
  C   C1364     1.0  0.79078  0.95522  0.81467  1.0000
  C   C1365     1.0  0.79278  0.95121  0.77762  1.0000
  C   C1366     1.0  0.81475  0.97448  0.80731  1.0000
  C   C1367     1.0  0.80190  0.96688  0.82928  1.0000
  H   H1631     1.0  0.93611  0.90499  0.42500  1.0000
  H   H1632     1.0  0.80056  0.97007  0.85788  1.0000
  C   C1368     1.0  0.76251  0.87094  0.98857  1.0000
  C   C1369     1.0  0.76153  0.85463  0.05951  1.0000
  C   C1370     1.0  0.77654  0.85392  0.03774  1.0000
  C   C1371     1.0  0.77699  0.86197  0.00265  1.0000
  H   H1633     1.0  0.78779  0.84711  0.04785  1.0000
  H   H1634     1.0  0.78863  0.86111  0.98616  1.0000
  H   H1635     1.0  0.75694  0.77380  0.23679  1.0000
  H   H1636     1.0  0.96021  0.94233  0.39168  1.0000
  H   H1637     1.0  0.78437  0.94234  0.76581  1.0000
  H   H1638     1.0  0.80689  0.95576  0.72694  1.0000
  H   H1639     1.0  0.76498  0.82787  0.33245  1.0000
  C   C1372     1.0  0.96591  0.93152  0.37748  1.0000
  C   C1373     1.0  0.92861  0.92600  0.45981  1.0000
  H   H1640     1.0  0.91277  0.95898  0.55494  1.0000
  H   H1641     1.0  0.77316  0.77026  0.05543  1.0000
  H   H1642     1.0  0.75161  0.75118  0.28265  1.0000
  C   C1374     1.0  0.96577  0.77899  0.21291  1.0000
  H   H1643     1.0  0.96474  0.93655  0.97533  1.0000
  H   H1644     1.0  0.96658  0.91074  0.20081  1.0000
  H   H1645     1.0  0.98584  0.89209  0.32726  1.0000
  C   C1375     1.0  0.77055  0.74749  0.12210  1.0000
  H   H1646     1.0  0.82320  0.98329  0.81920  1.0000
  C   C1376     1.0  0.92114  0.94895  0.54178  1.0000
  H   H1647     1.0  0.89845  0.93852  0.49471  1.0000
  H   H1648     1.0  0.95591  0.81353  0.21914  1.0000
  C   C1377     1.0  0.95452  0.77161  0.15436  1.0000
  H   H1649     1.0  0.74600  0.82501  0.65619  1.0000
  H   H1650     1.0  0.89588  0.96096  0.50039  1.0000
  H   H1651     1.0  0.77436  0.77127  0.20453  1.0000
  H   H1652     1.0  0.94557  0.94613  0.22572  1.0000
  H   H1653     1.0  0.96652  0.78675  0.23684  1.0000
  C   C1378     1.0  0.97860  0.75536  0.17928  1.0000
  C   C1379     1.0  0.97754  0.93895  0.26440  1.0000
  C   C1380     1.0  0.96972  0.91324  0.00532  1.0000
  C   C1381     1.0  0.96280  0.92476  0.48049  1.0000
  C   C1382     1.0  0.74862  0.82396  0.38064  1.0000
  C   C1383     1.0  0.94796  0.97370  0.83391  1.0000
  C   C1384     1.0  0.95382  0.78260  0.18476  1.0000
  H   H1654     1.0  0.92093  0.78431  0.16087  1.0000
  C   C1385     1.0  0.97410  0.96224  0.14528  1.0000
  H   H1655     1.0  0.79427  0.80224  0.04307  1.0000
  H   H1656     1.0  0.95763  0.81225  0.15038  1.0000
  H   H1657     1.0  0.91277  0.98257  0.66460  1.0000
  C   C1386     1.0  0.74669  0.81109  0.75837  1.0000
  C   C1387     1.0  0.92852  0.96835  0.49224  1.0000
  H   H1658     1.0  0.93582  0.82012  0.15343  1.0000
  C   C1388     1.0  0.76110  0.74253  0.26858  1.0000
  H   H1659     1.0  0.76680  0.98542  0.73942  1.0000
  N   N91       1.0  0.97796  0.93142  0.22747  1.0000
  S   S380      1.0  0.95789  0.97344  0.56957  1.0000
  C   C1389     1.0  0.95702  0.96776  0.14861  1.0000
  C   C1390     1.0  0.95912  0.98797  0.77940  1.0000
  N   N92       1.0  0.80466  0.91574  0.92497  1.0000
  C   C1391     1.0  0.81072  0.92096  0.96115  1.0000
  C   C1392     1.0  0.78660  0.92194  0.92196  1.0000
  C   C1393     1.0  0.80525  0.89686  0.92481  1.0000
  C   C1394     1.0  0.81483  0.92244  0.89348  1.0000
  C   C1395     1.0  0.82836  0.93380  0.89750  1.0000
  C   C1396     1.0  0.81109  0.91786  0.85722  1.0000
  C   C1397     1.0  0.83745  0.94009  0.86697  1.0000
  C   C1398     1.0  0.82034  0.92414  0.82697  1.0000
  C   C1399     1.0  0.83344  0.93529  0.83182  1.0000
  H   H1660     1.0  0.80962  0.93502  0.96407  1.0000
  H   H1661     1.0  0.80291  0.91549  0.98413  1.0000
  H   H1662     1.0  0.82422  0.91651  0.96547  1.0000
  H   H1663     1.0  0.78553  0.93610  0.92092  1.0000
  H   H1664     1.0  0.77846  0.91729  0.94526  1.0000
  H   H1665     1.0  0.78072  0.91754  0.89670  1.0000
  H   H1666     1.0  0.79873  0.89138  0.94958  1.0000
  H   H1667     1.0  0.79850  0.89179  0.90117  1.0000
  H   H1668     1.0  0.81868  0.89165  0.92395  1.0000
  H   H1669     1.0  0.83206  0.93820  0.92382  1.0000
  H   H1670     1.0  0.80063  0.90976  0.85189  1.0000
  H   H1671     1.0  0.84752  0.94898  0.87044  1.0000
  H   H1672     1.0  0.81691  0.92086  0.79949  1.0000
  H   H1673     1.0  0.84021  0.94057  0.80818  1.0000
  C   C1400     1.0  0.95723  0.91317  0.45558  1.0000
  H   H1674     1.0  0.98756  0.81414  0.16160  1.0000
  C   C1401     1.0  0.99116  0.92786  0.96927  1.0000
  C   C1402     1.0  0.94413  0.80832  0.15267  1.0000
  H   H1675     1.0  0.94963  0.97061  0.86356  1.0000
  C   C1403     1.0  0.94020  0.91380  0.44520  1.0000
  H   H1676     1.0  0.95674  0.91274  0.01633  1.0000
  H   H1677     1.0  0.93383  0.94973  0.55448  1.0000
  C   C1404     1.0  0.97839  0.97489  0.82637  1.0000
  H   H1678     1.0  0.99159  0.94032  0.06224  1.0000
  S   S381      1.0  0.97310  0.98011  0.46207  1.0000
  H   H1679     1.0  0.93360  0.81903  0.21822  1.0000
  N   N93       1.0  0.92208  0.95124  0.50135  1.0000
  C   C1405     1.0  0.74385  0.83054  0.98600  1.0000
  H   H1680     1.0  0.91618  0.93632  0.54978  1.0000
  C   C1406     1.0  0.90435  0.95086  0.48779  1.0000
  H   H1681     1.0  0.94578  0.77350  0.13206  1.0000
  H   H1682     1.0  0.91411  0.80230  0.18716  1.0000
  H   H1683     1.0  0.82678  0.76940  0.28923  1.0000
  C   C1407     1.0  0.78723  0.78271  0.31902  1.0000
  H   H1684     1.0  0.78135  0.77833  0.01310  1.0000
  H   H1685     1.0  0.75762  0.78728  0.09782  1.0000
  H   H1686     1.0  0.97252  0.90620  0.24741  1.0000
  H   H1687     1.0  0.94736  0.96156  0.81902  1.0000
  Fe  Fe191     1.0  0.97779  0.97781  0.52302  1.0000
  H   H1688     1.0  0.75603  0.97749  0.80138  1.0000
  H   H1689     1.0  0.98357  0.97725  0.75747  1.0000
  H   H1690     1.0  0.75791  0.78652  0.64341  1.0000
  C   C1408     1.0  0.95388  0.95032  0.20355  1.0000
  H   H1691     1.0  0.94111  0.80199  0.12691  1.0000
  C   C1409     1.0  0.80500  0.78136  0.31636  1.0000
  H   H1692     1.0  0.91654  0.98106  0.90211  1.0000
  H   H1693     1.0  0.75657  0.83584  0.76695  1.0000
  C   C1410     1.0  0.96729  0.91627  0.22851  1.0000
  H   H1694     1.0  0.81012  0.75221  0.25024  1.0000
  S   S382      1.0  0.83234  0.98011  0.74055  1.0000
  N   N94       1.0  0.96191  0.98421  0.81880  1.0000
  C   C1411     1.0  0.96686  0.75832  0.15160  1.0000
  C   C1412     1.0  0.94695  0.96188  0.17779  1.0000
  H   H1695     1.0  0.95399  0.91907  0.23863  1.0000
  H   H1696     1.0  0.95637  0.94572  0.51446  1.0000
  H   H1697     1.0  0.78687  0.79426  0.08637  1.0000
  C   C1413     1.0  0.94272  0.98648  0.59476  1.0000
  H   H1698     1.0  0.78103  0.79182  0.33741  1.0000
  H   H1699     1.0  0.93363  0.96615  0.18018  1.0000
  H   H1700     1.0  0.93417  0.96539  0.62817  1.0000
  H   H1701     1.0  0.91985  0.97871  0.50314  1.0000
  C   C1414     1.0  0.98787  0.91854  0.09820  1.0000
  H   H1702     1.0  0.97993  0.97220  0.85626  1.0000
  H   H1703     1.0  0.78591  0.80305  0.98255  1.0000
  C   C1415     1.0  0.75245  0.82692  0.74702  1.0000
  H   H1704     1.0  0.94274  0.92599  0.34964  1.0000
  H   H1705     1.0  0.97927  0.96238  0.81269  1.0000
  H   H1706     1.0  0.77918  0.82307  0.93243  1.0000
  C   C1416     1.0  0.98204  0.90096  0.01578  1.0000
  C   C1417     1.0  0.92368  0.79139  0.18589  1.0000
  H   H1707     1.0  0.96426  0.94195  0.27450  1.0000
  H   H1708     1.0  0.93006  0.97032  0.46208  1.0000
  H   H1709     1.0  0.94062  0.80085  0.24427  1.0000
  C   C1418     1.0  0.76503  0.76417  0.22174  1.0000
  N   N95       1.0  0.94144  0.79733  0.18567  1.0000
  H   H1710     1.0  0.97620  0.92453  0.48755  1.0000
  C   C1419     1.0  0.95601  0.92218  0.35362  1.0000
  C   C1420     1.0  0.81664  0.97061  0.77014  1.0000
  C   C1421     1.0  0.80558  0.95889  0.75559  1.0000
  H   H1711     1.0  0.97850  0.89090  0.03497  1.0000
  H   H1712     1.0  0.75881  0.77505  0.01848  1.0000
  H   H1713     1.0  0.92121  0.78290  0.21004  1.0000
  C   C1422     1.0  0.76270  0.80876  0.01510  1.0000
  C   C1423     1.0  0.75389  0.79640  0.07541  1.0000
  S   S383      1.0  0.75065  0.80756  0.27323  1.0000
  Fe  Fe192     1.0  0.75451  0.92566  0.84618  1.0000
  H   H1714     1.0  0.93515  0.98023  0.83189  1.0000
  H   H1715     1.0  0.98176  0.96669  0.12211  1.0000
  C   C1424     1.0  0.97428  0.92669  0.98221  1.0000
  H   H1716     1.0  0.96629  0.90404  0.44335  1.0000
  C   C1425     1.0  0.75389  0.82156  0.34351  1.0000
  H   H1717     1.0  0.81264  0.78935  0.33280  1.0000
  H   H1718     1.0  0.91569  0.92583  0.45019  1.0000
  H   H1719     1.0  0.76359  0.77487  0.29934  1.0000
  C   C1426     1.0  0.93255  0.97889  0.62249  1.0000
  N   N96       1.0  0.76727  0.79703  0.04591  1.0000
  H   H1720     1.0  0.75656  0.75768  0.20286  1.0000
  C   C1427     1.0  0.95135  0.93696  0.49538  1.0000
  C   C1428     1.0  0.78491  0.76140  0.27129  1.0000
  C   C1429     1.0  0.98110  0.95048  0.17052  1.0000
  C   C1430     1.0  0.77021  0.82173  0.95529  1.0000
  C   C1431     1.0  0.97149  0.98369  0.75155  1.0000
  C   C1432     1.0  0.77394  0.81033  0.98418  1.0000
  H   H1721     1.0  0.98467  0.95091  0.26442  1.0000
  C   C1433     1.0  0.74710  0.86366  0.04548  1.0000
  H   H1722     1.0  0.98333  0.93008  0.28524  1.0000
  C   C1434     1.0  0.74757  0.87178  0.01047  1.0000
  C   C1435     1.0  0.74751  0.81932  0.01522  1.0000
  H   H1723     1.0  0.98958  0.98242  0.81760  1.0000
  C   C1436     1.0  0.74478  0.81116  0.32079  1.0000
  S   S384      1.0  0.98969  0.81996  0.24071  1.0000
  H   H1724     1.0  0.98725  0.76336  0.23126  1.0000
  C   C1437     1.0  0.74651  0.82041  0.68427  1.0000
  C   C1438     1.0  0.76451  0.98801  0.79769  1.0000
  H   H1725     1.0  0.96761  0.75047  0.12754  1.0000
  H   H1726     1.0  0.74654  0.80767  0.78728  1.0000
  H   H1727     1.0  0.75260  0.84109  0.93445  1.0000
  H   H1728     1.0  0.74641  0.80334  0.61917  1.0000
  C   C1439     1.0  0.75520  0.83182  0.95623  1.0000
  C   C1440     1.0  0.74497  0.79125  0.63501  1.0000
