data_image0
_chemical_formula_structural       H4SHFeS2FeS2FeSFeS3FeS2FeSCFeSFeS3CS2HFeSH4C3HCH3CHC7H3C6H4CH3FeC2H2CHSH2C2HC3H6C2HNHC2H5SCH3C5H3SHC2H2CHCNHC3HCHCHCHC2H2CHC2HCH2CH4C3H2CFeHNHCHCNC9H11CHNC7H3C2HCH2C2H2CH2C4SCH2CH4NHCHC2H6SCSHS2HFeSC2FeS2FeS2FeSFeS3FeS2FeS2FeSFeS3HC6H4C3H3CHCH2FeH3C5H4C3H4C5H4C6H2SH5CH6CSCHCH6CH4NFeNC9H14CH5CHC6NHC3H2C2H2NC5H2CHCHCNC6HCHCH5FeH7CFeCHCH3SHCSFeSHFeSHFeSFeSCSFeS3FeS2FeS2FeSFeS3HCHCH2CNHC3H3C6H3NH3SC6H4C6H2CHCH2C2H2CH2CSH2CSH4CFeC2H3CH4C5SNC9H12FeSCH3CH2FeC2HCH2CHC5HC2NC9H11SH2C3H4NC3H7CH2C2HCH2C2HNC4SH6C3HSH2FeS2FeS2FeS2FeSFeS3FeHSH2SFeS2FeSHFeSFeS3C2HNC2H3CHC4H5C6H4C3H2CHC4H3C6H2NCH6NC13H2C2H6CHSHCHCH3C3H3CHSHCH3CH2C2HCH2C3H4C4H2CHNC9H12CH2CH3CHC2SHCH2C2H4NFeHCH2C2H2FeCH2CH4CH3SCH3CH3SCFeS2CHFeSHFeS2FeS2FeSFeS3FeSCFeS2FeSFeS3HC6H4C2H2SCH2C2HCH2C6H4NHC2HNHC5H3CH2CHCHC2HFeCHSNC8H2CSHCH4CHSH5NCFeCHFeC2H2CH2CSC2NC9H21CH2CH2SCHC2HC2H2C2H2CHCHCH3CHCH2C4HC3HCH3CH2C2SFeS2FeS2FeSFeS3FeS2FeSCFeSFeS3HFeHSH2CSC2SC3SH2C7H4C6H4C2HCHCNHFeC2H5CHC4H5C4HCH2C3H4CHCHCHCHCHCNH9SC3H2CH2CNH2C5NC9H16C2H6CH2C3NHSHCH2CHNHC6H6C2HCHCH3CNC2H4C3H2CH2S2H3C2H2C2H4C2HFe2SCHCH4SCSFeSFeS2FeS2FeSFeS3FeCSHSFeS2FeS2FeSFeS3C2HC3H2CHC4NH3C7H5C2H4C4H3C5H2C3H8CH2CNCH2C2H2NH3C3NC9H14C2HC6H2CSC2H9C2NCNC9H16SH3C2H2SC4H3CH2CHC2H2FeHCFeH3CHC2H8S2FeSFeS2FeS2FeSFeCS2FeSHSFeS2FeS2FeSFeS3C2HCH2C5SCH2CHC5H3C10H4C6NH2C5HC2HCHCH4CH4CHNC2H2CHCHCH2C2H7NHCNH2CH2C3H3CNC9H14NC9H15CHC3H2CHNH2CHNHCH2CH4CH2C3HC2HCH2C4H4CSHSCH3CFeH4C2H3CH2CHCH2SHCH2CFeSCFeS2FeSFeS2HFeS2CHSFeS2FeS2FeSFeS3C2HCHC6H3C3H2C6H4C4H3CHC2H2N2HC4HCH2C2SCH3C2HSHC2H3FeH5C3H3C2H3CHSHC2FeC2H2CNCH4C4HC2HCH2NHCHNC3H10CHSCHCH2CH2C2HCH2CHSH4NC9H14CH4CSHC2H3C3SH4CHS2NCH2CH5CHC3HC2HCHCSCHCSFeS2FeS2FeSFeHS3CFeSFeS2FeS2FeSFeS3CH3C7H6C5H4CNC6H4C3H2C2HC3SC4HCH2NC9H17CNCSH2C3HCH4SC4H3FeCH2CHCHCHCH3FeH4CH2CH3CH4CNH2CH4NC9H8CHFeH4C2HCH2C2HFeC2H4FeCH4SHCHC3HS2FeCFeSHFeS2FeS2FeSFeS3FeS2FeS2FeSFeHS2HC8H5C4HC5HC7H4C2HCH4CHC5H3C4H3C2NC9H14CH3CFeHC2H2CH2CHCH3SHC3H2C2H2FeH2CHNC2H2SCH3CH3CNH4SCH2C2H3C2SCH2CHNH2C2H3CHCH3C3HCHC2H2CFeS2FeS2FeCFeS3FeS2FeS2FeSFeS3HSCFeSHC4HCHC4SH4CHC6H4C2H3C2SH2CSC7HCHC6H2CH3SNH3C2H2CH5FeHNC6HC2H14C3FeCHNH15SHCHNS2HC3H2CHCH2CHCH4C2HCNC9H4CHC2H8FeC2HC3H2CH2CH3NSH5SHCSFeHCFeS2FeCFeS3FeS3FeS2FeS2FeSFeS3CH2C6H2C2H4C4H3CHC7H4C2HC3HCH2C6H2C2H5CFeHCH2CH2C2HC2NC9H16C3SHC2HCH2SH3C4HCH2CNCHC2HCH4CSNH4NHCH2C3SH2CHCH3CH2CHFe2HCHCH2CH4CHSHCH3FeHSCS2FeS2FeS2FeSFeS3FeCSC2SFeS2FeSCFeSFeS3C3HC7HCH2FeCHC7H4C4H4C6H4C4H3NHCNC3HNHCH3CHC3H3NC2NC9H14C2HC2HCHCH2C3H7CNH2CH3CSH7C3HC2HCH3CH4CH5C2HCHC3H4CHSCH2CHCHC2HNH2NH4C2H6CSH4CHC3HSH2CFeS2FeS2FeSFeS3FeS2FeCSFeSFeS3HS2FeS2C4H2C7H2CFeC6H4CH4CNH5CH2C3H2C2HC2HNH2SC2H4CHC2H2CSH3C2H3C2H2CH2C2H2CH2C2HC4SH2C2NH2NC9H19FeH2CH4FeHC2HNHCH3C2HCHCHCHCHCHC2H7SH2CH2CHCNCHCHCH3C2HCH3NH3C2NCHCHSCNHCHC2HCH2C2SHFeSCFeS2FeS2FeSFeS3FeSFe2S2FeSFeS3C6H4SHCH6FeSC2H3C6H3C5HSHNC4H4C2NCH3CH6C6HCH4CNCH5CH5C3SHCFeHCH2CHCHCH4CH3C2NC2HC3NC6H14CHCHC2H4C2H2CH5CH4C5SHC2HC2H2CHCSCH2CH3CH3CHS
_chemical_formula_sum              "H1728 S384 Fe192 C1440 N96"
_cell_length_a       82.1381
_cell_length_b       81.9663
_cell_length_c       32.8515
_cell_angle_alpha    88.59
_cell_angle_beta     88.5965
_cell_angle_gamma    88.0971

_space_group_name_H-M_alt    "P 1"
_space_group_IT_number       1

loop_
  _space_group_symop_operation_xyz
  'x, y, z'

loop_
  _atom_site_type_symbol
  _atom_site_label
  _atom_site_symmetry_multiplicity
  _atom_site_fract_x
  _atom_site_fract_y
  _atom_site_fract_z
  _atom_site_occupancy
  H   H1        1.0  0.04756  0.12174  0.54159  1.0000
  H   H2        1.0  0.02331  0.09986  0.95097  1.0000
  H   H3        1.0  0.02624  0.12775  0.36855  1.0000
  H   H4        1.0  0.09007  0.21581  0.83411  1.0000
  S   S1        1.0  0.21274  0.21180  0.31397  1.0000
  H   H5        1.0  0.16443  0.05492  0.54562  1.0000
  Fe  Fe1       1.0  0.04492  0.05113  0.62776  1.0000
  S   S2        1.0  0.02002  0.06336  0.62324  1.0000
  S   S3        1.0  0.05046  0.02357  0.62220  1.0000
  Fe  Fe2       1.0  0.06258  0.08385  0.61309  1.0000
  S   S4        1.0  0.03859  0.09805  0.60745  1.0000
  S   S5        1.0  0.08622  0.09853  0.60903  1.0000
  Fe  Fe3       1.0  0.03006  0.08320  0.66230  1.0000
  S   S6        1.0  0.01294  0.09425  0.71243  1.0000
  Fe  Fe4       1.0  0.03016  0.07751  0.56940  1.0000
  S   S7        1.0  0.02085  0.07954  0.50382  1.0000
  S   S8        1.0  0.05445  0.06989  0.67010  1.0000
  S   S9        1.0  0.05469  0.06439  0.57182  1.0000
  Fe  Fe5       1.0  0.19588  0.14265  0.55311  1.0000
  S   S10       1.0  0.18146  0.14184  0.49573  1.0000
  S   S11       1.0  0.19171  0.16567  0.58910  1.0000
  Fe  Fe6       1.0  0.21375  0.10970  0.53703  1.0000
  S   S12       1.0  0.20058  0.10702  0.47868  1.0000
  C   C1        1.0  0.19798  0.17985  0.75218  1.0000
  Fe  Fe7       1.0  0.20534  0.13376  0.46642  1.0000
  S   S13       1.0  0.21922  0.14276  0.40924  1.0000
  Fe  Fe8       1.0  0.17780  0.11539  0.51414  1.0000
  S   S14       1.0  0.15477  0.10015  0.50939  1.0000
  S   S15       1.0  0.21978  0.13592  0.52310  1.0000
  S   S16       1.0  0.19093  0.11678  0.57326  1.0000
  C   C2        1.0  0.01129  0.00907  0.59354  1.0000
  S   S17       1.0  0.00555  0.15682  0.97159  1.0000
  S   S18       1.0  0.01590  0.14380  0.86150  1.0000
  H   H6        1.0  0.02978  0.17584  0.85129  1.0000
  Fe  Fe9       1.0  0.00341  0.18439  0.96968  1.0000
  S   S19       1.0  0.02223  0.20007  0.99958  1.0000
  H   H7        1.0  0.01500  0.11703  0.43417  1.0000
  H   H8        1.0  0.08449  0.20967  0.96329  1.0000
  H   H9        1.0  0.04070  0.12911  0.80934  1.0000
  H   H10       1.0  0.16042  0.07298  0.57318  1.0000
  C   C3        1.0  0.04752  0.22115  0.00682  1.0000
  C   C4        1.0  0.03627  0.21474  0.98028  1.0000
  C   C5        1.0  0.03632  0.22035  0.93973  1.0000
  H   H11       1.0  0.06043  0.13788  0.52442  1.0000
  C   C6        1.0  0.99917  0.00215  0.61807  1.0000
  H   H12       1.0  0.04763  0.21695  0.03831  1.0000
  H   H13       1.0  0.02772  0.21565  0.91898  1.0000
  H   H14       1.0  0.22863  0.06986  0.49588  1.0000
  C   C7        1.0  0.23170  0.23424  0.04384  1.0000
  H   H15       1.0  0.06798  0.12186  0.55814  1.0000
  C   C8        1.0  0.01463  0.13045  0.81923  1.0000
  C   C9        1.0  0.02913  0.12497  0.79933  1.0000
  C   C10       1.0  0.02889  0.11416  0.76637  1.0000
  C   C11       1.0  0.01410  0.10844  0.75298  1.0000
  C   C12       1.0  0.99960  0.11385  0.77312  1.0000
  C   C13       1.0  0.99982  0.12484  0.80570  1.0000
  C   C14       1.0  0.22196  0.03403  0.58473  1.0000
  H   H16       1.0  0.04017  0.11013  0.75151  1.0000
  H   H17       1.0  0.22721  0.22510  0.02265  1.0000
  H   H18       1.0  0.19295  0.00638  0.57057  1.0000
  C   C15       1.0  0.10542  0.09825  0.58174  1.0000
  C   C16       1.0  0.11683  0.11012  0.59025  1.0000
  C   C17       1.0  0.13196  0.11083  0.56881  1.0000
  C   C18       1.0  0.13591  0.09974  0.53809  1.0000
  C   C19       1.0  0.12451  0.08786  0.52953  1.0000
  C   C20       1.0  0.10942  0.08707  0.55120  1.0000
  H   H19       1.0  0.11393  0.11888  0.61367  1.0000
  H   H20       1.0  0.14049  0.12007  0.57588  1.0000
  H   H21       1.0  0.12736  0.07919  0.50590  1.0000
  H   H22       1.0  0.10089  0.07782  0.54419  1.0000
  C   C21       1.0  0.00142  0.08208  0.48074  1.0000
  H   H23       1.0  0.08848  0.11083  0.46251  1.0000
  H   H24       1.0  0.18914  0.06583  0.51219  1.0000
  H   H25       1.0  0.18323  0.08443  0.53683  1.0000
  Fe  Fe10      1.0  0.99859  0.15813  0.90542  1.0000
  C   C22       1.0  0.04735  0.23230  0.92611  1.0000
  C   C23       1.0  0.00053  0.08100  0.43812  1.0000
  H   H26       1.0  0.01373  0.02195  0.59558  1.0000
  H   H27       1.0  0.01383  0.11887  0.96651  1.0000
  C   C24       1.0  0.04543  0.00525  0.64948  1.0000
  H   H28       1.0  0.22811  0.17036  0.48607  1.0000
  S   S20       1.0  0.23156  0.22101  0.19745  1.0000
  H   H29       1.0  0.03061  0.00472  0.54982  1.0000
  H   H30       1.0  0.23672  0.09709  0.47410  1.0000
  C   C25       1.0  0.21490  0.19252  0.33998  1.0000
  C   C26       1.0  0.22776  0.20020  0.45296  1.0000
  H   H31       1.0  0.05219  0.09404  0.51648  1.0000
  C   C27       1.0  0.21722  0.16206  0.38331  1.0000
  C   C28       1.0  0.20390  0.17280  0.39025  1.0000
  C   C29       1.0  0.20278  0.18792  0.36872  1.0000
  H   H32       1.0  0.09064  0.11535  0.51483  1.0000
  H   H33       1.0  0.08496  0.13151  0.48023  1.0000
  H   H34       1.0  0.19432  0.16936  0.41161  1.0000
  H   H35       1.0  0.19232  0.19604  0.37398  1.0000
  H   H36       1.0  0.19439  0.19751  0.62121  1.0000
  H   H37       1.0  0.05569  0.13294  0.36096  1.0000
  C   C30       1.0  0.06120  0.12515  0.42249  1.0000
  C   C31       1.0  0.20772  0.17461  0.61437  1.0000
  H   H38       1.0  0.06790  0.08966  0.47934  1.0000
  N   N1        1.0  0.20050  0.19458  0.77641  1.0000
  H   H39       1.0  0.19147  0.20852  0.70312  1.0000
  C   C32       1.0  0.21810  0.19826  0.64778  1.0000
  C   C33       1.0  0.20564  0.19074  0.62734  1.0000
  H   H40       1.0  0.07291  0.09354  0.53110  1.0000
  H   H41       1.0  0.07393  0.12747  0.41702  1.0000
  H   H42       1.0  0.21651  0.21081  0.65672  1.0000
  H   H43       1.0  0.21166  0.17993  0.82442  1.0000
  H   H44       1.0  0.17889  0.21042  0.83243  1.0000
  S   S21       1.0  0.23359  0.09232  0.56328  1.0000
  C   C34       1.0  0.17193  0.22464  0.72085  1.0000
  H   H45       1.0  0.17957  0.08441  0.61406  1.0000
  H   H46       1.0  0.06725  0.23774  0.01396  1.0000
  H   H47       1.0  0.21070  0.22767  0.48955  1.0000
  C   C35       1.0  0.05082  0.12833  0.38983  1.0000
  C   C36       1.0  0.06464  0.09733  0.50600  1.0000
  C   C37       1.0  0.05511  0.11902  0.46059  1.0000
  C   C38       1.0  0.05869  0.23297  0.99312  1.0000
  C   C39       1.0  0.22936  0.16666  0.35467  1.0000
  H   H48       1.0  0.22272  0.00796  0.57903  1.0000
  H   H49       1.0  0.02542  0.99044  0.73411  1.0000
  H   H50       1.0  0.22372  0.23343  0.07175  1.0000
  S   S22       1.0  0.99813  0.18567  0.90314  1.0000
  H   H51       1.0  0.21840  0.21282  0.78065  1.0000
  C   C40       1.0  0.02079  0.99929  0.56761  1.0000
  C   C41       1.0  0.21504  0.01898  0.57955  1.0000
  H   H52       1.0  0.01930  0.11608  0.91445  1.0000
  H   H53       1.0  0.01865  0.02711  0.43683  1.0000
  C   C42       1.0  0.03811  0.11645  0.46383  1.0000
  H   H54       1.0  0.01158  0.07871  0.42030  1.0000
  C   C43       1.0  0.23264  0.18959  0.65600  1.0000
  N   N2        1.0  0.22246  0.19598  0.49535  1.0000
  H   H55       1.0  0.22679  0.19280  0.76975  1.0000
  C   C44       1.0  0.99281  0.03015  0.42717  1.0000
  C   C45       1.0  0.00630  0.03822  0.48785  1.0000
  C   C46       1.0  0.22588  0.20963  0.52233  1.0000
  H   H56       1.0  0.20174  0.18225  0.47837  1.0000
  C   C47       1.0  0.22237  0.16602  0.62183  1.0000
  H   H57       1.0  0.21819  0.05970  0.58849  1.0000
  C   C48       1.0  0.23089  0.18031  0.50715  1.0000
  H   H58       1.0  0.00497  0.23472  0.99366  1.0000
  C   C49       1.0  0.17721  0.21361  0.80072  1.0000
  H   H59       1.0  0.15759  0.23051  0.81722  1.0000
  C   C50       1.0  0.18724  0.20692  0.76892  1.0000
  C   C51       1.0  0.20470  0.19310  0.49627  1.0000
  H   H60       1.0  0.23505  0.03469  0.58799  1.0000
  H   H61       1.0  0.20738  0.17006  0.75846  1.0000
  C   C52       1.0  0.03422  0.12545  0.39401  1.0000
  H   H62       1.0  0.03258  0.11174  0.49172  1.0000
  C   C53       1.0  0.16485  0.22529  0.79243  1.0000
  C   C54       1.0  0.20169  0.18930  0.81985  1.0000
  H   H63       1.0  0.19744  0.20357  0.48335  1.0000
  C   C55       1.0  0.03606  0.00521  0.68563  1.0000
  H   H64       1.0  0.03164  0.01667  0.69808  1.0000
  H   H65       1.0  0.18537  0.06608  0.64207  1.0000
  C   C56       1.0  0.23922  0.22105  0.58097  1.0000
  H   H66       1.0  0.20350  0.07629  0.54161  1.0000
  H   H67       1.0  0.09701  0.22358  0.90365  1.0000
  H   H68       1.0  0.17554  0.03089  0.56999  1.0000
  H   H69       1.0  0.20037  0.07788  0.61469  1.0000
  C   C57       1.0  0.02789  0.11951  0.43095  1.0000
  C   C58       1.0  0.06016  0.12454  0.53133  1.0000
  C   C59       1.0  0.08317  0.11836  0.48758  1.0000
  H   H70       1.0  0.20012  0.19082  0.52807  1.0000
  H   H71       1.0  0.16261  0.05397  0.60087  1.0000
  C   C60       1.0  0.99142  0.04392  0.50405  1.0000
  Fe  Fe11      1.0  0.22813  0.22516  0.26495  1.0000
  H   H72       1.0  0.19019  0.18384  0.83141  1.0000
  N   N3        1.0  0.06570  0.11496  0.49551  1.0000
  H   H73       1.0  0.20459  0.19975  0.83932  1.0000
  C   C61       1.0  0.18420  0.21283  0.72873  1.0000
  H   H74       1.0  0.22406  0.15356  0.61205  1.0000
  C   C62       1.0  0.21633  0.20148  0.76391  1.0000
  N   N4        1.0  0.05278  0.17739  0.88139  1.0000
  C   C63       1.0  0.04481  0.17128  0.91963  1.0000
  C   C64       1.0  0.03976  0.18453  0.85520  1.0000
  C   C65       1.0  0.06051  0.16314  0.86066  1.0000
  C   C66       1.0  0.06520  0.18969  0.88820  1.0000
  C   C67       1.0  0.07312  0.19756  0.85456  1.0000
  C   C68       1.0  0.06986  0.19418  0.92775  1.0000
  C   C69       1.0  0.08450  0.20959  0.86015  1.0000
  C   C70       1.0  0.08145  0.20604  0.93291  1.0000
  C   C71       1.0  0.08856  0.21390  0.89927  1.0000
  H   H75       1.0  0.03855  0.18139  0.93649  1.0000
  H   H76       1.0  0.03537  0.16229  0.91353  1.0000
  H   H77       1.0  0.05369  0.16489  0.94007  1.0000
  H   H78       1.0  0.03424  0.19580  0.86858  1.0000
  H   H79       1.0  0.04424  0.18768  0.82394  1.0000
  H   H80       1.0  0.07058  0.15757  0.87897  1.0000
  H   H81       1.0  0.05154  0.15349  0.85570  1.0000
  H   H82       1.0  0.06570  0.16649  0.83014  1.0000
  H   H83       1.0  0.07045  0.19461  0.82362  1.0000
  H   H84       1.0  0.06446  0.18910  0.95534  1.0000
  H   H85       1.0  0.19890  0.18241  0.71880  1.0000
  C   C72       1.0  0.21873  0.22541  0.51479  1.0000
  H   H86       1.0  0.99572  0.21703  0.94542  1.0000
  N   N5        1.0  0.18526  0.06343  0.57705  1.0000
  C   C73       1.0  0.18778  0.07330  0.61356  1.0000
  C   C74       1.0  0.19055  0.07288  0.54036  1.0000
  C   C75       1.0  0.16745  0.06108  0.57418  1.0000
  C   C76       1.0  0.19510  0.04798  0.57944  1.0000
  C   C77       1.0  0.18838  0.03240  0.57446  1.0000
  C   C78       1.0  0.21218  0.04831  0.58490  1.0000
  C   C79       1.0  0.19828  0.01815  0.57467  1.0000
  H   H87       1.0  0.01736  0.03961  0.50467  1.0000
  H   H88       1.0  0.21701  0.20464  0.73098  1.0000
  H   H89       1.0  0.17004  0.22914  0.68997  1.0000
  C   C80       1.0  0.01432  0.10969  0.94214  1.0000
  C   C81       1.0  0.23187  0.23631  0.57299  1.0000
  H   H90       1.0  0.18577  0.17480  0.75891  1.0000
  C   C82       1.0  0.22826  0.18180  0.33324  1.0000
  H   H91       1.0  0.22688  0.17603  0.53811  1.0000
  H   H92       1.0  0.23558  0.11797  0.45665  1.0000
  C   C83       1.0  0.05867  0.23869  0.95261  1.0000
  C   C84       1.0  0.23906  0.06550  0.51288  1.0000
  H   H93       1.0  0.04726  0.23656  0.89468  1.0000
  H   H94       1.0  0.22026  0.21036  0.43921  1.0000
  C   C85       1.0  0.16228  0.23086  0.75267  1.0000
  H   H95       1.0  0.22677  0.18972  0.43236  1.0000
  H   H96       1.0  0.99399  0.02491  0.39733  1.0000
  C   C86       1.0  0.23477  0.17349  0.64273  1.0000
  C   C87       1.0  0.00699  0.03130  0.44954  1.0000
  C   C88       1.0  0.03253  0.99029  0.70597  1.0000
  C   C89       1.0  0.23626  0.20784  0.55631  1.0000
  S   S23       1.0  0.22258  0.23917  0.70832  1.0000
  C   C90       1.0  0.22167  0.23850  0.53991  1.0000
  H   H97       1.0  0.23766  0.18512  0.31122  1.0000
  H   H98       1.0  0.23458  0.08995  0.40167  1.0000
  C   C91       1.0  0.99965  0.09328  0.89713  1.0000
  H   H99       1.0  0.00865  0.08291  0.90039  1.0000
  H   H100      1.0  0.99382  0.11353  0.01332  1.0000
  H   H101      1.0  0.23463  0.11105  0.38720  1.0000
  H   H102      1.0  0.99208  0.00978  0.63888  1.0000
  N   N6        1.0  0.99814  0.10291  0.93489  1.0000
  H   H103      1.0  0.00399  0.10086  0.87059  1.0000
  C   C92       1.0  0.05102  0.99017  0.63378  1.0000
  H   H104      1.0  0.05828  0.99004  0.60587  1.0000
  C   C93       1.0  0.99270  0.09333  0.97127  1.0000
  C   C94       1.0  0.99120  0.10080  0.00981  1.0000
  H   H105      1.0  0.23967  0.15843  0.34881  1.0000
  H   H106      1.0  0.24070  0.20385  0.45161  1.0000
  H   H107      1.0  0.99108  0.04975  0.53338  1.0000
  H   H108      1.0  0.07556  0.34231  0.02069  1.0000
  H   H109      1.0  0.06221  0.35475  0.96043  1.0000
  H   H110      1.0  0.08563  0.35983  0.07411  1.0000
  S   S24       1.0  0.21852  0.25087  0.25294  1.0000
  C   C95       1.0  0.04391  0.47797  0.70005  1.0000
  S   S25       1.0  0.21133  0.25782  0.12920  1.0000
  H   H111      1.0  0.19702  0.27243  0.05757  1.0000
  S   S26       1.0  0.23252  0.27710  0.64026  1.0000
  S   S27       1.0  0.16240  0.47190  0.50963  1.0000
  H   H112      1.0  0.22007  0.28042  0.18780  1.0000
  Fe  Fe12      1.0  0.18821  0.47636  0.52682  1.0000
  S   S28       1.0  0.20803  0.45701  0.54367  1.0000
  C   C96       1.0  0.18976  0.39517  0.62058  1.0000
  C   C97       1.0  0.13126  0.47338  0.72494  1.0000
  Fe  Fe13      1.0  0.07604  0.41675  0.85950  1.0000
  S   S29       1.0  0.09426  0.43463  0.88019  1.0000
  S   S30       1.0  0.07748  0.38856  0.86241  1.0000
  Fe  Fe14      1.0  0.05220  0.44432  0.82930  1.0000
  S   S31       1.0  0.06910  0.46386  0.84785  1.0000
  S   S32       1.0  0.02874  0.45473  0.80026  1.0000
  Fe  Fe15      1.0  0.08949  0.44823  0.82024  1.0000
  S   S33       1.0  0.11059  0.46050  0.78441  1.0000
  Fe  Fe16      1.0  0.07256  0.44914  0.90576  1.0000
  S   S34       1.0  0.06709  0.45846  0.97043  1.0000
  S   S35       1.0  0.07246  0.42955  0.79815  1.0000
  S   S36       1.0  0.05456  0.43036  0.88847  1.0000
  Fe  Fe17      1.0  0.12828  0.27465  0.91199  1.0000
  S   S37       1.0  0.13609  0.28997  0.96339  1.0000
  S   S38       1.0  0.14146  0.27412  0.85054  1.0000
  Fe  Fe18      1.0  0.09546  0.26638  0.95347  1.0000
  S   S39       1.0  0.10089  0.28168  0.00779  1.0000
  S   S40       1.0  0.07233  0.25372  0.93324  1.0000
  Fe  Fe19      1.0  0.11040  0.30072  0.96272  1.0000
  S   S41       1.0  0.10845  0.32877  0.96813  1.0000
  Fe  Fe20      1.0  0.12636  0.26998  0.00426  1.0000
  S   S42       1.0  0.13837  0.25958  0.06248  1.0000
  S   S43       1.0  0.10325  0.28640  0.90922  1.0000
  S   S44       1.0  0.12029  0.25369  0.95229  1.0000
  H   H113      1.0  0.05966  0.38426  0.95150  1.0000
  C   C98       1.0  0.08729  0.37210  0.89021  1.0000
  C   C99       1.0  0.08337  0.35592  0.88180  1.0000
  C   C100      1.0  0.09001  0.34250  0.90444  1.0000
  C   C101      1.0  0.10059  0.34506  0.93625  1.0000
  C   C102      1.0  0.10486  0.36119  0.94396  1.0000
  C   C103      1.0  0.09841  0.37459  0.92090  1.0000
  H   H114      1.0  0.07486  0.35377  0.85803  1.0000
  H   H115      1.0  0.08654  0.33021  0.89805  1.0000
  H   H116      1.0  0.11305  0.36337  0.96840  1.0000
  H   H117      1.0  0.10186  0.38684  0.92732  1.0000
  C   C104      1.0  0.06624  0.46398  0.73292  1.0000
  C   C105      1.0  0.00836  0.44773  0.80315  1.0000
  C   C106      1.0  0.00468  0.43205  0.81766  1.0000
  H   H118      1.0  0.05588  0.47337  0.04462  1.0000
  H   H119      1.0  0.01435  0.42389  0.82838  1.0000
  H   H120      1.0  0.04373  0.40934  0.01750  1.0000
  C   C107      1.0  0.23179  0.26923  0.44788  1.0000
  H   H121      1.0  0.17399  0.40706  0.66309  1.0000
  C   C108      1.0  0.12782  0.47231  0.65144  1.0000
  H   H122      1.0  0.22361  0.29139  0.23286  1.0000
  H   H123      1.0  0.07737  0.46475  0.75129  1.0000
  Fe  Fe21      1.0  0.22801  0.24417  0.77355  1.0000
  H   H124      1.0  0.16289  0.25679  0.27835  1.0000
  H   H125      1.0  0.23035  0.25733  0.39029  1.0000
  H   H126      1.0  0.17599  0.45288  0.58186  1.0000
  C   C109      1.0  0.07190  0.48858  0.69436  1.0000
  C   C110      1.0  0.18394  0.24905  0.87246  1.0000
  C   C111      1.0  0.11734  0.46405  0.73271  1.0000
  C   C112      1.0  0.10909  0.45834  0.69936  1.0000
  C   C113      1.0  0.19304  0.28390  0.26280  1.0000
  H   H127      1.0  0.05725  0.45709  0.75176  1.0000
  H   H128      1.0  0.18582  0.30804  0.15286  1.0000
  H   H129      1.0  0.19299  0.38541  0.64205  1.0000
  H   H130      1.0  0.02427  0.48402  0.02635  1.0000
  C   C114      1.0  0.21724  0.43929  0.52127  1.0000
  C   C115      1.0  0.21436  0.43492  0.48125  1.0000
  C   C116      1.0  0.22227  0.42092  0.46477  1.0000
  H   H131      1.0  0.19198  0.26078  0.77417  1.0000
  H   H132      1.0  0.20612  0.44238  0.46287  1.0000
  H   H133      1.0  0.22004  0.41776  0.43365  1.0000
  H   H134      1.0  0.06672  0.41428  0.06609  1.0000
  C   C117      1.0  0.17845  0.24970  0.13175  1.0000
  C   C118      1.0  0.15887  0.25895  0.07980  1.0000
  C   C119      1.0  0.17150  0.26684  0.05872  1.0000
  C   C120      1.0  0.18743  0.26622  0.07419  1.0000
  C   C121      1.0  0.19103  0.25769  0.11082  1.0000
  H   H135      1.0  0.22790  0.30060  0.18431  1.0000
  H   H136      1.0  0.23036  0.30404  0.58301  1.0000
  H   H137      1.0  0.16896  0.27345  0.03056  1.0000
  H   H138      1.0  0.17950  0.43003  0.54281  1.0000
  C   C122      1.0  0.19105  0.28801  0.22091  1.0000
  C   C123      1.0  0.19252  0.25059  0.83515  1.0000
  C   C124      1.0  0.18548  0.25961  0.80308  1.0000
  C   C125      1.0  0.16977  0.26676  0.80817  1.0000
  C   C126      1.0  0.16117  0.26516  0.84549  1.0000
  C   C127      1.0  0.16835  0.25640  0.87775  1.0000
  H   H139      1.0  0.99822  0.47022  0.77762  1.0000
  H   H140      1.0  0.16427  0.27357  0.78316  1.0000
  S   S45       1.0  0.13293  0.47809  0.59991  1.0000
  H   H141      1.0  0.06951  0.45651  0.70594  1.0000
  H   H142      1.0  0.14879  0.42125  0.66139  1.0000
  H   H143      1.0  0.21894  0.26807  0.45525  1.0000
  H   H144      1.0  0.17576  0.28262  0.16904  1.0000
  H   H145      1.0  0.20583  0.31433  0.25223  1.0000
  C   C128      1.0  0.06715  0.47904  0.03562  1.0000
  H   H146      1.0  0.22954  0.24674  0.03061  1.0000
  H   H147      1.0  0.19802  0.40757  0.52326  1.0000
  H   H148      1.0  0.20515  0.38539  0.57237  1.0000
  H   H149      1.0  0.09317  0.40841  0.97395  1.0000
  H   H150      1.0  0.16181  0.25512  0.90660  1.0000
  H   H151      1.0  0.01157  0.24280  0.92514  1.0000
  C   C129      1.0  0.18291  0.27284  0.28322  1.0000
  S   S46       1.0  0.21169  0.24049  0.82949  1.0000
  C   C130      1.0  0.07046  0.39000  0.00949  1.0000
  H   H152      1.0  0.09867  0.45081  0.70450  1.0000
  C   C131      1.0  0.16809  0.26950  0.22173  1.0000
  H   H153      1.0  0.18500  0.26953  0.31487  1.0000
  H   H154      1.0  0.20909  0.32455  0.20448  1.0000
  H   H155      1.0  0.18097  0.24304  0.15986  1.0000
  H   H156      1.0  0.16524  0.43283  0.68110  1.0000
  H   H157      1.0  0.08289  0.38936  0.06808  1.0000
  H   H158      1.0  0.14337  0.42313  0.58533  1.0000
  C   C132      1.0  0.06473  0.37948  0.97963  1.0000
  H   H159      1.0  0.05122  0.42693  0.98987  1.0000
  H   H160      1.0  0.14699  0.44292  0.66454  1.0000
  H   H161      1.0  0.07279  0.43076  0.03285  1.0000
  H   H162      1.0  0.08739  0.41510  0.04542  1.0000
  N   N7        1.0  0.06942  0.40795  0.00287  1.0000
  Fe  Fe22      1.0  0.22392  0.24729  0.18649  1.0000
  N   N8        1.0  0.14275  0.32857  0.86415  1.0000
  C   C133      1.0  0.14539  0.33396  0.90626  1.0000
  C   C134      1.0  0.13652  0.34300  0.84026  1.0000
  C   C135      1.0  0.12987  0.31633  0.86526  1.0000
  C   C136      1.0  0.15803  0.32107  0.84719  1.0000
  C   C137      1.0  0.16606  0.30795  0.86844  1.0000
  C   C138      1.0  0.16520  0.32618  0.80932  1.0000
  C   C139      1.0  0.18043  0.30055  0.85310  1.0000
  C   C140      1.0  0.17953  0.31858  0.79407  1.0000
  C   C141      1.0  0.18711  0.30579  0.81590  1.0000
  H   H163      1.0  0.15620  0.34174  0.90745  1.0000
  H   H164      1.0  0.13473  0.34112  0.91860  1.0000
  H   H165      1.0  0.14717  0.32353  0.92816  1.0000
  H   H166      1.0  0.14560  0.35278  0.83832  1.0000
  H   H167      1.0  0.12518  0.34845  0.85452  1.0000
  H   H168      1.0  0.13318  0.33962  0.80901  1.0000
  H   H169      1.0  0.13317  0.30554  0.88467  1.0000
  H   H170      1.0  0.11809  0.32138  0.87782  1.0000
  H   H171      1.0  0.12776  0.31160  0.83439  1.0000
  H   H172      1.0  0.16100  0.30293  0.89656  1.0000
  H   H173      1.0  0.15989  0.33587  0.79067  1.0000
  H   H174      1.0  0.18608  0.29027  0.86945  1.0000
  H   H175      1.0  0.18472  0.32245  0.76488  1.0000
  H   H176      1.0  0.19802  0.29967  0.80367  1.0000
  C   C142      1.0  0.09005  0.48150  0.98862  1.0000
  H   H177      1.0  0.08019  0.42586  0.96241  1.0000
  H   H178      1.0  0.14705  0.48486  0.67951  1.0000
  H   H179      1.0  0.99618  0.25467  0.00043  1.0000
  H   H180      1.0  0.18934  0.24209  0.89738  1.0000
  H   H181      1.0  0.07680  0.40674  0.93940  1.0000
  C   C143      1.0  0.07429  0.41731  0.03856  1.0000
  H   H182      1.0  0.04542  0.46948  0.67421  1.0000
  C   C144      1.0  0.07956  0.36541  0.04807  1.0000
  C   C145      1.0  0.05248  0.41336  0.99319  1.0000
  C   C146      1.0  0.99556  0.45808  0.78901  1.0000
  C   C147      1.0  0.11418  0.46261  0.65915  1.0000
  C   C148      1.0  0.23313  0.41106  0.48800  1.0000
  C   C149      1.0  0.07378  0.35548  0.01818  1.0000
  N   N9        1.0  0.05959  0.48031  0.72051  1.0000
  H   H183      1.0  0.21589  0.25038  0.53408  1.0000
  C   C150      1.0  0.08034  0.41242  0.96815  1.0000
  C   C151      1.0  0.16250  0.25040  0.11642  1.0000
  C   C152      1.0  0.19661  0.39510  0.58136  1.0000
  H   H184      1.0  0.04845  0.40861  0.96384  1.0000
  H   H185      1.0  0.20690  0.31131  0.14129  1.0000
  C   C153      1.0  0.99946  0.24902  0.92120  1.0000
  C   C154      1.0  0.06624  0.36251  0.98425  1.0000
  H   H186      1.0  0.13785  0.47781  0.75034  1.0000
  H   H187      1.0  0.20282  0.28879  0.27980  1.0000
  N   N10       1.0  0.20219  0.29948  0.19982  1.0000
  C   C155      1.0  0.21915  0.29273  0.20128  1.0000
  C   C156      1.0  0.19835  0.30266  0.15630  1.0000
  C   C157      1.0  0.20138  0.31539  0.22053  1.0000
  C   C158      1.0  0.13655  0.47739  0.68469  1.0000
  C   C159      1.0  0.17050  0.26561  0.26268  1.0000
  H   H188      1.0  0.19944  0.29123  0.13858  1.0000
  H   H189      1.0  0.00095  0.26223  0.92679  1.0000
  C   C160      1.0  0.07793  0.38243  0.04407  1.0000
  H   H190      1.0  0.18863  0.32045  0.22203  1.0000
  C   C161      1.0  0.22804  0.42938  0.54456  1.0000
  H   H191      1.0  0.15854  0.26370  0.20561  1.0000
  C   C162      1.0  0.17816  0.28051  0.20095  1.0000
  N   N11       1.0  0.16294  0.43430  0.61574  1.0000
  C   C163      1.0  0.17149  0.44995  0.61323  1.0000
  C   C164      1.0  0.14928  0.43511  0.58687  1.0000
  C   C165      1.0  0.15574  0.43263  0.65754  1.0000
  C   C166      1.0  0.17449  0.42077  0.60469  1.0000
  C   C167      1.0  0.17882  0.40776  0.63227  1.0000
  C   C168      1.0  0.18183  0.42035  0.56513  1.0000
  H   H192      1.0  0.10734  0.45853  0.63380  1.0000
  C   C169      1.0  0.07537  0.47419  0.99950  1.0000
  H   H193      1.0  0.09661  0.47783  0.96121  1.0000
  C   C170      1.0  0.19258  0.40761  0.55367  1.0000
  H   H194      1.0  0.16335  0.46043  0.62247  1.0000
  H   H195      1.0  0.18230  0.44962  0.63305  1.0000
  H   H196      1.0  0.15328  0.43877  0.55547  1.0000
  H   H197      1.0  0.13969  0.44433  0.59588  1.0000
  H   H198      1.0  0.15287  0.24421  0.13297  1.0000
  Fe  Fe23      1.0  0.15488  0.48786  0.56246  1.0000
  H   H199      1.0  0.23622  0.28204  0.50182  1.0000
  H   H200      1.0  0.99637  0.24783  0.88867  1.0000
  H   H201      1.0  0.23587  0.30791  0.35285  1.0000
  H   H202      1.0  0.23033  0.43260  0.57560  1.0000
  H   H203      1.0  0.03473  0.47231  0.72121  1.0000
  H   H204      1.0  0.23396  0.24640  0.59282  1.0000
  H   H205      1.0  0.04592  0.48433  0.77669  1.0000
  C   C171      1.0  0.23586  0.41531  0.52821  1.0000
  Fe  Fe24      1.0  0.23922  0.25988  0.69272  1.0000
  C   C172      1.0  0.99335  0.24213  0.99116  1.0000
  H   H206      1.0  0.15297  0.24025  0.74673  1.0000
  C   C173      1.0  0.23817  0.26313  0.41142  1.0000
  H   H207      1.0  0.05929  0.48782  0.63617  1.0000
  H   H208      1.0  0.10653  0.50763  0.62581  1.0000
  H   H209      1.0  0.22409  0.64717  0.62212  1.0000
  S   S47       1.0  0.20168  0.71544  0.32135  1.0000
  H   H210      1.0  0.21513  0.67650  0.66945  1.0000
  C   C174      1.0  0.22822  0.67340  0.66304  1.0000
  S   S48       1.0  0.14586  0.73466  0.19501  1.0000
  Fe  Fe25      1.0  0.10127  0.71846  0.10468  1.0000
  S   S49       1.0  0.10886  0.69556  0.07182  1.0000
  H   H211      1.0  0.12331  0.58427  0.32741  1.0000
  Fe  Fe26      1.0  0.13357  0.71781  0.15166  1.0000
  S   S50       1.0  0.14342  0.69502  0.12150  1.0000
  H   H212      1.0  0.16104  0.52970  0.29877  1.0000
  Fe  Fe27      1.0  0.13351  0.70689  0.06387  1.0000
  S   S51       1.0  0.14393  0.70964  0.99909  1.0000
  Fe  Fe28      1.0  0.11792  0.68541  0.13169  1.0000
  S   S52       1.0  0.11040  0.66174  0.16555  1.0000
  C   C175      1.0  0.99715  0.56174  0.12217  1.0000
  S   S53       1.0  0.10882  0.70779  0.16534  1.0000
  Fe  Fe29      1.0  0.18103  0.51311  0.53759  1.0000
  S   S54       1.0  0.19029  0.53911  0.54501  1.0000
  S   S55       1.0  0.12529  0.73023  0.09337  1.0000
  S   S56       1.0  0.15433  0.51088  0.52278  1.0000
  Fe  Fe30      1.0  0.05798  0.54234  0.18330  1.0000
  S   S57       1.0  0.06914  0.54870  0.12215  1.0000
  S   S58       1.0  0.03068  0.53858  0.19635  1.0000
  Fe  Fe31      1.0  0.09168  0.53808  0.22444  1.0000
  S   S59       1.0  0.10473  0.54386  0.16480  1.0000
  S   S60       1.0  0.10374  0.53698  0.28808  1.0000
  Fe  Fe32      1.0  0.08622  0.56442  0.15572  1.0000
  S   S61       1.0  0.09614  0.58750  0.12358  1.0000
  Fe  Fe33      1.0  0.08690  0.52784  0.13459  1.0000
  S   S62       1.0  0.09715  0.51299  0.08065  1.0000
  S   S63       1.0  0.07374  0.55958  0.21646  1.0000
  S   S64       1.0  0.07507  0.52050  0.19486  1.0000
  H   H213      1.0  0.99721  0.57014  0.09626  1.0000
  C   C176      1.0  0.01224  0.54580  0.17330  1.0000
  H   H214      1.0  0.11537  0.72705  0.93281  1.0000
  C   C177      1.0  0.01209  0.55651  0.13945  1.0000
  H   H215      1.0  0.21696  0.71263  0.24402  1.0000
  H   H216      1.0  0.02348  0.56088  0.12688  1.0000
  C   C178      1.0  0.13981  0.50803  0.37324  1.0000
  N   N12       1.0  0.09537  0.73479  0.97242  1.0000
  H   H217      1.0  0.03611  0.56300  0.04787  1.0000
  C   C179      1.0  0.11767  0.52537  0.32001  1.0000
  C   C180      1.0  0.11934  0.52990  0.36087  1.0000
  C   C181      1.0  0.13020  0.52129  0.38730  1.0000
  H   H218      1.0  0.12164  0.63938  0.30259  1.0000
  H   H219      1.0  0.11197  0.54002  0.37242  1.0000
  H   H220      1.0  0.13106  0.52488  0.41858  1.0000
  C   C182      1.0  0.12730  0.51215  0.30594  1.0000
  C   C183      1.0  0.22530  0.57119  0.57332  1.0000
  C   C184      1.0  0.21086  0.56418  0.56029  1.0000
  C   C185      1.0  0.20898  0.54713  0.56161  1.0000
  C   C186      1.0  0.22188  0.53716  0.57601  1.0000
  C   C187      1.0  0.23019  0.68792  0.55206  1.0000
  H   H221      1.0  0.22643  0.58430  0.57229  1.0000
  H   H222      1.0  0.20099  0.57207  0.54945  1.0000
  H   H223      1.0  0.22067  0.52406  0.57742  1.0000
  N   N13       1.0  0.11651  0.58528  0.26414  1.0000
  H   H224      1.0  0.18781  0.72388  0.90117  1.0000
  H   H225      1.0  0.10811  0.49847  0.00565  1.0000
  H   H226      1.0  0.23094  0.66162  0.67966  1.0000
  S   S65       1.0  0.22515  0.73166  0.82142  1.0000
  C   C188      1.0  0.10514  0.64168  0.15132  1.0000
  C   C189      1.0  0.11039  0.63488  0.11442  1.0000
  C   C190      1.0  0.10734  0.61839  0.10641  1.0000
  C   C191      1.0  0.09892  0.60846  0.13495  1.0000
  C   C192      1.0  0.09329  0.61538  0.17138  1.0000
  C   C193      1.0  0.09646  0.63183  0.17955  1.0000
  H   H227      1.0  0.11716  0.64219  0.09246  1.0000
  H   H228      1.0  0.11172  0.61325  0.07802  1.0000
  H   H229      1.0  0.08654  0.60810  0.19332  1.0000
  H   H230      1.0  0.09236  0.63690  0.20825  1.0000
  C   C194      1.0  0.19671  0.72235  0.96222  1.0000
  C   C195      1.0  0.18466  0.72175  0.93298  1.0000
  C   C196      1.0  0.16856  0.71795  0.94482  1.0000
  C   C197      1.0  0.16427  0.71488  0.98599  1.0000
  C   C198      1.0  0.17625  0.71581  0.01534  1.0000
  C   C199      1.0  0.19238  0.71944  0.00346  1.0000
  H   H231      1.0  0.13027  0.59959  0.19241  1.0000
  H   H232      1.0  0.17316  0.71337  0.04706  1.0000
  C   C200      1.0  0.18043  0.73726  0.28124  1.0000
  H   H233      1.0  0.11417  0.61109  0.31604  1.0000
  C   C201      1.0  0.18607  0.72108  0.28663  1.0000
  H   H234      1.0  0.99670  0.49249  0.00868  1.0000
  H   H235      1.0  0.03746  0.49560  0.08562  1.0000
  C   C202      1.0  0.17924  0.70889  0.26357  1.0000
  C   C203      1.0  0.16702  0.71282  0.23518  1.0000
  H   H236      1.0  0.99719  0.53201  0.21538  1.0000
  H   H237      1.0  0.12316  0.56492  0.30403  1.0000
  C   C204      1.0  0.11911  0.57455  0.22862  1.0000
  H   H238      1.0  0.18342  0.69632  0.26773  1.0000
  H   H239      1.0  0.16185  0.70331  0.21779  1.0000
  C   C205      1.0  0.12149  0.60228  0.25590  1.0000
  S   S66       1.0  0.18998  0.49831  0.48423  1.0000
  H   H240      1.0  0.13331  0.64782  0.23553  1.0000
  H   H241      1.0  0.11523  0.56191  0.23573  1.0000
  C   C206      1.0  0.22793  0.68739  0.59505  1.0000
  S   S67       1.0  0.07527  0.72881  0.09456  1.0000
  H   H242      1.0  0.02280  0.51640  0.12699  1.0000
  H   H243      1.0  0.20887  0.66183  0.60447  1.0000
  H   H244      1.0  0.09592  0.59185  0.30379  1.0000
  H   H245      1.0  0.21404  0.72723  0.60461  1.0000
  C   C207      1.0  0.08833  0.49808  0.05005  1.0000
  Fe  Fe34      1.0  0.21971  0.73182  0.35127  1.0000
  C   C208      1.0  0.09253  0.71741  0.98361  1.0000
  C   C209      1.0  0.13828  0.50365  0.33225  1.0000
  H   H246      1.0  0.10344  0.73495  0.23677  1.0000
  H   H247      1.0  0.13930  0.57862  0.29168  1.0000
  H   H248      1.0  0.18118  0.71491  0.13882  1.0000
  C   C210      1.0  0.22214  0.65861  0.60353  1.0000
  H   H249      1.0  0.08661  0.71619  0.01439  1.0000
  H   H250      1.0  0.10420  0.71004  0.98493  1.0000
  H   H251      1.0  0.15942  0.71720  0.92186  1.0000
  H   H252      1.0  0.23816  0.71470  0.24886  1.0000
  C   C211      1.0  0.00179  0.49814  0.03463  1.0000
  C   C212      1.0  0.16142  0.72902  0.22976  1.0000
  C   C213      1.0  0.23813  0.56124  0.58813  1.0000
  C   C214      1.0  0.09893  0.50043  0.68653  1.0000
  C   C215      1.0  0.13306  0.62371  0.21138  1.0000
  S   S68       1.0  0.22408  0.73240  0.41868  1.0000
  N   N14       1.0  0.17932  0.54807  0.42241  1.0000
  C   C216      1.0  0.19282  0.53568  0.42577  1.0000
  C   C217      1.0  0.18445  0.56302  0.44265  1.0000
  C   C218      1.0  0.16487  0.54197  0.44538  1.0000
  C   C219      1.0  0.17531  0.55077  0.37899  1.0000
  C   C220      1.0  0.17695  0.56608  0.35813  1.0000
  C   C221      1.0  0.16968  0.53774  0.35604  1.0000
  C   C222      1.0  0.17306  0.56805  0.31698  1.0000
  C   C223      1.0  0.16558  0.53989  0.31521  1.0000
  C   C224      1.0  0.16734  0.55500  0.29562  1.0000
  H   H253      1.0  0.20375  0.53947  0.40772  1.0000
  H   H254      1.0  0.19655  0.53370  0.45799  1.0000
  H   H255      1.0  0.18937  0.52355  0.41483  1.0000
  H   H256      1.0  0.19583  0.56780  0.42847  1.0000
  H   H257      1.0  0.18719  0.56054  0.47537  1.0000
  H   H258      1.0  0.17467  0.57274  0.44219  1.0000
  H   H259      1.0  0.16152  0.52960  0.43595  1.0000
  H   H260      1.0  0.16708  0.54086  0.47868  1.0000
  H   H261      1.0  0.15402  0.55026  0.44110  1.0000
  H   H262      1.0  0.18129  0.57667  0.37284  1.0000
  H   H263      1.0  0.16843  0.52570  0.36960  1.0000
  H   H264      1.0  0.23589  0.68258  0.67717  1.0000
  Fe  Fe35      1.0  0.16326  0.49522  0.47112  1.0000
  S   S69       1.0  0.15452  0.49710  0.40440  1.0000
  C   C225      1.0  0.12600  0.57801  0.29829  1.0000
  H   H265      1.0  0.16431  0.55653  0.26379  1.0000
  H   H266      1.0  0.13217  0.57349  0.21909  1.0000
  H   H267      1.0  0.11185  0.57904  0.20214  1.0000
  C   C226      1.0  0.22072  0.71616  0.54792  1.0000
  H   H268      1.0  0.22016  0.70294  0.64607  1.0000
  H   H269      1.0  0.08090  0.49982  0.59494  1.0000
  Fe  Fe36      1.0  0.22930  0.73476  0.88865  1.0000
  C   C227      1.0  0.02520  0.49961  0.07777  1.0000
  C   C228      1.0  0.22822  0.71574  0.22638  1.0000
  H   H270      1.0  0.13780  0.62766  0.18174  1.0000
  C   C229      1.0  0.22667  0.70210  0.52898  1.0000
  H   H271      1.0  0.12628  0.50842  0.27477  1.0000
  H   H272      1.0  0.09133  0.59055  0.25089  1.0000
  C   C230      1.0  0.13049  0.63514  0.24170  1.0000
  H   H273      1.0  0.06267  0.72640  0.98851  1.0000
  C   C231      1.0  0.21850  0.71616  0.59011  1.0000
  C   C232      1.0  0.09893  0.58508  0.27562  1.0000
  C   C233      1.0  0.99292  0.50998  0.05810  1.0000
  C   C234      1.0  0.10413  0.73509  0.93238  1.0000
  C   C235      1.0  0.00109  0.51649  0.09130  1.0000
  H   H274      1.0  0.22861  0.70224  0.49615  1.0000
  C   C236      1.0  0.12376  0.63037  0.27927  1.0000
  C   C237      1.0  0.23630  0.54418  0.58924  1.0000
  N   N15       1.0  0.08985  0.55349  0.00208  1.0000
  C   C238      1.0  0.09710  0.55829  0.04073  1.0000
  C   C239      1.0  0.10080  0.54068  0.98393  1.0000
  C   C240      1.0  0.08965  0.56780  0.97348  1.0000
  C   C241      1.0  0.07300  0.54813  0.01033  1.0000
  C   C242      1.0  0.06819  0.53185  0.00456  1.0000
  C   C243      1.0  0.06086  0.55928  0.02562  1.0000
  C   C244      1.0  0.05233  0.52707  0.01414  1.0000
  C   C245      1.0  0.04502  0.55438  0.03503  1.0000
  C   C246      1.0  0.04079  0.53830  0.02944  1.0000
  H   H275      1.0  0.09753  0.54786  0.06310  1.0000
  H   H276      1.0  0.10978  0.56247  0.03617  1.0000
  H   H277      1.0  0.09006  0.56843  0.05545  1.0000
  H   H278      1.0  0.10237  0.52995  0.00511  1.0000
  H   H279      1.0  0.11328  0.54513  0.97762  1.0000
  H   H280      1.0  0.09608  0.53643  0.95468  1.0000
  H   H281      1.0  0.08345  0.57874  0.98695  1.0000
  H   H282      1.0  0.10220  0.57157  0.96488  1.0000
  H   H283      1.0  0.08330  0.56502  0.94504  1.0000
  H   H284      1.0  0.07654  0.52242  0.99355  1.0000
  H   H285      1.0  0.06369  0.57174  0.03199  1.0000
  S   S70       1.0  0.21739  0.72622  0.94907  1.0000
  H   H286      1.0  0.11758  0.73362  0.00611  1.0000
  H   H287      1.0  0.23207  0.73512  0.03879  1.0000
  C   C247      1.0  0.11941  0.61417  0.28649  1.0000
  C   C248      1.0  0.12858  0.60753  0.21803  1.0000
  C   C249      1.0  0.09678  0.50276  0.64487  1.0000
  H   H288      1.0  0.21804  0.72714  0.52980  1.0000
  H   H289      1.0  0.09483  0.57238  0.28159  1.0000
  H   H290      1.0  0.20226  0.71068  0.18844  1.0000
  H   H291      1.0  0.20160  0.71977  0.02633  1.0000
  N   N16       1.0  0.23177  0.67215  0.61861  1.0000
  C   C250      1.0  0.08235  0.49823  0.62754  1.0000
  C   C251      1.0  0.22209  0.70205  0.61358  1.0000
  C   C252      1.0  0.19017  0.72418  0.14206  1.0000
  H   H292      1.0  0.14561  0.49348  0.32072  1.0000
  H   H293      1.0  0.23472  0.67732  0.53589  1.0000
  H   H294      1.0  0.05191  0.50261  0.74959  1.0000
  H   H295      1.0  0.22559  0.65537  0.57167  1.0000
  H   H296      1.0  0.04913  0.51447  0.01037  1.0000
  H   H297      1.0  0.23073  0.70628  0.20316  1.0000
  H   H298      1.0  0.08484  0.71158  0.96107  1.0000
  C   C253      1.0  0.01692  0.51131  0.10108  1.0000
  H   H299      1.0  0.02861  0.53448  0.03757  1.0000
  H   H300      1.0  0.17455  0.57978  0.30153  1.0000
  C   C254      1.0  0.99725  0.54031  0.18923  1.0000
  C   C255      1.0  0.01771  0.49311  0.04448  1.0000
  H   H301      1.0  0.11038  0.50350  0.69970  1.0000
  C   C256      1.0  0.20245  0.72192  0.17063  1.0000
  H   H302      1.0  0.09625  0.73084  0.90794  1.0000
  H   H303      1.0  0.99526  0.52567  0.11010  1.0000
  C   C257      1.0  0.09655  0.49323  0.01395  1.0000
  C   C258      1.0  0.07350  0.49100  0.06055  1.0000
  H   H304      1.0  0.06717  0.49448  0.08841  1.0000
  N   N17       1.0  0.22687  0.73238  0.20745  1.0000
  C   C259      1.0  0.08681  0.49328  0.71091  1.0000
  C   C260      1.0  0.21408  0.73409  0.17645  1.0000
  C   C261      1.0  0.18904  0.73854  0.11863  1.0000
  C   C262      1.0  0.24044  0.73716  0.69387  1.0000
  S   S71       1.0  0.18067  0.49145  0.58138  1.0000
  H   H305      1.0  0.23995  0.73889  0.72747  1.0000
  H   H306      1.0  0.22775  0.73857  0.68293  1.0000
  H   H307      1.0  0.04168  0.73832  0.08425  1.0000
  H   H308      1.0  0.08488  0.73374  0.21115  1.0000
  H   H309      1.0  0.06639  0.49027  0.77807  1.0000
  H   H310      1.0  0.08955  0.49083  0.74256  1.0000
  C   C263      1.0  0.06450  0.73894  0.97926  1.0000
  C   C264      1.0  0.07002  0.49127  0.65174  1.0000
  C   C265      1.0  0.05584  0.48985  0.75765  1.0000
  H   H311      1.0  0.03846  0.48981  0.68894  1.0000
  S   S72       1.0  0.22184  0.75895  0.34257  1.0000
  H   H312      1.0  0.10605  0.76404  0.14658  1.0000
  H   H313      1.0  0.01060  0.88403  0.32792  1.0000
  Fe  Fe37      1.0  0.23012  0.75850  0.81425  1.0000
  S   S73       1.0  0.21538  0.77251  0.76625  1.0000
  S   S74       1.0  0.23185  0.76193  0.88167  1.0000
  Fe  Fe38      1.0  0.20254  0.85863  0.56079  1.0000
  S   S75       1.0  0.22629  0.86559  0.58731  1.0000
  S   S76       1.0  0.20003  0.84721  0.49902  1.0000
  Fe  Fe39      1.0  0.18146  0.87345  0.62959  1.0000
  S   S77       1.0  0.20374  0.88155  0.66147  1.0000
  S   S78       1.0  0.15627  0.87423  0.66191  1.0000
  Fe  Fe40      1.0  0.21370  0.88982  0.59997  1.0000
  S   S79       1.0  0.22414  0.91554  0.59231  1.0000
  Fe  Fe41      1.0  0.21493  0.85689  0.64699  1.0000
  S   S80       1.0  0.22958  0.84423  0.69740  1.0000
  S   S81       1.0  0.19044  0.88350  0.56914  1.0000
  S   S82       1.0  0.19220  0.84812  0.61940  1.0000
  Fe  Fe42      1.0  0.01285  0.80634  0.04330  1.0000
  H   H314      1.0  0.08572  0.87288  0.55205  1.0000
  S   S83       1.0  0.03955  0.79784  0.05320  1.0000
  H   H315      1.0  0.10213  0.85917  0.60527  1.0000
  H   H316      1.0  0.20403  0.82427  0.86076  1.0000
  S   S84       1.0  0.00688  0.83351  0.04740  1.0000
  Fe  Fe43      1.0  0.05979  0.90388  0.65577  1.0000
  S   S85       1.0  0.05700  0.91225  0.72050  1.0000
  S   S86       1.0  0.08401  0.90059  0.61938  1.0000
  Fe  Fe44      1.0  0.02251  0.90551  0.64305  1.0000
  S   S87       1.0  0.01773  0.91352  0.70777  1.0000
  H   H317      1.0  0.23258  0.76819  0.67785  1.0000
  Fe  Fe45      1.0  0.03834  0.93061  0.69599  1.0000
  S   S88       1.0  0.03369  0.95678  0.71759  1.0000
  Fe  Fe46      1.0  0.03644  0.89442  0.72716  1.0000
  S   S89       1.0  0.03620  0.87680  0.78381  1.0000
  S   S90       1.0  0.04226  0.92348  0.63096  1.0000
  S   S91       1.0  0.04015  0.88517  0.66297  1.0000
  C   C266      1.0  0.05053  0.74916  0.97793  1.0000
  C   C267      1.0  0.00361  0.90582  0.52280  1.0000
  H   H318      1.0  0.01654  0.90526  0.52838  1.0000
  N   N18       1.0  0.04226  0.91690  0.85560  1.0000
  C   C268      1.0  0.03819  0.97524  0.69031  1.0000
  C   C269      1.0  0.05140  0.94090  0.81086  1.0000
  H   H319      1.0  0.16393  0.75374  0.24904  1.0000
  H   H320      1.0  0.22357  0.75699  0.22952  1.0000
  H   H321      1.0  0.02774  0.94941  0.57089  1.0000
  C   C270      1.0  0.00421  0.85636  0.89162  1.0000
  H   H322      1.0  0.06782  0.92699  0.90025  1.0000
  C   C271      1.0  0.00685  0.87368  0.82934  1.0000
  C   C272      1.0  0.02329  0.86886  0.82424  1.0000
  C   C273      1.0  0.03005  0.85771  0.85314  1.0000
  C   C274      1.0  0.02063  0.85149  0.88642  1.0000
  H   H323      1.0  0.11347  0.77639  0.21073  1.0000
  H   H324      1.0  0.06187  0.90112  0.87836  1.0000
  H   H325      1.0  0.04271  0.85383  0.84978  1.0000
  H   H326      1.0  0.02610  0.84296  0.90813  1.0000
  H   H327      1.0  0.16049  0.84162  0.69051  1.0000
  C   C275      1.0  0.13649  0.88261  0.65032  1.0000
  C   C276      1.0  0.13333  0.89153  0.61433  1.0000
  C   C277      1.0  0.11731  0.89729  0.60597  1.0000
  C   C278      1.0  0.10422  0.89438  0.63351  1.0000
  C   C279      1.0  0.10745  0.88573  0.66985  1.0000
  C   C280      1.0  0.12345  0.87986  0.67806  1.0000
  H   H328      1.0  0.14317  0.89392  0.59283  1.0000
  H   H329      1.0  0.11497  0.90390  0.57770  1.0000
  H   H330      1.0  0.09756  0.88329  0.69125  1.0000
  H   H331      1.0  0.12568  0.87303  0.70607  1.0000
  C   C281      1.0  0.04039  0.76426  0.07089  1.0000
  C   C282      1.0  0.04916  0.77851  0.06502  1.0000
  C   C283      1.0  0.06624  0.77748  0.06830  1.0000
  H   H332      1.0  0.02727  0.76482  0.06849  1.0000
  H   H333      1.0  0.07314  0.78842  0.06391  1.0000
  C   C284      1.0  0.21996  0.79225  0.74682  1.0000
  H   H334      1.0  0.01941  0.95277  0.64269  1.0000
  C   C285      1.0  0.00619  0.97498  0.59130  1.0000
  C   C286      1.0  0.22591  0.82402  0.71524  1.0000
  C   C287      1.0  0.21427  0.81449  0.69761  1.0000
  C   C288      1.0  0.21128  0.79872  0.71345  1.0000
  H   H335      1.0  0.05813  0.89951  0.82498  1.0000
  H   H336      1.0  0.20756  0.81926  0.67178  1.0000
  H   H337      1.0  0.20216  0.79150  0.69985  1.0000
  C   C289      1.0  0.18926  0.83181  0.80977  1.0000
  C   C290      1.0  0.21582  0.79389  0.47407  1.0000
  C   C291      1.0  0.21242  0.80485  0.44184  1.0000
  C   C292      1.0  0.20771  0.82119  0.44987  1.0000
  C   C293      1.0  0.20664  0.82677  0.49003  1.0000
  C   C294      1.0  0.21027  0.81586  0.52218  1.0000
  H   H338      1.0  0.01268  0.95192  0.53145  1.0000
  H   H339      1.0  0.09508  0.74551  0.14794  1.0000
  N   N19       1.0  0.17283  0.83930  0.74787  1.0000
  C   C295      1.0  0.16022  0.84941  0.76941  1.0000
  H   H340      1.0  0.18087  0.85916  0.70880  1.0000
  H   H341      1.0  0.17407  0.82422  0.69495  1.0000
  H   H342      1.0  0.16536  0.85620  0.79474  1.0000
  H   H343      1.0  0.15446  0.85873  0.74843  1.0000
  H   H344      1.0  0.15038  0.84174  0.78254  1.0000
  H   H345      1.0  0.19122  0.84453  0.81506  1.0000
  N   N20       1.0  0.09598  0.75742  0.20551  1.0000
  C   C296      1.0  0.21238  0.74870  0.15255  1.0000
  C   C297      1.0  0.06694  0.77214  0.95952  1.0000
  C   C298      1.0  0.04736  0.97527  0.65386  1.0000
  C   C299      1.0  0.08099  0.76753  0.19840  1.0000
  C   C300      1.0  0.08014  0.78469  0.20424  1.0000
  C   C301      1.0  0.06707  0.76051  0.18200  1.0000
  C   C302      1.0  0.06621  0.79410  0.19409  1.0000
  C   C303      1.0  0.05316  0.77000  0.17251  1.0000
  C   C304      1.0  0.05279  0.78678  0.17808  1.0000
  C   C305      1.0  0.10332  0.75299  0.16557  1.0000
  C   C306      1.0  0.06571  0.74819  0.08289  1.0000
  C   C307      1.0  0.04862  0.74923  0.07978  1.0000
  C   C308      1.0  0.08098  0.76201  0.96020  1.0000
  H   H346      1.0  0.08757  0.76198  0.07965  1.0000
  H   H347      1.0  0.99820  0.84912  0.31620  1.0000
  C   C309      1.0  0.08023  0.74509  0.97040  1.0000
  C   C310      1.0  0.23179  0.80165  0.76405  1.0000
  H   H348      1.0  0.04095  0.77373  0.96914  1.0000
  H   H349      1.0  0.09017  0.79120  0.21583  1.0000
  H   H350      1.0  0.22349  0.75183  0.01176  1.0000
  H   H351      1.0  0.06589  0.80721  0.19793  1.0000
  H   H352      1.0  0.04280  0.76440  0.15933  1.0000
  H   H353      1.0  0.04218  0.79414  0.16916  1.0000
  C   C311      1.0  0.00676  0.95044  0.63379  1.0000
  H   H354      1.0  0.01262  0.93462  0.56562  1.0000
  S   S92       1.0  0.00057  0.80431  0.98309  1.0000
  H   H355      1.0  0.10818  0.74749  0.92342  1.0000
  C   C312      1.0  0.06181  0.95380  0.80283  1.0000
  H   H356      1.0  0.23966  0.77027  0.61007  1.0000
  C   C313      1.0  0.05175  0.76573  0.96839  1.0000
  H   H357      1.0  0.99850  0.95590  0.65738  1.0000
  H   H358      1.0  0.02746  0.93065  0.89832  1.0000
  H   H359      1.0  0.19885  0.76213  0.10643  1.0000
  C   C314      1.0  0.99798  0.90658  0.48245  1.0000
  C   C315      1.0  0.07409  0.95700  0.82967  1.0000
  C   C316      1.0  0.99248  0.90560  0.55576  1.0000
  H   H360      1.0  0.06032  0.96132  0.77536  1.0000
  H   H361      1.0  0.99916  0.88924  0.37239  1.0000
  H   H362      1.0  0.19571  0.84295  0.71656  1.0000
  C   C317      1.0  0.06570  0.93431  0.87299  1.0000
  H   H363      1.0  0.00226  0.86581  0.28106  1.0000
  S   S93       1.0  0.22076  0.77294  0.46641  1.0000
  H   H364      1.0  0.21723  0.79108  0.53932  1.0000
  C   C318      1.0  0.20009  0.75080  0.12392  1.0000
  H   H365      1.0  0.23020  0.75472  0.06288  1.0000
  H   H366      1.0  0.10351  0.77009  0.25829  1.0000
  H   H367      1.0  0.23856  0.79680  0.78976  1.0000
  C   C319      1.0  0.23323  0.74850  0.03385  1.0000
  H   H368      1.0  0.20025  0.79476  0.85158  1.0000
  H   H369      1.0  0.11488  0.74574  0.16922  1.0000
  C   C320      1.0  0.02906  0.91543  0.82586  1.0000
  C   C321      1.0  0.05297  0.93078  0.84637  1.0000
  H   H370      1.0  0.00135  0.88217  0.80757  1.0000
  C   C322      1.0  0.10613  0.74120  0.00340  1.0000
  H   H371      1.0  0.04454  0.89068  0.86221  1.0000
  H   H372      1.0  0.02108  0.92666  0.82427  1.0000
  C   C323      1.0  0.07605  0.94727  0.86470  1.0000
  C   C324      1.0  0.18467  0.79856  0.80043  1.0000
  C   C325      1.0  0.17760  0.80990  0.77313  1.0000
  H   H373      1.0  0.17070  0.80491  0.74912  1.0000
  H   H374      1.0  0.18540  0.74674  0.29913  1.0000
  H   H375      1.0  0.21317  0.80067  0.41085  1.0000
  H   H376      1.0  0.24071  0.76556  0.53746  1.0000
  C   C326      1.0  0.19430  0.80372  0.83160  1.0000
  C   C327      1.0  0.19650  0.82032  0.83647  1.0000
  C   C328      1.0  0.10850  0.76585  0.22843  1.0000
  C   C329      1.0  0.99745  0.86751  0.86271  1.0000
  H   H377      1.0  0.23336  0.94895  0.58155  1.0000
  H   H378      1.0  0.02108  0.90506  0.83389  1.0000
  C   C330      1.0  0.05216  0.90145  0.85543  1.0000
  H   H379      1.0  0.06700  0.74771  0.17474  1.0000
  N   N21       1.0  0.14902  0.85673  0.51998  1.0000
  C   C331      1.0  0.15734  0.87189  0.50723  1.0000
  C   C332      1.0  0.15782  0.84951  0.55539  1.0000
  C   C333      1.0  0.15069  0.84494  0.48646  1.0000
  C   C334      1.0  0.13154  0.86049  0.52896  1.0000
  C   C335      1.0  0.12156  0.86799  0.49865  1.0000
  C   C336      1.0  0.12397  0.85710  0.56756  1.0000
  C   C337      1.0  0.10519  0.87228  0.50686  1.0000
  C   C338      1.0  0.10754  0.86126  0.57520  1.0000
  C   C339      1.0  0.09824  0.86902  0.54516  1.0000
  H   H380      1.0  0.15593  0.88128  0.53110  1.0000
  H   H381      1.0  0.17065  0.86955  0.50150  1.0000
  H   H382      1.0  0.15258  0.87739  0.47851  1.0000
  H   H383      1.0  0.15757  0.85804  0.58131  1.0000
  H   H384      1.0  0.17088  0.84680  0.54757  1.0000
  H   H385      1.0  0.15266  0.83770  0.56580  1.0000
  H   H386      1.0  0.14568  0.84997  0.45751  1.0000
  H   H387      1.0  0.16375  0.84151  0.47979  1.0000
  H   H388      1.0  0.14426  0.83350  0.49440  1.0000
  H   H389      1.0  0.12641  0.87086  0.46857  1.0000
  H   H390      1.0  0.13053  0.85176  0.59292  1.0000
  H   H391      1.0  0.09790  0.87845  0.48372  1.0000
  C   C340      1.0  0.21470  0.79949  0.51421  1.0000
  H   H392      1.0  0.15443  0.82479  0.72168  1.0000
  H   H393      1.0  0.20946  0.81998  0.55321  1.0000
  C   C341      1.0  0.16515  0.83206  0.71232  1.0000
  H   H394      1.0  0.19117  0.85747  0.75537  1.0000
  H   H395      1.0  0.05189  0.96384  0.64146  1.0000
  H   H396      1.0  0.08531  0.74493  0.25757  1.0000
  C   C342      1.0  0.07448  0.76245  0.07715  1.0000
  H   H397      1.0  0.04323  0.91806  0.92134  1.0000
  C   C343      1.0  0.18570  0.85014  0.73164  1.0000
  C   C344      1.0  0.17990  0.82693  0.77660  1.0000
  S   S94       1.0  0.99869  0.90476  0.60754  1.0000
  H   H398      1.0  0.20491  0.82954  0.42481  1.0000
  C   C345      1.0  0.22306  0.74404  0.24027  1.0000
  H   H399      1.0  0.06781  0.78513  0.95305  1.0000
  H   H400      1.0  0.03407  0.91288  0.79480  1.0000
  C   C346      1.0  0.99659  0.98538  0.61697  1.0000
  C   C347      1.0  0.03434  0.91874  0.89640  1.0000
  H   H401      1.0  0.02559  0.90886  0.90325  1.0000
  H   H402      1.0  0.18323  0.78558  0.79647  1.0000
  H   H403      1.0  0.00672  0.90666  0.45729  1.0000
  H   H404      1.0  0.04226  0.93909  0.78852  1.0000
  N   N22       1.0  0.00371  0.95714  0.59226  1.0000
  Fe  Fe47      1.0  0.22852  0.75924  0.40905  1.0000
  H   H405      1.0  0.11930  0.75761  0.23479  1.0000
  C   C348      1.0  0.16821  0.74119  0.25288  1.0000
  H   H406      1.0  0.00513  0.93702  0.63587  1.0000
  H   H407      1.0  0.08571  0.94974  0.88538  1.0000
  C   C349      1.0  0.01470  0.94799  0.56364  1.0000
  C   C350      1.0  0.01836  0.98249  0.56631  1.0000
  H   H408      1.0  0.02649  0.97564  0.54634  1.0000
  H   H409      1.0  0.03870  0.74436  0.98595  1.0000
  Fe  Fe48      1.0  0.99339  0.83093  0.98871  1.0000
  C   C351      1.0  0.00226  0.87891  0.35181  1.0000
  H   H410      1.0  0.21074  0.74217  0.25379  1.0000
  H   H411      1.0  0.10991  0.75383  0.99614  1.0000
  C   C352      1.0  0.23470  0.81748  0.74839  1.0000
  H   H412      1.0  0.08214  0.96700  0.82310  1.0000
  H   H413      1.0  0.09249  0.76762  0.95354  1.0000
  H   H414      1.0  0.00920  0.86929  0.36925  1.0000
  H   H415      1.0  0.23180  0.74253  0.26541  1.0000
  C   C353      1.0  0.99291  0.86056  0.30226  1.0000
  H   H416      1.0  0.09987  0.74127  0.03382  1.0000
  H   H417      1.0  0.22027  0.75878  0.15676  1.0000
  H   H418      1.0  0.23817  0.77208  0.98069  1.0000
  S   S95       1.0  0.99156  0.84911  0.93334  1.0000
  C   C354      1.0  0.09217  0.74218  0.22878  1.0000
  H   H419      1.0  0.23143  0.89858  0.71096  1.0000
  H   H420      1.0  0.23515  0.87857  0.73079  1.0000
  H   H421      1.0  0.17932  0.74026  0.09699  1.0000
  C   C355      1.0  0.31267  0.16775  0.17078  1.0000
  H   H422      1.0  0.24943  0.09745  0.36447  1.0000
  H   H423      1.0  0.36662  0.14678  0.08616  1.0000
  H   H424      1.0  0.27708  0.10059  0.48655  1.0000
  S   S96       1.0  0.24843  0.19843  0.68252  1.0000
  C   C356      1.0  0.32615  0.19339  0.17237  1.0000
  Fe  Fe49      1.0  0.32416  0.00297  0.57763  1.0000
  S   S97       1.0  0.31942  0.01620  0.51730  1.0000
  S   S98       1.0  0.34242  0.01612  0.61773  1.0000
  C   C357      1.0  0.29773  0.20650  0.10638  1.0000
  H   H425      1.0  0.24755  0.20501  0.05066  1.0000
  Fe  Fe50      1.0  0.29307  0.01035  0.52837  1.0000
  S   S99       1.0  0.27088  0.02614  0.50773  1.0000
  H   H426      1.0  0.34744  0.15799  0.03244  1.0000
  Fe  Fe51      1.0  0.39175  0.03419  0.83503  1.0000
  S   S100      1.0  0.40735  0.05481  0.81377  1.0000
  S   S101      1.0  0.37354  0.02089  0.79563  1.0000
  Fe  Fe52      1.0  0.40679  0.03362  0.92116  1.0000
  S   S102      1.0  0.42332  0.05449  0.90424  1.0000
  S   S103      1.0  0.40973  0.02313  0.98623  1.0000
  Fe  Fe53      1.0  0.40114  0.06633  0.87459  1.0000
  S   S104      1.0  0.39182  0.09321  0.86894  1.0000
  Fe  Fe54      1.0  0.42816  0.04147  0.84529  1.0000
  S   S105      1.0  0.45184  0.03281  0.81239  1.0000
  S   S106      1.0  0.38442  0.04616  0.89450  1.0000
  S   S107      1.0  0.41277  0.02011  0.86387  1.0000
  Fe  Fe55      1.0  0.38245  0.21641  0.94712  1.0000
  S   S108      1.0  0.37983  0.20251  0.00695  1.0000
  C   C358      1.0  0.29710  0.22418  0.80236  1.0000
  Fe  Fe56      1.0  0.34995  0.20379  0.91807  1.0000
  S   S109      1.0  0.34498  0.18935  0.97572  1.0000
  S   S110      1.0  0.33304  0.20094  0.86557  1.0000
  Fe  Fe57      1.0  0.35339  0.21144  0.00724  1.0000
  S   S111      1.0  0.34136  0.22359  0.06311  1.0000
  Fe  Fe58      1.0  0.37145  0.18119  0.97071  1.0000
  S   S112      1.0  0.37894  0.15445  0.98667  1.0000
  S   S113      1.0  0.35657  0.22658  0.94940  1.0000
  S   S114      1.0  0.37588  0.19438  0.91117  1.0000
  H   H427      1.0  0.29064  0.19574  0.10305  1.0000
  C   C359      1.0  0.38855  0.11003  0.90256  1.0000
  C   C360      1.0  0.39091  0.10866  0.94463  1.0000
  C   C361      1.0  0.38795  0.12232  0.96971  1.0000
  C   C362      1.0  0.38264  0.13761  0.95331  1.0000
  C   C363      1.0  0.38029  0.13896  0.91125  1.0000
  C   C364      1.0  0.38319  0.12530  0.88621  1.0000
  H   H428      1.0  0.39501  0.09708  0.95789  1.0000
  H   H429      1.0  0.38985  0.12103  0.00210  1.0000
  H   H430      1.0  0.37622  0.15055  0.89796  1.0000
  H   H431      1.0  0.38133  0.12662  0.85381  1.0000
  C   C365      1.0  0.47533  0.05549  0.82946  1.0000
  C   C366      1.0  0.47191  0.04060  0.81210  1.0000
  H   H432      1.0  0.36456  0.15417  0.13729  1.0000
  H   H433      1.0  0.46559  0.06272  0.84354  1.0000
  S   S115      1.0  0.29736  0.99820  0.58997  1.0000
  C   C367      1.0  0.45697  0.99373  0.03467  1.0000
  H   H434      1.0  0.25666  0.07200  0.39136  1.0000
  H   H435      1.0  0.28855  0.22093  0.77962  1.0000
  C   C368      1.0  0.40415  0.00448  0.01130  1.0000
  C   C369      1.0  0.40829  0.00174  0.05236  1.0000
  H   H436      1.0  0.24261  0.21334  0.09998  1.0000
  C   C370      1.0  0.48482  0.03148  0.79372  1.0000
  H   H437      1.0  0.41443  0.01112  0.06806  1.0000
  H   H438      1.0  0.33133  0.15087  0.06457  1.0000
  C   C371      1.0  0.35060  0.01738  0.66780  1.0000
  C   C372      1.0  0.34618  0.00688  0.70020  1.0000
  C   C373      1.0  0.35331  0.00819  0.73880  1.0000
  C   C374      1.0  0.36496  0.02001  0.74590  1.0000
  C   C375      1.0  0.36930  0.03059  0.71355  1.0000
  C   C376      1.0  0.36219  0.02925  0.67495  1.0000
  H   H439      1.0  0.44596  0.01279  0.73200  1.0000
  H   H440      1.0  0.39278  0.99415  0.96003  1.0000
  H   H441      1.0  0.37806  0.03985  0.71810  1.0000
  H   H442      1.0  0.36573  0.03749  0.65032  1.0000
  N   N23       1.0  0.41989  0.01161  0.72587  1.0000
  H   H443      1.0  0.36152  0.22019  0.85176  1.0000
  C   C377      1.0  0.26085  0.04464  0.52376  1.0000
  C   C378      1.0  0.26589  0.05332  0.55711  1.0000
  H   H444      1.0  0.38282  0.22312  0.85708  1.0000
  N   N24       1.0  0.24916  0.23112  0.05330  1.0000
  H   H445      1.0  0.27620  0.04875  0.57434  1.0000
  C   C379      1.0  0.29264  0.21823  0.13509  1.0000
  C   C380      1.0  0.33374  0.23665  0.75603  1.0000
  C   C381      1.0  0.44303  0.99589  0.97064  1.0000
  C   C382      1.0  0.32192  0.22173  0.08793  1.0000
  C   C383      1.0  0.31211  0.20836  0.08242  1.0000
  H   H446      1.0  0.44000  0.00277  0.94308  1.0000
  H   H447      1.0  0.47183  0.00253  0.88417  1.0000
  H   H448      1.0  0.29057  0.23332  0.92271  1.0000
  C   C384      1.0  0.30755  0.21214  0.81966  1.0000
  H   H449      1.0  0.30694  0.19962  0.81019  1.0000
  H   H450      1.0  0.36824  0.18179  0.10591  1.0000
  C   C385      1.0  0.25751  0.06793  0.56834  1.0000
  H   H451      1.0  0.27466  0.04923  0.41093  1.0000
  C   C386      1.0  0.31903  0.21622  0.84834  1.0000
  H   H452      1.0  0.48235  0.02000  0.77994  1.0000
  C   C387      1.0  0.33766  0.18787  0.14334  1.0000
  C   C388      1.0  0.31357  0.18345  0.18569  1.0000
  H   H453      1.0  0.43919  0.01701  0.68184  1.0000
  Fe  Fe59      1.0  0.32297  0.99174  0.48731  1.0000
  C   C389      1.0  0.41901  0.00282  0.76593  1.0000
  H   H454      1.0  0.40422  0.03137  0.74617  1.0000
  S   S116      1.0  0.33582  0.98997  0.42349  1.0000
  N   N25       1.0  0.34836  0.16600  0.09458  1.0000
  C   C390      1.0  0.26509  0.08890  0.43681  1.0000
  C   C391      1.0  0.27635  0.08974  0.46878  1.0000
  C   C392      1.0  0.26489  0.07395  0.41572  1.0000
  C   C393      1.0  0.28665  0.07644  0.47917  1.0000
  C   C394      1.0  0.27529  0.06073  0.42637  1.0000
  C   C395      1.0  0.28613  0.06198  0.45797  1.0000
  C   C396      1.0  0.40792  0.01270  0.65600  1.0000
  C   C397      1.0  0.28221  0.23307  0.94884  1.0000
  H   H455      1.0  0.27170  0.12137  0.43917  1.0000
  H   H456      1.0  0.39622  0.01374  0.59778  1.0000
  C   C398      1.0  0.35766  0.15136  0.10971  1.0000
  S   S117      1.0  0.25003  0.22717  0.77493  1.0000
  H   H457      1.0  0.31593  0.19913  0.06096  1.0000
  C   C399      1.0  0.48019  0.01155  0.89383  1.0000
  H   H458      1.0  0.43940  0.99633  0.70159  1.0000
  H   H459      1.0  0.42551  0.03389  0.75521  1.0000
  H   H460      1.0  0.24332  0.04421  0.47610  1.0000
  H   H461      1.0  0.29480  0.07716  0.50448  1.0000
  C   C400      1.0  0.47403  0.02648  0.90779  1.0000
  H   H462      1.0  0.29377  0.05150  0.46690  1.0000
  S   S118      1.0  0.27497  0.21461  0.16625  1.0000
  H   H463      1.0  0.45920  0.01379  0.99128  1.0000
  H   H464      1.0  0.41645  0.02181  0.64609  1.0000
  H   H465      1.0  0.27211  0.11438  0.38772  1.0000
  H   H466      1.0  0.25146  0.11110  0.48938  1.0000
  H   H467      1.0  0.24602  0.16673  0.64887  1.0000
  N   N26       1.0  0.25416  0.10311  0.42689  1.0000
  C   C401      1.0  0.41675  0.02920  0.73330  1.0000
  Fe  Fe60      1.0  0.24565  0.22378  0.70852  1.0000
  C   C402      1.0  0.26396  0.11733  0.41429  1.0000
  H   H468      1.0  0.46098  0.02906  0.90867  1.0000
  Fe  Fe61      1.0  0.25691  0.23036  0.20458  1.0000
  C   C403      1.0  0.24277  0.10015  0.39355  1.0000
  C   C404      1.0  0.43679  0.00930  0.70946  1.0000
  H   H469      1.0  0.34932  0.22038  0.78858  1.0000
  H   H470      1.0  0.47980  0.05020  0.92826  1.0000
  C   C405      1.0  0.39642  0.00815  0.62803  1.0000
  H   H471      1.0  0.34559  0.99481  0.33928  1.0000
  H   H472      1.0  0.34976  0.99993  0.76340  1.0000
  C   C406      1.0  0.31671  0.23355  0.11625  1.0000
  S   S119      1.0  0.25388  0.23283  0.27341  1.0000
  C   C407      1.0  0.30207  0.23196  0.13928  1.0000
  C   C408      1.0  0.37251  0.22512  0.83595  1.0000
  N   N27       1.0  0.35586  0.07523  0.78863  1.0000
  C   C409      1.0  0.37269  0.07614  0.77158  1.0000
  C   C410      1.0  0.34953  0.09203  0.79689  1.0000
  C   C411      1.0  0.35675  0.06627  0.82842  1.0000
  C   C412      1.0  0.34551  0.06737  0.75893  1.0000
  C   C413      1.0  0.33816  0.05210  0.76693  1.0000
  C   C414      1.0  0.34312  0.07468  0.71978  1.0000
  C   C415      1.0  0.32911  0.04471  0.73739  1.0000
  C   C416      1.0  0.33414  0.06710  0.69038  1.0000
  C   C417      1.0  0.32722  0.05210  0.69912  1.0000
  H   H473      1.0  0.37337  0.08383  0.74333  1.0000
  H   H474      1.0  0.38101  0.08159  0.79344  1.0000
  H   H475      1.0  0.37772  0.06375  0.76425  1.0000
  H   H476      1.0  0.35004  0.10021  0.76949  1.0000
  H   H477      1.0  0.35684  0.09794  0.82036  1.0000
  H   H478      1.0  0.33666  0.09193  0.80829  1.0000
  H   H479      1.0  0.34450  0.06521  0.84326  1.0000
  H   H480      1.0  0.36235  0.05381  0.82497  1.0000
  H   H481      1.0  0.36442  0.07262  0.85026  1.0000
  H   H482      1.0  0.33961  0.04532  0.79529  1.0000
  H   H483      1.0  0.34848  0.08618  0.71131  1.0000
  H   H484      1.0  0.32401  0.03284  0.74370  1.0000
  H   H485      1.0  0.33276  0.07270  0.66038  1.0000
  H   H486      1.0  0.32068  0.04598  0.67589  1.0000
  H   H487      1.0  0.32290  0.14984  0.13103  1.0000
  H   H488      1.0  0.24699  0.21935  0.60711  1.0000
  H   H489      1.0  0.30431  0.18810  0.20691  1.0000
  H   H490      1.0  0.36873  0.17341  0.05638  1.0000
  H   H491      1.0  0.30279  0.16011  0.18108  1.0000
  H   H492      1.0  0.26145  0.07443  0.59443  1.0000
  H   H493      1.0  0.34966  0.14105  0.11773  1.0000
  C   C418      1.0  0.38477  0.99684  0.63928  1.0000
  H   H494      1.0  0.34663  0.19654  0.13335  1.0000
  H   H495      1.0  0.32656  0.20576  0.18326  1.0000
  C   C419      1.0  0.33689  0.17203  0.12680  1.0000
  H   H496      1.0  0.33112  0.17187  0.04780  1.0000
  H   H497      1.0  0.35417  0.18944  0.06787  1.0000
  S   S120      1.0  0.40422  0.23079  0.92058  1.0000
  C   C420      1.0  0.48467  0.03839  0.91877  1.0000
  H   H498      1.0  0.40698  0.00503  0.78165  1.0000
  C   C421      1.0  0.25069  0.21456  0.07237  1.0000
  C   C422      1.0  0.33914  0.16149  0.05844  1.0000
  H   H499      1.0  0.33732  0.99768  0.69550  1.0000
  C   C423      1.0  0.36036  0.17824  0.08076  1.0000
  C   C424      1.0  0.32419  0.16204  0.14198  1.0000
  H   H500      1.0  0.37555  0.21759  0.80895  1.0000
  H   H501      1.0  0.41793  0.03687  0.70512  1.0000
  C   C425      1.0  0.24736  0.05084  0.50186  1.0000
  C   C426      1.0  0.40802  0.00605  0.69635  1.0000
  H   H502      1.0  0.26325  0.21164  0.08276  1.0000
  H   H503      1.0  0.38051  0.99244  0.38935  1.0000
  C   C427      1.0  0.31976  0.23242  0.86044  1.0000
  H   H504      1.0  0.46532  0.99911  0.05495  1.0000
  C   C428      1.0  0.39610  0.99226  0.99149  1.0000
  H   H505      1.0  0.42835  0.00704  0.78703  1.0000
  C   C429      1.0  0.39589  0.99458  0.70688  1.0000
  H   H506      1.0  0.37547  0.99381  0.61805  1.0000
  H   H507      1.0  0.32644  0.22683  0.74573  1.0000
  H   H508      1.0  0.25602  0.12811  0.40548  1.0000
  C   C430      1.0  0.45374  0.00214  0.99804  1.0000
  H   H509      1.0  0.45720  0.99214  0.11870  1.0000
  C   C431      1.0  0.26026  0.23214  0.01713  1.0000
  H   H510      1.0  0.28259  0.22817  0.05123  1.0000
  H   H511      1.0  0.24436  0.18140  0.50633  1.0000
  C   C432      1.0  0.24409  0.07418  0.54629  1.0000
  C   C433      1.0  0.38455  0.99004  0.67853  1.0000
  C   C434      1.0  0.25461  0.23479  0.97678  1.0000
  C   C435      1.0  0.24411  0.10750  0.46331  1.0000
  H   H512      1.0  0.32848  0.23565  0.88270  1.0000
  C   C436      1.0  0.28814  0.23057  0.98795  1.0000
  C   C437      1.0  0.34702  0.23313  0.78094  1.0000
  C   C438      1.0  0.27738  0.23015  0.02160  1.0000
  H   H513      1.0  0.30117  0.22892  0.99226  1.0000
  C   C439      1.0  0.26550  0.23524  0.94330  1.0000
  H   H514      1.0  0.24186  0.23654  0.97014  1.0000
  H   H515      1.0  0.24203  0.19630  0.56513  1.0000
  H   H516      1.0  0.26098  0.23725  0.91272  1.0000
  C   C440      1.0  0.45365  0.39613  0.84310  1.0000
  H   H517      1.0  0.45361  0.30219  0.17948  1.0000
  H   H518      1.0  0.26221  0.42069  0.42893  1.0000
  C   C441      1.0  0.41685  0.38355  0.43852  1.0000
  C   C442      1.0  0.43465  0.27322  0.10364  1.0000
  S   S121      1.0  0.24934  0.25662  0.19154  1.0000
  Fe  Fe62      1.0  0.41600  0.39973  0.58573  1.0000
  S   S122      1.0  0.44057  0.38667  0.59349  1.0000
  S   S123      1.0  0.39690  0.38531  0.55211  1.0000
  Fe  Fe63      1.0  0.42750  0.43011  0.63059  1.0000
  S   S124      1.0  0.45249  0.41897  0.64085  1.0000
  S   S125      1.0  0.41704  0.45410  0.65680  1.0000
  Fe  Fe64      1.0  0.45138  0.41086  0.57554  1.0000
  S   S126      1.0  0.47240  0.41758  0.53152  1.0000
  Fe  Fe65      1.0  0.43985  0.39562  0.65807  1.0000
  S   S127      1.0  0.44116  0.37940  0.71655  1.0000
  S   S128      1.0  0.42694  0.42342  0.56441  1.0000
  S   S129      1.0  0.41472  0.40722  0.65098  1.0000
  Fe  Fe66      1.0  0.27813  0.34967  0.54176  1.0000
  S   S130      1.0  0.30068  0.34596  0.50282  1.0000
  S   S131      1.0  0.27919  0.33594  0.60209  1.0000
  Fe  Fe67      1.0  0.26378  0.37594  0.48429  1.0000
  S   S132      1.0  0.28554  0.37361  0.44108  1.0000
  C   C443      1.0  0.43070  0.25078  0.91294  1.0000
  Fe  Fe68      1.0  0.28328  0.34630  0.45054  1.0000
  S   S133      1.0  0.28843  0.32600  0.40446  1.0000
  Fe  Fe69      1.0  0.30096  0.37332  0.49723  1.0000
  S   S134      1.0  0.32081  0.39166  0.51003  1.0000
  S   S135      1.0  0.26066  0.34859  0.49028  1.0000
  S   S136      1.0  0.27920  0.37701  0.53957  1.0000
  H   H519      1.0  0.41362  0.42842  0.72583  1.0000
  Fe  Fe70      1.0  0.47382  0.30026  0.95290  1.0000
  H   H520      1.0  0.47945  0.28429  0.06148  1.0000
  S   S137      1.0  0.45009  0.28827  0.97542  1.0000
  H   H521      1.0  0.42565  0.45250  0.75898  1.0000
  H   H522      1.0  0.43852  0.44890  0.80208  1.0000
  C   C444      1.0  0.48290  0.29142  0.08813  1.0000
  S   S138      1.0  0.47615  0.32743  0.96243  1.0000
  C   C445      1.0  0.28629  0.28855  0.47998  1.0000
  C   C446      1.0  0.33814  0.26545  0.76065  1.0000
  S   S139      1.0  0.26204  0.24410  0.68864  1.0000
  C   C447      1.0  0.44101  0.26334  0.92412  1.0000
  C   C448      1.0  0.43769  0.27206  0.95966  1.0000
  C   C449      1.0  0.42392  0.26791  0.98380  1.0000
  S   S140      1.0  0.48974  0.34762  0.84982  1.0000
  H   H523      1.0  0.45149  0.26632  0.90512  1.0000
  H   H524      1.0  0.42107  0.27463  0.01110  1.0000
  C   C450      1.0  0.47693  0.32363  0.75210  1.0000
  C   C451      1.0  0.45506  0.37049  0.75268  1.0000
  C   C452      1.0  0.47168  0.37381  0.75203  1.0000
  C   C453      1.0  0.35160  0.26209  0.78513  1.0000
  C   C454      1.0  0.47600  0.35604  0.81272  1.0000
  C   C455      1.0  0.45939  0.35269  0.81327  1.0000
  C   C456      1.0  0.44904  0.35990  0.78357  1.0000
  H   H525      1.0  0.47657  0.38190  0.72864  1.0000
  H   H526      1.0  0.41915  0.40806  0.74369  1.0000
  H   H527      1.0  0.45450  0.34462  0.83672  1.0000
  H   H528      1.0  0.43622  0.35726  0.78463  1.0000
  C   C457      1.0  0.37568  0.38741  0.54110  1.0000
  C   C458      1.0  0.36796  0.37423  0.52374  1.0000
  C   C459      1.0  0.35124  0.37522  0.51425  1.0000
  C   C460      1.0  0.34198  0.38954  0.52153  1.0000
  C   C461      1.0  0.34972  0.40277  0.53867  1.0000
  C   C462      1.0  0.36639  0.40169  0.54869  1.0000
  H   H529      1.0  0.37497  0.36310  0.51768  1.0000
  H   H530      1.0  0.34560  0.36495  0.50087  1.0000
  H   H531      1.0  0.34276  0.41394  0.54445  1.0000
  H   H532      1.0  0.37207  0.41197  0.56194  1.0000
  C   C463      1.0  0.48276  0.40867  0.48876  1.0000
  C   C464      1.0  0.26472  0.27285  0.42757  1.0000
  H   H533      1.0  0.46462  0.32191  0.76374  1.0000
  C   C465      1.0  0.42806  0.44410  0.78563  1.0000
  H   H534      1.0  0.25365  0.25578  0.06987  1.0000
  C   C466      1.0  0.44270  0.39533  0.87602  1.0000
  N   N28       1.0  0.26883  0.28826  0.49289  1.0000
  H   H535      1.0  0.43342  0.24421  0.88531  1.0000
  Fe  Fe71      1.0  0.26417  0.24893  0.75548  1.0000
  C   C467      1.0  0.42592  0.47363  0.66018  1.0000
  C   C468      1.0  0.44279  0.47556  0.65828  1.0000
  H   H536      1.0  0.40266  0.48618  0.66895  1.0000
  H   H537      1.0  0.45084  0.46505  0.65333  1.0000
  H   H538      1.0  0.27717  0.27422  0.41707  1.0000
  H   H539      1.0  0.38802  0.24197  0.77625  1.0000
  H   H540      1.0  0.47454  0.32143  0.05662  1.0000
  C   C469      1.0  0.25609  0.29356  0.32817  1.0000
  H   H541      1.0  0.24406  0.40784  0.54665  1.0000
  C   C470      1.0  0.25858  0.31598  0.37591  1.0000
  C   C471      1.0  0.27555  0.31375  0.37549  1.0000
  C   C472      1.0  0.28268  0.30126  0.35154  1.0000
  C   C473      1.0  0.27305  0.29121  0.32810  1.0000
  H   H542      1.0  0.44529  0.38712  0.90161  1.0000
  H   H543      1.0  0.30113  0.45764  0.46084  1.0000
  H   H544      1.0  0.29579  0.29941  0.35084  1.0000
  H   H545      1.0  0.27877  0.28177  0.30970  1.0000
  H   H546      1.0  0.40614  0.42112  0.77421  1.0000
  C   C474      1.0  0.27540  0.42211  0.42177  1.0000
  C   C475      1.0  0.25958  0.29522  0.65239  1.0000
  C   C476      1.0  0.26982  0.30830  0.64347  1.0000
  C   C477      1.0  0.26599  0.31975  0.61244  1.0000
  H   H547      1.0  0.27023  0.31277  0.51472  1.0000
  C   C478      1.0  0.48037  0.39262  0.47731  1.0000
  H   H548      1.0  0.26267  0.28640  0.67628  1.0000
  H   H549      1.0  0.28077  0.30950  0.66067  1.0000
  C   C479      1.0  0.41698  0.24656  0.93718  1.0000
  C   C480      1.0  0.45033  0.40644  0.80956  1.0000
  C   C481      1.0  0.43543  0.28510  0.16994  1.0000
  H   H550      1.0  0.25300  0.43763  0.47771  1.0000
  H   H551      1.0  0.35811  0.27233  0.79574  1.0000
  H   H552      1.0  0.45229  0.28088  0.05958  1.0000
  H   H553      1.0  0.27573  0.28720  0.55608  1.0000
  C   C482      1.0  0.26141  0.44745  0.47769  1.0000
  H   H554      1.0  0.42469  0.42117  0.47213  1.0000
  C   C483      1.0  0.45591  0.39366  0.35469  1.0000
  H   H555      1.0  0.40319  0.25229  0.99175  1.0000
  C   C484      1.0  0.48202  0.36670  0.78193  1.0000
  H   H556      1.0  0.24233  0.46445  0.49693  1.0000
  C   C485      1.0  0.24896  0.30598  0.35236  1.0000
  H   H557      1.0  0.26047  0.48793  0.49784  1.0000
  C   C486      1.0  0.44041  0.40034  0.41742  1.0000
  H   H558      1.0  0.38490  0.26167  0.79851  1.0000
  C   C487      1.0  0.25459  0.26485  0.40146  1.0000
  N   N29       1.0  0.28439  0.42816  0.45676  1.0000
  H   H559      1.0  0.43644  0.37968  0.37775  1.0000
  H   H560      1.0  0.42344  0.37155  0.43541  1.0000
  H   H561      1.0  0.41193  0.41649  0.43062  1.0000
  H   H562      1.0  0.41046  0.38673  0.40977  1.0000
  H   H563      1.0  0.44420  0.40070  0.49874  1.0000
  H   H564      1.0  0.40781  0.40862  0.48145  1.0000
  H   H565      1.0  0.45833  0.38566  0.32927  1.0000
  H   H566      1.0  0.41348  0.42216  0.84303  1.0000
  H   H567      1.0  0.44734  0.41553  0.72775  1.0000
  S   S141      1.0  0.28684  0.25609  0.78781  1.0000
  C   C488      1.0  0.46572  0.40697  0.35947  1.0000
  C   C489      1.0  0.30204  0.42733  0.44560  1.0000
  C   C490      1.0  0.24536  0.29361  0.63053  1.0000
  H   H568      1.0  0.28004  0.40980  0.41248  1.0000
  H   H569      1.0  0.44446  0.38015  0.48128  1.0000
  C   C491      1.0  0.27813  0.44474  0.46720  1.0000
  H   H570      1.0  0.31053  0.25717  0.85071  1.0000
  H   H571      1.0  0.46468  0.38844  0.84321  1.0000
  C   C492      1.0  0.42835  0.40489  0.87566  1.0000
  N   N30       1.0  0.43162  0.42710  0.77267  1.0000
  H   H572      1.0  0.26287  0.31141  0.46393  1.0000
  H   H573      1.0  0.33437  0.27796  0.75344  1.0000
  C   C493      1.0  0.26538  0.47603  0.48928  1.0000
  C   C494      1.0  0.26267  0.30543  0.49476  1.0000
  C   C495      1.0  0.28189  0.41693  0.49222  1.0000
  C   C496      1.0  0.28187  0.47387  0.47898  1.0000
  C   C497      1.0  0.43582  0.41641  0.80819  1.0000
  N   N31       1.0  0.31999  0.36500  0.63485  1.0000
  C   C498      1.0  0.31931  0.35636  0.59589  1.0000
  C   C499      1.0  0.30704  0.35845  0.66251  1.0000
  C   C500      1.0  0.31593  0.38258  0.62710  1.0000
  C   C501      1.0  0.33660  0.36296  0.65121  1.0000
  C   C502      1.0  0.33999  0.35419  0.68814  1.0000
  C   C503      1.0  0.35011  0.36953  0.62946  1.0000
  C   C504      1.0  0.35591  0.35243  0.70234  1.0000
  C   C505      1.0  0.36596  0.36768  0.64383  1.0000
  C   C506      1.0  0.36885  0.35918  0.68027  1.0000
  H   H574      1.0  0.32254  0.34313  0.59999  1.0000
  H   H575      1.0  0.30687  0.35728  0.58329  1.0000
  H   H576      1.0  0.32768  0.36146  0.57208  1.0000
  H   H577      1.0  0.30841  0.34495  0.66683  1.0000
  H   H578      1.0  0.29467  0.36060  0.64975  1.0000
  H   H579      1.0  0.30688  0.36433  0.69268  1.0000
  H   H580      1.0  0.32378  0.38806  0.60268  1.0000
  H   H581      1.0  0.30322  0.38454  0.61648  1.0000
  H   H582      1.0  0.31727  0.38974  0.65509  1.0000
  H   H583      1.0  0.33058  0.34851  0.70652  1.0000
  H   H584      1.0  0.34855  0.37608  0.60090  1.0000
  H   H585      1.0  0.35825  0.34572  0.73057  1.0000
  H   H586      1.0  0.37607  0.37281  0.62642  1.0000
  H   H587      1.0  0.38118  0.35776  0.69124  1.0000
  H   H588      1.0  0.41706  0.44517  0.80581  1.0000
  H   H589      1.0  0.27638  0.43057  0.39488  1.0000
  C   C507      1.0  0.46304  0.41707  0.39257  1.0000
  C   C508      1.0  0.42490  0.41526  0.84228  1.0000
  H   H590      1.0  0.44140  0.43618  0.71513  1.0000
  H   H591      1.0  0.47578  0.40918  0.33820  1.0000
  H   H592      1.0  0.42761  0.38780  0.51172  1.0000
  H   H593      1.0  0.30624  0.41466  0.43783  1.0000
  H   H594      1.0  0.45921  0.40606  0.78479  1.0000
  H   H595      1.0  0.45626  0.43226  0.75341  1.0000
  C   C509      1.0  0.41698  0.42092  0.75336  1.0000
  H   H596      1.0  0.30965  0.43074  0.47149  1.0000
  H   H597      1.0  0.28719  0.40455  0.48625  1.0000
  C   C510      1.0  0.44480  0.42776  0.74100  1.0000
  C   C511      1.0  0.49015  0.31635  0.77241  1.0000
  C   C512      1.0  0.32916  0.25276  0.74638  1.0000
  N   N32       1.0  0.36997  0.24266  0.82468  1.0000
  H   H598      1.0  0.26879  0.41530  0.49984  1.0000
  S   S142      1.0  0.48565  0.30121  0.89040  1.0000
  H   H599      1.0  0.28976  0.48420  0.47951  1.0000
  C   C513      1.0  0.44337  0.39034  0.38303  1.0000
  H   H600      1.0  0.48653  0.28258  0.11274  1.0000
  H   H601      1.0  0.40726  0.38157  0.46268  1.0000
  C   C514      1.0  0.42838  0.27460  0.14320  1.0000
  H   H602      1.0  0.25286  0.32551  0.39400  1.0000
  N   N33       1.0  0.46953  0.30271  0.10220  1.0000
  H   H603      1.0  0.48687  0.32009  0.12134  1.0000
  C   C515      1.0  0.46449  0.31351  0.06754  1.0000
  C   C516      1.0  0.25358  0.24324  0.08362  1.0000
  C   C517      1.0  0.45547  0.29316  0.11700  1.0000
  C   C518      1.0  0.44878  0.29429  0.15724  1.0000
  C   C519      1.0  0.44796  0.28234  0.09066  1.0000
  C   C520      1.0  0.47951  0.33377  0.71812  1.0000
  H   H604      1.0  0.42916  0.26507  0.08272  1.0000
  H   H605      1.0  0.47248  0.38497  0.49566  1.0000
  H   H606      1.0  0.24852  0.32717  0.56729  1.0000
  H   H607      1.0  0.44995  0.42134  0.44793  1.0000
  H   H608      1.0  0.35479  0.24869  0.87671  1.0000
  H   H609      1.0  0.30485  0.43526  0.41854  1.0000
  C   C521      1.0  0.41770  0.41137  0.45863  1.0000
  C   C522      1.0  0.24181  0.27719  0.47435  1.0000
  H   H610      1.0  0.39591  0.24588  0.82566  1.0000
  C   C523      1.0  0.25174  0.31819  0.59064  1.0000
  H   H611      1.0  0.43048  0.28614  0.20071  1.0000
  C   C524      1.0  0.41572  0.48751  0.66713  1.0000
  H   H612      1.0  0.47103  0.42713  0.39686  1.0000
  H   H613      1.0  0.24477  0.24345  0.10993  1.0000
  H   H614      1.0  0.28779  0.42140  0.51979  1.0000
  C   C525      1.0  0.45076  0.41372  0.42147  1.0000
  N   N34       1.0  0.42800  0.39660  0.44948  1.0000
  C   C526      1.0  0.43643  0.39110  0.48692  1.0000
  C   C527      1.0  0.25518  0.46282  0.48867  1.0000
  H   H615      1.0  0.25555  0.28124  0.54826  1.0000
  H   H616      1.0  0.29176  0.27600  0.47778  1.0000
  H   H617      1.0  0.28794  0.29508  0.45006  1.0000
  H   H618      1.0  0.36711  0.26508  0.85831  1.0000
  C   C528      1.0  0.41370  0.25523  0.97283  1.0000
  C   C529      1.0  0.35627  0.24582  0.79674  1.0000
  C   C530      1.0  0.26804  0.28075  0.53449  1.0000
  H   H619      1.0  0.29363  0.29524  0.50184  1.0000
  H   H620      1.0  0.46096  0.30652  0.04078  1.0000
  C   C531      1.0  0.28826  0.45847  0.46817  1.0000
  H   H621      1.0  0.41979  0.40410  0.90121  1.0000
  H   H622      1.0  0.45389  0.32160  0.07615  1.0000
  S   S143      1.0  0.24315  0.28148  0.29896  1.0000
  S   S144      1.0  0.24245  0.26640  0.75815  1.0000
  H   H623      1.0  0.41802  0.26753  0.15307  1.0000
  H   H624      1.0  0.24995  0.30644  0.50694  1.0000
  H   H625      1.0  0.48619  0.37404  0.43325  1.0000
  C   C532      1.0  0.38534  0.24832  0.80534  1.0000
  C   C533      1.0  0.47625  0.31320  0.13357  1.0000
  H   H626      1.0  0.48076  0.30584  0.16013  1.0000
  H   H627      1.0  0.46710  0.32258  0.14414  1.0000
  C   C534      1.0  0.25862  0.27925  0.46503  1.0000
  C   C535      1.0  0.29830  0.24049  0.81304  1.0000
  H   H628      1.0  0.32420  0.24394  0.12085  1.0000
  H   H629      1.0  0.31833  0.25539  0.72879  1.0000
  H   H630      1.0  0.27219  0.26769  0.53427  1.0000
  H   H631      1.0  0.37628  0.24850  0.88608  1.0000
  C   C536      1.0  0.36689  0.25164  0.86296  1.0000
  C   C537      1.0  0.30955  0.24456  0.84242  1.0000
  H   H632      1.0  0.48749  0.30921  0.79968  1.0000
  Fe  Fe72      1.0  0.24436  0.25857  0.25937  1.0000
  Fe  Fe73      1.0  0.48951  0.32785  0.90131  1.0000
  S   S145      1.0  0.24342  0.39410  0.46460  1.0000
  C   C538      1.0  0.24144  0.30515  0.59972  1.0000
  H   H633      1.0  0.46922  0.33983  0.70332  1.0000
  C   C539      1.0  0.48832  0.38640  0.44212  1.0000
  H   H634      1.0  0.25936  0.26047  0.37246  1.0000
  H   H635      1.0  0.26572  0.24050  0.09690  1.0000
  H   H636      1.0  0.29842  0.24105  0.16130  1.0000
  H   H637      1.0  0.48166  0.60720  0.25039  1.0000
  S   S146      1.0  0.26759  0.71510  0.44697  1.0000
  C   C540      1.0  0.30237  0.68684  0.41716  1.0000
  S   S147      1.0  0.25643  0.72891  0.88232  1.0000
  Fe  Fe74      1.0  0.25236  0.72813  0.81454  1.0000
  S   S148      1.0  0.26521  0.71401  0.76309  1.0000
  Fe  Fe75      1.0  0.26883  0.62898  0.56286  1.0000
  S   S149      1.0  0.25104  0.61948  0.60992  1.0000
  S   S150      1.0  0.25837  0.64173  0.50696  1.0000
  Fe  Fe76      1.0  0.29861  0.61332  0.60580  1.0000
  S   S151      1.0  0.28270  0.60286  0.65618  1.0000
  S   S152      1.0  0.32580  0.60811  0.59024  1.0000
  Fe  Fe77      1.0  0.26542  0.59574  0.60739  1.0000
  S   S153      1.0  0.25662  0.56936  0.60582  1.0000
  Fe  Fe78      1.0  0.26940  0.62751  0.65449  1.0000
  S   S154      1.0  0.25868  0.64007  0.71064  1.0000
  S   S155      1.0  0.28212  0.60473  0.55719  1.0000
  S   S156      1.0  0.28636  0.63851  0.60722  1.0000
  Fe  Fe79      1.0  0.47452  0.68902  0.02655  1.0000
  C   C541      1.0  0.32111  0.67480  0.46600  1.0000
  S   S157      1.0  0.45565  0.71042  0.02001  1.0000
  H   H638      1.0  0.43301  0.73673  0.00138  1.0000
  S   S158      1.0  0.46895  0.66227  0.03341  1.0000
  Fe  Fe80      1.0  0.41750  0.58196  0.67807  1.0000
  S   S159      1.0  0.42673  0.56553  0.72957  1.0000
  S   S160      1.0  0.39096  0.59137  0.69021  1.0000
  Fe  Fe81      1.0  0.45192  0.58298  0.63805  1.0000
  S   S161      1.0  0.46264  0.56724  0.68831  1.0000
  S   S162      1.0  0.47034  0.59383  0.59174  1.0000
  Fe  Fe82      1.0  0.44082  0.55155  0.68127  1.0000
  S   S163      1.0  0.44825  0.52418  0.67773  1.0000
  Fe  Fe83      1.0  0.44775  0.58257  0.73270  1.0000
  S   S164      1.0  0.45655  0.58937  0.79686  1.0000
  S   S165      1.0  0.43050  0.56687  0.62913  1.0000
  S   S166      1.0  0.43820  0.59932  0.68282  1.0000
  C   C542      1.0  0.47904  0.58761  0.54401  1.0000
  C   C543      1.0  0.47146  0.57669  0.51911  1.0000
  H   H639      1.0  0.45975  0.57201  0.52839  1.0000
  C   C544      1.0  0.43911  0.50499  0.67038  1.0000
  C   C545      1.0  0.42222  0.50311  0.67173  1.0000
  C   C546      1.0  0.41620  0.73807  0.09736  1.0000
  H   H640      1.0  0.41419  0.51361  0.67701  1.0000
  H   H641      1.0  0.47015  0.58890  0.24438  1.0000
  C   C547      1.0  0.47141  0.63066  0.88331  1.0000
  H   H642      1.0  0.27255  0.73342  0.68512  1.0000
  C   C548      1.0  0.46169  0.62220  0.81657  1.0000
  C   C549      1.0  0.46256  0.60567  0.82876  1.0000
  C   C550      1.0  0.46804  0.60181  0.86836  1.0000
  C   C551      1.0  0.47245  0.61412  0.89528  1.0000
  N   N35       1.0  0.31759  0.64661  0.49643  1.0000
  H   H643      1.0  0.45768  0.62555  0.78634  1.0000
  H   H644      1.0  0.46886  0.58915  0.87840  1.0000
  H   H645      1.0  0.24598  0.72839  0.16248  1.0000
  C   C552      1.0  0.29870  0.65922  0.44281  1.0000
  C   C553      1.0  0.34374  0.60353  0.61886  1.0000
  C   C554      1.0  0.35820  0.59851  0.59803  1.0000
  C   C555      1.0  0.37273  0.59478  0.61910  1.0000
  C   C556      1.0  0.37308  0.59612  0.66147  1.0000
  C   C557      1.0  0.35862  0.60116  0.68230  1.0000
  C   C558      1.0  0.34406  0.60479  0.66126  1.0000
  H   H646      1.0  0.35818  0.59744  0.56529  1.0000
  H   H647      1.0  0.38367  0.59089  0.60253  1.0000
  H   H648      1.0  0.35866  0.60222  0.71505  1.0000
  H   H649      1.0  0.33314  0.60867  0.67788  1.0000
  H   H650      1.0  0.26274  0.71809  0.55711  1.0000
  C   C559      1.0  0.43822  0.71708  0.09245  1.0000
  C   C560      1.0  0.44081  0.72097  0.05113  1.0000
  H   H651      1.0  0.46065  0.54217  0.61069  1.0000
  H   H652      1.0  0.44558  0.70746  0.10671  1.0000
  H   H653      1.0  0.42423  0.72248  0.14730  1.0000
  H   H654      1.0  0.34337  0.64966  0.48503  1.0000
  C   C561      1.0  0.26308  0.69344  0.74904  1.0000
  C   C562      1.0  0.27223  0.68752  0.71541  1.0000
  C   C563      1.0  0.27112  0.67121  0.70337  1.0000
  C   C564      1.0  0.26079  0.66064  0.72483  1.0000
  H   H655      1.0  0.33817  0.62986  0.50420  1.0000
  H   H656      1.0  0.28045  0.69553  0.69904  1.0000
  H   H657      1.0  0.27846  0.66675  0.67796  1.0000
  C   C565      1.0  0.26410  0.69505  0.46505  1.0000
  C   C566      1.0  0.46771  0.59736  0.32564  1.0000
  C   C567      1.0  0.26065  0.66238  0.49211  1.0000
  C   C568      1.0  0.27120  0.67244  0.51191  1.0000
  C   C569      1.0  0.27298  0.68871  0.49823  1.0000
  H   H658      1.0  0.27819  0.66764  0.53718  1.0000
  H   H659      1.0  0.28149  0.69633  0.51286  1.0000
  C   C570      1.0  0.48123  0.59387  0.25769  1.0000
  C   C571      1.0  0.31240  0.66010  0.46831  1.0000
  C   C572      1.0  0.25259  0.68294  0.77015  1.0000
  H   H660      1.0  0.47657  0.61079  0.92547  1.0000
  H   H661      1.0  0.29112  0.64870  0.44263  1.0000
  H   H662      1.0  0.31450  0.73468  0.97414  1.0000
  H   H663      1.0  0.46518  0.64720  0.83368  1.0000
  H   H664      1.0  0.47120  0.56678  0.30081  1.0000
  H   H665      1.0  0.41315  0.61233  0.73760  1.0000
  H   H666      1.0  0.39604  0.71626  0.96669  1.0000
  H   H667      1.0  0.32105  0.64254  0.56103  1.0000
  C   C573      1.0  0.33400  0.64022  0.48385  1.0000
  H   H668      1.0  0.45555  0.61066  0.27534  1.0000
  H   H669      1.0  0.25289  0.65689  0.63248  1.0000
  C   C574      1.0  0.24932  0.66774  0.61325  1.0000
  N   N36       1.0  0.48494  0.53369  0.59355  1.0000
  C   C575      1.0  0.25785  0.72944  0.56950  1.0000
  H   H670      1.0  0.38757  0.70070  0.09287  1.0000
  H   H671      1.0  0.24642  0.68987  0.42027  1.0000
  C   C576      1.0  0.46603  0.63453  0.84360  1.0000
  C   C577      1.0  0.47893  0.51702  0.58770  1.0000
  H   H672      1.0  0.46616  0.54548  0.55806  1.0000
  H   H673      1.0  0.43141  0.61626  0.39073  1.0000
  N   N37       1.0  0.48184  0.59041  0.30230  1.0000
  H   H674      1.0  0.33178  0.67630  0.48394  1.0000
  H   H675      1.0  0.24346  0.65855  0.77491  1.0000
  H   H676      1.0  0.45261  0.59875  0.42406  1.0000
  C   C578      1.0  0.36345  0.71804  0.06743  1.0000
  C   C579      1.0  0.31835  0.65265  0.53857  1.0000
  C   C580      1.0  0.45329  0.60114  0.39140  1.0000
  N   N38       1.0  0.40919  0.61225  0.80266  1.0000
  C   C581      1.0  0.39204  0.61833  0.79918  1.0000
  C   C582      1.0  0.41842  0.61734  0.76544  1.0000
  C   C583      1.0  0.40906  0.59411  0.80366  1.0000
  C   C584      1.0  0.41662  0.61917  0.83881  1.0000
  C   C585      1.0  0.42376  0.60930  0.87029  1.0000
  C   C586      1.0  0.41730  0.63636  0.84270  1.0000
  C   C587      1.0  0.43103  0.61631  0.90343  1.0000
  C   C588      1.0  0.42478  0.64322  0.87575  1.0000
  C   C589      1.0  0.43164  0.63320  0.90603  1.0000
  H   H677      1.0  0.39109  0.63175  0.79378  1.0000
  H   H678      1.0  0.38600  0.61279  0.77300  1.0000
  H   H679      1.0  0.38483  0.61534  0.82735  1.0000
  H   H680      1.0  0.41844  0.63080  0.76082  1.0000
  H   H681      1.0  0.43139  0.61295  0.76690  1.0000
  H   H682      1.0  0.40216  0.58936  0.83070  1.0000
  H   H683      1.0  0.40327  0.58934  0.77620  1.0000
  H   H684      1.0  0.42166  0.58864  0.80381  1.0000
  H   H685      1.0  0.42449  0.59615  0.86932  1.0000
  H   H686      1.0  0.41248  0.64464  0.81958  1.0000
  H   H687      1.0  0.43698  0.60859  0.92627  1.0000
  H   H688      1.0  0.42577  0.65634  0.87737  1.0000
  H   H689      1.0  0.43805  0.63853  0.93072  1.0000
  H   H690      1.0  0.30585  0.62690  0.46734  1.0000
  C   C590      1.0  0.44244  0.61419  0.33084  1.0000
  C   C591      1.0  0.27496  0.73271  0.10183  1.0000
  H   H691      1.0  0.29811  0.69727  0.39887  1.0000
  C   C592      1.0  0.38870  0.70972  0.02923  1.0000
  C   C593      1.0  0.39893  0.70910  0.99373  1.0000
  C   C594      1.0  0.39410  0.70053  0.06398  1.0000
  C   C595      1.0  0.41341  0.69963  0.99284  1.0000
  C   C596      1.0  0.40859  0.69107  0.06265  1.0000
  C   C597      1.0  0.41817  0.69056  0.02714  1.0000
  H   H692      1.0  0.33402  0.63573  0.45213  1.0000
  H   H693      1.0  0.48183  0.52972  0.65860  1.0000
  C   C598      1.0  0.47088  0.54535  0.58950  1.0000
  S   S167      1.0  0.24614  0.72570  0.33671  1.0000
  C   C599      1.0  0.42605  0.72562  0.11537  1.0000
  C   C600      1.0  0.25166  0.66879  0.45926  1.0000
  H   H694      1.0  0.43322  0.62198  0.31643  1.0000
  H   H695      1.0  0.32255  0.69929  0.44059  1.0000
  H   H696      1.0  0.47524  0.58701  0.38442  1.0000
  H   H697      1.0  0.46238  0.49226  0.66325  1.0000
  H   H698      1.0  0.31053  0.62285  0.51926  1.0000
  H   H699      1.0  0.42138  0.69974  0.96599  1.0000
  H   H700      1.0  0.36067  0.70267  0.99531  1.0000
  H   H701      1.0  0.42971  0.68371  0.02668  1.0000
  H   H702      1.0  0.25256  0.66450  0.58139  1.0000
  C   C601      1.0  0.30644  0.63269  0.49751  1.0000
  C   C602      1.0  0.37769  0.73741  0.02540  1.0000
  N   N39       1.0  0.37351  0.72000  0.02951  1.0000
  C   C603      1.0  0.44140  0.61100  0.37268  1.0000
  N   N40       1.0  0.30450  0.55405  0.63129  1.0000
  C   C604      1.0  0.30399  0.56697  0.59884  1.0000
  C   C605      1.0  0.29464  0.54040  0.61768  1.0000
  C   C606      1.0  0.29651  0.56056  0.66879  1.0000
  C   C607      1.0  0.32166  0.54922  0.63963  1.0000
  C   C608      1.0  0.33271  0.56107  0.65158  1.0000
  C   C609      1.0  0.32792  0.53289  0.63633  1.0000
  C   C610      1.0  0.34899  0.55689  0.65943  1.0000
  C   C611      1.0  0.34426  0.52886  0.64425  1.0000
  C   C612      1.0  0.35477  0.54084  0.65570  1.0000
  H   H703      1.0  0.31094  0.56306  0.57108  1.0000
  H   H704      1.0  0.29127  0.57016  0.58979  1.0000
  H   H705      1.0  0.30918  0.57854  0.60863  1.0000
  H   H706      1.0  0.29969  0.53522  0.58886  1.0000
  H   H707      1.0  0.28184  0.54453  0.61144  1.0000
  H   H708      1.0  0.29377  0.53055  0.64147  1.0000
  H   H709      1.0  0.30235  0.57171  0.67927  1.0000
  H   H710      1.0  0.28344  0.56405  0.66388  1.0000
  H   H711      1.0  0.29696  0.55136  0.69425  1.0000
  H   H712      1.0  0.32885  0.57373  0.65479  1.0000
  H   H713      1.0  0.32049  0.52301  0.62762  1.0000
  H   H714      1.0  0.35723  0.56617  0.66836  1.0000
  H   H715      1.0  0.34886  0.51636  0.64145  1.0000
  H   H716      1.0  0.36744  0.53771  0.66168  1.0000
  H   H717      1.0  0.36888  0.71914  0.96489  1.0000
  H   H718      1.0  0.25423  0.72616  0.06912  1.0000
  S   S168      1.0  0.48965  0.68530  0.96894  1.0000
  H   H719      1.0  0.25705  0.67796  0.62173  1.0000
  H   H720      1.0  0.30659  0.65870  0.54804  1.0000
  H   H721      1.0  0.46949  0.51376  0.61115  1.0000
  C   C613      1.0  0.29387  0.67242  0.41764  1.0000
  C   C614      1.0  0.25328  0.68510  0.44592  1.0000
  H   H722      1.0  0.47291  0.56350  0.46294  1.0000
  H   H723      1.0  0.29388  0.63663  0.50742  1.0000
  S   S169      1.0  0.47615  0.64686  0.91697  1.0000
  C   C615      1.0  0.25731  0.73177  0.61162  1.0000
  C   C616      1.0  0.47887  0.57204  0.48174  1.0000
  C   C617      1.0  0.45540  0.60755  0.30747  1.0000
  C   C618      1.0  0.25149  0.66662  0.75811  1.0000
  H   H724      1.0  0.35124  0.72283  0.99587  1.0000
  H   H725      1.0  0.28304  0.67174  0.39958  1.0000
  H   H726      1.0  0.25367  0.72929  0.99088  1.0000
  C   C619      1.0  0.43108  0.73357  0.03327  1.0000
  H   H727      1.0  0.36001  0.70513  0.07266  1.0000
  H   H728      1.0  0.32807  0.66157  0.54202  1.0000
  C   C620      1.0  0.46624  0.59441  0.36833  1.0000
  H   H729      1.0  0.47294  0.51603  0.55789  1.0000
  C   C621      1.0  0.36319  0.71593  0.99490  1.0000
  C   C622      1.0  0.31604  0.68799  0.44104  1.0000
  H   H730      1.0  0.41273  0.68448  0.08968  1.0000
  H   H731      1.0  0.27529  0.72142  0.11973  1.0000
  Fe  Fe84      1.0  0.25059  0.72880  0.40328  1.0000
  H   H732      1.0  0.47411  0.55803  0.59646  1.0000
  C   C623      1.0  0.48285  0.57240  0.30844  1.0000
  Fe  Fe85      1.0  0.48492  0.65837  0.97684  1.0000
  H   H733      1.0  0.48573  0.56866  0.34036  1.0000
  H   H734      1.0  0.24605  0.53631  0.60071  1.0000
  H   H735      1.0  0.26185  0.72188  0.63101  1.0000
  C   C624      1.0  0.24311  0.73609  0.18925  1.0000
  H   H736      1.0  0.35189  0.72556  0.06614  1.0000
  C   C625      1.0  0.26283  0.73565  0.07310  1.0000
  C   C626      1.0  0.44930  0.49108  0.66380  1.0000
  H   H737      1.0  0.48897  0.50761  0.59010  1.0000
  H   H738      1.0  0.36992  0.72220  0.09455  1.0000
  H   H739      1.0  0.24549  0.68731  0.79607  1.0000
  H   H740      1.0  0.24344  0.66109  0.44387  1.0000
  H   H741      1.0  0.24474  0.72431  0.68943  1.0000
  H   H742      1.0  0.25298  0.73397  0.21173  1.0000
  H   H743      1.0  0.38523  0.74001  0.99760  1.0000
  H   H744      1.0  0.27680  0.76757  0.19299  1.0000
  S   S170      1.0  0.25536  0.75558  0.39526  1.0000
  S   S171      1.0  0.25703  0.75496  0.80554  1.0000
  Fe  Fe86      1.0  0.25869  0.75599  0.87364  1.0000
  S   S172      1.0  0.27505  0.77282  0.90744  1.0000
  Fe  Fe87      1.0  0.36278  0.79902  0.10493  1.0000
  S   S173      1.0  0.37174  0.78507  0.15988  1.0000
  S   S174      1.0  0.36751  0.82618  0.09265  1.0000
  Fe  Fe88      1.0  0.34576  0.76909  0.07296  1.0000
  S   S175      1.0  0.35367  0.75355  0.12691  1.0000
  S   S176      1.0  0.33267  0.75350  0.02829  1.0000
  Fe  Fe89      1.0  0.34644  0.77520  0.16421  1.0000
  S   S177      1.0  0.33445  0.77384  0.22725  1.0000
  Fe  Fe90      1.0  0.37819  0.76455  0.11721  1.0000
  C   C627      1.0  0.41611  0.82821  0.09543  1.0000
  S   S178      1.0  0.33695  0.79021  0.11127  1.0000
  S   S179      1.0  0.37081  0.77908  0.06130  1.0000
  Fe  Fe91      1.0  0.30190  0.97497  0.55475  1.0000
  S   S180      1.0  0.29371  0.94868  0.56885  1.0000
  H   H745      1.0  0.25935  0.77380  0.98481  1.0000
  S   S181      1.0  0.32913  0.97882  0.54666  1.0000
  Fe  Fe92      1.0  0.40211  0.91125  0.18359  1.0000
  S   S182      1.0  0.41185  0.92294  0.23921  1.0000
  S   S183      1.0  0.40085  0.88314  0.18920  1.0000
  Fe  Fe93      1.0  0.39805  0.94483  0.14084  1.0000
  S   S184      1.0  0.40677  0.95852  0.19423  1.0000
  S   S185      1.0  0.39176  0.95580  0.07802  1.0000
  Fe  Fe94      1.0  0.42659  0.93880  0.19669  1.0000
  S   S186      1.0  0.45175  0.94802  0.21201  1.0000
  Fe  Fe95      1.0  0.39134  0.94182  0.23410  1.0000
  S   S187      1.0  0.37902  0.94592  0.29781  1.0000
  S   S188      1.0  0.41862  0.92583  0.14143  1.0000
  S   S189      1.0  0.38091  0.92937  0.18005  1.0000
  C   C628      1.0  0.26222  0.75027  0.04894  1.0000
  C   C629      1.0  0.47126  0.94226  0.19088  1.0000
  H   H746      1.0  0.40694  0.96685  0.28216  1.0000
  C   C630      1.0  0.47343  0.92941  0.16379  1.0000
  H   H747      1.0  0.27078  0.87879  0.74663  1.0000
  H   H748      1.0  0.46307  0.92249  0.15556  1.0000
  C   C631      1.0  0.34805  0.97749  0.38940  1.0000
  C   C632      1.0  0.35502  0.96230  0.40113  1.0000
  C   C633      1.0  0.36436  0.95289  0.37279  1.0000
  C   C634      1.0  0.36703  0.95845  0.33224  1.0000
  C   C635      1.0  0.36021  0.97371  0.32063  1.0000
  S   S190      1.0  0.25945  0.76183  0.26864  1.0000
  C   C636      1.0  0.24828  0.77017  0.00250  1.0000
  H   H749      1.0  0.40618  0.78136  0.08938  1.0000
  H   H750      1.0  0.36206  0.97827  0.28975  1.0000
  C   C637      1.0  0.28564  0.76723  0.21686  1.0000
  H   H751      1.0  0.42999  0.93897  0.35259  1.0000
  C   C638      1.0  0.25803  0.91495  0.57820  1.0000
  C   C639      1.0  0.27318  0.92261  0.57369  1.0000
  C   C640      1.0  0.27410  0.93976  0.57174  1.0000
  C   C641      1.0  0.25957  0.94915  0.57369  1.0000
  C   C642      1.0  0.41881  0.84486  0.09923  1.0000
  H   H752      1.0  0.25760  0.90180  0.57935  1.0000
  H   H753      1.0  0.28428  0.91517  0.57222  1.0000
  H   H754      1.0  0.25998  0.96233  0.57222  1.0000
  C   C643      1.0  0.26279  0.93366  0.67427  1.0000
  C   C644      1.0  0.24353  0.92436  0.58187  1.0000
  C   C645      1.0  0.30986  0.74716  0.97159  1.0000
  C   C646      1.0  0.24444  0.94150  0.57902  1.0000
  C   C647      1.0  0.37642  0.84187  0.12089  1.0000
  C   C648      1.0  0.37597  0.85800  0.10495  1.0000
  C   C649      1.0  0.38321  0.87079  0.12541  1.0000
  C   C650      1.0  0.39109  0.86764  0.16223  1.0000
  C   C651      1.0  0.39147  0.85151  0.17826  1.0000
  C   C652      1.0  0.38419  0.83873  0.15787  1.0000
  H   H755      1.0  0.37006  0.86063  0.07634  1.0000
  H   H756      1.0  0.38280  0.88307  0.11254  1.0000
  H   H757      1.0  0.39757  0.84888  0.20660  1.0000
  H   H758      1.0  0.38491  0.82644  0.17045  1.0000
  C   C653      1.0  0.26407  0.90448  0.69347  1.0000
  C   C654      1.0  0.31660  0.75922  0.99516  1.0000
  C   C655      1.0  0.31052  0.77532  0.99147  1.0000
  C   C656      1.0  0.29789  0.77927  0.96422  1.0000
  C   C657      1.0  0.29117  0.76720  0.94061  1.0000
  C   C658      1.0  0.29724  0.75111  0.94440  1.0000
  N   N41       1.0  0.24963  0.75294  0.01772  1.0000
  H   H759      1.0  0.31564  0.78474  0.00924  1.0000
  H   H760      1.0  0.29335  0.79178  0.96131  1.0000
  C   C659      1.0  0.44929  0.97889  0.04530  1.0000
  C   C660      1.0  0.31367  0.76973  0.23769  1.0000
  C   C661      1.0  0.30849  0.76683  0.27826  1.0000
  C   C662      1.0  0.29201  0.76405  0.28815  1.0000
  C   C663      1.0  0.28047  0.76438  0.25753  1.0000
  H   H761      1.0  0.41177  0.75185  0.04186  1.0000
  C   C664      1.0  0.30218  0.76980  0.20691  1.0000
  C   C665      1.0  0.25111  0.74662  0.62836  1.0000
  H   H762      1.0  0.28819  0.76192  0.31954  1.0000
  C   C666      1.0  0.39473  0.97822  0.43209  1.0000
  H   H763      1.0  0.42756  0.96639  0.26343  1.0000
  C   C667      1.0  0.43612  0.78946  0.10804  1.0000
  H   H764      1.0  0.35331  0.95782  0.43206  1.0000
  H   H765      1.0  0.43067  0.86315  0.13252  1.0000
  H   H766      1.0  0.27611  0.77233  0.03554  1.0000
  H   H767      1.0  0.25944  0.86390  0.72117  1.0000
  C   C668      1.0  0.39658  0.97477  0.05341  1.0000
  H   H768      1.0  0.44987  0.96497  0.30776  1.0000
  H   H769      1.0  0.33240  0.90926  0.33988  1.0000
  H   H770      1.0  0.44106  0.79385  0.07801  1.0000
  H   H771      1.0  0.48346  0.96106  0.22202  1.0000
  C   C669      1.0  0.42397  0.81629  0.12112  1.0000
  H   H772      1.0  0.24515  0.87139  0.65963  1.0000
  N   N42       1.0  0.25584  0.88872  0.69834  1.0000
  C   C670      1.0  0.40811  0.96756  0.43736  1.0000
  C   C671      1.0  0.39239  0.97752  0.01241  1.0000
  H   H773      1.0  0.41226  0.79821  0.05786  1.0000
  H   H774      1.0  0.30176  0.92162  0.69335  1.0000
  C   C672      1.0  0.35082  0.98310  0.34893  1.0000
  H   H775      1.0  0.32574  0.96081  0.31989  1.0000
  C   C673      1.0  0.24560  0.76566  0.68517  1.0000
  H   H776      1.0  0.29690  0.76667  0.08529  1.0000
  C   C674      1.0  0.47013  0.96527  0.08573  1.0000
  H   H777      1.0  0.31728  0.76677  0.30227  1.0000
  H   H778      1.0  0.41203  0.94120  0.32285  1.0000
  C   C675      1.0  0.40065  0.97962  0.35954  1.0000
  C   C676      1.0  0.40448  0.98703  0.07333  1.0000
  H   H779      1.0  0.24375  0.82472  0.76221  1.0000
  H   H780      1.0  0.42450  0.79295  0.18351  1.0000
  H   H781      1.0  0.44538  0.84304  0.17661  1.0000
  H   H782      1.0  0.25576  0.94434  0.66386  1.0000
  H   H783      1.0  0.24611  0.77874  0.02791  1.0000
  H   H784      1.0  0.27678  0.75428  0.67131  1.0000
  H   H785      1.0  0.38618  0.96818  0.99672  1.0000
  N   N43       1.0  0.45267  0.97044  0.08474  1.0000
  H   H786      1.0  0.43407  0.77610  0.10578  1.0000
  C   C677      1.0  0.42921  0.85017  0.12862  1.0000
  N   N44       1.0  0.42087  0.79861  0.11943  1.0000
  H   H787      1.0  0.47317  0.95877  0.11484  1.0000
  H   H788      1.0  0.45039  0.97533  0.14906  1.0000
  C   C678      1.0  0.44185  0.96834  0.33441  1.0000
  H   H789      1.0  0.39648  0.80102  0.09671  1.0000
  H   H790      1.0  0.36658  0.74552  0.02363  1.0000
  C   C679      1.0  0.41889  0.74208  0.05613  1.0000
  C   C680      1.0  0.48495  0.95107  0.20118  1.0000
  C   C681      1.0  0.28114  0.90592  0.69808  1.0000
  H   H791      1.0  0.26162  0.88237  0.63642  1.0000
  H   H792      1.0  0.28901  0.89568  0.70668  1.0000
  H   H793      1.0  0.28547  0.94602  0.67151  1.0000
  C   C682      1.0  0.25392  0.74253  0.98269  1.0000
  N   N45       1.0  0.30774  0.93967  0.44573  1.0000
  C   C683      1.0  0.29171  0.94857  0.44449  1.0000
  C   C684      1.0  0.30522  0.92401  0.46846  1.0000
  C   C685      1.0  0.31912  0.94924  0.46916  1.0000
  C   C686      1.0  0.31458  0.93762  0.40395  1.0000
  C   C687      1.0  0.32032  0.92226  0.38906  1.0000
  C   C688      1.0  0.31662  0.95144  0.37760  1.0000
  C   C689      1.0  0.32778  0.92100  0.35043  1.0000
  C   C690      1.0  0.32394  0.95000  0.33895  1.0000
  C   C691      1.0  0.32968  0.93485  0.32556  1.0000
  H   H794      1.0  0.28301  0.94211  0.42561  1.0000
  H   H795      1.0  0.28609  0.94985  0.47560  1.0000
  H   H796      1.0  0.29262  0.96121  0.43188  1.0000
  H   H797      1.0  0.29686  0.91613  0.45223  1.0000
  H   H798      1.0  0.29961  0.92610  0.49928  1.0000
  H   H799      1.0  0.31695  0.91721  0.47383  1.0000
  H   H800      1.0  0.32062  0.96170  0.45587  1.0000
  H   H801      1.0  0.31476  0.95079  0.50116  1.0000
  H   H802      1.0  0.33143  0.94319  0.46999  1.0000
  H   H803      1.0  0.31944  0.91108  0.40689  1.0000
  H   H804      1.0  0.31318  0.96363  0.38726  1.0000
  H   H805      1.0  0.44556  0.94979  0.12246  1.0000
  H   H806      1.0  0.41973  0.98415  0.28855  1.0000
  H   H807      1.0  0.33590  0.93393  0.29614  1.0000
  N   N46       1.0  0.33475  0.83022  0.20262  1.0000
  C   C692      1.0  0.34678  0.81637  0.20142  1.0000
  C   C693      1.0  0.32221  0.82664  0.23462  1.0000
  C   C694      1.0  0.32652  0.83102  0.16279  1.0000
  C   C695      1.0  0.34314  0.84537  0.21201  1.0000
  C   C696      1.0  0.34369  0.85910  0.18469  1.0000
  C   C697      1.0  0.35147  0.84653  0.24916  1.0000
  C   C698      1.0  0.35201  0.87306  0.19434  1.0000
  C   C699      1.0  0.35989  0.86049  0.25826  1.0000
  C   C700      1.0  0.36017  0.87372  0.23088  1.0000
  H   H808      1.0  0.35260  0.81386  0.23120  1.0000
  H   H809      1.0  0.34098  0.80486  0.19343  1.0000
  H   H810      1.0  0.35658  0.81872  0.17831  1.0000
  H   H811      1.0  0.32757  0.82423  0.26500  1.0000
  H   H812      1.0  0.31547  0.81545  0.22785  1.0000
  H   H813      1.0  0.31317  0.83699  0.23753  1.0000
  H   H814      1.0  0.33545  0.83269  0.13698  1.0000
  H   H815      1.0  0.32020  0.81952  0.15690  1.0000
  H   H816      1.0  0.31711  0.84109  0.16158  1.0000
  H   H817      1.0  0.33819  0.85926  0.15517  1.0000
  H   H818      1.0  0.35180  0.83650  0.27113  1.0000
  H   H819      1.0  0.35270  0.88323  0.17266  1.0000
  H   H820      1.0  0.36654  0.86098  0.28628  1.0000
  H   H821      1.0  0.36714  0.88434  0.23733  1.0000
  H   H822      1.0  0.25243  0.73982  0.51028  1.0000
  C   C701      1.0  0.25094  0.88346  0.65778  1.0000
  H   H823      1.0  0.41147  0.77954  0.15930  1.0000
  C   C702      1.0  0.28868  0.92081  0.69059  1.0000
  C   C703      1.0  0.43492  0.82211  0.14983  1.0000
  C   C704      1.0  0.27953  0.93462  0.67856  1.0000
  H   H824      1.0  0.42690  0.97661  0.95874  1.0000
  H   H825      1.0  0.40426  0.79991  0.17096  1.0000
  C   C705      1.0  0.41440  0.96873  0.36378  1.0000
  H   H826      1.0  0.43191  0.94110  0.29859  1.0000
  N   N47       1.0  0.25124  0.74902  0.67294  1.0000
  H   H827      1.0  0.40746  0.98527  0.10502  1.0000
  H   H828      1.0  0.44579  0.79067  0.13072  1.0000
  C   C706      1.0  0.40839  0.79470  0.08950  1.0000
  H   H829      1.0  0.36960  0.94119  0.38241  1.0000
  N   N48       1.0  0.42483  0.96345  0.32874  1.0000
  H   H830      1.0  0.27681  0.87208  0.69602  1.0000
  C   C707      1.0  0.25200  0.74166  0.54296  1.0000
  H   H831      1.0  0.44145  0.81378  0.17008  1.0000
  H   H832      1.0  0.47833  0.97577  0.08297  1.0000
  C   C708      1.0  0.43736  0.83881  0.15365  1.0000
  H   H833      1.0  0.41226  0.85379  0.08033  1.0000
  H   H834      1.0  0.24633  0.76720  0.71869  1.0000
  H   H835      1.0  0.44559  0.94623  0.06922  1.0000
  H   H836      1.0  0.24408  0.74912  0.17971  1.0000
  C   C709      1.0  0.48910  0.92538  0.14761  1.0000
  H   H837      1.0  0.40740  0.82513  0.07296  1.0000
  H   H838      1.0  0.44241  0.98178  0.33807  1.0000
  C   C710      1.0  0.41505  0.79254  0.16001  1.0000
  C   C711      1.0  0.44289  0.95570  0.09235  1.0000
  C   C712      1.0  0.41948  0.97058  0.28910  1.0000
  H   H839      1.0  0.29231  0.74172  0.92614  1.0000
  C   C713      1.0  0.43856  0.97275  0.01639  1.0000
  C   C714      1.0  0.26626  0.87539  0.71643  1.0000
  H   H840      1.0  0.42806  0.95454  0.40938  1.0000
  C   C715      1.0  0.28710  0.75821  0.08258  1.0000
  H   H841      1.0  0.30599  0.77206  0.17559  1.0000
  H   H842      1.0  0.26876  0.74878  0.72106  1.0000
  C   C716      1.0  0.25515  0.91883  0.68109  1.0000
  C   C717      1.0  0.44899  0.98166  0.11883  1.0000
  C   C718      1.0  0.28701  0.74403  0.10673  1.0000
  C   C719      1.0  0.42470  0.94542  0.32569  1.0000
  H   H843      1.0  0.29655  0.74166  0.12860  1.0000
  H   H844      1.0  0.41085  0.96278  0.46757  1.0000
  H   H845      1.0  0.24201  0.89225  0.64361  1.0000
  H   H846      1.0  0.42956  0.95879  0.09256  1.0000
  C   C720      1.0  0.41786  0.96290  0.40382  1.0000
  S   S191      1.0  0.40123  0.74858  0.12827  1.0000
  H   H847      1.0  0.43625  0.98668  0.11743  1.0000
  S   S192      1.0  0.29620  0.98681  0.49423  1.0000
  C   C721      1.0  0.27497  0.76134  0.05400  1.0000
  H   H848      1.0  0.43182  0.96179  0.02193  1.0000
  H   H849      1.0  0.26628  0.74507  0.97021  1.0000
  H   H850      1.0  0.47342  0.95686  0.06051  1.0000
  C   C722      1.0  0.43562  0.98115  0.97959  1.0000
  Fe  Fe96      1.0  0.24859  0.75286  0.32976  1.0000
  H   H851      1.0  0.24400  0.89564  0.75478  1.0000
  H   H852      1.0  0.24529  0.74476  0.95750  1.0000
  H   H853      1.0  0.25317  0.77527  0.67052  1.0000
  H   H854      1.0  0.44741  0.96228  0.36155  1.0000
  C   C723      1.0  0.24491  0.75870  0.60042  1.0000
  C   C724      1.0  0.26805  0.74629  0.68799  1.0000
  H   H855      1.0  0.39673  0.98444  0.33037  1.0000
  H   H856      1.0  0.49062  0.91534  0.12695  1.0000
  H   H857      1.0  0.38463  0.74119  0.05205  1.0000
  C   C725      1.0  0.39109  0.98432  0.39335  1.0000
  H   H858      1.0  0.37506  0.98170  0.68755  1.0000
  H   H859      1.0  0.38700  0.98168  0.45793  1.0000
  C   C726      1.0  0.24541  0.75617  0.55840  1.0000
  H   H860      1.0  0.24230  0.91859  0.67479  1.0000
  C   C727      1.0  0.24101  0.89051  0.72491  1.0000
  H   H861      1.0  0.39450  0.98933  0.73719  1.0000
  H   H862      1.0  0.42117  0.98945  0.76267  1.0000
  S   S193      1.0  0.64295  0.99715  0.56366  1.0000
  H   H863      1.0  0.64930  0.21146  0.99982  1.0000
  C   C728      1.0  0.73478  0.05144  0.40563  1.0000
  H   H864      1.0  0.73356  0.18002  0.33099  1.0000
  H   H865      1.0  0.56991  0.01199  0.61025  1.0000
  C   C729      1.0  0.71573  0.14456  0.16918  1.0000
  Fe  Fe97      1.0  0.60946  0.21844  0.88944  1.0000
  S   S194      1.0  0.61649  0.19454  0.92141  1.0000
  C   C730      1.0  0.68806  0.17925  0.62650  1.0000
  Fe  Fe98      1.0  0.63178  0.21032  0.81528  1.0000
  S   S195      1.0  0.63976  0.18579  0.84100  1.0000
  S   S196      1.0  0.63183  0.99741  0.35585  1.0000
  Fe  Fe99      1.0  0.61345  0.18279  0.86041  1.0000
  S   S197      1.0  0.59618  0.16153  0.85132  1.0000
  Fe  Fe100     1.0  0.64222  0.19929  0.89970  1.0000
  S   S198      1.0  0.66673  0.19651  0.93092  1.0000
  S   S199      1.0  0.60514  0.20666  0.82986  1.0000
  H   H866      1.0  0.72962  0.20291  0.66426  1.0000
  Fe  Fe101     1.0  0.67759  0.01716  0.44192  1.0000
  S   S200      1.0  0.68282  0.99870  0.49234  1.0000
  S   S201      1.0  0.68723  0.04330  0.44134  1.0000
  C   C731      1.0  0.62162  0.03275  0.99323  1.0000
  H   H867      1.0  0.62344  0.02157  0.05324  1.0000
  S   S202      1.0  0.65027  0.01605  0.45135  1.0000
  Fe  Fe102     1.0  0.57687  0.02787  0.83185  1.0000
  S   S203      1.0  0.56115  0.02692  0.77646  1.0000
  S   S204      1.0  0.57944  0.00433  0.87095  1.0000
  Fe  Fe103     1.0  0.58529  0.06398  0.81420  1.0000
  S   S205      1.0  0.56969  0.06529  0.75881  1.0000
  S   S206      1.0  0.60256  0.08326  0.83718  1.0000
  Fe  Fe104     1.0  0.55102  0.05137  0.79674  1.0000
  S   S207      1.0  0.52446  0.05972  0.81089  1.0000
  Fe  Fe105     1.0  0.58120  0.04057  0.74261  1.0000
  S   S208      1.0  0.59037  0.03734  0.67542  1.0000
  S   S209      1.0  0.56605  0.05169  0.85320  1.0000
  S   S210      1.0  0.59749  0.03983  0.79685  1.0000
  C   C732      1.0  0.50438  0.05191  0.81053  1.0000
  C   C733      1.0  0.53084  0.01348  0.85549  1.0000
  H   H868      1.0  0.73515  0.19783  0.19559  1.0000
  C   C734      1.0  0.54712  0.21850  0.92840  1.0000
  H   H869      1.0  0.51061  0.03001  0.77806  1.0000
  C   C735      1.0  0.62841  0.00876  0.59410  1.0000
  C   C736      1.0  0.61945  0.02231  0.57873  1.0000
  C   C737      1.0  0.60807  0.03090  0.60411  1.0000
  C   C738      1.0  0.60544  0.02625  0.64537  1.0000
  C   C739      1.0  0.61460  0.01287  0.66085  1.0000
  C   C740      1.0  0.62589  0.00420  0.63541  1.0000
  H   H870      1.0  0.62108  0.02608  0.54721  1.0000
  H   H871      1.0  0.60112  0.04119  0.59156  1.0000
  H   H872      1.0  0.61282  0.00904  0.69236  1.0000
  C   C741      1.0  0.57782  0.99863  0.92368  1.0000
  C   C742      1.0  0.57579  0.01011  0.95441  1.0000
  C   C743      1.0  0.57539  0.00494  0.99576  1.0000
  H   H873      1.0  0.57494  0.02296  0.94655  1.0000
  H   H874      1.0  0.55307  0.19513  0.82226  1.0000
  C   C744      1.0  0.59851  0.13982  0.84626  1.0000
  C   C745      1.0  0.58493  0.13091  0.83550  1.0000
  C   C746      1.0  0.58597  0.11373  0.83192  1.0000
  C   C747      1.0  0.60062  0.10509  0.83951  1.0000
  C   C748      1.0  0.61421  0.11399  0.85037  1.0000
  C   C749      1.0  0.61321  0.13120  0.85351  1.0000
  H   H875      1.0  0.57347  0.13734  0.82978  1.0000
  H   H876      1.0  0.57538  0.10716  0.82361  1.0000
  H   H877      1.0  0.62562  0.10753  0.85635  1.0000
  H   H878      1.0  0.62378  0.13777  0.86190  1.0000
  C   C750      1.0  0.70604  0.05258  0.42679  1.0000
  C   C751      1.0  0.72014  0.04348  0.41586  1.0000
  C   C752      1.0  0.72146  0.07770  0.41661  1.0000
  C   C753      1.0  0.70686  0.06973  0.42717  1.0000
  H   H879      1.0  0.71979  0.03031  0.41540  1.0000
  H   H880      1.0  0.72179  0.09088  0.41698  1.0000
  H   H881      1.0  0.69609  0.07696  0.43547  1.0000
  C   C754      1.0  0.50826  0.02036  0.90173  1.0000
  H   H882      1.0  0.50121  0.99679  0.87940  1.0000
  C   C755      1.0  0.68986  0.21055  0.97631  1.0000
  C   C756      1.0  0.67315  0.20791  0.97230  1.0000
  H   H883      1.0  0.70582  0.22696  0.86095  1.0000
  H   H884      1.0  0.49388  0.07263  0.84208  1.0000
  N   N49       1.0  0.70089  0.18917  0.64389  1.0000
  N   N50       1.0  0.71294  0.18191  0.09701  1.0000
  H   H885      1.0  0.50683  0.21983  0.86909  1.0000
  C   C757      1.0  0.69551  0.22781  0.72936  1.0000
  C   C758      1.0  0.69017  0.21954  0.76495  1.0000
  C   C759      1.0  0.67344  0.21766  0.77338  1.0000
  C   C760      1.0  0.66190  0.22395  0.74609  1.0000
  H   H886      1.0  0.72410  0.19933  0.38903  1.0000
  C   C761      1.0  0.69792  0.20632  0.62973  1.0000
  H   H887      1.0  0.69899  0.21434  0.78590  1.0000
  H   H888      1.0  0.66947  0.21119  0.80080  1.0000
  C   C762      1.0  0.54518  0.20675  0.89783  1.0000
  C   C763      1.0  0.61889  0.00386  0.00828  1.0000
  S   S211      1.0  0.64079  0.22150  0.75519  1.0000
  C   C764      1.0  0.72118  0.17003  0.60709  1.0000
  H   H889      1.0  0.71924  0.16981  0.04110  1.0000
  H   H890      1.0  0.57319  0.18829  0.83431  1.0000
  H   H891      1.0  0.70756  0.19592  0.70441  1.0000
  C   C765      1.0  0.53606  0.03029  0.91178  1.0000
  C   C766      1.0  0.61635  0.00119  0.96730  1.0000
  H   H892      1.0  0.54932  0.02716  0.90869  1.0000
  S   S212      1.0  0.63549  0.22378  0.87242  1.0000
  H   H893      1.0  0.63271  0.99381  0.64795  1.0000
  C   C767      1.0  0.57830  0.01472  0.50831  1.0000
  C   C768      1.0  0.73557  0.06861  0.40580  1.0000
  H   H894      1.0  0.70836  0.22142  0.01177  1.0000
  H   H895      1.0  0.52656  0.00387  0.95631  1.0000
  H   H896      1.0  0.54170  0.17544  0.87166  1.0000
  Fe  Fe106     1.0  0.65540  0.99690  0.49953  1.0000
  H   H897      1.0  0.73205  0.18285  0.50264  1.0000
  H   H898      1.0  0.53389  0.04157  0.89268  1.0000
  H   H899      1.0  0.61398  0.01476  0.42118  1.0000
  H   H900      1.0  0.56749  0.20961  0.83785  1.0000
  H   H901      1.0  0.52432  0.00316  0.84293  1.0000
  C   C769      1.0  0.66725  0.23234  0.71064  1.0000
  C   C770      1.0  0.56312  0.19701  0.84346  1.0000
  C   C771      1.0  0.58789  0.99724  0.57812  1.0000
  H   H902      1.0  0.52786  0.19897  0.85340  1.0000
  H   H903      1.0  0.55815  0.21921  0.94544  1.0000
  H   H904      1.0  0.61470  0.02131  0.47298  1.0000
  C   C772      1.0  0.53020  0.20747  0.87702  1.0000
  C   C773      1.0  0.71771  0.18371  0.63212  1.0000
  H   H905      1.0  0.65923  0.22669  0.05839  1.0000
  H   H906      1.0  0.69845  0.20585  0.95366  1.0000
  H   H907      1.0  0.59704  0.02571  0.44306  1.0000
  C   C774      1.0  0.52046  0.23079  0.91551  1.0000
  H   H908      1.0  0.69605  0.15811  0.14343  1.0000
  S   S213      1.0  0.69098  0.23574  0.08165  1.0000
  H   H909      1.0  0.61313  0.01160  0.90821  1.0000
  C   C775      1.0  0.73724  0.16535  0.59639  1.0000
  C   C776      1.0  0.68449  0.22514  0.03902  1.0000
  Fe  Fe107     1.0  0.65075  0.99552  0.40669  1.0000
  C   C777      1.0  0.59131  0.00296  0.50462  1.0000
  C   C778      1.0  0.66781  0.22234  0.03526  1.0000
  H   H910      1.0  0.56154  0.16825  0.88542  1.0000
  H   H911      1.0  0.50900  0.04553  0.92332  1.0000
  C   C779      1.0  0.49144  0.06108  0.82860  1.0000
  N   N51       1.0  0.52604  0.01674  0.89841  1.0000
  C   C780      1.0  0.49703  0.00847  0.89090  1.0000
  H   H912      1.0  0.69064  0.19217  0.07183  1.0000
  H   H913      1.0  0.73389  0.18427  0.05596  1.0000
  H   H914      1.0  0.69125  0.17040  0.07775  1.0000
  H   H915      1.0  0.57011  0.19326  0.94457  1.0000
  C   C781      1.0  0.57289  0.19531  0.91157  1.0000
  C   C782      1.0  0.62165  0.01957  0.02117  1.0000
  C   C783      1.0  0.61615  0.01427  0.93916  1.0000
  C   C784      1.0  0.69550  0.21930  0.00925  1.0000
  H   H916      1.0  0.57880  0.20728  0.90717  1.0000
  C   C785      1.0  0.50154  0.03551  0.91563  1.0000
  C   C786      1.0  0.71677  0.19732  0.11674  1.0000
  H   H917      1.0  0.70777  0.13659  0.18667  1.0000
  C   C787      1.0  0.51808  0.21935  0.88575  1.0000
  H   H918      1.0  0.68826  0.18344  0.12143  1.0000
  H   H919      1.0  0.73757  0.13310  0.19309  1.0000
  N   N52       1.0  0.55808  0.19447  0.88677  1.0000
  H   H920      1.0  0.58224  0.18580  0.90292  1.0000
  C   C788      1.0  0.50093  0.03706  0.79290  1.0000
  H   H921      1.0  0.70081  0.17553  0.70076  1.0000
  N   N53       1.0  0.61695  0.04430  0.92157  1.0000
  C   C789      1.0  0.62697  0.04123  0.88411  1.0000
  C   C790      1.0  0.59963  0.04599  0.91035  1.0000
  C   C791      1.0  0.62177  0.06023  0.93746  1.0000
  H   H922      1.0  0.62277  0.03073  0.86684  1.0000
  H   H923      1.0  0.62632  0.05187  0.86222  1.0000
  H   H924      1.0  0.63999  0.03880  0.89150  1.0000
  H   H925      1.0  0.59546  0.03495  0.89516  1.0000
  H   H926      1.0  0.59753  0.05652  0.88897  1.0000
  H   H927      1.0  0.59159  0.04801  0.93763  1.0000
  H   H928      1.0  0.63461  0.05966  0.94757  1.0000
  H   H929      1.0  0.62080  0.07020  0.91371  1.0000
  H   H930      1.0  0.61362  0.06430  0.96305  1.0000
  H   H931      1.0  0.62352  0.04461  0.00546  1.0000
  C   C792      1.0  0.72067  0.18179  0.05564  1.0000
  H   H932      1.0  0.52465  0.99092  0.91336  1.0000
  S   S214      1.0  0.71672  0.22884  0.71921  1.0000
  C   C793      1.0  0.70917  0.15708  0.14422  1.0000
  H   H933      1.0  0.67561  0.18371  0.63609  1.0000
  C   C794      1.0  0.53486  0.23024  0.93704  1.0000
  H   H934      1.0  0.57419  0.02186  0.48222  1.0000
  H   H935      1.0  0.71134  0.19784  0.14810  1.0000
  C   C795      1.0  0.61874  0.03049  0.95123  1.0000
  H   H936      1.0  0.57429  0.01395  0.01927  1.0000
  H   H937      1.0  0.71191  0.20815  0.09934  1.0000
  C   C796      1.0  0.69883  0.18825  0.68888  1.0000
  C   C797      1.0  0.69500  0.18185  0.09191  1.0000
  H   H938      1.0  0.54412  0.01037  0.85216  1.0000
  C   C798      1.0  0.71941  0.16799  0.12203  1.0000
  H   H939      1.0  0.68642  0.19265  0.69908  1.0000
  H   H940      1.0  0.68513  0.21065  0.63614  1.0000
  C   C799      1.0  0.57547  0.00917  0.58082  1.0000
  H   H941      1.0  0.53357  0.03314  0.94432  1.0000
  S   S215      1.0  0.72664  0.23591  0.15927  1.0000
  H   H942      1.0  0.70572  0.21493  0.64517  1.0000
  H   H943      1.0  0.68855  0.17985  0.59258  1.0000
  H   H944      1.0  0.54741  0.17554  0.92414  1.0000
  H   H945      1.0  0.73012  0.19879  0.11934  1.0000
  N   N54       1.0  0.67171  0.04452  0.56814  1.0000
  C   C800      1.0  0.67860  0.02946  0.58826  1.0000
  C   C801      1.0  0.66132  0.03971  0.53459  1.0000
  C   C802      1.0  0.68559  0.05358  0.54980  1.0000
  C   C803      1.0  0.66161  0.05419  0.59742  1.0000
  C   C804      1.0  0.64939  0.04661  0.62188  1.0000
  C   C805      1.0  0.66289  0.07136  0.60095  1.0000
  C   C806      1.0  0.63923  0.05556  0.64849  1.0000
  C   C807      1.0  0.65270  0.08021  0.62785  1.0000
  C   C808      1.0  0.64090  0.07232  0.65154  1.0000
  H   H946      1.0  0.66914  0.02047  0.59654  1.0000
  H   H947      1.0  0.68737  0.02275  0.56779  1.0000
  H   H948      1.0  0.68507  0.03239  0.61639  1.0000
  H   H949      1.0  0.65119  0.03199  0.54564  1.0000
  H   H950      1.0  0.66849  0.03257  0.51166  1.0000
  H   H951      1.0  0.65589  0.05059  0.51836  1.0000
  H   H952      1.0  0.69355  0.05820  0.57358  1.0000
  H   H953      1.0  0.69342  0.04573  0.52947  1.0000
  H   H954      1.0  0.68138  0.06394  0.52968  1.0000
  H   H955      1.0  0.64736  0.03371  0.62018  1.0000
  H   H956      1.0  0.67155  0.07828  0.58300  1.0000
  H   H957      1.0  0.62983  0.04950  0.66649  1.0000
  H   H958      1.0  0.65382  0.09330  0.63009  1.0000
  H   H959      1.0  0.63289  0.07921  0.67206  1.0000
  C   C809      1.0  0.55185  0.17775  0.89226  1.0000
  H   H960      1.0  0.71177  0.16286  0.59481  1.0000
  H   H961      1.0  0.68917  0.16625  0.63701  1.0000
  H   H962      1.0  0.61515  0.00173  0.28025  1.0000
  H   H963      1.0  0.71519  0.19141  0.03521  1.0000
  C   C810      1.0  0.66214  0.21380  0.00201  1.0000
  S   S216      1.0  0.67759  0.99825  0.39335  1.0000
  H   H964      1.0  0.54374  0.99936  0.92314  1.0000
  C   C811      1.0  0.53036  0.00210  0.92390  1.0000
  C   C812      1.0  0.73648  0.16551  0.12642  1.0000
  H   H965      1.0  0.72847  0.17527  0.24439  1.0000
  H   H966      1.0  0.70042  0.20776  0.59637  1.0000
  H   H967      1.0  0.52831  0.02442  0.83562  1.0000
  C   C813      1.0  0.73126  0.19230  0.64552  1.0000
  C   C814      1.0  0.60664  0.01627  0.44996  1.0000
  C   C815      1.0  0.57061  0.01782  0.54594  1.0000
  S   S217      1.0  0.73939  0.22888  0.06511  1.0000
  H   H968      1.0  0.56104  0.02721  0.54836  1.0000
  H   H969      1.0  0.65837  0.23732  0.68949  1.0000
  H   H970      1.0  0.61831  0.99376  0.03022  1.0000
  H   H971      1.0  0.59192  0.99084  0.60558  1.0000
  C   C816      1.0  0.68399  0.23436  0.70238  1.0000
  H   H972      1.0  0.64402  0.23521  0.95085  1.0000
  S   S218      1.0  0.72910  0.23578  0.59720  1.0000
  S   S219      1.0  0.59377  0.23782  0.92356  1.0000
  N   N55       1.0  0.59984  0.00059  0.46481  1.0000
  C   C817      1.0  0.73666  0.19760  0.40073  1.0000
  H   H973      1.0  0.73637  0.18701  0.42262  1.0000
  H   H974      1.0  0.73248  0.22571  0.36724  1.0000
  C   C818      1.0  0.59578  0.99413  0.54075  1.0000
  H   H975      1.0  0.57827  0.00419  0.42864  1.0000
  H   H976      1.0  0.73967  0.20830  0.41906  1.0000
  H   H977      1.0  0.71383  0.23328  0.93092  1.0000
  H   H978      1.0  0.59450  0.99280  0.40439  1.0000
  H   H979      1.0  0.73967  0.15521  0.57623  1.0000
  C   C819      1.0  0.58827  0.99504  0.43447  1.0000
  H   H980      1.0  0.72040  0.23849  0.80196  1.0000
  C   C820      1.0  0.72024  0.23862  0.90488  1.0000
  C   C821      1.0  0.73254  0.14247  0.17264  1.0000
  C   C822      1.0  0.71573  0.23512  0.86550  1.0000
  H   H981      1.0  0.62299  0.99201  0.48805  1.0000
  C   C823      1.0  0.73975  0.22306  0.34024  1.0000
  C   C824      1.0  0.73996  0.23529  0.30971  1.0000
  H   H982      1.0  0.53675  0.23932  0.95978  1.0000
  C   C825      1.0  0.74087  0.17649  0.23318  1.0000
  H   H983      1.0  0.74087  0.20592  0.54349  1.0000
  C   C826      1.0  0.63971  0.26434  0.87675  1.0000
  S   S220      1.0  0.71823  0.27471  0.53580  1.0000
  C   C827      1.0  0.73722  0.25248  0.83666  1.0000
  H   H984      1.0  0.51904  0.33016  0.13763  1.0000
  C   C828      1.0  0.65335  0.25957  0.90059  1.0000
  S   S221      1.0  0.72677  0.26610  0.09101  1.0000
  Fe  Fe108     1.0  0.70895  0.35931  0.40645  1.0000
  S   S222      1.0  0.72848  0.36108  0.35736  1.0000
  S   S223      1.0  0.71692  0.34850  0.46796  1.0000
  Fe  Fe109     1.0  0.68461  0.38136  0.35807  1.0000
  S   S224      1.0  0.70339  0.38490  0.30776  1.0000
  S   S225      1.0  0.66049  0.39614  0.34835  1.0000
  Fe  Fe110     1.0  0.70824  0.35778  0.31383  1.0000
  S   S226      1.0  0.70811  0.34507  0.25265  1.0000
  Fe  Fe111     1.0  0.72206  0.38808  0.35584  1.0000
  H   H985      1.0  0.71978  0.29909  0.16218  1.0000
  S   S227      1.0  0.68890  0.35404  0.36296  1.0000
  S   S228      1.0  0.70303  0.38652  0.40600  1.0000
  S   S229      1.0  0.51415  0.32304  0.92993  1.0000
  C   C829      1.0  0.55328  0.47349  0.32082  1.0000
  Fe  Fe112     1.0  0.50965  0.29634  0.92188  1.0000
  S   S230      1.0  0.52712  0.27860  0.88716  1.0000
  Fe  Fe113     1.0  0.56153  0.39779  0.29748  1.0000
  S   S231      1.0  0.55616  0.41201  0.23920  1.0000
  S   S232      1.0  0.58490  0.38378  0.31757  1.0000
  Fe  Fe114     1.0  0.52555  0.39878  0.32540  1.0000
  S   S233      1.0  0.51780  0.41289  0.26919  1.0000
  S   S234      1.0  0.50802  0.38770  0.37315  1.0000
  Fe  Fe115     1.0  0.53442  0.39593  0.23265  1.0000
  S   S235      1.0  0.52643  0.38876  0.16798  1.0000
  Fe  Fe116     1.0  0.53977  0.42812  0.27895  1.0000
  S   S236      1.0  0.53526  0.45568  0.26689  1.0000
  S   S237      1.0  0.54080  0.38081  0.28849  1.0000
  S   S238      1.0  0.54647  0.41489  0.33746  1.0000
  C   C830      1.0  0.54151  0.47377  0.29068  1.0000
  H   H986      1.0  0.55213  0.44904  0.19357  1.0000
  H   H987      1.0  0.55874  0.46195  0.33091  1.0000
  H   H988      1.0  0.50898  0.36450  0.04010  1.0000
  C   C831      1.0  0.51347  0.34559  0.08536  1.0000
  C   C832      1.0  0.51263  0.36185  0.07103  1.0000
  C   C833      1.0  0.51658  0.37475  0.09671  1.0000
  C   C834      1.0  0.52144  0.37175  0.13724  1.0000
  C   C835      1.0  0.52219  0.35550  0.15163  1.0000
  C   C836      1.0  0.50867  0.32924  0.72402  1.0000
  C   C837      1.0  0.54056  0.43238  0.01795  1.0000
  H   H989      1.0  0.51584  0.38718  0.08500  1.0000
  H   H990      1.0  0.52590  0.35285  0.18251  1.0000
  H   H991      1.0  0.62959  0.26660  0.81678  1.0000
  H   H992      1.0  0.72863  0.38002  0.46632  1.0000
  H   H993      1.0  0.66657  0.25643  0.99969  1.0000
  H   H994      1.0  0.53455  0.47170  0.13566  1.0000
  C   C838      1.0  0.55384  0.26889  0.93472  1.0000
  C   C839      1.0  0.54585  0.26765  0.89782  1.0000
  C   C840      1.0  0.55283  0.25723  0.86812  1.0000
  C   C841      1.0  0.56747  0.24812  0.87519  1.0000
  C   C842      1.0  0.52739  0.46157  0.14907  1.0000
  H   H995      1.0  0.54872  0.27681  0.95792  1.0000
  H   H996      1.0  0.54679  0.25609  0.83950  1.0000
  H   H997      1.0  0.67891  0.24830  0.82078  1.0000
  H   H998      1.0  0.67851  0.24963  0.89441  1.0000
  C   C843      1.0  0.72564  0.32369  0.52179  1.0000
  N   N56       1.0  0.65209  0.25985  0.94567  1.0000
  C   C844      1.0  0.63938  0.39244  0.34131  1.0000
  C   C845      1.0  0.62879  0.40565  0.33037  1.0000
  C   C846      1.0  0.61209  0.40335  0.32344  1.0000
  C   C847      1.0  0.60572  0.38775  0.32722  1.0000
  C   C848      1.0  0.61621  0.37461  0.33895  1.0000
  C   C849      1.0  0.63287  0.37691  0.34610  1.0000
  H   H999      1.0  0.63359  0.41775  0.32690  1.0000
  H   H1000     1.0  0.60423  0.41362  0.31468  1.0000
  H   H1001     1.0  0.61145  0.36249  0.34227  1.0000
  H   H1002     1.0  0.64061  0.36667  0.35562  1.0000
  C   C850      1.0  0.71627  0.32528  0.24192  1.0000
  C   C851      1.0  0.71433  0.31903  0.20287  1.0000
  C   C852      1.0  0.72130  0.30370  0.19235  1.0000
  H   H1003     1.0  0.65432  0.28591  0.94596  1.0000
  H   H1004     1.0  0.63366  0.27932  0.95005  1.0000
  C   C853      1.0  0.72510  0.31598  0.27057  1.0000
  C   C854      1.0  0.64017  0.24771  0.96042  1.0000
  H   H1005     1.0  0.59470  0.42961  0.39083  1.0000
  C   C855      1.0  0.64637  0.27627  0.95909  1.0000
  C   C856      1.0  0.53698  0.44081  0.10115  1.0000
  C   C857      1.0  0.71880  0.29515  0.51643  1.0000
  S   S239      1.0  0.50856  0.32858  0.05456  1.0000
  C   C858      1.0  0.64032  0.26345  0.83427  1.0000
  C   C859      1.0  0.71783  0.32774  0.48505  1.0000
  C   C860      1.0  0.71068  0.31538  0.46378  1.0000
  C   C861      1.0  0.71106  0.29920  0.47959  1.0000
  H   H1006     1.0  0.72586  0.25911  0.75872  1.0000
  C   C862      1.0  0.55240  0.44603  0.16067  1.0000
  H   H1007     1.0  0.70457  0.31830  0.43560  1.0000
  H   H1008     1.0  0.70524  0.28978  0.46329  1.0000
  N   N57       1.0  0.66077  0.36470  0.23829  1.0000
  C   C863      1.0  0.66298  0.35614  0.27810  1.0000
  C   C864      1.0  0.66490  0.35308  0.20535  1.0000
  C   C865      1.0  0.67274  0.37791  0.23521  1.0000
  C   C866      1.0  0.64363  0.37071  0.23502  1.0000
  C   C867      1.0  0.63909  0.38761  0.23248  1.0000
  C   C868      1.0  0.63080  0.35950  0.23487  1.0000
  C   C869      1.0  0.62278  0.39280  0.22896  1.0000
  C   C870      1.0  0.61453  0.36485  0.23175  1.0000
  C   C871      1.0  0.61054  0.38146  0.22857  1.0000
  H   H1009     1.0  0.65451  0.34598  0.28320  1.0000
  H   H1010     1.0  0.67553  0.35074  0.28077  1.0000
  H   H1011     1.0  0.66101  0.36471  0.30358  1.0000
  H   H1012     1.0  0.65797  0.34169  0.20850  1.0000
  H   H1013     1.0  0.67802  0.34907  0.20564  1.0000
  H   H1014     1.0  0.66244  0.35873  0.17489  1.0000
  H   H1015     1.0  0.67114  0.38651  0.26092  1.0000
  H   H1016     1.0  0.68551  0.37293  0.23678  1.0000
  H   H1017     1.0  0.67179  0.38491  0.20591  1.0000
  H   H1018     1.0  0.64783  0.39710  0.23419  1.0000
  H   H1019     1.0  0.63324  0.34651  0.23796  1.0000
  H   H1020     1.0  0.61953  0.40573  0.22811  1.0000
  H   H1021     1.0  0.60487  0.35613  0.23279  1.0000
  H   H1022     1.0  0.59786  0.38556  0.22741  1.0000
  H   H1023     1.0  0.73113  0.33316  0.53862  1.0000
  H   H1024     1.0  0.55436  0.36989  0.48543  1.0000
  H   H1025     1.0  0.53098  0.31307  0.84045  1.0000
  C   C872      1.0  0.49890  0.39605  0.41810  1.0000
  N   N58       1.0  0.52024  0.31113  0.78142  1.0000
  C   C873      1.0  0.57540  0.24927  0.91222  1.0000
  S   S240      1.0  0.49746  0.29374  0.98381  1.0000
  H   H1026     1.0  0.62777  0.25023  0.94829  1.0000
  H   H1027     1.0  0.52269  0.33206  0.81897  1.0000
  C   C874      1.0  0.56847  0.25975  0.94181  1.0000
  C   C875      1.0  0.66809  0.25306  0.83660  1.0000
  C   C876      1.0  0.52653  0.43351  0.17029  1.0000
  H   H1028     1.0  0.70757  0.32616  0.18048  1.0000
  C   C877      1.0  0.51786  0.29332  0.78743  1.0000
  H   H1029     1.0  0.73215  0.30455  0.56572  1.0000
  H   H1030     1.0  0.57443  0.26079  0.97059  1.0000
  H   H1031     1.0  0.52476  0.43766  0.20209  1.0000
  H   H1032     1.0  0.54643  0.44112  0.43612  1.0000
  S   S241      1.0  0.73078  0.26794  0.65502  1.0000
  C   C878      1.0  0.66764  0.25389  0.87913  1.0000
  C   C879      1.0  0.53442  0.42117  0.04643  1.0000
  C   C880      1.0  0.52098  0.31865  0.82183  1.0000
  C   C881      1.0  0.53268  0.42521  0.08745  1.0000
  H   H1033     1.0  0.63891  0.24735  0.99425  1.0000
  H   H1034     1.0  0.51525  0.46187  0.13474  1.0000
  H   H1035     1.0  0.53110  0.40917  0.03684  1.0000
  Fe  Fe117     1.0  0.71739  0.24059  0.09567  1.0000
  C   C882      1.0  0.50645  0.31878  0.75882  1.0000
  H   H1036     1.0  0.73433  0.42439  0.42124  1.0000
  H   H1037     1.0  0.55912  0.43407  0.15764  1.0000
  C   C883      1.0  0.72624  0.30747  0.53727  1.0000
  H   H1038     1.0  0.65468  0.25657  0.78143  1.0000
  C   C884      1.0  0.51824  0.34260  0.12595  1.0000
  H   H1039     1.0  0.72669  0.32064  0.30070  1.0000
  C   C885      1.0  0.73424  0.26770  0.77246  1.0000
  H   H1040     1.0  0.50954  0.31710  0.83988  1.0000
  C   C886      1.0  0.53633  0.31311  0.76055  1.0000
  H   H1041     1.0  0.52871  0.28696  0.80103  1.0000
  H   H1042     1.0  0.55972  0.45546  0.14457  1.0000
  H   H1043     1.0  0.51419  0.43162  0.15835  1.0000
  Fe  Fe118     1.0  0.50048  0.32101  0.99038  1.0000
  H   H1044     1.0  0.53965  0.32616  0.75831  1.0000
  H   H1045     1.0  0.68794  0.24084  0.67498  1.0000
  H   H1046     1.0  0.57279  0.45006  0.40699  1.0000
  H   H1047     1.0  0.59082  0.40082  0.40334  1.0000
  C   C887      1.0  0.50168  0.41194  0.43019  1.0000
  H   H1048     1.0  0.54630  0.30671  0.77771  1.0000
  H   H1049     1.0  0.74061  0.27378  0.74609  1.0000
  C   C888      1.0  0.65445  0.25776  0.81427  1.0000
  H   H1050     1.0  0.73297  0.24663  0.31371  1.0000
  H   H1051     1.0  0.64637  0.27717  0.99289  1.0000
  H   H1052     1.0  0.53313  0.42150  0.17274  1.0000
  C   C889      1.0  0.66779  0.25590  0.96585  1.0000
  H   H1053     1.0  0.49570  0.43059  0.47397  1.0000
  H   H1054     1.0  0.52545  0.46465  0.18180  1.0000
  H   H1055     1.0  0.52057  0.33215  0.71188  1.0000
  H   H1056     1.0  0.57260  0.24020  0.85201  1.0000
  C   C890      1.0  0.54351  0.45181  0.07142  1.0000
  N   N59       1.0  0.53575  0.44533  0.14453  1.0000
  H   H1057     1.0  0.67734  0.26457  0.95605  1.0000
  H   H1058     1.0  0.51546  0.28744  0.75811  1.0000
  C   C891      1.0  0.73042  0.29456  0.22075  1.0000
  H   H1059     1.0  0.67228  0.24326  0.95939  1.0000
  H   H1060     1.0  0.55013  0.45627  0.00826  1.0000
  H   H1061     1.0  0.54286  0.38841  0.48079  1.0000
  H   H1062     1.0  0.53648  0.30794  0.72952  1.0000
  N   N60       1.0  0.56281  0.38591  0.43658  1.0000
  C   C892      1.0  0.55127  0.38064  0.40594  1.0000
  C   C893      1.0  0.57777  0.37523  0.43343  1.0000
  C   C894      1.0  0.55547  0.38313  0.47788  1.0000
  C   C895      1.0  0.56597  0.40347  0.42944  1.0000
  C   C896      1.0  0.55359  0.41555  0.43778  1.0000
  C   C897      1.0  0.58089  0.40905  0.41213  1.0000
  C   C898      1.0  0.55615  0.43215  0.43017  1.0000
  C   C899      1.0  0.58328  0.42568  0.40451  1.0000
  C   C900      1.0  0.57096  0.43721  0.41357  1.0000
  H   H1063     1.0  0.55649  0.38213  0.37451  1.0000
  H   H1064     1.0  0.54820  0.36759  0.41032  1.0000
  H   H1065     1.0  0.53959  0.38790  0.40715  1.0000
  H   H1066     1.0  0.57524  0.36223  0.44093  1.0000
  H   H1067     1.0  0.58729  0.37913  0.45433  1.0000
  H   H1068     1.0  0.58300  0.37520  0.40183  1.0000
  H   H1069     1.0  0.56295  0.38853  0.50159  1.0000
  H   H1070     1.0  0.54160  0.41225  0.44878  1.0000
  C   C901      1.0  0.73819  0.38931  0.46440  1.0000
  H   H1071     1.0  0.50763  0.29063  0.80911  1.0000
  Fe  Fe119     1.0  0.73273  0.26293  0.58780  1.0000
  H   H1072     1.0  0.62819  0.26808  0.89084  1.0000
  H   H1073     1.0  0.52811  0.41580  0.10787  1.0000
  H   H1074     1.0  0.52554  0.48940  0.25465  1.0000
  H   H1075     1.0  0.50978  0.41953  0.41212  1.0000
  C   C902      1.0  0.73222  0.30075  0.25990  1.0000
  C   C903      1.0  0.55821  0.48824  0.33748  1.0000
  H   H1076     1.0  0.73687  0.25132  0.94150  1.0000
  C   C904      1.0  0.49365  0.41819  0.46529  1.0000
  H   H1077     1.0  0.72669  0.27719  0.78846  1.0000
  H   H1078     1.0  0.49482  0.36943  0.78109  1.0000
  C   C905      1.0  0.72412  0.24185  0.83187  1.0000
  C   C906      1.0  0.53465  0.48898  0.27790  1.0000
  H   H1079     1.0  0.54766  0.46362  0.07975  1.0000
  Fe  Fe120     1.0  0.72940  0.24081  0.66430  1.0000
  C   C907      1.0  0.54514  0.44765  0.03043  1.0000
  C   C908      1.0  0.73319  0.24880  0.91076  1.0000
  H   H1080     1.0  0.54192  0.42914  0.98622  1.0000
  H   H1081     1.0  0.49725  0.34476  0.67814  1.0000
  H   H1082     1.0  0.73541  0.39798  0.48924  1.0000
  H   H1083     1.0  0.73926  0.29376  0.28208  1.0000
  Fe  Fe121     1.0  0.73784  0.26054  0.15205  1.0000
  C   C909      1.0  0.49534  0.33658  0.70413  1.0000
  H   H1084     1.0  0.56747  0.48788  0.36037  1.0000
  H   H1085     1.0  0.73672  0.39614  0.43498  1.0000
  H   H1086     1.0  0.51123  0.24025  0.92161  1.0000
  H   H1087     1.0  0.49395  0.29815  0.07823  1.0000
  S   S242      1.0  0.74059  0.27584  0.20829  1.0000
  H   H1088     1.0  0.74055  0.35392  0.14235  1.0000
  C   C910      1.0  0.57341  0.73763  0.88581  1.0000
  H   H1089     1.0  0.53143  0.55246  0.48459  1.0000
  C   C911      1.0  0.73670  0.53190  0.48412  1.0000
  C   C912      1.0  0.57005  0.72691  0.99668  1.0000
  C   C913      1.0  0.72632  0.52485  0.41867  1.0000
  H   H1090     1.0  0.72326  0.69968  0.54730  1.0000
  S   S243      1.0  0.49661  0.68681  0.06609  1.0000
  S   S244      1.0  0.50793  0.65412  0.01345  1.0000
  Fe  Fe122     1.0  0.49233  0.65961  0.06940  1.0000
  C   C914      1.0  0.73671  0.52076  0.45159  1.0000
  Fe  Fe123     1.0  0.51128  0.68146  0.00912  1.0000
  S   S245      1.0  0.53745  0.69026  0.99769  1.0000
  H   H1091     1.0  0.71762  0.60288  0.32664  1.0000
  Fe  Fe124     1.0  0.52684  0.57348  0.38513  1.0000
  S   S246      1.0  0.55162  0.56275  0.40109  1.0000
  S   S247      1.0  0.50255  0.57185  0.42097  1.0000
  Fe  Fe125     1.0  0.53696  0.57961  0.29494  1.0000
  S   S248      1.0  0.56216  0.56854  0.30466  1.0000
  S   S249      1.0  0.52928  0.58766  0.23009  1.0000
  Fe  Fe126     1.0  0.55013  0.54878  0.34268  1.0000
  S   S250      1.0  0.55848  0.52170  0.34613  1.0000
  Fe  Fe127     1.0  0.56221  0.58315  0.36194  1.0000
  S   S251      1.0  0.58353  0.60068  0.36811  1.0000
  S   S252      1.0  0.52509  0.55864  0.32847  1.0000
  S   S253      1.0  0.53726  0.59505  0.35049  1.0000
  Fe  Fe128     1.0  0.67589  0.61410  0.45494  1.0000
  S   S254      1.0  0.69212  0.61553  0.39932  1.0000
  S   S255      1.0  0.65274  0.59876  0.45693  1.0000
  Fe  Fe129     1.0  0.70056  0.63340  0.50481  1.0000
  S   S256      1.0  0.71830  0.63564  0.45157  1.0000
  S   S257      1.0  0.70522  0.64292  0.56885  1.0000
  Fe  Fe130     1.0  0.69579  0.64157  0.41567  1.0000
  S   S258      1.0  0.69167  0.66124  0.36695  1.0000
  Fe  Fe131     1.0  0.71332  0.60913  0.43989  1.0000
  H   H1092     1.0  0.54159  0.70335  0.90452  1.0000
  S   S259      1.0  0.67818  0.64070  0.46930  1.0000
  S   S260      1.0  0.69690  0.60637  0.49539  1.0000
  H   H1093     1.0  0.71941  0.63774  0.35524  1.0000
  C   C915      1.0  0.73319  0.63674  0.27895  1.0000
  C   C916      1.0  0.49393  0.57828  0.46854  1.0000
  C   C917      1.0  0.60301  0.59937  0.39182  1.0000
  C   C918      1.0  0.60733  0.58695  0.41994  1.0000
  C   C919      1.0  0.62261  0.58689  0.43899  1.0000
  C   C920      1.0  0.63397  0.59907  0.42997  1.0000
  C   C921      1.0  0.62974  0.61139  0.40148  1.0000
  C   C922      1.0  0.61435  0.61161  0.38292  1.0000
  H   H1094     1.0  0.59884  0.57744  0.42730  1.0000
  H   H1095     1.0  0.62567  0.57726  0.46087  1.0000
  H   H1096     1.0  0.63827  0.62085  0.39397  1.0000
  H   H1097     1.0  0.61123  0.62130  0.36130  1.0000
  H   H1098     1.0  0.73146  0.49146  0.41430  1.0000
  C   C923      1.0  0.71661  0.54965  0.45106  1.0000
  C   C924      1.0  0.55137  0.50347  0.32467  1.0000
  C   C925      1.0  0.53946  0.50371  0.29488  1.0000
  C   C926      1.0  0.71803  0.61336  0.30431  1.0000
  H   H1099     1.0  0.53410  0.51527  0.28458  1.0000
  C   C927      1.0  0.72666  0.54603  0.48381  1.0000
  C   C928      1.0  0.50258  0.52875  0.52975  1.0000
  C   C929      1.0  0.55377  0.71479  0.10366  1.0000
  C   C930      1.0  0.57382  0.69336  0.09015  1.0000
  C   C931      1.0  0.56618  0.72568  0.10983  1.0000
  H   H1100     1.0  0.51280  0.59460  0.48305  1.0000
  C   C932      1.0  0.50134  0.58953  0.49290  1.0000
  C   C933      1.0  0.50512  0.63184  0.16043  1.0000
  C   C934      1.0  0.71967  0.64778  0.27382  1.0000
  C   C935      1.0  0.51482  0.61916  0.22460  1.0000
  C   C936      1.0  0.52006  0.60503  0.20433  1.0000
  C   C937      1.0  0.51775  0.60443  0.16203  1.0000
  C   C938      1.0  0.51044  0.61774  0.14017  1.0000
  H   H1101     1.0  0.70881  0.54215  0.39282  1.0000
  H   H1102     1.0  0.51649  0.61996  0.25698  1.0000
  H   H1103     1.0  0.52168  0.59359  0.14588  1.0000
  H   H1104     1.0  0.50880  0.61702  0.10769  1.0000
  C   C939      1.0  0.54586  0.70998  0.00079  1.0000
  C   C940      1.0  0.53620  0.72406  0.00775  1.0000
  H   H1105     1.0  0.51778  0.52652  0.47539  1.0000
  C   C941      1.0  0.73111  0.63073  0.35086  1.0000
  H   H1106     1.0  0.52315  0.72311  0.01185  1.0000
  H   H1107     1.0  0.52398  0.56963  0.54344  1.0000
  H   H1108     1.0  0.57041  0.70073  0.99000  1.0000
  H   H1109     1.0  0.70927  0.56091  0.45041  1.0000
  C   C942      1.0  0.72074  0.69359  0.61135  1.0000
  H   H1110     1.0  0.56989  0.69594  0.88359  1.0000
  C   C943      1.0  0.71480  0.67514  0.55598  1.0000
  C   C944      1.0  0.71061  0.66280  0.58415  1.0000
  C   C945      1.0  0.71130  0.66607  0.62602  1.0000
  C   C946      1.0  0.71628  0.68135  0.63958  1.0000
  C   C947      1.0  0.50597  0.55330  0.56782  1.0000
  H   H1111     1.0  0.70818  0.65663  0.64816  1.0000
  H   H1112     1.0  0.49978  0.60282  0.54899  1.0000
  H   H1113     1.0  0.61048  0.65630  0.52945  1.0000
  C   C948      1.0  0.71473  0.69669  0.30204  1.0000
  C   C949      1.0  0.70273  0.68669  0.31962  1.0000
  C   C950      1.0  0.70683  0.67460  0.34899  1.0000
  C   C951      1.0  0.72295  0.67287  0.36152  1.0000
  H   H1114     1.0  0.50323  0.64317  0.21893  1.0000
  H   H1115     1.0  0.71148  0.70581  0.27903  1.0000
  H   H1116     1.0  0.69026  0.68815  0.30994  1.0000
  C   C952      1.0  0.58636  0.70414  0.09622  1.0000
  C   C953      1.0  0.66365  0.64251  0.60425  1.0000
  N   N61       1.0  0.56886  0.61952  0.24292  1.0000
  C   C954      1.0  0.57453  0.60232  0.23683  1.0000
  C   C955      1.0  0.58328  0.62888  0.25329  1.0000
  C   C956      1.0  0.55730  0.61956  0.27827  1.0000
  C   C957      1.0  0.56080  0.62716  0.20699  1.0000
  C   C958      1.0  0.55858  0.61871  0.17032  1.0000
  C   C959      1.0  0.55453  0.64352  0.20839  1.0000
  C   C960      1.0  0.55056  0.62624  0.13741  1.0000
  C   C961      1.0  0.54633  0.65083  0.17548  1.0000
  C   C962      1.0  0.54433  0.64219  0.14009  1.0000
  H   H1117     1.0  0.58363  0.60131  0.21132  1.0000
  H   H1118     1.0  0.58051  0.59697  0.26448  1.0000
  H   H1119     1.0  0.56416  0.59435  0.23072  1.0000
  H   H1120     1.0  0.59212  0.62948  0.22709  1.0000
  H   H1121     1.0  0.58977  0.62315  0.27979  1.0000
  H   H1122     1.0  0.57995  0.64159  0.26199  1.0000
  H   H1123     1.0  0.55346  0.63205  0.28755  1.0000
  H   H1124     1.0  0.54613  0.61298  0.27124  1.0000
  H   H1125     1.0  0.56280  0.61347  0.30556  1.0000
  H   H1126     1.0  0.56247  0.60612  0.16661  1.0000
  H   H1127     1.0  0.55558  0.65066  0.23532  1.0000
  H   H1128     1.0  0.54855  0.61944  0.11017  1.0000
  H   H1129     1.0  0.54109  0.66311  0.17765  1.0000
  H   H1130     1.0  0.53749  0.64770  0.11512  1.0000
  C   C963      1.0  0.56282  0.71153  0.99545  1.0000
  H   H1131     1.0  0.53334  0.73219  0.91438  1.0000
  H   H1132     1.0  0.72596  0.51721  0.39242  1.0000
  H   H1133     1.0  0.59006  0.71698  0.87261  1.0000
  C   C964      1.0  0.71645  0.53910  0.41853  1.0000
  Fe  Fe132     1.0  0.73209  0.72556  0.68671  1.0000
  H   H1134     1.0  0.57664  0.68088  0.08148  1.0000
  C   C965      1.0  0.58288  0.72073  0.10609  1.0000
  C   C966      1.0  0.55758  0.69867  0.09381  1.0000
  H   H1135     1.0  0.62976  0.60742  0.51787  1.0000
  H   H1136     1.0  0.61544  0.71561  0.12740  1.0000
  C   C967      1.0  0.73502  0.68260  0.34326  1.0000
  H   H1137     1.0  0.64853  0.66195  0.62844  1.0000
  H   H1138     1.0  0.63282  0.65047  0.48048  1.0000
  C   C968      1.0  0.55031  0.71284  0.89841  1.0000
  H   H1139     1.0  0.61450  0.72140  0.07375  1.0000
  C   C969      1.0  0.64931  0.65201  0.60722  1.0000
  H   H1140     1.0  0.58305  0.72778  0.99208  1.0000
  H   H1141     1.0  0.71810  0.60837  0.27312  1.0000
  H   H1142     1.0  0.67616  0.62265  0.57415  1.0000
  S   S261      1.0  0.73069  0.59001  0.40984  1.0000
  H   H1143     1.0  0.71001  0.66958  0.24400  1.0000
  C   C970      1.0  0.66486  0.62985  0.57681  1.0000
  C   C971      1.0  0.50730  0.63236  0.20285  1.0000
  C   C972      1.0  0.63615  0.64898  0.58249  1.0000
  H   H1144     1.0  0.60388  0.64057  0.56547  1.0000
  H   H1145     1.0  0.49347  0.54686  0.64501  1.0000
  C   C973      1.0  0.61259  0.72578  0.10539  1.0000
  C   C974      1.0  0.65187  0.62677  0.55180  1.0000
  H   H1146     1.0  0.61996  0.63523  0.46064  1.0000
  H   H1147     1.0  0.62553  0.65694  0.58606  1.0000
  Fe  Fe133     1.0  0.74026  0.72846  0.25145  1.0000
  H   H1148     1.0  0.60500  0.73559  0.90848  1.0000
  H   H1149     1.0  0.71437  0.67288  0.52373  1.0000
  C   C975      1.0  0.63707  0.63621  0.55382  1.0000
  H   H1150     1.0  0.71682  0.68357  0.67180  1.0000
  N   N62       1.0  0.59576  0.73264  0.11196  1.0000
  C   C976      1.0  0.54568  0.72914  0.90393  1.0000
  C   C977      1.0  0.60860  0.64298  0.53390  1.0000
  H   H1151     1.0  0.61578  0.61191  0.55897  1.0000
  H   H1152     1.0  0.60943  0.61314  0.50669  1.0000
  S   S262      1.0  0.72802  0.71286  0.62617  1.0000
  C   C978      1.0  0.61951  0.61573  0.52746  1.0000
  H   H1153     1.0  0.67400  0.64510  0.62269  1.0000
  H   H1154     1.0  0.64043  0.63008  0.47403  1.0000
  H   H1155     1.0  0.73518  0.73750  0.55093  1.0000
  C   C979      1.0  0.62944  0.63744  0.48336  1.0000
  H   H1156     1.0  0.72616  0.66394  0.38494  1.0000
  H   H1157     1.0  0.59874  0.63995  0.51287  1.0000
  H   H1158     1.0  0.59863  0.69924  0.09232  1.0000
  C   C980      1.0  0.71988  0.69036  0.56952  1.0000
  N   N63       1.0  0.62381  0.63321  0.52540  1.0000
  H   H1159     1.0  0.65374  0.61716  0.53006  1.0000
  H   H1160     1.0  0.54791  0.69043  0.08758  1.0000
  H   H1161     1.0  0.70859  0.64658  0.29199  1.0000
  H   H1162     1.0  0.54110  0.71897  0.10513  1.0000
  S   S263      1.0  0.73277  0.71679  0.75207  1.0000
  C   C981      1.0  0.51460  0.53382  0.50172  1.0000
  H   H1163     1.0  0.49650  0.61093  0.31433  1.0000
  H   H1164     1.0  0.72710  0.55455  0.50845  1.0000
  C   C982      1.0  0.56631  0.70870  0.88686  1.0000
  C   C983      1.0  0.52239  0.54842  0.50690  1.0000
  H   H1165     1.0  0.50256  0.56166  0.59179  1.0000
  H   H1166     1.0  0.50784  0.59282  0.29948  1.0000
  H   H1167     1.0  0.70634  0.62035  0.30911  1.0000
  C   C984      1.0  0.57773  0.72086  0.88066  1.0000
  C   C985      1.0  0.73097  0.69447  0.31331  1.0000
  S   S264      1.0  0.49529  0.64893  0.13500  1.0000
  C   C986      1.0  0.49391  0.59417  0.53033  1.0000
  H   H1168     1.0  0.60070  0.73733  0.83482  1.0000
  H   H1169     1.0  0.49913  0.59404  0.34963  1.0000
  C   C987      1.0  0.51818  0.55806  0.54007  1.0000
  H   H1170     1.0  0.73160  0.62127  0.37562  1.0000
  N   N64       1.0  0.73248  0.62341  0.31015  1.0000
  H   H1171     1.0  0.56254  0.73813  0.11659  1.0000
  H   H1172     1.0  0.49272  0.56669  0.28912  1.0000
  C   C988      1.0  0.49696  0.59736  0.31711  1.0000
  C   C989      1.0  0.49793  0.53837  0.56388  1.0000
  H   H1173     1.0  0.62194  0.73514  0.10964  1.0000
  H   H1174     1.0  0.59574  0.72866  0.17689  1.0000
  H   H1175     1.0  0.73524  0.67468  0.20397  1.0000
  C   C990      1.0  0.72039  0.66111  0.24658  1.0000
  H   H1176     1.0  0.50234  0.52664  0.63922  1.0000
  C   C991      1.0  0.73460  0.66400  0.22403  1.0000
  H   H1177     1.0  0.49699  0.51737  0.52361  1.0000
  H   H1178     1.0  0.72735  0.49038  0.46834  1.0000
  H   H1179     1.0  0.73973  0.68130  0.72713  1.0000
  C   C992      1.0  0.49097  0.53425  0.63575  1.0000
  C   C993      1.0  0.73719  0.49125  0.44457  1.0000
  C   C994      1.0  0.59459  0.73885  0.15399  1.0000
  H   H1180     1.0  0.49191  0.58819  0.24110  1.0000
  C   C995      1.0  0.54340  0.73946  0.00862  1.0000
  H   H1181     1.0  0.67985  0.79433  0.07430  1.0000
  C   C996      1.0  0.70998  0.81179  0.75630  1.0000
  C   C997      1.0  0.66183  0.80782  0.10930  1.0000
  H   H1182     1.0  0.56688  0.86124  0.15158  1.0000
  H   H1183     1.0  0.66814  0.80332  0.91398  1.0000
  C   C998      1.0  0.67628  0.81412  0.85697  1.0000
  Fe  Fe134     1.0  0.58217  0.92229  0.11757  1.0000
  S   S265      1.0  0.59511  0.94556  0.13025  1.0000
  S   S266      1.0  0.59553  0.89713  0.11287  1.0000
  Fe  Fe135     1.0  0.54830  0.93785  0.13981  1.0000
  S   S267      1.0  0.55889  0.96193  0.15546  1.0000
  S   S268      1.0  0.52230  0.92816  0.13701  1.0000
  Fe  Fe136     1.0  0.57432  0.95884  0.09770  1.0000
  C   C999      1.0  0.73348  0.75836  0.43412  1.0000
  Fe  Fe137     1.0  0.57926  0.94761  0.18690  1.0000
  S   S269      1.0  0.59031  0.94893  0.25093  1.0000
  S   S270      1.0  0.56273  0.93546  0.08054  1.0000
  S   S271      1.0  0.56729  0.92378  0.17569  1.0000
  Fe  Fe138     1.0  0.62486  0.77739  0.04735  1.0000
  S   S272      1.0  0.63404  0.79688  0.00347  1.0000
  S   S273      1.0  0.63495  0.76882  0.10809  1.0000
  Fe  Fe139     1.0  0.59382  0.77201  0.00175  1.0000
  S   S274      1.0  0.60059  0.79112  0.95473  1.0000
  S   S275      1.0  0.56846  0.76099  0.00261  1.0000
  Fe  Fe140     1.0  0.62600  0.77979  0.95530  1.0000
  S   S276      1.0  0.63701  0.77658  0.89100  1.0000
  Fe  Fe141     1.0  0.60807  0.80697  0.00577  1.0000
  S   S277      1.0  0.59862  0.83371  0.00090  1.0000
  S   S278      1.0  0.61867  0.75958  0.99929  1.0000
  S   S279      1.0  0.59951  0.78863  0.05266  1.0000
  H   H1184     1.0  0.68591  0.82213  0.79996  1.0000
  S   S280      1.0  0.65448  0.97596  0.45538  1.0000
  C   C1000     1.0  0.66783  0.95626  0.33052  1.0000
  Fe  Fe142     1.0  0.68148  0.97944  0.44432  1.0000
  S   S281      1.0  0.70106  0.95993  0.42584  1.0000
  H   H1185     1.0  0.71195  0.91440  0.52525  1.0000
  C   C1001     1.0  0.71068  0.94134  0.44430  1.0000
  C   C1002     1.0  0.72300  0.93372  0.42011  1.0000
  C   C1003     1.0  0.55700  0.74141  0.89803  1.0000
  C   C1004     1.0  0.70674  0.93418  0.48226  1.0000
  H   H1186     1.0  0.72620  0.93910  0.39072  1.0000
  C   C1005     1.0  0.57820  0.97677  0.97630  1.0000
  H   H1187     1.0  0.69733  0.93981  0.50132  1.0000
  C   C1006     1.0  0.59854  0.74766  0.91090  1.0000
  C   C1007     1.0  0.60149  0.96283  0.27996  1.0000
  C   C1008     1.0  0.60841  0.95725  0.31687  1.0000
  C   C1009     1.0  0.61798  0.96746  0.34006  1.0000
  S   S282      1.0  0.71714  0.74390  0.24748  1.0000
  H   H1188     1.0  0.66167  0.75524  0.93105  1.0000
  H   H1189     1.0  0.65358  0.80944  0.08413  1.0000
  H   H1190     1.0  0.60647  0.94485  0.32750  1.0000
  H   H1191     1.0  0.72671  0.74448  0.48657  1.0000
  C   C1010     1.0  0.73997  0.76609  0.50362  1.0000
  H   H1192     1.0  0.67433  0.96083  0.35606  1.0000
  C   C1011     1.0  0.59632  0.87973  0.08084  1.0000
  C   C1012     1.0  0.58911  0.87980  0.04264  1.0000
  C   C1013     1.0  0.59006  0.86567  0.01873  1.0000
  C   C1014     1.0  0.59827  0.85125  0.03237  1.0000
  C   C1015     1.0  0.60561  0.85121  0.07040  1.0000
  C   C1016     1.0  0.60464  0.86534  0.09436  1.0000
  H   H1193     1.0  0.58302  0.89079  0.03112  1.0000
  H   H1194     1.0  0.58443  0.86592  0.98930  1.0000
  H   H1195     1.0  0.61198  0.84028  0.08139  1.0000
  H   H1196     1.0  0.61036  0.86511  0.12367  1.0000
  C   C1017     1.0  0.72783  0.79617  0.79993  1.0000
  C   C1018     1.0  0.68734  0.81301  0.82394  1.0000
  H   H1197     1.0  0.58444  0.75009  0.81463  1.0000
  H   H1198     1.0  0.57928  0.96391  0.98439  1.0000
  H   H1199     1.0  0.56191  0.89624  0.08145  1.0000
  C   C1019     1.0  0.50062  0.94708  0.18486  1.0000
  C   C1020     1.0  0.50283  0.93413  0.15809  1.0000
  S   S283      1.0  0.70271  0.74064  0.82520  1.0000
  H   H1200     1.0  0.51101  0.95392  0.19327  1.0000
  H   H1201     1.0  0.65408  0.75910  0.17697  1.0000
  C   C1021     1.0  0.72747  0.91216  0.47166  1.0000
  S   S284      1.0  0.73777  0.89409  0.49109  1.0000
  C   C1022     1.0  0.57912  0.76720  0.88373  1.0000
  C   C1023     1.0  0.68421  0.75056  0.84238  1.0000
  C   C1024     1.0  0.65080  0.96124  0.27197  1.0000
  C   C1025     1.0  0.66508  0.75667  0.89918  1.0000
  C   C1026     1.0  0.65525  0.76635  0.87338  1.0000
  C   C1027     1.0  0.65991  0.76792  0.83193  1.0000
  C   C1028     1.0  0.67427  0.76009  0.81649  1.0000
  H   H1202     1.0  0.68694  0.74140  0.90401  1.0000
  C   C1029     1.0  0.56034  0.74103  0.00295  1.0000
  H   H1203     1.0  0.62204  0.92199  0.21899  1.0000
  C   C1030     1.0  0.68886  0.75338  0.11977  1.0000
  C   C1031     1.0  0.68246  0.75718  0.08129  1.0000
  C   C1032     1.0  0.66593  0.76185  0.07727  1.0000
  C   C1033     1.0  0.65569  0.76273  0.11180  1.0000
  C   C1034     1.0  0.66200  0.75862  0.15021  1.0000
  C   C1035     1.0  0.57668  0.98826  0.00708  1.0000
  H   H1204     1.0  0.58038  0.97293  0.91154  1.0000
  H   H1205     1.0  0.66116  0.76486  0.04751  1.0000
  C   C1036     1.0  0.62049  0.98360  0.32713  1.0000
  H   H1206     1.0  0.73509  0.81650  0.63885  1.0000
  H   H1207     1.0  0.69351  0.78369  0.75595  1.0000
  H   H1208     1.0  0.54518  0.89199  0.04980  1.0000
  S   S285      1.0  0.72575  0.78401  0.30401  1.0000
  N   N65       1.0  0.64224  0.93764  0.22876  1.0000
  H   H1209     1.0  0.55149  0.83926  0.01933  1.0000
  H   H1210     1.0  0.72563  0.80645  0.36970  1.0000
  H   H1211     1.0  0.73123  0.80677  0.81809  1.0000
  C   C1037     1.0  0.54851  0.89462  0.08144  1.0000
  C   C1038     1.0  0.61339  0.98925  0.29055  1.0000
  H   H1212     1.0  0.72863  0.95793  0.52085  1.0000
  H   H1213     1.0  0.73007  0.78490  0.81870  1.0000
  C   C1039     1.0  0.73976  0.79881  0.31693  1.0000
  H   H1214     1.0  0.66405  0.93661  0.19123  1.0000
  H   H1215     1.0  0.56194  0.88867  0.15297  1.0000
  H   H1216     1.0  0.64414  0.97032  0.25403  1.0000
  H   H1217     1.0  0.66686  0.82370  0.85745  1.0000
  H   H1218     1.0  0.57415  0.76945  0.91506  1.0000
  Fe  Fe143     1.0  0.71993  0.74053  0.76895  1.0000
  H   H1219     1.0  0.71902  0.80994  0.73074  1.0000
  N   N66       1.0  0.69404  0.79912  0.21015  1.0000
  C   C1040     1.0  0.69529  0.78123  0.21761  1.0000
  C   C1041     1.0  0.71053  0.80518  0.20008  1.0000
  C   C1042     1.0  0.68845  0.80670  0.24892  1.0000
  C   C1043     1.0  0.68303  0.80265  0.17576  1.0000
  C   C1044     1.0  0.66789  0.81147  0.18026  1.0000
  C   C1045     1.0  0.68704  0.79662  0.13648  1.0000
  H   H1220     1.0  0.55267  0.75367  0.90447  1.0000
  C   C1046     1.0  0.67852  0.75387  0.15418  1.0000
  C   C1047     1.0  0.63398  0.95040  0.20295  1.0000
  H   H1221     1.0  0.70116  0.77473  0.19151  1.0000
  H   H1222     1.0  0.70269  0.77800  0.24469  1.0000
  H   H1223     1.0  0.68304  0.77608  0.22307  1.0000
  H   H1224     1.0  0.71635  0.79902  0.17347  1.0000
  H   H1225     1.0  0.71901  0.80297  0.22583  1.0000
  H   H1226     1.0  0.71002  0.81853  0.19298  1.0000
  H   H1227     1.0  0.67659  0.80187  0.25997  1.0000
  H   H1228     1.0  0.69723  0.80399  0.27382  1.0000
  H   H1229     1.0  0.68735  0.82023  0.24561  1.0000
  H   H1230     1.0  0.66368  0.81639  0.20893  1.0000
  H   H1231     1.0  0.59890  0.98350  0.23876  1.0000
  H   H1232     1.0  0.62435  0.95722  0.22044  1.0000
  H   H1233     1.0  0.61975  0.98689  0.43628  1.0000
  H   H1234     1.0  0.71419  0.78109  0.73775  1.0000
  C   C1048     1.0  0.65955  0.93362  0.29070  1.0000
  C   C1049     1.0  0.60412  0.97894  0.26692  1.0000
  C   C1050     1.0  0.73179  0.77812  0.56800  1.0000
  Fe  Fe144     1.0  0.72428  0.74764  0.18122  1.0000
  C   C1051     1.0  0.66794  0.93957  0.32352  1.0000
  H   H1235     1.0  0.57101  0.82416  0.06318  1.0000
  N   N67       1.0  0.58585  0.75023  0.87992  1.0000
  H   H1236     1.0  0.65896  0.98002  0.31089  1.0000
  H   H1237     1.0  0.57841  0.83535  0.12905  1.0000
  H   H1238     1.0  0.64809  0.92390  0.17480  1.0000
  H   H1239     1.0  0.53898  0.86523  0.04064  1.0000
  H   H1240     1.0  0.63500  0.91520  0.25944  1.0000
  H   H1241     1.0  0.59307  0.74837  0.94215  1.0000
  H   H1242     1.0  0.62330  0.96286  0.36803  1.0000
  H   H1243     1.0  0.58199  0.75370  0.08810  1.0000
  H   H1244     1.0  0.60571  0.98516  0.54146  1.0000
  H   H1245     1.0  0.65236  0.77528  0.81162  1.0000
  H   H1246     1.0  0.73284  0.97517  0.45923  1.0000
  H   H1247     1.0  0.69037  0.75663  0.05448  1.0000
  H   H1248     1.0  0.69787  0.81297  0.74185  1.0000
  H   H1249     1.0  0.73657  0.79522  0.77347  1.0000
  H   H1250     1.0  0.64275  0.95924  0.18969  1.0000
  S   S286      1.0  0.71733  0.74829  0.70302  1.0000
  H   H1251     1.0  0.60931  0.97603  0.47607  1.0000
  C   C1052     1.0  0.67703  0.80271  0.88904  1.0000
  H   H1252     1.0  0.62767  0.94504  0.17704  1.0000
  N   N68       1.0  0.71070  0.79800  0.78655  1.0000
  S   S287      1.0  0.70983  0.74814  0.12327  1.0000
  S   S288      1.0  0.57728  0.98267  0.05989  1.0000
  H   H1253     1.0  0.65977  0.91779  0.21787  1.0000
  C   C1053     1.0  0.69948  0.80023  0.82213  1.0000
  C   C1054     1.0  0.65749  0.81393  0.14737  1.0000
  C   C1055     1.0  0.69984  0.78881  0.85536  1.0000
  H   H1254     1.0  0.68924  0.78114  0.91304  1.0000
  H   H1255     1.0  0.71954  0.78117  0.55561  1.0000
  C   C1056     1.0  0.62968  0.92626  0.24400  1.0000
  H   H1256     1.0  0.68321  0.75040  0.18371  1.0000
  C   C1057     1.0  0.65081  0.94428  0.26366  1.0000
  H   H1257     1.0  0.54256  0.90660  0.08889  1.0000
  H   H1258     1.0  0.60265  0.75882  0.83312  1.0000
  C   C1058     1.0  0.59369  0.74902  0.83884  1.0000
  H   H1259     1.0  0.67751  0.76124  0.78452  1.0000
  C   C1059     1.0  0.67943  0.74881  0.88371  1.0000
  H   H1260     1.0  0.54512  0.87773  0.17623  1.0000
  H   H1261     1.0  0.67458  0.93126  0.34384  1.0000
  H   H1262     1.0  0.60351  0.75546  0.08541  1.0000
  H   H1263     1.0  0.70816  0.77830  0.85538  1.0000
  C   C1060     1.0  0.68891  0.79021  0.88845  1.0000
  C   C1061     1.0  0.57885  0.98195  0.93495  1.0000
  H   H1264     1.0  0.58263  0.98345  0.44487  1.0000
  C   C1062     1.0  0.67664  0.79932  0.10380  1.0000
  N   N69       1.0  0.54368  0.88167  0.11116  1.0000
  C   C1063     1.0  0.71511  0.91975  0.49579  1.0000
  C   C1064     1.0  0.52565  0.88080  0.11198  1.0000
  C   C1065     1.0  0.54856  0.88679  0.15206  1.0000
  C   C1066     1.0  0.55118  0.86579  0.09891  1.0000
  C   C1067     1.0  0.54723  0.85893  0.06123  1.0000
  C   C1068     1.0  0.56261  0.85679  0.12324  1.0000
  C   C1069     1.0  0.55421  0.84402  0.04882  1.0000
  C   C1070     1.0  0.56937  0.84180  0.11069  1.0000
  C   C1071     1.0  0.56520  0.83544  0.07358  1.0000
  H   H1265     1.0  0.71278  0.82354  0.77047  1.0000
  H   H1266     1.0  0.52156  0.87063  0.13243  1.0000
  H   H1267     1.0  0.52074  0.87898  0.08130  1.0000
  H   H1268     1.0  0.51969  0.89234  0.12314  1.0000
  C   C1072     1.0  0.72971  0.74921  0.56220  1.0000
  H   H1269     1.0  0.54252  0.89866  0.16051  1.0000
  C   C1073     1.0  0.70642  0.78303  0.76548  1.0000
  C   C1074     1.0  0.73132  0.91926  0.43356  1.0000
  H   H1270     1.0  0.65993  0.92057  0.28676  1.0000
  H   H1271     1.0  0.72924  0.74781  0.59608  1.0000
  H   H1272     1.0  0.69807  0.78934  0.13091  1.0000
  H   H1273     1.0  0.58867  0.77639  0.87798  1.0000
  H   H1274     1.0  0.58281  0.74551  0.16019  1.0000
  H   H1275     1.0  0.64587  0.82042  0.15145  1.0000
  H   H1276     1.0  0.62121  0.93232  0.26630  1.0000
  H   H1277     1.0  0.56934  0.76994  0.86151  1.0000
  Fe  Fe145     1.0  0.73337  0.76504  0.25770  1.0000
  C   C1075     1.0  0.65925  0.96705  0.30486  1.0000
  C   C1076     1.0  0.65406  0.92859  0.20209  1.0000
  H   H1278     1.0  0.53573  0.75026  0.01341  1.0000
  C   C1077     1.0  0.73652  0.80838  0.35125  1.0000
  C   C1078     1.0  0.73967  0.95620  0.50247  1.0000
  C   C1079     1.0  0.61355  0.98833  0.46659  1.0000
  H   H1279     1.0  0.70800  0.77190  0.78523  1.0000
  H   H1280     1.0  0.59362  0.74242  0.05105  1.0000
  C   C1080     1.0  0.73288  0.75531  0.47625  1.0000
  H   H1281     1.0  0.73930  0.78909  0.56354  1.0000
  H   H1282     1.0  0.60805  0.75704  0.90786  1.0000
  C   C1081     1.0  0.59360  0.74663  0.08296  1.0000
  H   H1283     1.0  0.73030  0.77630  0.60161  1.0000
  H   H1284     1.0  0.71685  0.75044  0.55237  1.0000
  H   H1285     1.0  0.72785  0.75011  0.41371  1.0000
  N   N70       1.0  0.73931  0.76348  0.54843  1.0000
  S   S289      1.0  0.73882  0.76988  0.19134  1.0000
  H   H1286     1.0  0.60437  0.74762  0.15953  1.0000
  H   H1287     1.0  0.61376  0.98902  0.95753  1.0000
  H   H1288     1.0  0.74065  0.91360  0.41435  1.0000
  H   H1289     1.0  0.92728  0.01875  0.21278  1.0000
  H   H1290     1.0  0.88723  0.22640  0.98436  1.0000
  S   S290      1.0  0.77313  0.21485  0.56934  1.0000
  H   H1291     1.0  0.94856  0.05481  0.44492  1.0000
  C   C1082     1.0  0.98626  0.11659  0.92722  1.0000
  S   S291      1.0  0.76513  0.20429  0.14852  1.0000
  Fe  Fe146     1.0  0.76313  0.13994  0.41800  1.0000
  H   H1292     1.0  0.94852  0.01671  0.39033  1.0000
  C   C1083     1.0  0.91657  0.23539  0.87554  1.0000
  Fe  Fe147     1.0  0.79269  0.12406  0.37198  1.0000
  S   S292      1.0  0.77660  0.11178  0.32810  1.0000
  S   S293      1.0  0.82067  0.12128  0.37765  1.0000
  Fe  Fe148     1.0  0.76205  0.13566  0.32647  1.0000
  C   C1084     1.0  0.98330  0.06809  0.00483  1.0000
  Fe  Fe149     1.0  0.76113  0.10496  0.38362  1.0000
  S   S294      1.0  0.74933  0.15684  0.46219  1.0000
  S   S295      1.0  0.77916  0.14864  0.36603  1.0000
  S   S296      1.0  0.77774  0.11645  0.42767  1.0000
  Fe  Fe150     1.0  0.97168  0.18475  0.92365  1.0000
  S   S297      1.0  0.95376  0.20134  0.88771  1.0000
  S   S298      1.0  0.96646  0.13713  0.02817  1.0000
  S   S299      1.0  0.97176  0.15719  0.92100  1.0000
  Fe  Fe151     1.0  0.91152  0.08301  0.30267  1.0000
  S   S300      1.0  0.92562  0.07343  0.24746  1.0000
  S   S301      1.0  0.88379  0.08625  0.29334  1.0000
  Fe  Fe152     1.0  0.94306  0.08404  0.35250  1.0000
  S   S302      1.0  0.95877  0.07525  0.30017  1.0000
  S   S303      1.0  0.95159  0.08807  0.41754  1.0000
  Fe  Fe153     1.0  0.94395  0.09253  0.25953  1.0000
  S   S304      1.0  0.95554  0.11150  0.21453  1.0000
  Fe  Fe154     1.0  0.93917  0.05690  0.29226  1.0000
  S   S305      1.0  0.94834  0.03035  0.28447  1.0000
  S   S306      1.0  0.92935  0.10270  0.31320  1.0000
  S   S307      1.0  0.92394  0.06509  0.34608  1.0000
  C   C1085     1.0  0.94009  0.01196  0.30493  1.0000
  H   H1293     1.0  0.98201  0.22321  0.90625  1.0000
  H   H1294     1.0  0.91663  0.02241  0.32212  1.0000
  C   C1086     1.0  0.96358  0.13033  0.08037  1.0000
  C   C1087     1.0  0.95410  0.11655  0.08908  1.0000
  C   C1088     1.0  0.95164  0.11050  0.12954  1.0000
  C   C1089     1.0  0.95857  0.11819  0.16230  1.0000
  C   C1090     1.0  0.96796  0.13202  0.15360  1.0000
  C   C1091     1.0  0.97048  0.13802  0.11314  1.0000
  H   H1295     1.0  0.85470  0.23754  0.06667  1.0000
  H   H1296     1.0  0.94437  0.09990  0.13532  1.0000
  C   C1092     1.0  0.85097  0.22505  0.93575  1.0000
  C   C1093     1.0  0.74288  0.15283  0.15103  1.0000
  H   H1297     1.0  0.96757  0.05762  0.38540  1.0000
  H   H1298     1.0  0.83833  0.22910  0.93572  1.0000
  H   H1299     1.0  0.80352  0.07092  0.32780  1.0000
  H   H1300     1.0  0.75594  0.15149  0.15490  1.0000
  C   C1094     1.0  0.92875  0.22318  0.86800  1.0000
  C   C1095     1.0  0.93811  0.21622  0.89977  1.0000
  C   C1096     1.0  0.93501  0.22157  0.93944  1.0000
  C   C1097     1.0  0.75832  0.21863  0.26874  1.0000
  H   H1301     1.0  0.98012  0.05540  0.00306  1.0000
  H   H1302     1.0  0.76568  0.18314  0.40855  1.0000
  H   H1303     1.0  0.97426  0.21960  0.95681  1.0000
  C   C1098     1.0  0.82519  0.06776  0.38830  1.0000
  H   H1304     1.0  0.97517  0.03976  0.35964  1.0000
  C   C1099     1.0  0.85638  0.21561  0.90286  1.0000
  C   C1100     1.0  0.83806  0.11171  0.35293  1.0000
  C   C1101     1.0  0.85354  0.11312  0.36994  1.0000
  C   C1102     1.0  0.86766  0.10559  0.35215  1.0000
  C   C1103     1.0  0.86652  0.09644  0.31696  1.0000
  C   C1104     1.0  0.85108  0.09520  0.29964  1.0000
  C   C1105     1.0  0.83698  0.10278  0.31732  1.0000
  H   H1305     1.0  0.85461  0.12003  0.39734  1.0000
  H   H1306     1.0  0.87938  0.10674  0.36595  1.0000
  H   H1307     1.0  0.85001  0.08827  0.27229  1.0000
  H   H1308     1.0  0.82532  0.10177  0.30322  1.0000
  C   C1106     1.0  0.75298  0.16507  0.24576  1.0000
  C   C1107     1.0  0.87819  0.22341  0.96264  1.0000
  H   H1309     1.0  0.74606  0.23707  0.76654  1.0000
  C   C1108     1.0  0.76034  0.19017  0.18834  1.0000
  C   C1109     1.0  0.77255  0.17906  0.20194  1.0000
  C   C1110     1.0  0.76896  0.16669  0.23096  1.0000
  H   H1310     1.0  0.97340  0.13816  0.17842  1.0000
  C   C1111     1.0  0.75819  0.20630  0.29898  1.0000
  H   H1311     1.0  0.78479  0.17979  0.18924  1.0000
  H   H1312     1.0  0.77835  0.15789  0.24017  1.0000
  C   C1112     1.0  0.75641  0.17343  0.48971  1.0000
  C   C1113     1.0  0.77298  0.17567  0.49553  1.0000
  C   C1114     1.0  0.77793  0.18862  0.51934  1.0000
  C   C1115     1.0  0.76640  0.19956  0.53701  1.0000
  C   C1116     1.0  0.98195  0.07584  0.04212  1.0000
  C   C1117     1.0  0.88342  0.21385  0.92985  1.0000
  H   H1313     1.0  0.78196  0.16721  0.48260  1.0000
  H   H1314     1.0  0.79075  0.19002  0.52463  1.0000
  C   C1118     1.0  0.74986  0.19763  0.52996  1.0000
  C   C1119     1.0  0.76511  0.19315  0.38500  1.0000
  H   H1315     1.0  0.98771  0.08856  0.88835  1.0000
  H   H1316     1.0  0.82465  0.05190  0.33591  1.0000
  H   H1317     1.0  0.98525  0.12511  0.95304  1.0000
  H   H1318     1.0  0.86120  0.08023  0.42656  1.0000
  H   H1319     1.0  0.97773  0.06925  0.06918  1.0000
  C   C1120     1.0  0.92291  0.23387  0.94694  1.0000
  Fe  Fe155     1.0  0.97866  0.15716  0.98763  1.0000
  H   H1320     1.0  0.78630  0.05487  0.40376  1.0000
  C   C1121     1.0  0.97104  0.08577  0.44077  1.0000
  H   H1321     1.0  0.96199  0.99770  0.29132  1.0000
  H   H1322     1.0  0.96624  0.04825  0.49570  1.0000
  C   C1122     1.0  0.98465  0.22478  0.93893  1.0000
  H   H1323     1.0  0.85420  0.04914  0.32624  1.0000
  H   H1324     1.0  0.80154  0.04590  0.37129  1.0000
  C   C1123     1.0  0.80189  0.07979  0.42815  1.0000
  C   C1124     1.0  0.91352  0.99750  0.22827  1.0000
  H   H1325     1.0  0.80621  0.09252  0.42474  1.0000
  C   C1125     1.0  0.80064  0.07788  0.35577  1.0000
  C   C1126     1.0  0.85896  0.23037  0.03984  1.0000
  N   N71       1.0  0.90652  0.13067  0.21370  1.0000
  C   C1127     1.0  0.90797  0.11258  0.21419  1.0000
  C   C1128     1.0  0.91398  0.13667  0.17469  1.0000
  C   C1129     1.0  0.91624  0.13687  0.24718  1.0000
  C   C1130     1.0  0.88919  0.13586  0.21966  1.0000
  C   C1131     1.0  0.88047  0.14558  0.19047  1.0000
  C   C1132     1.0  0.88046  0.13107  0.25562  1.0000
  C   C1133     1.0  0.86407  0.15018  0.19724  1.0000
  C   C1134     1.0  0.86411  0.13578  0.26209  1.0000
  C   C1135     1.0  0.85592  0.14529  0.23297  1.0000
  H   H1326     1.0  0.90005  0.10736  0.19112  1.0000
  H   H1327     1.0  0.92072  0.10816  0.20771  1.0000
  H   H1328     1.0  0.90438  0.10711  0.24419  1.0000
  H   H1329     1.0  0.90784  0.13180  0.14793  1.0000
  H   H1330     1.0  0.92705  0.13265  0.17169  1.0000
  H   H1331     1.0  0.91376  0.15024  0.17257  1.0000
  H   H1332     1.0  0.91228  0.13198  0.27753  1.0000
  H   H1333     1.0  0.92941  0.13330  0.24356  1.0000
  H   H1334     1.0  0.91527  0.15042  0.24826  1.0000
  H   H1335     1.0  0.88601  0.14973  0.16211  1.0000
  H   H1336     1.0  0.88618  0.12347  0.27897  1.0000
  H   H1337     1.0  0.85760  0.15753  0.17460  1.0000
  H   H1338     1.0  0.85771  0.13191  0.28980  1.0000
  H   H1339     1.0  0.84321  0.14880  0.23812  1.0000
  H   H1340     1.0  0.96985  0.01263  0.38759  1.0000
  H   H1341     1.0  0.83090  0.23520  0.00188  1.0000
  C   C1136     1.0  0.75021  0.17407  0.61011  1.0000
  C   C1137     1.0  0.94964  0.99738  0.30344  1.0000
  C   C1138     1.0  0.85305  0.07371  0.40776  1.0000
  S   S308      1.0  0.97689  0.18478  0.99070  1.0000
  H   H1342     1.0  0.97780  0.14860  0.10736  1.0000
  C   C1139     1.0  0.92416  0.01134  0.32082  1.0000
  C   C1140     1.0  0.97718  0.04299  0.48182  1.0000
  H   H1343     1.0  0.83209  0.08387  0.43721  1.0000
  C   C1141     1.0  0.79977  0.05359  0.39848  1.0000
  H   H1344     1.0  0.77478  0.19023  0.36179  1.0000
  H   H1345     1.0  0.90518  0.99584  0.34444  1.0000
  S   S309      1.0  0.75654  0.23661  0.66740  1.0000
  H   H1346     1.0  0.80498  0.04676  0.42507  1.0000
  H   H1347     1.0  0.97383  0.11205  0.92264  1.0000
  H   H1348     1.0  0.87257  0.06314  0.37119  1.0000
  C   C1142     1.0  0.86184  0.22949  0.96642  1.0000
  C   C1143     1.0  0.91768  0.99622  0.33337  1.0000
  C   C1144     1.0  0.84909  0.05624  0.35117  1.0000
  C   C1145     1.0  0.74915  0.23304  0.27398  1.0000
  H   H1349     1.0  0.98743  0.08608  0.53601  1.0000
  C   C1146     1.0  0.98700  0.08511  0.50328  1.0000
  H   H1350     1.0  0.84803  0.21282  0.87913  1.0000
  H   H1351     1.0  0.78833  0.08086  0.43100  1.0000
  C   C1147     1.0  0.95997  0.01788  0.40746  1.0000
  N   N72       1.0  0.74874  0.19476  0.36703  1.0000
  C   C1148     1.0  0.83220  0.05797  0.35690  1.0000
  H   H1352     1.0  0.78712  0.07934  0.35785  1.0000
  C   C1149     1.0  0.83617  0.07568  0.41354  1.0000
  C   C1150     1.0  0.97194  0.08695  0.48338  1.0000
  H   H1353     1.0  0.98511  0.08208  0.38546  1.0000
  C   C1151     1.0  0.85949  0.06407  0.37659  1.0000
  H   H1354     1.0  0.94869  0.11041  0.06422  1.0000
  H   H1355     1.0  0.80631  0.07436  0.45736  1.0000
  H   H1356     1.0  0.87680  0.20301  0.87397  1.0000
  H   H1357     1.0  0.74555  0.04422  0.39736  1.0000
  C   C1152     1.0  0.74496  0.17899  0.34864  1.0000
  S   S310      1.0  0.74727  0.14788  0.27575  1.0000
  N   N73       1.0  0.80725  0.06976  0.39291  1.0000
  H   H1358     1.0  0.93100  0.21914  0.83720  1.0000
  H   H1359     1.0  0.87197  0.22688  0.04480  1.0000
  H   H1360     1.0  0.94205  0.21638  0.96424  1.0000
  H   H1361     1.0  0.96091  0.08934  0.50120  1.0000
  N   N74       1.0  0.96272  0.03511  0.41761  1.0000
  H   H1362     1.0  0.80567  0.09025  0.35114  1.0000
  C   C1153     1.0  0.97745  0.03604  0.44251  1.0000
  H   H1363     1.0  0.76551  0.21696  0.24090  1.0000
  H   H1364     1.0  0.98851  0.12893  0.82024  1.0000
  C   C1154     1.0  0.96503  0.04469  0.37918  1.0000
  C   C1155     1.0  0.74491  0.18453  0.50681  1.0000
  C   C1156     1.0  0.94763  0.04161  0.43817  1.0000
  S   S311      1.0  0.75456  0.07793  0.39319  1.0000
  H   H1365     1.0  0.93681  0.04079  0.41861  1.0000
  H   H1366     1.0  0.74506  0.17374  0.11219  1.0000
  C   C1157     1.0  0.94061  0.99653  0.19838  1.0000
  H   H1367     1.0  0.98466  0.23665  0.01373  1.0000
  C   C1158     1.0  0.74871  0.20802  0.33548  1.0000
  H   H1368     1.0  0.85203  0.21892  0.03997  1.0000
  H   H1369     1.0  0.75485  0.17448  0.32780  1.0000
  H   H1370     1.0  0.89608  0.20973  0.92708  1.0000
  C   C1159     1.0  0.87257  0.21008  0.89985  1.0000
  H   H1371     1.0  0.98976  0.12400  0.89969  1.0000
  H   H1372     1.0  0.76839  0.20463  0.39985  1.0000
  C   C1160     1.0  0.98593  0.09215  0.04458  1.0000
  H   H1373     1.0  0.76556  0.19537  0.29340  1.0000
  Fe  Fe156     1.0  0.74941  0.22619  0.12829  1.0000
  Fe  Fe157     1.0  0.75636  0.23393  0.59944  1.0000
  H   H1374     1.0  0.94490  0.03474  0.46701  1.0000
  C   C1161     1.0  0.98858  0.07664  0.96977  1.0000
  H   H1375     1.0  0.95905  0.01003  0.43550  1.0000
  C   C1162     1.0  0.92705  0.00552  0.21252  1.0000
  H   H1376     1.0  0.98922  0.06993  0.94188  1.0000
  H   H1377     1.0  0.95130  0.00288  0.18752  1.0000
  C   C1163     1.0  0.74459  0.18918  0.20514  1.0000
  H   H1378     1.0  0.90327  0.00458  0.24072  1.0000
  H   H1379     1.0  0.75736  0.19466  0.64376  1.0000
  H   H1380     1.0  0.98807  0.10959  0.76311  1.0000
  H   H1381     1.0  0.74346  0.16904  0.37206  1.0000
  C   C1164     1.0  0.74723  0.18756  0.63444  1.0000
  H   H1382     1.0  0.76260  0.17076  0.60057  1.0000
  S   S312      1.0  0.74547  0.12777  0.37818  1.0000
  H   H1383     1.0  0.98470  0.09826  0.07352  1.0000
  C   C1165     1.0  0.98548  0.08281  0.41824  1.0000
  H   H1384     1.0  0.95398  0.04474  0.36032  1.0000
  H   H1385     1.0  0.92086  0.23810  0.97761  1.0000
  H   H1386     1.0  0.76329  0.23911  0.79847  1.0000
  Fe  Fe158     1.0  0.75802  0.26344  0.65493  1.0000
  H   H1387     1.0  0.83923  0.35133  0.70996  1.0000
  S   S313      1.0  0.76012  0.26072  0.58682  1.0000
  C   C1166     1.0  0.94909  0.26937  0.97081  1.0000
  S   S314      1.0  0.76054  0.26374  0.00458  1.0000
  S   S315      1.0  0.76140  0.25047  0.12473  1.0000
  Fe  Fe159     1.0  0.85012  0.27444  0.83168  1.0000
  S   S316      1.0  0.84165  0.29899  0.85473  1.0000
  S   S317      1.0  0.83770  0.25941  0.78485  1.0000
  Fe  Fe160     1.0  0.87935  0.27108  0.88993  1.0000
  S   S318      1.0  0.87283  0.29570  0.91604  1.0000
  S   S319      1.0  0.89916  0.25700  0.92634  1.0000
  Fe  Fe161     1.0  0.84681  0.28771  0.91683  1.0000
  S   S320      1.0  0.83281  0.28841  0.97757  1.0000
  Fe  Fe162     1.0  0.86841  0.30493  0.85201  1.0000
  S   S321      1.0  0.88011  0.32683  0.81858  1.0000
  S   S322      1.0  0.85348  0.26290  0.89362  1.0000
  S   S323      1.0  0.87665  0.28068  0.82544  1.0000
  Fe  Fe163     1.0  0.79971  0.48043  0.43417  1.0000
  C   C1167     1.0  0.78929  0.40978  0.43455  1.0000
  S   S324      1.0  0.77788  0.46329  0.43981  1.0000
  C   C1168     1.0  0.91368  0.24095  0.91505  1.0000
  C   C1169     1.0  0.86678  0.25452  0.00180  1.0000
  S   S325      1.0  0.82706  0.47588  0.43535  1.0000
  Fe  Fe164     1.0  0.89593  0.42560  0.81188  1.0000
  S   S326      1.0  0.91229  0.42553  0.75628  1.0000
  S   S327      1.0  0.88109  0.40443  0.83902  1.0000
  Fe  Fe165     1.0  0.90206  0.46212  0.82616  1.0000
  S   S328      1.0  0.91867  0.46423  0.77014  1.0000
  C   C1170     1.0  0.75461  0.24598  0.77839  1.0000
  Fe  Fe166     1.0  0.89981  0.44967  0.73809  1.0000
  S   S329      1.0  0.89058  0.45043  0.67144  1.0000
  Fe  Fe167     1.0  0.92963  0.44001  0.79263  1.0000
  S   S330      1.0  0.95564  0.42929  0.80179  1.0000
  S   S331      1.0  0.88275  0.44900  0.79277  1.0000
  S   S332      1.0  0.91372  0.43867  0.84955  1.0000
  C   C1171     1.0  0.97568  0.43708  0.80306  1.0000
  C   C1172     1.0  0.97931  0.45287  0.78925  1.0000
  C   C1173     1.0  0.94171  0.26967  0.93306  1.0000
  H   H1388     1.0  0.96966  0.46095  0.77804  1.0000
  C   C1174     1.0  0.74908  0.34321  0.19839  1.0000
  C   C1175     1.0  0.85463  0.47827  0.58403  1.0000
  C   C1176     1.0  0.85793  0.30863  0.73411  1.0000
  C   C1177     1.0  0.86824  0.47595  0.65029  1.0000
  C   C1178     1.0  0.87623  0.46129  0.63921  1.0000
  C   C1179     1.0  0.87308  0.45509  0.60055  1.0000
  C   C1180     1.0  0.86237  0.46344  0.57328  1.0000
  H   H1389     1.0  0.78405  0.28196  0.12669  1.0000
  C   C1181     1.0  0.94891  0.26107  0.90096  1.0000
  H   H1390     1.0  0.87918  0.44384  0.59129  1.0000
  H   H1391     1.0  0.86034  0.45853  0.54366  1.0000
  Fe  Fe168     1.0  0.74956  0.25405  0.06428  1.0000
  C   C1182     1.0  0.84857  0.36974  0.74766  1.0000
  H   H1392     1.0  0.77242  0.42353  0.32948  1.0000
  C   C1183     1.0  0.75695  0.37035  0.43245  1.0000
  C   C1184     1.0  0.88005  0.34838  0.82492  1.0000
  C   C1185     1.0  0.88993  0.35789  0.79864  1.0000
  C   C1186     1.0  0.89042  0.37500  0.80237  1.0000
  C   C1187     1.0  0.88110  0.38285  0.83275  1.0000
  C   C1188     1.0  0.87094  0.37340  0.85843  1.0000
  C   C1189     1.0  0.87044  0.35628  0.85467  1.0000
  H   H1393     1.0  0.89730  0.35195  0.77523  1.0000
  H   H1394     1.0  0.89789  0.38207  0.78150  1.0000
  H   H1395     1.0  0.86349  0.37933  0.88170  1.0000
  H   H1396     1.0  0.86267  0.34920  0.87492  1.0000
  C   C1190     1.0  0.97137  0.25151  0.94450  1.0000
  C   C1191     1.0  0.75354  0.44150  0.42823  1.0000
  C   C1192     1.0  0.76820  0.44782  0.41232  1.0000
  C   C1193     1.0  0.77480  0.44136  0.37625  1.0000
  H   H1397     1.0  0.87480  0.32806  0.72824  1.0000
  H   H1398     1.0  0.81599  0.27665  0.64397  1.0000
  H   H1399     1.0  0.78603  0.44603  0.36345  1.0000
  H   H1400     1.0  0.85036  0.36145  0.77361  1.0000
  C   C1194     1.0  0.78104  0.26949  0.99755  1.0000
  C   C1195     1.0  0.78707  0.27284  0.95791  1.0000
  C   C1196     1.0  0.80306  0.27821  0.95122  1.0000
  C   C1197     1.0  0.81301  0.28068  0.98428  1.0000
  C   C1198     1.0  0.80704  0.27719  0.02393  1.0000
  C   C1199     1.0  0.79121  0.27137  0.03051  1.0000
  H   H1401     1.0  0.77930  0.27137  0.93222  1.0000
  H   H1402     1.0  0.80752  0.28084  0.92057  1.0000
  H   H1403     1.0  0.75191  0.37862  0.53250  1.0000
  H   H1404     1.0  0.86273  0.26299  0.02630  1.0000
  C   C1200     1.0  0.81846  0.26451  0.76404  1.0000
  C   C1201     1.0  0.81033  0.27942  0.77179  1.0000
  C   C1202     1.0  0.79596  0.28381  0.75107  1.0000
  C   C1203     1.0  0.78952  0.27330  0.72280  1.0000
  H   H1405     1.0  0.85333  0.41649  0.78556  1.0000
  H   H1406     1.0  0.81535  0.28776  0.79280  1.0000
  H   H1407     1.0  0.78998  0.29556  0.75640  1.0000
  N   N75       1.0  0.76953  0.30446  0.12411  1.0000
  H   H1408     1.0  0.78663  0.30162  0.07348  1.0000
  C   C1204     1.0  0.75563  0.37161  0.50515  1.0000
  N   N76       1.0  0.75473  0.38165  0.46697  1.0000
  C   C1205     1.0  0.76272  0.31767  0.15012  1.0000
  C   C1206     1.0  0.77886  0.29156  0.14707  1.0000
  C   C1207     1.0  0.82346  0.28600  0.65814  1.0000
  H   H1409     1.0  0.96835  0.24531  0.88083  1.0000
  N   N77       1.0  0.98692  0.24206  0.94924  1.0000
  H   H1410     1.0  0.74729  0.29146  0.12697  1.0000
  C   C1208     1.0  0.98849  0.42675  0.81729  1.0000
  H   H1411     1.0  0.90959  0.24065  0.85068  1.0000
  H   H1412     1.0  0.83862  0.42553  0.67920  1.0000
  H   H1413     1.0  0.85750  0.38990  0.77862  1.0000
  C   C1209     1.0  0.83935  0.24553  0.00002  1.0000
  H   H1414     1.0  0.75852  0.40486  0.52469  1.0000
  C   C1210     1.0  0.77825  0.39715  0.43406  1.0000
  C   C1211     1.0  0.76715  0.40565  0.49946  1.0000
  C   C1212     1.0  0.76689  0.39462  0.46681  1.0000
  H   H1415     1.0  0.75826  0.32942  0.24966  1.0000
  H   H1416     1.0  0.74905  0.30506  0.08368  1.0000
  H   H1417     1.0  0.93015  0.27621  0.92890  1.0000
  N   N78       1.0  0.84116  0.28299  0.65052  1.0000
  C   C1213     1.0  0.75407  0.33126  0.13243  1.0000
  C   C1214     1.0  0.85040  0.29556  0.67097  1.0000
  N   N79       1.0  0.93725  0.38718  0.85605  1.0000
  C   C1215     1.0  0.95440  0.38381  0.84233  1.0000
  C   C1216     1.0  0.92811  0.39368  0.82064  1.0000
  C   C1217     1.0  0.93753  0.40005  0.88716  1.0000
  C   C1218     1.0  0.92901  0.37251  0.87233  1.0000
  C   C1219     1.0  0.93498  0.35637  0.86441  1.0000
  C   C1220     1.0  0.91377  0.37404  0.89350  1.0000
  C   C1221     1.0  0.92622  0.34273  0.87727  1.0000
  C   C1222     1.0  0.90530  0.36032  0.90686  1.0000
  C   C1223     1.0  0.91141  0.34471  0.89838  1.0000
  H   H1418     1.0  0.95517  0.37605  0.81501  1.0000
  H   H1419     1.0  0.96058  0.39526  0.83276  1.0000
  H   H1420     1.0  0.96166  0.37792  0.86713  1.0000
  H   H1421     1.0  0.92715  0.38429  0.79702  1.0000
  H   H1422     1.0  0.93412  0.40433  0.80606  1.0000
  H   H1423     1.0  0.91554  0.39783  0.82959  1.0000
  H   H1424     1.0  0.94291  0.39519  0.91592  1.0000
  H   H1425     1.0  0.94477  0.41067  0.87633  1.0000
  H   H1426     1.0  0.92523  0.40541  0.89444  1.0000
  H   H1427     1.0  0.94618  0.35394  0.84753  1.0000
  H   H1428     1.0  0.90786  0.38584  0.89844  1.0000
  H   H1429     1.0  0.93074  0.33053  0.87008  1.0000
  H   H1430     1.0  0.89356  0.36183  0.92237  1.0000
  H   H1431     1.0  0.90442  0.33413  0.90722  1.0000
  C   C1224     1.0  0.86928  0.31827  0.66996  1.0000
  C   C1225     1.0  0.75249  0.42205  0.37323  1.0000
  H   H1432     1.0  0.88030  0.40835  0.69657  1.0000
  C   C1226     1.0  0.75606  0.29649  0.10389  1.0000
  C   C1227     1.0  0.87409  0.41394  0.72356  1.0000
  H   H1433     1.0  0.79250  0.24997  0.69443  1.0000
  C   C1228     1.0  0.84588  0.26654  0.66709  1.0000
  H   H1434     1.0  0.87423  0.47074  0.44155  1.0000
  C   C1229     1.0  0.85764  0.48437  0.62287  1.0000
  H   H1435     1.0  0.81470  0.27899  0.04965  1.0000
  H   H1436     1.0  0.84271  0.39858  0.65358  1.0000
  C   C1230     1.0  0.84026  0.37468  0.67844  1.0000
  C   C1231     1.0  0.84866  0.42199  0.75663  1.0000
  C   C1232     1.0  0.76410  0.31738  0.19323  1.0000
  H   H1437     1.0  0.96872  0.26073  0.00670  1.0000
  H   H1438     1.0  0.87821  0.40697  0.75109  1.0000
  H   H1439     1.0  0.85700  0.28006  0.59768  1.0000
  H   H1440     1.0  0.77780  0.42695  0.52394  1.0000
  H   H1441     1.0  0.74471  0.47966  0.44597  1.0000
  H   H1442     1.0  0.94327  0.27590  0.99580  1.0000
  H   H1443     1.0  0.83685  0.25291  0.97183  1.0000
  C   C1233     1.0  0.78069  0.31134  0.09237  1.0000
  N   N80       1.0  0.85616  0.41425  0.71993  1.0000
  H   H1444     1.0  0.77852  0.38992  0.40700  1.0000
  H   H1445     1.0  0.94285  0.26093  0.87199  1.0000
  C   C1234     1.0  0.86066  0.30665  0.64941  1.0000
  H   H1446     1.0  0.78679  0.26857  0.06103  1.0000
  H   H1447     1.0  0.86603  0.26162  0.97262  1.0000
  H   H1448     1.0  0.84289  0.26513  0.70007  1.0000
  C   C1235     1.0  0.88957  0.48837  0.49713  1.0000
  S   S333      1.0  0.77211  0.27989  0.69545  1.0000
  H   H1449     1.0  0.74826  0.44635  0.45605  1.0000
  H   H1450     1.0  0.84178  0.28902  0.73256  1.0000
  H   H1451     1.0  0.87719  0.32649  0.65313  1.0000
  H   H1452     1.0  0.85847  0.42081  0.65585  1.0000
  H   H1453     1.0  0.89800  0.48524  0.41525  1.0000
  H   H1454     1.0  0.81801  0.24229  0.73036  1.0000
  H   H1455     1.0  0.85583  0.43770  0.68810  1.0000
  C   C1236     1.0  0.85079  0.39726  0.71688  1.0000
  C   C1237     1.0  0.74163  0.25563  0.87733  1.0000
  C   C1238     1.0  0.85264  0.38609  0.75027  1.0000
  H   H1456     1.0  0.83999  0.29451  0.59081  1.0000
  C   C1239     1.0  0.81179  0.25385  0.73650  1.0000
  C   C1240     1.0  0.86795  0.31922  0.71221  1.0000
  H   H1457     1.0  0.85142  0.43519  0.75787  1.0000
  C   C1241     1.0  0.86857  0.48274  0.44976  1.0000
  H   H1458     1.0  0.87990  0.25151  0.00635  1.0000
  H   H1459     1.0  0.87866  0.42647  0.72586  1.0000
  H   H1460     1.0  0.83542  0.37018  0.65058  1.0000
  C   C1242     1.0  0.79734  0.25817  0.71609  1.0000
  H   H1461     1.0  0.98591  0.41450  0.82790  1.0000
  H   H1462     1.0  0.86235  0.30653  0.61675  1.0000
  H   H1463     1.0  0.83517  0.42101  0.75719  1.0000
  H   H1464     1.0  0.91500  0.45631  0.52692  1.0000
  C   C1243     1.0  0.74737  0.34380  0.15632  1.0000
  H   H1465     1.0  0.83938  0.25669  0.65207  1.0000
  H   H1466     1.0  0.92469  0.47835  0.90672  1.0000
  H   H1467     1.0  0.77429  0.31974  0.07059  1.0000
  H   H1468     1.0  0.81933  0.29822  0.64615  1.0000
  H   H1469     1.0  0.75253  0.28174  0.82824  1.0000
  C   C1244     1.0  0.75820  0.27148  0.81076  1.0000
  C   C1245     1.0  0.76704  0.42854  0.35703  1.0000
  H   H1470     1.0  0.79730  0.43056  0.46641  1.0000
  C   C1246     1.0  0.85198  0.42491  0.68414  1.0000
  H   H1471     1.0  0.85923  0.26401  0.66335  1.0000
  C   C1247     1.0  0.84237  0.36403  0.71181  1.0000
  C   C1248     1.0  0.77815  0.41832  0.49942  1.0000
  C   C1249     1.0  0.84445  0.39106  0.68066  1.0000
  H   H1472     1.0  0.79051  0.31822  0.10634  1.0000
  H   H1473     1.0  0.79747  0.41183  0.40867  1.0000
  H   H1474     1.0  0.77094  0.28510  0.16983  1.0000
  H   H1475     1.0  0.74347  0.35270  0.21703  1.0000
  C   C1250     1.0  0.78921  0.42035  0.46708  1.0000
  H   H1476     1.0  0.75509  0.37682  0.40260  1.0000
  S   S334      1.0  0.89318  0.48327  0.86670  1.0000
  C   C1251     1.0  0.75746  0.33007  0.21674  1.0000
  H   H1477     1.0  0.76925  0.36425  0.43222  1.0000
  H   H1478     1.0  0.74723  0.36117  0.50480  1.0000
  C   C1252     1.0  0.84927  0.29700  0.71396  1.0000
  H   H1479     1.0  0.76391  0.27705  0.78289  1.0000
  C   C1253     1.0  0.96347  0.25208  0.90648  1.0000
  H   H1480     1.0  0.76818  0.36644  0.50955  1.0000
  C   C1254     1.0  0.84395  0.28273  0.60568  1.0000
  C   C1255     1.0  0.74567  0.42884  0.40874  1.0000
  H   H1481     1.0  0.87044  0.48099  0.67970  1.0000
  N   N81       1.0  0.85670  0.23981  0.00120  1.0000
  H   H1482     1.0  0.78924  0.29670  0.16309  1.0000
  H   H1483     1.0  0.76841  0.26577  0.82832  1.0000
  N   N82       1.0  0.74596  0.25937  0.80048  1.0000
  H   H1484     1.0  0.76981  0.30729  0.20981  1.0000
  H   H1485     1.0  0.85706  0.30931  0.76705  1.0000
  H   H1486     1.0  0.82022  0.28559  0.69104  1.0000
  H   H1487     1.0  0.91161  0.46980  0.59325  1.0000
  C   C1256     1.0  0.90582  0.47510  0.56644  1.0000
  C   C1257     1.0  0.90761  0.46747  0.52910  1.0000
  H   H1488     1.0  0.76060  0.28626  0.08448  1.0000
  H   H1489     1.0  0.83597  0.25366  0.02578  1.0000
  H   H1490     1.0  0.90102  0.46733  0.46695  1.0000
  H   H1491     1.0  0.75220  0.33216  0.10002  1.0000
  H   H1492     1.0  0.75165  0.26322  0.88432  1.0000
  H   H1493     1.0  0.85983  0.48051  0.47564  1.0000
  C   C1258     1.0  0.91701  0.48641  0.92507  1.0000
  S   S335      1.0  0.74375  0.40530  0.34826  1.0000
  H   H1494     1.0  0.86142  0.48716  0.42300  1.0000
  H   H1495     1.0  0.74791  0.36049  0.43414  1.0000
  H   H1496     1.0  0.76172  0.25075  0.75155  1.0000
  H   H1497     1.0  0.74919  0.24255  0.25036  1.0000
  C   C1259     1.0  0.89960  0.47394  0.49493  1.0000
  H   H1498     1.0  0.83684  0.27308  0.59156  1.0000
  C   C1260     1.0  0.96373  0.26049  0.97666  1.0000
  C   C1261     1.0  0.89602  0.48920  0.56975  1.0000
  C   C1262     1.0  0.84219  0.62981  0.16445  1.0000
  H   H1499     1.0  0.97550  0.50805  0.98619  1.0000
  S   S336      1.0  0.74659  0.70584  0.28957  1.0000
  H   H1500     1.0  0.84941  0.64997  0.12545  1.0000
  H   H1501     1.0  0.74754  0.68094  0.35238  1.0000
  C   C1263     1.0  0.80097  0.73199  0.81893  1.0000
  Fe  Fe169     1.0  0.93690  0.55584  0.11814  1.0000
  S   S337      1.0  0.92621  0.53154  0.13468  1.0000
  S   S338      1.0  0.96378  0.56288  0.11387  1.0000
  Fe  Fe170     1.0  0.90443  0.56961  0.08201  1.0000
  S   S339      1.0  0.89194  0.54572  0.09471  1.0000
  S   S340      1.0  0.88845  0.58986  0.05127  1.0000
  Fe  Fe171     1.0  0.90352  0.54572  0.15655  1.0000
  S   S341      1.0  0.88792  0.54485  0.21667  1.0000
  Fe  Fe172     1.0  0.91522  0.53317  0.07202  1.0000
  S   S342      1.0  0.92218  0.51265  0.02783  1.0000
  S   S343      1.0  0.91520  0.57020  0.14419  1.0000
  S   S344      1.0  0.92666  0.55693  0.05510  1.0000
  Fe  Fe173     1.0  0.87547  0.68817  0.99804  1.0000
  S   S345      1.0  0.87420  0.70352  0.05396  1.0000
  S   S346      1.0  0.89379  0.66628  0.00506  1.0000
  Fe  Fe174     1.0  0.85260  0.71293  0.95115  1.0000
  C   C1264     1.0  0.79089  0.72624  0.14679  1.0000
  S   S347      1.0  0.83903  0.72423  0.89605  1.0000
  Fe  Fe175     1.0  0.87765  0.72533  0.01175  1.0000
  S   S348      1.0  0.84796  0.49850  0.34334  1.0000
  Fe  Fe176     1.0  0.84750  0.70637  0.04183  1.0000
  S   S349      1.0  0.82742  0.70137  0.08832  1.0000
  S   S350      1.0  0.88017  0.71008  0.95576  1.0000
  S   S351      1.0  0.84830  0.68981  0.98813  1.0000
  H   H1502     1.0  0.98123  0.54098  0.05935  1.0000
  S   S352      1.0  0.83011  0.51542  0.45070  1.0000
  S   S353      1.0  0.77492  0.71412  0.79212  1.0000
  Fe  Fe177     1.0  0.80258  0.51729  0.44868  1.0000
  S   S354      1.0  0.78722  0.53964  0.47027  1.0000
  S   S355      1.0  0.80127  0.50255  0.39177  1.0000
  C   C1265     1.0  0.76593  0.55354  0.41254  1.0000
  C   C1266     1.0  0.77162  0.55359  0.45238  1.0000
  C   C1267     1.0  0.76469  0.56511  0.47944  1.0000
  C   C1268     1.0  0.86957  0.57889  0.15048  1.0000
  H   H1503     1.0  0.77121  0.54496  0.39110  1.0000
  H   H1504     1.0  0.76900  0.56534  0.51027  1.0000
  C   C1269     1.0  0.74855  0.64333  0.61630  1.0000
  C   C1270     1.0  0.87669  0.53165  0.25102  1.0000
  C   C1271     1.0  0.87671  0.51466  0.24723  1.0000
  C   C1272     1.0  0.86785  0.50485  0.27556  1.0000
  C   C1273     1.0  0.85859  0.51177  0.30795  1.0000
  C   C1274     1.0  0.85848  0.52877  0.31162  1.0000
  C   C1275     1.0  0.86752  0.53857  0.28359  1.0000
  H   H1505     1.0  0.88366  0.50903  0.22264  1.0000
  H   H1506     1.0  0.96373  0.53823  0.02974  1.0000
  C   C1276     1.0  0.93985  0.71220  0.05152  1.0000
  Fe  Fe178     1.0  0.82878  0.49923  0.39642  1.0000
  C   C1277     1.0  0.89007  0.61130  0.04076  1.0000
  C   C1278     1.0  0.87638  0.62025  0.02613  1.0000
  C   C1279     1.0  0.87710  0.63713  0.01637  1.0000
  C   C1280     1.0  0.89166  0.64529  0.02029  1.0000
  C   C1281     1.0  0.90534  0.63634  0.03507  1.0000
  C   C1282     1.0  0.90451  0.61955  0.04576  1.0000
  H   H1507     1.0  0.86510  0.61408  0.02221  1.0000
  H   H1508     1.0  0.86648  0.64372  0.00485  1.0000
  H   H1509     1.0  0.91671  0.64243  0.03818  1.0000
  H   H1510     1.0  0.91514  0.61294  0.05717  1.0000
  C   C1283     1.0  0.91339  0.50383  0.98470  1.0000
  H   H1511     1.0  0.88040  0.58227  0.13177  1.0000
  H   H1512     1.0  0.88581  0.57893  0.22143  1.0000
  H   H1513     1.0  0.93546  0.49011  0.96931  1.0000
  H   H1514     1.0  0.88955  0.51519  0.99193  1.0000
  C   C1284     1.0  0.96671  0.72466  0.04869  1.0000
  N   N83       1.0  0.97611  0.51578  0.04864  1.0000
  H   H1515     1.0  0.95230  0.51698  0.07829  1.0000
  H   H1516     1.0  0.77512  0.69528  0.66309  1.0000
  H   H1517     1.0  0.81574  0.69749  0.89423  1.0000
  H   H1518     1.0  0.97094  0.54108  0.18453  1.0000
  H   H1519     1.0  0.75880  0.64478  0.71515  1.0000
  C   C1285     1.0  0.87209  0.61508  0.14222  1.0000
  H   H1520     1.0  0.87594  0.63697  0.10599  1.0000
  H   H1521     1.0  0.80805  0.71376  0.01801  1.0000
  C   C1286     1.0  0.75346  0.56477  0.40023  1.0000
  C   C1287     1.0  0.98215  0.55623  0.13813  1.0000
  C   C1288     1.0  0.79212  0.71770  0.82277  1.0000
  H   H1522     1.0  0.74174  0.73405  0.07962  1.0000
  H   H1523     1.0  0.75336  0.50881  0.38651  1.0000
  C   C1289     1.0  0.82081  0.72125  0.86872  1.0000
  C   C1290     1.0  0.81169  0.70717  0.87350  1.0000
  H   H1524     1.0  0.74871  0.66336  0.57310  1.0000
  C   C1291     1.0  0.78985  0.72213  0.25549  1.0000
  C   C1292     1.0  0.87208  0.51059  0.46725  1.0000
  H   H1525     1.0  0.76730  0.51746  0.42053  1.0000
  N   N84       1.0  0.86660  0.58994  0.18514  1.0000
  H   H1526     1.0  0.88601  0.50235  0.39852  1.0000
  H   H1527     1.0  0.78025  0.71756  0.27699  1.0000
  S   S356      1.0  0.80022  0.49544  0.49075  1.0000
  C   C1293     1.0  0.81551  0.71742  0.10952  1.0000
  C   C1294     1.0  0.80057  0.71386  0.12867  1.0000
  H   H1528     1.0  0.79685  0.70799  0.97471  1.0000
  H   H1529     1.0  0.85187  0.58961  0.24051  1.0000
  H   H1530     1.0  0.76712  0.49575  0.41427  1.0000
  H   H1531     1.0  0.79643  0.70145  0.12935  1.0000
  C   C1295     1.0  0.75922  0.50701  0.41645  1.0000
  H   H1532     1.0  0.86610  0.51529  0.43897  1.0000
  C   C1296     1.0  0.76574  0.69450  0.68799  1.0000
  C   C1297     1.0  0.75128  0.65941  0.60412  1.0000
  H   H1533     1.0  0.74923  0.62571  0.66563  1.0000
  H   H1534     1.0  0.74916  0.56453  0.36941  1.0000
  C   C1298     1.0  0.74707  0.61217  0.30977  1.0000
  S   S357      1.0  0.75631  0.73774  0.68970  1.0000
  H   H1535     1.0  0.86812  0.49175  0.27220  1.0000
  H   H1536     1.0  0.75767  0.68301  0.62069  1.0000
  H   H1537     1.0  0.78977  0.67138  0.69562  1.0000
  C   C1299     1.0  0.89735  0.50743  0.97318  1.0000
  C   C1300     1.0  0.96869  0.50662  0.01568  1.0000
  H   H1538     1.0  0.75842  0.63231  0.25702  1.0000
  H   H1539     1.0  0.81955  0.72449  0.32485  1.0000
  H   H1540     1.0  0.78463  0.68104  0.74311  1.0000
  C   C1301     1.0  0.80473  0.71751  0.98635  1.0000
  C   C1302     1.0  0.75645  0.50261  0.48855  1.0000
  H   H1541     1.0  0.95600  0.51112  0.00980  1.0000
  H   H1542     1.0  0.90961  0.70427  0.08598  1.0000
  C   C1303     1.0  0.97626  0.53322  0.03561  1.0000
  H   H1543     1.0  0.85900  0.57908  0.12991  1.0000
  H   H1544     1.0  0.79094  0.69420  0.85350  1.0000
  C   C1304     1.0  0.89135  0.50088  0.93730  1.0000
  C   C1305     1.0  0.91793  0.70587  0.00786  1.0000
  H   H1545     1.0  0.81614  0.71712  0.96722  1.0000
  H   H1546     1.0  0.76388  0.49099  0.48725  1.0000
  C   C1306     1.0  0.92309  0.49315  0.96061  1.0000
  H   H1547     1.0  0.98390  0.53499  0.00754  1.0000
  H   H1548     1.0  0.94363  0.68660  0.99558  1.0000
  C   C1307     1.0  0.84646  0.61426  0.18020  1.0000
  C   C1308     1.0  0.75222  0.57635  0.46713  1.0000
  H   H1549     1.0  0.96794  0.49340  0.02392  1.0000
  C   C1309     1.0  0.93713  0.68430  0.02517  1.0000
  C   C1310     1.0  0.89230  0.49693  0.42567  1.0000
  C   C1311     1.0  0.78035  0.67225  0.72051  1.0000
  C   C1312     1.0  0.75682  0.64929  0.68444  1.0000
  S   S358      1.0  0.74601  0.73019  0.18424  1.0000
  H   H1550     1.0  0.75826  0.61855  0.31787  1.0000
  H   H1551     1.0  0.78368  0.73069  0.23357  1.0000
  C   C1313     1.0  0.91829  0.69438  0.07610  1.0000
  C   C1314     1.0  0.75431  0.72421  0.02685  1.0000
  N   N85       1.0  0.92863  0.69933  0.04041  1.0000
  H   H1552     1.0  0.92836  0.67457  0.01912  1.0000
  H   H1553     1.0  0.96607  0.50161  0.09881  1.0000
  N   N86       1.0  0.90365  0.55607  0.93780  1.0000
  C   C1315     1.0  0.89489  0.55117  0.97589  1.0000
  C   C1316     1.0  0.89240  0.56627  0.91226  1.0000
  C   C1317     1.0  0.90792  0.54103  0.91491  1.0000
  C   C1318     1.0  0.91802  0.56545  0.94829  1.0000
  C   C1319     1.0  0.93430  0.55907  0.94411  1.0000
  C   C1320     1.0  0.91594  0.58118  0.96521  1.0000
  C   C1321     1.0  0.94754  0.56806  0.95574  1.0000
  C   C1322     1.0  0.92926  0.59006  0.97660  1.0000
  C   C1323     1.0  0.94503  0.58351  0.97198  1.0000
  H   H1554     1.0  0.89083  0.56189  0.99419  1.0000
  H   H1555     1.0  0.88383  0.54423  0.96963  1.0000
  H   H1556     1.0  0.90283  0.54322  0.99561  1.0000
  H   H1557     1.0  0.88646  0.57650  0.92929  1.0000
  H   H1558     1.0  0.88221  0.55908  0.90104  1.0000
  H   H1559     1.0  0.89896  0.57155  0.88522  1.0000
  H   H1560     1.0  0.91520  0.53205  0.93349  1.0000
  H   H1561     1.0  0.89690  0.53445  0.90634  1.0000
  H   H1562     1.0  0.91487  0.54386  0.88623  1.0000
  H   H1563     1.0  0.93712  0.54707  0.93253  1.0000
  H   H1564     1.0  0.90396  0.58662  0.97089  1.0000
  H   H1565     1.0  0.95983  0.56294  0.95266  1.0000
  H   H1566     1.0  0.92726  0.60198  0.98985  1.0000
  H   H1567     1.0  0.95529  0.59033  0.98159  1.0000
  H   H1568     1.0  0.88027  0.59966  0.23356  1.0000
  H   H1569     1.0  0.89223  0.59511  0.18854  1.0000
  H   H1570     1.0  0.83766  0.60862  0.20052  1.0000
  H   H1571     1.0  0.76947  0.70292  0.71189  1.0000
  H   H1572     1.0  0.74706  0.58507  0.48842  1.0000
  Fe  Fe179     1.0  0.82754  0.49237  0.48936  1.0000
  H   H1573     1.0  0.90222  0.50516  0.43343  1.0000
  H   H1574     1.0  0.79472  0.71154  0.23784  1.0000
  C   C1324     1.0  0.75212  0.67796  0.73838  1.0000
  H   H1575     1.0  0.77939  0.72328  0.16124  1.0000
  H   H1576     1.0  0.76919  0.71634  0.97664  1.0000
  H   H1577     1.0  0.89419  0.49474  0.59924  1.0000
  H   H1578     1.0  0.96233  0.70176  0.02360  1.0000
  Fe  Fe180     1.0  0.75621  0.73023  0.75669  1.0000
  H   H1579     1.0  0.85156  0.53438  0.33628  1.0000
  C   C1325     1.0  0.76860  0.72414  0.00273  1.0000
  C   C1326     1.0  0.90112  0.49036  0.91292  1.0000
  H   H1580     1.0  0.92589  0.69061  0.10251  1.0000
  N   N87       1.0  0.80286  0.73036  0.27676  1.0000
  H   H1581     1.0  0.75388  0.69945  0.67650  1.0000
  C   C1327     1.0  0.81088  0.71838  0.30513  1.0000
  H   H1582     1.0  0.75135  0.66608  0.75513  1.0000
  H   H1583     1.0  0.86742  0.55164  0.28733  1.0000
  H   H1584     1.0  0.87996  0.50628  0.54122  1.0000
  C   C1328     1.0  0.88186  0.59100  0.20811  1.0000
  C   C1329     1.0  0.95668  0.71176  0.04001  1.0000
  H   H1585     1.0  0.74897  0.60642  0.27963  1.0000
  C   C1330     1.0  0.86161  0.60641  0.16943  1.0000
  H   H1586     1.0  0.83054  0.63558  0.17270  1.0000
  C   C1331     1.0  0.74647  0.57622  0.42740  1.0000
  H   H1587     1.0  0.87898  0.50388  0.92847  1.0000
  C   C1332     1.0  0.79759  0.70535  0.85032  1.0000
  H   H1588     1.0  0.88371  0.60981  0.13213  1.0000
  C   C1333     1.0  0.75143  0.63824  0.65631  1.0000
  H   H1589     1.0  0.87192  0.56601  0.16082  1.0000
  C   C1334     1.0  0.85430  0.58229  0.21281  1.0000
  H   H1590     1.0  0.80198  0.71188  0.32514  1.0000
  C   C1335     1.0  0.86774  0.63064  0.12691  1.0000
  C   C1336     1.0  0.85279  0.63797  0.13785  1.0000
  H   H1591     1.0  0.91048  0.68398  0.06904  1.0000
  H   H1592     1.0  0.74427  0.71670  0.01904  1.0000
  H   H1593     1.0  0.84267  0.58054  0.19702  1.0000
  H   H1594     1.0  0.91015  0.71638  0.01830  1.0000
  H   H1595     1.0  0.97941  0.72430  0.03892  1.0000
  H   H1596     1.0  0.92517  0.71019  0.98086  1.0000
  H   H1597     1.0  0.85858  0.56991  0.22379  1.0000
  S   S359      1.0  0.85051  0.72941  0.00502  1.0000
  H   H1598     1.0  0.88055  0.52007  0.47652  1.0000
  H   H1599     1.0  0.94589  0.67914  0.04775  1.0000
  C   C1337     1.0  0.81527  0.73364  0.84139  1.0000
  H   H1600     1.0  0.82113  0.72458  0.23010  1.0000
  H   H1601     1.0  0.90960  0.69649  0.99743  1.0000
  C   C1338     1.0  0.93381  0.72630  0.07199  1.0000
  H   H1602     1.0  0.81779  0.70859  0.28849  1.0000
  C   C1339     1.0  0.96531  0.51421  0.08541  1.0000
  N   N88       1.0  0.76428  0.67752  0.70422  1.0000
  C   C1340     1.0  0.98231  0.54542  0.17177  1.0000
  H   H1603     1.0  0.96826  0.52286  0.10954  1.0000
  C   C1341     1.0  0.75927  0.66591  0.67336  1.0000
  H   H1604     1.0  0.78001  0.66016  0.73649  1.0000
  C   C1342     1.0  0.75646  0.67062  0.63206  1.0000
  H   H1605     1.0  0.75521  0.68705  0.76147  1.0000
  H   H1606     1.0  0.75915  0.65577  0.21056  1.0000
  H   H1607     1.0  0.85178  0.49579  0.63180  1.0000
  C   C1343     1.0  0.74807  0.65336  0.22800  1.0000
  C   C1344     1.0  0.74747  0.63988  0.25497  1.0000
  H   H1608     1.0  0.76525  0.51241  0.49349  1.0000
  C   C1345     1.0  0.94401  0.73896  0.08107  1.0000
  H   H1609     1.0  0.92100  0.72804  0.07966  1.0000
  H   H1610     1.0  0.86216  0.50953  0.49085  1.0000
  H   H1611     1.0  0.74464  0.53025  0.50971  1.0000
  N   N89       1.0  0.74721  0.50571  0.45065  1.0000
  H   H1612     1.0  0.74817  0.50158  0.51571  1.0000
  H   H1613     1.0  0.78534  0.72844  0.92839  1.0000
  H   H1614     1.0  0.78282  0.72939  0.34538  1.0000
  C   C1346     1.0  0.75286  0.73395  0.06099  1.0000
  C   C1347     1.0  0.82078  0.73348  0.10867  1.0000
  N   N90       1.0  0.79668  0.73398  0.98529  1.0000
  C   C1348     1.0  0.78187  0.73398  0.01198  1.0000
  H   H1615     1.0  0.83239  0.73630  0.09436  1.0000
  C   C1349     1.0  0.81539  0.73529  0.24581  1.0000
  H   H1616     1.0  0.74388  0.63490  0.59479  1.0000
  S   S360      1.0  0.84156  0.48995  0.55009  1.0000
  C   C1350     1.0  0.79216  0.73820  0.94271  1.0000
  N   N91       1.0  0.88079  0.49466  0.46080  1.0000
  H   H1617     1.0  0.74584  0.60202  0.33284  1.0000
  C   C1351     1.0  0.88790  0.49575  0.53584  1.0000
  H   H1618     1.0  0.74115  0.63922  0.35563  1.0000
  C   C1352     1.0  0.96037  0.73824  0.06905  1.0000
  C   C1353     1.0  0.97570  0.90627  0.54765  1.0000
  H   H1619     1.0  0.94816  0.83715  0.84851  1.0000
  C   C1354     1.0  0.96695  0.85979  0.43556  1.0000
  H   H1620     1.0  0.79071  0.78620  0.29601  1.0000
  H   H1621     1.0  0.93582  0.78618  0.05330  1.0000
  C   C1355     1.0  0.78018  0.77061  0.34224  1.0000
  C   C1356     1.0  0.97804  0.86651  0.40743  1.0000
  S   S361      1.0  0.96963  0.82535  0.02254  1.0000
  H   H1622     1.0  0.97308  0.87031  0.12076  1.0000
  Fe  Fe181     1.0  0.97766  0.79883  0.02011  1.0000
  S   S362      1.0  0.96290  0.77771  0.99597  1.0000
  C   C1357     1.0  0.75097  0.94368  0.51245  1.0000
  Fe  Fe182     1.0  0.93932  0.90543  0.30351  1.0000
  S   S363      1.0  0.91433  0.91678  0.31618  1.0000
  S   S364      1.0  0.94864  0.89957  0.23830  1.0000
  Fe  Fe183     1.0  0.95001  0.91065  0.39211  1.0000
  S   S365      1.0  0.92564  0.92215  0.41097  1.0000
  S   S366      1.0  0.97492  0.90789  0.42266  1.0000
  Fe  Fe184     1.0  0.91423  0.90230  0.37539  1.0000
  S   S367      1.0  0.89333  0.88528  0.39465  1.0000
  Fe  Fe185     1.0  0.92703  0.93606  0.35059  1.0000
  S   S368      1.0  0.91768  0.96275  0.34407  1.0000
  S   S369      1.0  0.93868  0.88975  0.36057  1.0000
  S   S370      1.0  0.95186  0.92579  0.33396  1.0000
  Fe  Fe186     1.0  0.75857  0.87646  0.46952  1.0000
  S   S371      1.0  0.77983  0.87246  0.51167  1.0000
  Fe  Fe187     1.0  0.74158  0.76006  0.70886  1.0000
  Fe  Fe188     1.0  0.77330  0.85167  0.40928  1.0000
  S   S372      1.0  0.79539  0.84664  0.44696  1.0000
  S   S373      1.0  0.77442  0.83920  0.34819  1.0000
  Fe  Fe189     1.0  0.77746  0.84552  0.50026  1.0000
  S   S374      1.0  0.78185  0.82297  0.54212  1.0000
  Fe  Fe190     1.0  0.79599  0.87371  0.45489  1.0000
  S   S375      1.0  0.81714  0.89152  0.44627  1.0000
  S   S376      1.0  0.75531  0.84930  0.46167  1.0000
  S   S377      1.0  0.77476  0.87899  0.41362  1.0000
  C   C1358     1.0  0.87229  0.88744  0.41025  1.0000
  C   C1359     1.0  0.86335  0.87327  0.41852  1.0000
  C   C1360     1.0  0.84660  0.87424  0.42976  1.0000
  C   C1361     1.0  0.83842  0.88943  0.43278  1.0000
  C   C1362     1.0  0.84735  0.90361  0.42475  1.0000
  C   C1363     1.0  0.86412  0.90265  0.41362  1.0000
  H   H1623     1.0  0.86947  0.86143  0.41621  1.0000
  H   H1624     1.0  0.84012  0.86322  0.43669  1.0000
  H   H1625     1.0  0.84128  0.91546  0.42718  1.0000
  H   H1626     1.0  0.87073  0.91368  0.40756  1.0000
  S   S378      1.0  0.75579  0.74943  0.26616  1.0000
  H   H1627     1.0  0.81004  0.74302  0.22101  1.0000
  C   C1364     1.0  0.74727  0.82052  0.36182  1.0000
  H   H1628     1.0  0.83185  0.89022  0.33784  1.0000
  H   H1629     1.0  0.81538  0.75823  0.12706  1.0000
  H   H1630     1.0  0.95081  0.97128  0.31535  1.0000
  H   H1631     1.0  0.75645  0.79409  0.26674  1.0000
  H   H1632     1.0  0.96117  0.85313  0.32075  1.0000
  H   H1633     1.0  0.77042  0.75216  0.38249  1.0000
  Fe  Fe191     1.0  0.76001  0.75215  0.19876  1.0000
  S   S379      1.0  0.78478  0.75788  0.17129  1.0000
  C   C1365     1.0  0.98118  0.90723  0.47437  1.0000
  C   C1366     1.0  0.97007  0.90711  0.50731  1.0000
  H   H1634     1.0  0.97766  0.95877  0.60413  1.0000
  H   H1635     1.0  0.95713  0.90753  0.50175  1.0000
  H   H1636     1.0  0.75384  0.78844  0.50477  1.0000
  C   C1367     1.0  0.96646  0.85325  0.16859  1.0000
  C   C1368     1.0  0.95953  0.85184  0.20822  1.0000
  C   C1369     1.0  0.95394  0.86575  0.22985  1.0000
  C   C1370     1.0  0.95537  0.88142  0.21241  1.0000
  C   C1371     1.0  0.96232  0.88286  0.17285  1.0000
  C   C1372     1.0  0.96780  0.86893  0.15109  1.0000
  H   H1637     1.0  0.82524  0.74211  0.25976  1.0000
  H   H1638     1.0  0.94825  0.86432  0.25966  1.0000
  H   H1639     1.0  0.96348  0.89484  0.15879  1.0000
  C   C1373     1.0  0.75262  0.79642  0.64461  1.0000
  C   C1374     1.0  0.94306  0.76984  0.00542  1.0000
  C   C1375     1.0  0.93805  0.75676  0.98214  1.0000
  C   C1376     1.0  0.92264  0.74983  0.98896  1.0000
  C   C1377     1.0  0.93226  0.77609  0.03521  1.0000
  H   H1640     1.0  0.94619  0.75190  0.95872  1.0000
  S   S380      1.0  0.74333  0.75358  0.77607  1.0000
  H   H1641     1.0  0.76385  0.77141  0.55660  1.0000
  N   N92       1.0  0.98744  0.87226  0.33409  1.0000
  C   C1378     1.0  0.75518  0.81952  0.59596  1.0000
  C   C1379     1.0  0.77015  0.81311  0.58138  1.0000
  C   C1380     1.0  0.77623  0.79828  0.59860  1.0000
  C   C1381     1.0  0.76751  0.78994  0.62983  1.0000
  H   H1642     1.0  0.93113  0.93258  0.17630  1.0000
  H   H1643     1.0  0.81208  0.87533  0.37147  1.0000
  H   H1644     1.0  0.78788  0.79329  0.58788  1.0000
  H   H1645     1.0  0.77248  0.77867  0.64295  1.0000
  C   C1382     1.0  0.76115  0.82340  0.33758  1.0000
  C   C1383     1.0  0.76441  0.81378  0.30332  1.0000
  N   N93       1.0  0.92753  0.95277  0.21700  1.0000
  C   C1384     1.0  0.83721  0.86496  0.31901  1.0000
  H   H1646     1.0  0.93693  0.84091  0.91861  1.0000
  H   H1647     1.0  0.96695  0.90607  0.57282  1.0000
  H   H1648     1.0  0.95825  0.83982  0.22202  1.0000
  C   C1385     1.0  0.91205  0.75573  0.01967  1.0000
  H   H1649     1.0  0.93795  0.95148  0.27618  1.0000
  H   H1650     1.0  0.84851  0.84197  0.29875  1.0000
  H   H1651     1.0  0.85916  0.89973  0.32628  1.0000
  H   H1652     1.0  0.75036  0.83093  0.58322  1.0000
  H   H1653     1.0  0.96804  0.74845  0.07460  1.0000
  H   H1654     1.0  0.97765  0.81842  0.91719  1.0000
  C   C1386     1.0  0.93861  0.80981  0.89461  1.0000
  C   C1387     1.0  0.93100  0.80793  0.85663  1.0000
  C   C1388     1.0  0.93231  0.80072  0.92848  1.0000
  C   C1389     1.0  0.91793  0.79755  0.85315  1.0000
  C   C1390     1.0  0.91924  0.79042  0.92465  1.0000
  C   C1391     1.0  0.91208  0.78881  0.88707  1.0000
  H   H1655     1.0  0.96429  0.80612  0.94689  1.0000
  C   C1392     1.0  0.94765  0.83347  0.92926  1.0000
  H   H1656     1.0  0.82224  0.84175  0.27580  1.0000
  H   H1657     1.0  0.78455  0.74968  0.94121  1.0000
  H   H1658     1.0  0.98469  0.94038  0.58089  1.0000
  H   H1659     1.0  0.94237  0.84126  0.37072  1.0000
  C   C1393     1.0  0.75607  0.76080  0.56353  1.0000
  N   N94       1.0  0.82078  0.85837  0.32609  1.0000
  C   C1394     1.0  0.78957  0.77372  0.30722  1.0000
  H   H1660     1.0  0.93494  0.81430  0.82917  1.0000
  H   H1661     1.0  0.93753  0.80140  0.95829  1.0000
  H   H1662     1.0  0.91231  0.79622  0.82394  1.0000
  H   H1663     1.0  0.91471  0.78356  0.95103  1.0000
  H   H1664     1.0  0.90199  0.78073  0.88429  1.0000
  C   C1395     1.0  0.95422  0.85060  0.42238  1.0000
  H   H1665     1.0  0.78955  0.75124  0.05750  1.0000
  H   H1666     1.0  0.98557  0.89219  0.28994  1.0000
  H   H1667     1.0  0.95774  0.84194  0.93398  1.0000
  H   H1668     1.0  0.80366  0.76417  0.25818  1.0000
  H   H1669     1.0  0.96702  0.88193  0.30016  1.0000
  C   C1396     1.0  0.74795  0.77979  0.48603  1.0000
  C   C1397     1.0  0.79551  0.74433  0.29938  1.0000
  C   C1398     1.0  0.92708  0.98157  0.33096  1.0000
  S   S381      1.0  0.99058  0.79915  0.07989  1.0000
  H   H1670     1.0  0.94363  0.94935  0.16440  1.0000
  C   C1399     1.0  0.74656  0.81130  0.62761  1.0000
  Fe  Fe192     1.0  0.98370  0.82624  0.08073  1.0000
  H   H1671     1.0  0.97441  0.89538  0.33704  1.0000
  C   C1400     1.0  0.95797  0.82906  0.86146  1.0000
  H   H1672     1.0  0.74796  0.93618  0.53885  1.0000
  H   H1673     1.0  0.94546  0.84572  0.44427  1.0000
  C   C1401     1.0  0.75581  0.96339  0.44289  1.0000
  H   H1674     1.0  0.96843  0.83706  0.86681  1.0000
  C   C1402     1.0  0.95253  0.84808  0.38095  1.0000
  H   H1675     1.0  0.81373  0.74275  0.02799  1.0000
  C   C1403     1.0  0.74840  0.78274  0.44389  1.0000
  H   H1676     1.0  0.98727  0.87389  0.41989  1.0000
  H   H1677     1.0  0.77762  0.94930  0.43216  1.0000
  H   H1678     1.0  0.93903  0.74975  0.09598  1.0000
  H   H1679     1.0  0.79637  0.86533  0.34639  1.0000
  C   C1404     1.0  0.79708  0.76085  0.28585  1.0000
  H   H1680     1.0  0.77510  0.81598  0.28435  1.0000
  H   H1681     1.0  0.81965  0.74582  0.97595  1.0000
  H   H1682     1.0  0.90902  0.94904  0.26388  1.0000
  C   C1405     1.0  0.93128  0.94620  0.17598  1.0000
  C   C1406     1.0  0.96659  0.81098  0.91558  1.0000
  N   N95       1.0  0.95244  0.82067  0.89973  1.0000
  C   C1407     1.0  0.81464  0.85215  0.28749  1.0000
  C   C1408     1.0  0.80888  0.74584  0.99732  1.0000
  H   H1683     1.0  0.92227  0.95094  0.15347  1.0000
  C   C1409     1.0  0.86915  0.87669  0.30652  1.0000
  C   C1410     1.0  0.75384  0.80141  0.29324  1.0000
  C   C1411     1.0  0.97663  0.86428  0.36486  1.0000
  N   N96       1.0  0.77724  0.92732  0.49666  1.0000
  C   C1412     1.0  0.77770  0.91572  0.46277  1.0000
  C   C1413     1.0  0.79373  0.93392  0.50050  1.0000
  C   C1414     1.0  0.77349  0.91790  0.53481  1.0000
  C   C1415     1.0  0.76521  0.94074  0.48783  1.0000
  C   C1416     1.0  0.97826  0.88602  0.31440  1.0000
  C   C1417     1.0  0.76572  0.74356  0.07128  1.0000
  H   H1684     1.0  0.75430  0.79347  0.43126  1.0000
  H   H1685     1.0  0.80202  0.84762  0.29154  1.0000
  H   H1686     1.0  0.75739  0.97082  0.41540  1.0000
  H   H1687     1.0  0.78202  0.92131  0.43350  1.0000
  H   H1688     1.0  0.78608  0.90509  0.46908  1.0000
  H   H1689     1.0  0.76540  0.91095  0.45786  1.0000
  H   H1690     1.0  0.79383  0.94311  0.52487  1.0000
  H   H1691     1.0  0.79823  0.93982  0.47178  1.0000
  H   H1692     1.0  0.80295  0.92404  0.50792  1.0000
  H   H1693     1.0  0.76168  0.91166  0.53302  1.0000
  H   H1694     1.0  0.78286  0.90805  0.54078  1.0000
  H   H1695     1.0  0.77303  0.92585  0.56178  1.0000
  H   H1696     1.0  0.74459  0.82791  0.38813  1.0000
  H   H1697     1.0  0.90285  0.97509  0.24419  1.0000
  C   C1418     1.0  0.85653  0.88722  0.31948  1.0000
  H   H1698     1.0  0.87594  0.85231  0.28921  1.0000
  C   C1419     1.0  0.80858  0.87064  0.34151  1.0000
  H   H1699     1.0  0.94117  0.93334  0.24729  1.0000
  C   C1420     1.0  0.94064  0.97946  0.19962  1.0000
  C   C1421     1.0  0.81116  0.74586  0.12727  1.0000
  H   H1700     1.0  0.81436  0.86193  0.26336  1.0000
  H   H1701     1.0  0.80689  0.88110  0.31966  1.0000
  H   H1702     1.0  0.90165  0.94969  0.21227  1.0000
  H   H1703     1.0  0.80935  0.83965  0.36310  1.0000
  C   C1422     1.0  0.79618  0.74227  0.14639  1.0000
  C   C1423     1.0  0.91692  0.76904  0.04231  1.0000
  H   H1704     1.0  0.91902  0.73990  0.97055  1.0000
  H   H1705     1.0  0.76217  0.74992  0.54947  1.0000
  C   C1424     1.0  0.82159  0.84471  0.35656  1.0000
  H   H1706     1.0  0.82634  0.84885  0.38588  1.0000
  H   H1707     1.0  0.96971  0.80035  0.89613  1.0000
  H   H1708     1.0  0.77415  0.78066  0.35814  1.0000
  H   H1709     1.0  0.88146  0.88105  0.30338  1.0000
  H   H1710     1.0  0.82954  0.83433  0.34631  1.0000
  C   C1425     1.0  0.91198  0.94567  0.23177  1.0000
  H   H1711     1.0  0.94439  0.82827  0.95980  1.0000
  H   H1712     1.0  0.91265  0.93206  0.23172  1.0000
  H   H1713     1.0  0.98729  0.98055  0.63724  1.0000
  H   H1714     1.0  0.95272  0.95093  0.23515  1.0000
  C   C1426     1.0  0.85029  0.85467  0.30480  1.0000
  C   C1427     1.0  0.94043  0.94691  0.24499  1.0000
  C   C1428     1.0  0.86602  0.86047  0.29896  1.0000
  C   C1429     1.0  0.84081  0.88151  0.32604  1.0000
  C   C1430     1.0  0.92702  0.97086  0.21524  1.0000
  S   S382      1.0  0.89296  0.74668  0.03228  1.0000
  H   H1715     1.0  0.96229  0.82014  0.83825  1.0000
  C   C1431     1.0  0.98671  0.95378  0.58165  1.0000
  C   C1432     1.0  0.91346  0.98044  0.22999  1.0000
  H   H1716     1.0  0.95160  0.97305  0.18918  1.0000
  C   C1433     1.0  0.78554  0.74160  0.33474  1.0000
  C   C1434     1.0  0.96348  0.85486  0.35252  1.0000
  H   H1717     1.0  0.82217  0.74461  0.83736  1.0000
  H   H1718     1.0  0.98480  0.87144  0.86616  1.0000
  C   C1435     1.0  0.76729  0.95102  0.45276  1.0000
  H   H1719     1.0  0.80365  0.75853  0.99717  1.0000
  C   C1436     1.0  0.77815  0.75458  0.35595  1.0000
  S   S383      1.0  0.97328  0.83507  0.14302  1.0000
  C   C1437     1.0  0.94326  0.98231  0.31675  1.0000
  H   H1720     1.0  0.90885  0.77382  0.06599  1.0000
  H   H1721     1.0  0.79708  0.74156  0.79775  1.0000
  C   C1438     1.0  0.78006  0.74361  0.04737  1.0000
  H   H1722     1.0  0.76461  0.75099  0.09819  1.0000
  H   H1723     1.0  0.75607  0.75884  0.59724  1.0000
  H   H1724     1.0  0.96801  0.86213  0.46775  1.0000
  C   C1439     1.0  0.74202  0.96595  0.46766  1.0000
  H   H1725     1.0  0.98372  0.95909  0.55113  1.0000
  H   H1726     1.0  0.98287  0.85723  0.28224  1.0000
  H   H1727     1.0  0.80310  0.74005  0.92268  1.0000
  C   C1440     1.0  0.74111  0.77208  0.41802  1.0000
  H   H1728     1.0  0.74132  0.77447  0.38537  1.0000
  S   S384      1.0  0.74107  0.78652  0.68410  1.0000
