data_image0
_chemical_formula_structural       FeS2FeS2FeSFeS3CH6NC7H4C6HCH3C2H2NC9H13C3H2SHC2HSFeC8HSH3FeSCH2SHC2HCH5CH3CHCHC4HCHCH2SHCFeSCFeS2FeSFeS3FeHSH3CHC2HC6H4C6HFeCHCHCHCH2NH2C2HCH2C2HC2SH3C2H2CH2CH3FeH3CSH3CH2CNCNH2C3H2SH2CHCS2CHCSC2H8C3H4CHFeNHC3HCSCH2C2SNSHCHC3FeH5C2NC4H2C2NHCH2C2H2CH3CH4CH2CSCSCFeSHFe2S2FeS2NCFeH3S2C2H2C6H6CSHCH2NC7H7FeC2H5SHCH2CSC2HC2H8FeC3H3CHFeCHC2H2SCH2C2HC2H2FeC2NH4CHCHCH2CH3CSH3CSC4SH5CSNHCH2C2H2CHCHC2HCHSHCHSCH2SHC4SHSH2C2H2C2HCHC2H2CHCH2CHCHCHCH4CHFeHCNCHC3HC3H2CHCH2C2HNHFe2S2FeH3S2FeS2FeHSHFeHS2CHCHCH2C6H4CH6CFeHC2H3SH3SH2CH3C2HSCNCH3C2HC2NH2C4FeHCH2C2H2FeS2H2CN2C3HC3HC2SHCHCH2CFeHC2H2C2HSH2C2H3SCH6CHCHSH2FeS2FeS2FeSFeCS2H3S2CSHFeHC6HCH2C7HNHC3H2CHSCHCH4C2HCH3CH2CHFeC5H5CH2C3SH2CH3C2H3C2H2CH4CSFeCNH2C2H2CH4CFeS2FeSCFeSFeS3HSCHCSCNC2H4C7H3C6H2NHNCH3CHSH2CH2CH4CH5CSC4H5CHCHC2FeH5CHSCHCFeCHC4H5C
_chemical_formula_sum              "Fe48 S96 C360 H432 N24"
_cell_length_a       31.4474
_cell_length_b       29.4507
_cell_length_c       48.1249
_cell_angle_alpha    90.6602
_cell_angle_beta     88.1316
_cell_angle_gamma    90.2385

_space_group_name_H-M_alt    "P 1"
_space_group_IT_number       1

loop_
  _space_group_symop_operation_xyz
  'x, y, z'

loop_
  _atom_site_type_symbol
  _atom_site_label
  _atom_site_symmetry_multiplicity
  _atom_site_fract_x
  _atom_site_fract_y
  _atom_site_fract_z
  _atom_site_occupancy
  Fe  Fe1       1.0  0.14397  0.15894  0.14390  1.0000
  S   S1        1.0  0.16730  0.11838  0.17960  1.0000
  S   S2        1.0  0.13526  0.12256  0.10278  1.0000
  Fe  Fe2       1.0  0.11729  0.23880  0.18200  1.0000
  S   S3        1.0  0.13664  0.20303  0.22048  1.0000
  S   S4        1.0  0.09399  0.31141  0.17995  1.0000
  Fe  Fe3       1.0  0.19521  0.18379  0.19515  1.0000
  S   S5        1.0  0.25775  0.19952  0.21540  1.0000
  Fe  Fe4       1.0  0.10685  0.14109  0.20148  1.0000
  S   S6        1.0  0.07033  0.08673  0.22496  1.0000
  S   S7        1.0  0.17738  0.22282  0.15728  1.0000
  S   S8        1.0  0.08213  0.17853  0.16514  1.0000
  C   C1        1.0  0.50364  0.28041  0.37403  1.0000
  H   H1        1.0  0.09025  0.26995  0.11849  1.0000
  H   H2        1.0  0.24730  0.34923  0.18119  1.0000
  H   H3        1.0  0.46569  0.20919  0.28377  1.0000
  H   H4        1.0  0.45015  0.37703  0.36100  1.0000
  H   H5        1.0  0.26859  0.11076  0.27931  1.0000
  H   H6        1.0  0.08362  0.07773  0.15112  1.0000
  N   N1        1.0  0.48541  0.31459  0.35543  1.0000
  C   C2        1.0  0.14961  0.12242  0.04650  1.0000
  C   C3        1.0  0.29385  0.15579  0.22259  1.0000
  C   C4        1.0  0.33125  0.16640  0.23656  1.0000
  C   C5        1.0  0.36063  0.13220  0.24262  1.0000
  C   C6        1.0  0.35271  0.08725  0.23457  1.0000
  C   C7        1.0  0.31523  0.07673  0.22073  1.0000
  C   C8        1.0  0.28585  0.11082  0.21479  1.0000
  H   H7        1.0  0.33758  0.20119  0.24255  1.0000
  H   H8        1.0  0.38945  0.14053  0.25327  1.0000
  H   H9        1.0  0.20878  0.27564  0.23818  1.0000
  H   H10       1.0  0.25719  0.10229  0.20405  1.0000
  C   C9        1.0  0.05398  0.38986  0.25942  1.0000
  C   C10       1.0  0.05431  0.41120  0.23361  1.0000
  C   C11       1.0  0.06559  0.38647  0.20928  1.0000
  C   C12       1.0  0.07639  0.34030  0.21059  1.0000
  C   C13       1.0  0.07517  0.31885  0.23636  1.0000
  C   C14       1.0  0.06429  0.34362  0.26068  1.0000
  H   H11       1.0  0.38870  0.22553  0.28137  1.0000
  C   C15       1.0  0.10672  0.31542  0.08508  1.0000
  H   H12       1.0  0.08280  0.28321  0.23764  1.0000
  H   H13       1.0  0.11010  0.34444  0.09894  1.0000
  H   H14       1.0  0.23096  0.22145  0.04741  1.0000
  C   C16       1.0  0.18913  0.17870  0.07219  1.0000
  C   C17       1.0  0.15994  0.14277  0.07192  1.0000
  H   H15       1.0  0.06634  0.40328  0.18939  1.0000
  H   H16       1.0  0.19723  0.19459  0.09170  1.0000
  N   N2        1.0  0.21442  0.34289  0.22098  1.0000
  C   C18       1.0  0.18604  0.38271  0.21802  1.0000
  C   C19       1.0  0.22534  0.32559  0.19248  1.0000
  C   C20       1.0  0.19003  0.30734  0.23612  1.0000
  C   C21       1.0  0.25346  0.35350  0.23625  1.0000
  C   C22       1.0  0.25857  0.39446  0.25180  1.0000
  C   C23       1.0  0.28711  0.32156  0.23697  1.0000
  C   C24       1.0  0.29578  0.40327  0.26617  1.0000
  C   C25       1.0  0.32419  0.33073  0.25131  1.0000
  C   C26       1.0  0.32862  0.37162  0.26577  1.0000
  H   H17       1.0  0.20332  0.41170  0.20819  1.0000
  H   H18       1.0  0.15872  0.37460  0.20463  1.0000
  H   H19       1.0  0.17137  0.39388  0.23833  1.0000
  H   H20       1.0  0.19645  0.32099  0.17986  1.0000
  H   H21       1.0  0.24042  0.29149  0.19249  1.0000
  H   H22       1.0  0.18017  0.31895  0.25745  1.0000
  H   H23       1.0  0.16074  0.29797  0.22505  1.0000
  H   H24       1.0  0.23419  0.42017  0.25329  1.0000
  H   H25       1.0  0.28495  0.28895  0.22661  1.0000
  H   H26       1.0  0.29911  0.43487  0.27774  1.0000
  H   H27       1.0  0.34955  0.30585  0.25114  1.0000
  H   H28       1.0  0.35746  0.37870  0.27680  1.0000
  H   H29       1.0  0.35573  0.28411  0.31242  1.0000
  C   C27       1.0  0.40789  0.24414  0.29600  1.0000
  C   C28       1.0  0.09548  0.27344  0.09619  1.0000
  C   C29       1.0  0.09873  0.23991  0.04993  1.0000
  H   H30       1.0  0.06389  0.32685  0.28057  1.0000
  H   H31       1.0  0.39787  0.32567  0.34571  1.0000
  S   S9        1.0  0.46147  0.07391  0.30718  1.0000
  H   H32       1.0  0.08368  0.20297  0.08749  1.0000
  C   C30       1.0  0.06587  0.04860  0.14208  1.0000
  C   C31       1.0  0.02071  0.07136  0.21164  1.0000
  H   H33       1.0  0.50941  0.24990  0.31644  1.0000
  S   S10       1.0  0.04175  0.41967  0.29066  1.0000
  Fe  Fe5       1.0  0.45048  0.04807  0.26382  1.0000
  C   C32       1.0  0.45115  0.23493  0.29735  1.0000
  C   C33       1.0  0.20816  0.19385  0.04710  1.0000
  C   C34       1.0  0.11403  0.31994  0.05639  1.0000
  C   C35       1.0  0.46231  0.34839  0.37336  1.0000
  C   C36       1.0  0.45832  0.29154  0.33490  1.0000
  C   C37       1.0  0.09154  0.23582  0.07866  1.0000
  C   C38       1.0  0.41413  0.30067  0.33274  1.0000
  C   C39       1.0  0.38945  0.27710  0.31354  1.0000
  H   H34       1.0  0.04627  0.44679  0.23242  1.0000
  S   S11       1.0  0.38772  0.04268  0.24200  1.0000
  H   H35       1.0  0.50856  0.36291  0.32522  1.0000
  H   H36       1.0  0.30888  0.04198  0.21457  1.0000
  H   H37       1.0  0.05954  0.05774  0.12025  1.0000
  Fe  Fe6       1.0  0.01903  0.49265  0.29133  1.0000
  S   S12       1.0  0.01951  0.52670  0.33352  1.0000
  C   C40       1.0  0.47604  0.25837  0.31633  1.0000
  H   H38       1.0  0.32834  0.06846  0.29567  1.0000
  H   H39       1.0  0.03463  0.04620  0.15348  1.0000
  S   S13       1.0  0.51255  0.07457  0.24644  1.0000
  H   H40       1.0  0.15126  0.03531  0.13355  1.0000
  C   C41       1.0  0.26449  0.07506  0.28415  1.0000
  C   C42       1.0  0.29874  0.05016  0.29372  1.0000
  H   H41       1.0  0.19945  0.07333  0.27173  1.0000
  C   C43       1.0  0.22561  0.05393  0.27966  1.0000
  H   H42       1.0  0.12707  0.09460  0.04617  1.0000
  H   H43       1.0  0.12353  0.35298  0.04886  1.0000
  H   H44       1.0  0.43559  0.33256  0.38552  1.0000
  H   H45       1.0  0.47821  0.26196  0.38595  1.0000
  H   H46       1.0  0.44946  0.49359  0.38181  1.0000
  C   C44       1.0  0.49250  0.50348  0.56589  1.0000
  H   H47       1.0  0.27242  0.49578  0.68757  1.0000
  H   H48       1.0  0.46031  0.45406  0.70281  1.0000
  H   H49       1.0  0.28999  0.44411  0.70297  1.0000
  C   C45       1.0  0.45126  0.52121  0.56560  1.0000
  H   H50       1.0  0.50777  0.49656  0.54587  1.0000
  C   C46       1.0  0.48090  0.48224  0.69720  1.0000
  H   H51       1.0  0.50214  0.50015  0.63636  1.0000
  C   C47       1.0  0.47204  0.51808  0.38954  1.0000
  C   C48       1.0  0.44777  0.52300  0.61570  1.0000
  C   C49       1.0  0.51270  0.49512  0.59138  1.0000
  C   C50       1.0  0.48895  0.50543  0.61623  1.0000
  H   H52       1.0  0.20744  0.51571  0.70531  1.0000
  C   C51       1.0  0.29298  0.48176  0.70371  1.0000
  H   H53       1.0  0.48357  0.36410  0.38893  1.0000
  C   C52       1.0  0.46339  0.52533  0.69324  1.0000
  H   H54       1.0  0.32620  0.49068  0.69704  1.0000
  H   H55       1.0  0.43031  0.53052  0.63504  1.0000
  S   S14       1.0  0.40795  0.53250  0.69706  1.0000
  H   H56       1.0  0.43631  0.52742  0.54600  1.0000
  C   C53       1.0  0.42898  0.53094  0.59044  1.0000
  Fe  Fe7       1.0  0.14788  0.09763  0.91694  1.0000
  S   S15       1.0  0.12550  0.15436  0.94509  1.0000
  C   C54       1.0  0.01757  0.11391  0.84458  1.0000
  Fe  Fe8       1.0  0.21637  0.15487  0.88824  1.0000
  S   S16       1.0  0.19964  0.21738  0.91374  1.0000
  S   S17       1.0  0.26309  0.15161  0.85131  1.0000
  Fe  Fe9       1.0  0.19481  0.16947  0.94984  1.0000
  S   S18       1.0  0.22099  0.19435  0.99048  1.0000
  Fe  Fe10      1.0  0.13158  0.19835  0.90725  1.0000
  S   S19       1.0  0.07740  0.24809  0.90249  1.0000
  S   S20       1.0  0.21730  0.10860  0.92490  1.0000
  S   S21       1.0  0.14813  0.13989  0.87859  1.0000
  Fe  Fe11      1.0  0.03551  0.53226  0.75997  1.0000
  H   H57       1.0  0.07589  0.18561  0.85326  1.0000
  S   S22       1.0  0.09261  0.40690  0.81409  1.0000
  H   H58       1.0  0.34777  0.49579  0.74336  1.0000
  H   H59       1.0  0.43686  0.16656  0.76990  1.0000
  H   H60       1.0  0.17165  0.33439  0.01166  1.0000
  C   C55       1.0  0.19785  0.17345  0.02167  1.0000
  H   H61       1.0  0.09889  0.35839  0.00568  1.0000
  C   C56       1.0  0.16835  0.13782  0.02142  1.0000
  C   C57       1.0  0.18779  0.44641  0.77238  1.0000
  H   H62       1.0  0.16036  0.12179  0.00193  1.0000
  C   C58       1.0  0.08192  0.29227  0.87797  1.0000
  C   C59       1.0  0.11854  0.29742  0.86106  1.0000
  C   C60       1.0  0.12112  0.33266  0.84157  1.0000
  C   C61       1.0  0.08714  0.36293  0.83872  1.0000
  C   C62       1.0  0.05028  0.35749  0.85545  1.0000
  C   C63       1.0  0.04772  0.32223  0.87501  1.0000
  H   H63       1.0  0.14501  0.27445  0.86306  1.0000
  H   H64       1.0  0.14969  0.33658  0.82867  1.0000
  H   H65       1.0  0.31645  0.44681  0.75192  1.0000
  H   H66       1.0  0.09623  0.20901  0.03779  1.0000
  C   C64       1.0  0.31304  0.12507  0.85394  1.0000
  C   C65       1.0  0.33697  0.11501  0.82952  1.0000
  C   C66       1.0  0.37747  0.09520  0.83079  1.0000
  C   C67       1.0  0.39466  0.08592  0.85653  1.0000
  C   C68       1.0  0.37064  0.09570  0.88094  1.0000
  C   C69       1.0  0.32981  0.11488  0.87968  1.0000
  H   H67       1.0  0.32414  0.12282  0.80955  1.0000
  Fe  Fe12      1.0  0.48204  0.03446  0.82112  1.0000
  C   C70       1.0  0.31543  0.48451  0.75079  1.0000
  H   H68       1.0  0.31168  0.12253  0.89864  1.0000
  C   C71       1.0  0.48920  0.26599  0.78366  1.0000
  H   H69       1.0  0.39663  0.18162  0.80951  1.0000
  C   C72       1.0  0.45300  0.19871  0.76693  1.0000
  H   H70       1.0  0.09579  0.32778  0.97372  1.0000
  C   C73       1.0  0.11009  0.24634  0.99093  1.0000
  H   H71       1.0  0.38365  0.08856  0.90097  1.0000
  H   H72       1.0  0.46176  0.27414  0.83957  1.0000
  N   N3        1.0  0.28197  0.49984  0.73196  1.0000
  H   H73       1.0  0.39568  0.08816  0.81186  1.0000
  H   H74       1.0  0.18118  0.42759  0.79133  1.0000
  C   C74       1.0  0.04876  0.19109  0.83944  1.0000
  C   C75       1.0  0.46697  0.22495  0.78987  1.0000
  H   H75       1.0  0.47488  0.15180  0.84387  1.0000
  C   C76       1.0  0.47821  0.16377  0.82202  1.0000
  H   H76       1.0  0.46326  0.13704  0.80906  1.0000
  H   H77       1.0  0.46899  0.22662  0.86162  1.0000
  C   C77       1.0  0.23844  0.48500  0.74049  1.0000
  C   C78       1.0  0.09145  0.32449  0.99672  1.0000
  H   H78       1.0  0.02697  0.16252  0.89104  1.0000
  C   C79       1.0  0.49665  0.27963  0.75617  1.0000
  C   C80       1.0  0.16209  0.48131  0.73116  1.0000
  S   S23       1.0  0.01480  0.45896  0.76174  1.0000
  H   H79       1.0  0.39620  0.23878  0.82229  1.0000
  H   H80       1.0  0.18511  0.27550  0.01254  1.0000
  H   H81       1.0  0.25368  0.45072  0.77931  1.0000
  C   C81       1.0  0.05838  0.09451  0.83913  1.0000
  C   C82       1.0  0.06395  0.04741  0.83787  1.0000
  H   H82       1.0  0.08672  0.11489  0.83634  1.0000
  H   H83       1.0  0.17300  0.30114  0.98021  1.0000
  C   C83       1.0  0.15431  0.45690  0.75538  1.0000
  H   H84       1.0  0.05714  0.31731  0.00130  1.0000
  H   H85       1.0  0.05927  0.18362  0.81757  1.0000
  C   C84       1.0  0.16389  0.30051  0.00279  1.0000
  H   H86       1.0  0.04224  0.22822  0.84099  1.0000
  H   H87       1.0  0.23120  0.05630  0.85362  1.0000
  H   H88       1.0  0.05242  0.09120  0.92060  1.0000
  Fe  Fe13      1.0  0.04322  0.45996  0.80413  1.0000
  H   H89       1.0  0.13576  0.48974  0.71816  1.0000
  H   H90       1.0  0.45092  0.19129  0.72239  1.0000
  H   H91       1.0  0.12215  0.44630  0.76110  1.0000
  C   C85       1.0  0.41209  0.20531  0.82421  1.0000
  S   S24       1.0  0.44649  0.06355  0.85893  1.0000
  H   H92       1.0  0.02393  0.38057  0.85339  1.0000
  H   H93       1.0  0.11600  0.25190  0.96822  1.0000
  H   H94       1.0  0.51275  0.16453  0.81627  1.0000
  C   C86       1.0  0.10990  0.28238  0.03785  1.0000
  H   H95       1.0  0.31058  0.49907  0.77210  1.0000
  H   H96       1.0  0.07651  0.23479  0.99364  1.0000
  C   C87       1.0  0.22938  0.46004  0.76516  1.0000
  N   N4        1.0  0.45866  0.20905  0.81864  1.0000
  C   C88       1.0  0.46055  0.21276  0.73957  1.0000
  N   N5        1.0  0.11853  0.28799  0.00761  1.0000
  H   H97       1.0  0.40447  0.19223  0.84548  1.0000
  H   H98       1.0  0.50194  0.28781  0.79952  1.0000
  C   C89       1.0  0.20336  0.49569  0.72391  1.0000
  C   C90       1.0  0.48225  0.25318  0.73421  1.0000
  C   C91       1.0  0.03909  0.05771  0.91741  1.0000
  H   H99       1.0  0.13149  0.21816  0.99645  1.0000
  H   H100      1.0  0.48928  0.26324  0.71295  1.0000
  S   S25       1.0  0.06696  0.53202  0.80100  1.0000
  H   H101      1.0  0.01921  0.31835  0.88796  1.0000
  H   H102      1.0  0.51130  0.24267  0.83797  1.0000
  C   C92       1.0  0.47604  0.23966  0.84028  1.0000
  H   H103      1.0  0.04991  0.93596  0.17530  1.0000
  C   C93       1.0  0.04447  0.93508  0.15327  1.0000
  S   S26       1.0  0.04695  0.55276  0.26860  1.0000
  S   S27       1.0  0.47734  0.97901  0.27155  1.0000
  C   C94       1.0  0.40241  0.85981  0.37493  1.0000
  H   H104      1.0  0.10317  0.72392  0.28994  1.0000
  C   C95       1.0  0.08493  0.71937  0.27061  1.0000
  S   S28       1.0  0.35518  0.79608  0.34656  1.0000
  C   C96       1.0  0.43688  0.89716  0.32588  1.0000
  C   C97       1.0  0.44615  0.91731  0.35141  1.0000
  H   H105      1.0  0.16706  0.72046  0.22306  1.0000
  H   H106      1.0  0.05779  0.69626  0.27592  1.0000
  H   H107      1.0  0.22823  0.67954  0.36283  1.0000
  H   H108      1.0  0.45065  0.91055  0.30691  1.0000
  H   H109      1.0  0.17022  0.73288  0.25964  1.0000
  H   H110      1.0  0.44395  0.76288  0.33985  1.0000
  H   H111      1.0  0.07126  0.75286  0.26542  1.0000
  H   H112      1.0  0.07639  0.00277  0.18810  1.0000
  C   C98       1.0  0.13940  0.62682  0.33876  1.0000
  C   C99       1.0  0.46957  0.73759  0.34284  1.0000
  C   C100      1.0  0.20685  0.65219  0.35754  1.0000
  H   H113      1.0  0.07874  0.76808  0.21567  1.0000
  H   H114      1.0  0.38284  0.02061  0.29796  1.0000
  H   H115      1.0  0.35228  0.96382  0.26581  1.0000
  H   H116      1.0  0.12965  0.55444  0.33767  1.0000
  C   C101      1.0  0.39201  0.84090  0.34922  1.0000
  H   H117      1.0  0.29478  0.92038  0.32783  1.0000
  Fe  Fe14      1.0  0.04269  0.58806  0.31037  1.0000
  N   N6        1.0  0.50863  0.75986  0.35298  1.0000
  H   H118      1.0  0.31907  0.91947  0.27975  1.0000
  C   C102      1.0  0.07153  0.73418  0.20842  1.0000
  C   C103      1.0  0.03225  0.68776  0.17625  1.0000
  C   C104      1.0  0.10366  0.00086  0.17292  1.0000
  H   H119      1.0  0.07909  0.62081  0.22249  1.0000
  C   C105      1.0  0.04514  0.64888  0.18979  1.0000
  S   S29       1.0  0.47777  0.96690  0.35315  1.0000
  C   C106      1.0  0.15102  0.58176  0.34317  1.0000
  H   H120      1.0  0.12524  0.02899  0.17913  1.0000
  H   H121      1.0  0.15054  0.66161  0.27512  1.0000
  C   C107      1.0  0.40968  0.85938  0.32478  1.0000
  C   C108      1.0  0.34433  0.94431  0.28500  1.0000
  S   S30       1.0  0.09048  0.64099  0.32407  1.0000
  N   N7        1.0  0.33096  0.97507  0.30824  1.0000
  S   S31       1.0  0.37059  0.67236  0.36571  1.0000
  H   H122      1.0  0.39453  0.98124  0.32395  1.0000
  C   C109      1.0  0.14825  0.73153  0.24192  1.0000
  H   H123      1.0  0.03365  0.76060  0.17575  1.0000
  C   C110      1.0  0.25480  0.98242  0.29430  1.0000
  C   C111      1.0  0.08576  0.69523  0.22254  1.0000
  C   C112      1.0  0.01774  0.90043  0.14394  1.0000
  Fe  Fe15      1.0  0.49258  0.00617  0.31364  1.0000
  H   H124      1.0  0.10445  0.63297  0.26446  1.0000
  H   H125      1.0  0.14912  0.63965  0.24012  1.0000
  H   H126      1.0  0.40222  0.84447  0.30485  1.0000
  H   H127      1.0  0.24987  0.94644  0.29711  1.0000
  H   H128      1.0  0.15867  0.69688  0.34266  1.0000
  C   C113      1.0  0.02388  0.92935  0.09732  1.0000
  C   C114      1.0  0.12898  0.00877  0.12584  1.0000
  N   N8        1.0  0.11183  0.70028  0.24750  1.0000
  C   C115      1.0  0.12980  0.65668  0.25695  1.0000
  C   C116      1.0  0.07149  0.65229  0.21259  1.0000
  C   C117      1.0  0.05059  0.96421  0.10642  1.0000
  C   C118      1.0  0.16744  0.66193  0.34599  1.0000
  H   H129      1.0  0.45699  0.71186  0.35782  1.0000
  H   H130      1.0  0.13805  0.76713  0.23890  1.0000
  C   C119      1.0  0.29482  0.00295  0.29932  1.0000
  C   C120      1.0  0.04554  0.73032  0.18548  1.0000
  N   N9        1.0  0.08982  0.00559  0.14387  1.0000
  H   H131      1.0  0.12243  0.01916  0.10428  1.0000
  C   C121      1.0  0.42941  0.89802  0.37599  1.0000
  H   H132      1.0  0.30454  0.96897  0.34987  1.0000
  H   H133      1.0  0.36020  0.02776  0.33278  1.0000
  C   C122      1.0  0.06236  0.96770  0.13461  1.0000
  C   C123      1.0  0.31827  0.94730  0.33276  1.0000
  H   H134      1.0  0.14628  0.97590  0.12482  1.0000
  H   H135      1.0  0.12093  0.96846  0.17579  1.0000
  C   C124      1.0  0.19046  0.57202  0.35480  1.0000
  H   H136      1.0  0.06133  0.98899  0.09134  1.0000
  H   H137      1.0  0.37311  0.92459  0.28991  1.0000
  H   H138      1.0  0.19052  0.99133  0.28089  1.0000
  C   C125      1.0  0.21854  0.60717  0.36198  1.0000
  H   H139      1.0  0.03307  0.61596  0.18332  1.0000
  H   H140      1.0  0.01505  0.92751  0.07576  1.0000
  H   H141      1.0  0.19927  0.53709  0.35819  1.0000
  H   H142      1.0  0.34589  0.92891  0.34117  1.0000
  C   C126      1.0  0.22073  0.00771  0.28477  1.0000
  H   H143      1.0  0.47499  0.71929  0.32277  1.0000
  H   H144      1.0  0.02072  0.00492  0.23000  1.0000
  C   C127      1.0  0.36851  0.00257  0.31610  1.0000
  S   S32       1.0  0.26742  0.59362  0.37700  1.0000
  C   C128      1.0  0.23321  0.57403  0.49952  1.0000
  S   S33       1.0  0.31850  0.70165  0.65384  1.0000
  C   C129      1.0  0.43899  0.72384  0.55165  1.0000
  Fe  Fe16      1.0  0.38060  0.59793  0.68166  1.0000
  S   S34       1.0  0.40540  0.63903  0.64590  1.0000
  H   H145      1.0  0.50181  0.71039  0.58983  1.0000
  Fe  Fe17      1.0  0.38425  0.70020  0.67117  1.0000
  Fe  Fe18      1.0  0.33859  0.63759  0.63106  1.0000
  S   S35       1.0  0.33206  0.61285  0.58670  1.0000
  S   S36       1.0  0.31505  0.59153  0.66513  1.0000
  Fe  Fe19      1.0  0.33042  0.71174  0.43914  1.0000
  S   S37       1.0  0.38908  0.74178  0.41857  1.0000
  S   S38       1.0  0.30420  0.73537  0.48125  1.0000
  N   N10       1.0  0.43920  0.73572  0.58168  1.0000
  C   C130      1.0  0.17987  0.61900  0.69582  1.0000
  Fe  Fe20      1.0  0.40437  0.66984  0.40598  1.0000
  H   H146      1.0  0.48418  0.79018  0.57533  1.0000
  H   H147      1.0  0.25779  0.54083  0.53540  1.0000
  H   H148      1.0  0.39515  0.77770  0.54071  1.0000
  S   S39       1.0  0.34859  0.63961  0.42946  1.0000
  S   S40       1.0  0.29093  0.72002  0.40137  1.0000
  C   C131      1.0  0.43691  0.70252  0.49392  1.0000
  C   C132      1.0  0.49018  0.56164  0.68603  1.0000
  H   H149      1.0  0.48138  0.83918  0.68029  1.0000
  H   H150      1.0  0.14827  0.62986  0.43463  1.0000
  C   C133      1.0  0.32628  0.64888  0.55807  1.0000
  C   C134      1.0  0.30831  0.69212  0.56101  1.0000
  C   C135      1.0  0.30183  0.71853  0.53732  1.0000
  C   C136      1.0  0.31338  0.70190  0.51067  1.0000
  C   C137      1.0  0.33177  0.65892  0.50790  1.0000
  C   C138      1.0  0.33799  0.63246  0.53148  1.0000
  H   H151      1.0  0.29846  0.70471  0.58141  1.0000
  H   H152      1.0  0.28747  0.75173  0.53960  1.0000
  H   H153      1.0  0.34099  0.64577  0.48764  1.0000
  H   H154      1.0  0.35162  0.59894  0.52904  1.0000
  H   H155      1.0  0.45479  0.79284  0.60810  1.0000
  H   H156      1.0  0.20362  0.58123  0.42021  1.0000
  C   C139      1.0  0.48833  0.59512  0.40438  1.0000
  S   S41       1.0  0.47354  0.65215  0.41035  1.0000
  H   H157      1.0  0.45863  0.67080  0.59722  1.0000
  C   C140      1.0  0.20460  0.64932  0.50817  1.0000
  H   H158      1.0  0.14765  0.66034  0.46677  1.0000
  H   H159      1.0  0.38870  0.84584  0.39391  1.0000
  N   N11       1.0  0.20327  0.61820  0.45930  1.0000
  C   C141      1.0  0.22789  0.65661  0.44723  1.0000
  C   C142      1.0  0.21327  0.57713  0.44211  1.0000
  C   C143      1.0  0.15721  0.62757  0.45681  1.0000
  C   C144      1.0  0.21356  0.61342  0.48894  1.0000
  C   C145      1.0  0.43031  0.79891  0.69826  1.0000
  C   C146      1.0  0.23192  0.60615  0.54610  1.0000
  C   C147      1.0  0.46194  0.68632  0.53986  1.0000
  H   H160      1.0  0.39446  0.73914  0.61658  1.0000
  H   H161      1.0  0.19471  0.62960  0.67635  1.0000
  H   H162      1.0  0.47245  0.80320  0.38128  1.0000
  H   H163      1.0  0.22335  0.65941  0.42443  1.0000
  H   H164      1.0  0.13754  0.60026  0.46666  1.0000
  H   H165      1.0  0.19610  0.54663  0.45009  1.0000
  H   H166      1.0  0.24813  0.57030  0.44086  1.0000
  Fe  Fe21      1.0  0.30079  0.65518  0.68951  1.0000
  C   C148      1.0  0.46832  0.70719  0.59774  1.0000
  C   C149      1.0  0.13953  0.59797  0.69615  1.0000
  H   H167      1.0  0.37207  0.75186  0.58405  1.0000
  H   H168      1.0  0.48073  0.66408  0.55215  1.0000
  H   H169      1.0  0.42954  0.80805  0.57708  1.0000
  H   H170      1.0  0.43662  0.91325  0.39587  1.0000
  H   H171      1.0  0.47819  0.64720  0.50275  1.0000
  S   S42       1.0  0.36530  0.65875  0.70845  1.0000
  H   H172      1.0  0.47696  0.59504  0.68312  1.0000
  C   C150      1.0  0.39578  0.73007  0.59405  1.0000
  H   H173      1.0  0.38486  0.69428  0.59204  1.0000
  H   H174      1.0  0.21895  0.68991  0.45681  1.0000
  C   C151      1.0  0.46077  0.67606  0.51140  1.0000
  S   S43       1.0  0.42867  0.76117  0.66938  1.0000
  C   C152      1.0  0.45921  0.56319  0.39459  1.0000
  C   C153      1.0  0.41397  0.73930  0.50482  1.0000
  H   H175      1.0  0.24264  0.54562  0.48640  1.0000
  C   C154      1.0  0.41463  0.74969  0.53324  1.0000
  C   C155      1.0  0.21350  0.64551  0.53631  1.0000
  H   H176      1.0  0.43575  0.69409  0.47193  1.0000
  H   H177      1.0  0.20723  0.67372  0.55051  1.0000
  H   H178      1.0  0.46797  0.71731  0.62017  1.0000
  H   H179      1.0  0.12362  0.59212  0.67682  1.0000
  H   H180      1.0  0.26246  0.65231  0.45049  1.0000
  H   H181      1.0  0.19144  0.68106  0.50146  1.0000
  H   H182      1.0  0.12250  0.70728  0.70048  1.0000
  H   H183      1.0  0.39455  0.75914  0.49125  1.0000
  Fe  Fe22      1.0  0.31253  0.64949  0.39029  1.0000
  C   C156      1.0  0.45254  0.78374  0.58559  1.0000
  C   C157      1.0  0.45977  0.83498  0.69802  1.0000
  C   C158      1.0  0.24208  0.57068  0.52773  1.0000
  H   H184      1.0  0.23977  0.60376  0.56782  1.0000
  H   H185      1.0  0.39700  0.54454  0.59014  1.0000
  H   H186      1.0  0.42692  0.57331  0.39073  1.0000
  C   C159      1.0  0.49847  0.77771  0.38143  1.0000
  H   H187      1.0  0.48727  0.75024  0.39570  1.0000
  Fe  Fe23      1.0  0.35167  0.74264  0.37981  1.0000
  C   C160      1.0  0.28368  0.55010  0.73132  1.0000
  H   H188      1.0  0.14824  0.73811  0.79993  1.0000
  C   C161      1.0  0.32995  0.90594  0.81715  1.0000
  C   C162      1.0  0.46152  0.86568  0.72067  1.0000
  H   H189      1.0  0.36869  0.96562  0.78458  1.0000
  H   H190      1.0  0.31297  0.91850  0.87541  1.0000
  S   S44       1.0  0.43367  0.89846  0.77252  1.0000
  C   C163      1.0  0.40254  0.79380  0.72131  1.0000
  H   H191      1.0  0.35369  0.89273  0.80138  1.0000
  H   H192      1.0  0.48432  0.89328  0.72030  1.0000
  C   C164      1.0  0.40416  0.82456  0.74385  1.0000
  C   C165      1.0  0.43362  0.86057  0.74367  1.0000
  H   H193      1.0  0.21451  0.01351  0.89645  1.0000
  C   C166      1.0  0.04849  0.97684  0.91041  1.0000
  C   C167      1.0  0.19962  0.62870  0.72083  1.0000
  H   H194      1.0  0.38251  0.82030  0.76156  1.0000
  H   H195      1.0  0.40713  0.94461  0.82464  1.0000
  Fe  Fe24      1.0  0.47953  0.95724  0.77884  1.0000
  C   C168      1.0  0.14034  0.59261  0.74617  1.0000
  C   C169      1.0  0.23959  0.00181  0.88211  1.0000
  N   N12       1.0  0.07633  0.68601  0.79337  1.0000
  H   H196      1.0  0.31649  0.56295  0.72654  1.0000
  H   H197      1.0  0.12581  0.58177  0.76556  1.0000
  H   H198      1.0  0.31349  0.97966  0.78727  1.0000
  H   H199      1.0  0.06926  0.94774  0.90807  1.0000
  C   C170      1.0  0.26296  0.96328  0.88810  1.0000
  H   H200      1.0  0.19865  0.76503  0.76403  1.0000
  C   C171      1.0  0.34349  0.98003  0.79890  1.0000
  H   H201      1.0  0.27276  0.56540  0.75158  1.0000
  C   C172      1.0  0.14152  0.73056  0.77851  1.0000
  H   H202      1.0  0.02451  0.63863  0.79952  1.0000
  H   H203      1.0  0.29795  0.90261  0.80812  1.0000
  C   C173      1.0  0.04380  0.65439  0.78245  1.0000
  H   H204      1.0  0.26316  0.56410  0.71520  1.0000
  H   H205      1.0  0.07211  0.67821  0.73485  1.0000
  H   H206      1.0  0.12164  0.68295  0.82641  1.0000
  C   C174      1.0  0.11931  0.58529  0.72136  1.0000
  S   S45       1.0  0.06732  0.56197  0.72118  1.0000
  H   H207      1.0  0.38121  0.93373  0.85740  1.0000
  H   H208      1.0  0.25603  0.94532  0.90727  1.0000
  H   H209      1.0  0.33134  0.88256  0.83503  1.0000
  C   C175      1.0  0.09856  0.69769  0.74249  1.0000
  S   S46       1.0  0.50616  0.96269  0.82166  1.0000
  C   C176      1.0  0.10076  0.66063  0.81405  1.0000
  C   C177      1.0  0.10535  0.70442  0.77135  1.0000
  C   C178      1.0  0.17024  0.74681  0.75813  1.0000
  C   C179      1.0  0.38044  0.95580  0.83888  1.0000
  S   S47       1.0  0.24696  0.66111  0.72186  1.0000
  H   H210      1.0  0.05877  0.62593  0.77033  1.0000
  H   H211      1.0  0.12107  0.63419  0.80368  1.0000
  H   H212      1.0  0.07615  0.74828  0.81761  1.0000
  H   H213      1.0  0.03377  0.98189  0.84111  1.0000
  H   H214      1.0  0.18644  0.74969  0.71443  1.0000
  C   C180      1.0  0.29534  0.94817  0.86966  1.0000
  S   S48       1.0  0.12157  0.02624  0.91620  1.0000
  N   N13       1.0  0.33901  0.95382  0.82505  1.0000
  H   H215      1.0  0.07939  0.64317  0.82955  1.0000
  C   C181      1.0  0.28097  0.01073  0.83916  1.0000
  H   H216      1.0  0.19510  0.62223  0.76537  1.0000
  H   H217      1.0  0.37972  0.76622  0.72174  1.0000
  C   C182      1.0  0.30503  0.97109  0.84442  1.0000
  C   C183      1.0  0.17990  0.61502  0.74596  1.0000
  H   H218      1.0  0.02100  0.67194  0.76906  1.0000
  H   H219      1.0  0.38774  0.99096  0.84598  1.0000
  C   C184      1.0  0.05379  0.72403  0.80783  1.0000
  H   H220      1.0  0.02504  0.98840  0.99885  1.0000
  C   C185      1.0  0.16327  0.73854  0.73011  1.0000
  H   H221      1.0  0.35305  0.01577  0.80303  1.0000
  C   C186      1.0  0.06602  0.02017  0.91453  1.0000
  C   C187      1.0  0.12728  0.71451  0.72231  1.0000
  H   H222      1.0  0.03443  0.74362  0.79318  1.0000
  C   C188      1.0  0.24879  0.02562  0.85782  1.0000
  H   H223      1.0  0.03185  0.71164  0.82476  1.0000
  S   S49       1.0  0.45222  0.02774  0.77973  1.0000
  H   H224      1.0  0.28661  0.03132  0.82099  1.0000
  C   C189      1.0  0.02921  0.01836  0.84143  1.0000
  H   H225      1.0  0.09559  0.03334  0.83476  1.0000
  S   S50       1.0  0.73642  0.42711  0.34668  1.0000
  C   C190      1.0  0.72915  0.06300  0.24291  1.0000
  H   H226      1.0  0.66781  0.12574  0.28979  1.0000
  H   H227      1.0  0.54326  0.31527  0.32963  1.0000
  S   S51       1.0  0.95111  0.51115  0.28375  1.0000
  H   H228      1.0  0.55789  0.13247  0.35145  1.0000
  C   C191      1.0  0.80264  0.08796  0.23659  1.0000
  C   C192      1.0  0.80548  0.47418  0.32632  1.0000
  C   C193      1.0  0.84253  0.50067  0.32832  1.0000
  C   C194      1.0  0.85901  0.37867  0.25971  1.0000
  S   S52       1.0  0.55563  0.16544  0.29433  1.0000
  H   H229      1.0  0.79667  0.46070  0.30630  1.0000
  S   S53       1.0  0.62823  0.37796  0.36857  1.0000
  H   H230      1.0  0.92152  0.46079  0.33692  1.0000
  H   H231      1.0  0.54008  0.35915  0.35538  1.0000
  C   C195      1.0  0.78013  0.46432  0.35005  1.0000
  C   C196      1.0  0.57705  0.18789  0.32504  1.0000
  H   H232      1.0  0.92254  0.38663  0.24242  1.0000
  H   H233      1.0  0.79278  0.11185  0.22024  1.0000
  C   C197      1.0  0.96084  0.08681  0.18262  1.0000
  C   C198      1.0  0.94212  0.43139  0.34119  1.0000
  H   H234      1.0  0.62655  0.28460  0.34716  1.0000
  C   C199      1.0  0.67598  0.10491  0.27165  1.0000
  H   H235      1.0  0.83617  0.07781  0.23142  1.0000
  C   C200      1.0  0.92166  0.38708  0.28719  1.0000
  C   C201      1.0  0.89702  0.38470  0.31238  1.0000
  H   H236      1.0  0.84447  0.37682  0.23961  1.0000
  H   H237      1.0  0.62886  0.05498  0.21673  1.0000
  C   C202      1.0  0.64416  0.09248  0.25358  1.0000
  H   H238      1.0  0.80336  0.10712  0.25657  1.0000
  C   C203      1.0  0.59678  0.23070  0.32402  1.0000
  H   H239      1.0  0.93139  0.31668  0.33967  1.0000
  H   H240      1.0  0.01048  0.13500  0.19143  1.0000
  C   C204      1.0  0.58815  0.18630  0.37478  1.0000
  H   H241      1.0  0.86205  0.50728  0.30991  1.0000
  C   C205      1.0  0.85238  0.37837  0.31000  1.0000
  H   H242      1.0  0.60021  0.24807  0.30437  1.0000
  C   C206      1.0  0.85409  0.51834  0.35409  1.0000
  H   H243      1.0  0.83070  0.37641  0.32785  1.0000
  C   C207      1.0  0.57307  0.16549  0.35047  1.0000
  H   H244      1.0  0.94400  0.10988  0.16956  1.0000
  H   H245      1.0  0.79963  0.37168  0.28278  1.0000
  H   H246      1.0  0.74129  0.10041  0.28133  1.0000
  H   H247      1.0  0.61167  0.10358  0.25769  1.0000
  C   C208      1.0  0.71787  0.09037  0.26652  1.0000
  H   H248      1.0  0.52263  0.25438  0.36240  1.0000
  Fe  Fe25      1.0  0.52621  0.09525  0.29050  1.0000
  H   H249      1.0  0.95560  0.43716  0.36204  1.0000
  C   C209      1.0  0.61155  0.25158  0.34829  1.0000
  N   N14       1.0  0.91787  0.38818  0.33950  1.0000
  C   C210      1.0  0.90287  0.38427  0.26131  1.0000
  H   H250      1.0  0.95579  0.39131  0.28728  1.0000
  C   C211      1.0  0.65401  0.06535  0.23041  1.0000
  C   C212      1.0  0.83387  0.37559  0.28399  1.0000
  C   C213      1.0  0.94794  0.34991  0.34211  1.0000
  H   H251      1.0  0.86935  0.35464  0.36471  1.0000
  C   C214      1.0  0.99863  0.10102  0.19487  1.0000
  C   C215      1.0  0.79124  0.48262  0.37577  1.0000
  C   C216      1.0  0.69572  0.05051  0.22508  1.0000
  H   H252      1.0  0.86433  0.41576  0.36313  1.0000
  H   H253      1.0  0.97710  0.05047  0.08285  1.0000
  C   C217      1.0  0.60689  0.22969  0.37382  1.0000
  H   H254      1.0  0.96944  0.43257  0.32605  1.0000
  C   C218      1.0  0.88742  0.38718  0.36377  1.0000
  H   H255      1.0  0.97432  0.35113  0.32608  1.0000
  H   H256      1.0  0.96327  0.35045  0.36264  1.0000
  C   C219      1.0  0.52078  0.33882  0.34070  1.0000
  C   C220      1.0  0.94508  0.04278  0.18690  1.0000
  H   H257      1.0  0.77184  0.04167  0.19328  1.0000
  N   N15       1.0  0.77375  0.04799  0.23800  1.0000
  H   H258      1.0  0.78627  0.03711  0.28140  1.0000
  Fe  Fe26      1.0  0.71604  0.38319  0.67642  1.0000
  Fe  Fe27      1.0  0.64470  0.35403  0.63808  1.0000
  S   S54       1.0  0.59333  0.36796  0.67074  1.0000
  S   S55       1.0  0.62339  0.32988  0.59582  1.0000
  Fe  Fe28      1.0  0.63037  0.43150  0.67947  1.0000
  H   H259      1.0  0.60951  0.45382  0.56678  1.0000
  H   H260      1.0  0.70986  0.20084  0.46708  1.0000
  H   H261      1.0  0.83655  0.52371  0.39770  1.0000
  S   S56       1.0  0.67843  0.41996  0.64484  1.0000
  S   S57       1.0  0.68638  0.31522  0.66669  1.0000
  Fe  Fe29      1.0  0.66050  0.41078  0.44294  1.0000
  S   S58       1.0  0.65375  0.46329  0.40950  1.0000
  S   S59       1.0  0.68348  0.43136  0.48553  1.0000
  Fe  Fe30      1.0  0.63648  0.33212  0.40461  1.0000
  H   H262      1.0  0.90385  0.39085  0.38383  1.0000
  S   S60       1.0  0.52886  0.44779  0.38755  1.0000
  H   H263      1.0  0.77176  0.47543  0.39417  1.0000
  Fe  Fe31      1.0  0.59442  0.42451  0.39908  1.0000
  H   H264      1.0  0.79041  0.49780  0.67689  1.0000
  S   S61       1.0  0.69939  0.36259  0.41587  1.0000
  S   S62       1.0  0.59852  0.37614  0.43460  1.0000
  C   C221      1.0  0.81484  0.41317  0.70589  1.0000
  H   H265      1.0  0.57247  0.52121  0.62742  1.0000
  C   C222      1.0  0.69209  0.25840  0.53266  1.0000
  H   H266      1.0  0.60647  0.28494  0.49523  1.0000
  C   C223      1.0  0.57839  0.22064  0.70730  1.0000
  H   H267      1.0  0.61727  0.50046  0.60771  1.0000
  H   H268      1.0  0.76570  0.33878  0.54864  1.0000
  C   C224      1.0  0.63945  0.35972  0.56563  1.0000
  C   C225      1.0  0.67325  0.39072  0.56576  1.0000
  C   C226      1.0  0.68585  0.41315  0.54116  1.0000
  C   C227      1.0  0.66503  0.40450  0.51626  1.0000
  C   C228      1.0  0.63060  0.37436  0.51631  1.0000
  C   C229      1.0  0.61797  0.35190  0.54090  1.0000
  H   H269      1.0  0.69034  0.39666  0.58458  1.0000
  H   H270      1.0  0.71254  0.43646  0.54124  1.0000
  H   H271      1.0  0.61383  0.36842  0.49737  1.0000
  H   H272      1.0  0.59151  0.32834  0.54080  1.0000
  C   C230      1.0  0.71360  0.30135  0.49191  1.0000
  H   H273      1.0  0.58970  0.42070  0.60977  1.0000
  H   H274      1.0  0.66208  0.17703  0.50868  1.0000
  H   H275      1.0  0.87292  0.42801  0.68264  1.0000
  H   H276      1.0  0.71096  0.31074  0.47040  1.0000
  H   H277      1.0  0.53559  0.40944  0.60128  1.0000
  H   H278      1.0  0.58370  0.24089  0.68888  1.0000
  C   C231      1.0  0.68837  0.26592  0.50368  1.0000
  Fe  Fe32      1.0  0.63750  0.33423  0.70000  1.0000
  H   H279      1.0  0.75940  0.35464  0.49858  1.0000
  C   C232      1.0  0.63803  0.20099  0.50089  1.0000
  C   C233      1.0  0.76741  0.52371  0.67014  1.0000
  H   H280      1.0  0.60168  0.25204  0.46379  1.0000
  H   H281      1.0  0.57911  0.49676  0.55140  1.0000
  H   H282      1.0  0.54615  0.16654  0.68569  1.0000
  S   S63       1.0  0.60697  0.50384  0.68162  1.0000
  H   H283      1.0  0.57518  0.52639  0.40821  1.0000
  H   H284      1.0  0.61711  0.18119  0.48689  1.0000
  H   H285      1.0  0.69320  0.24816  0.44679  1.0000
  S   S64       1.0  0.62240  0.25651  0.40493  1.0000
  H   H286      1.0  0.58452  0.16905  0.39444  1.0000
  H   H287      1.0  0.67309  0.23362  0.54384  1.0000
  C   C234      1.0  0.55732  0.43588  0.60960  1.0000
  H   H288      1.0  0.63762  0.29895  0.46460  1.0000
  H   H289      1.0  0.53813  0.44203  0.69696  1.0000
  H   H290      1.0  0.66098  0.19907  0.44848  1.0000
  C   C235      1.0  0.74161  0.32673  0.50790  1.0000
  C   C236      1.0  0.58392  0.51251  0.60593  1.0000
  H   H291      1.0  0.72143  0.27892  0.57073  1.0000
  S   S65       1.0  0.78687  0.39835  0.67576  1.0000
  C   C237      1.0  0.51388  0.50458  0.39443  1.0000
  N   N16       1.0  0.65874  0.23977  0.48624  1.0000
  C   C238      1.0  0.74498  0.31804  0.53611  1.0000
  H   H292      1.0  0.66471  0.19368  0.68839  1.0000
  H   H293      1.0  0.69679  0.49015  0.69619  1.0000
  H   H294      1.0  0.61714  0.21275  0.51866  1.0000
  C   C239      1.0  0.72009  0.28418  0.54849  1.0000
  C   C240      1.0  0.68184  0.22114  0.46123  1.0000
  H   H295      1.0  0.55853  0.43921  0.55418  1.0000
  C   C241      1.0  0.62467  0.27024  0.47712  1.0000
  C   C242      1.0  0.52495  0.47534  0.69380  1.0000
  N   N17       1.0  0.55674  0.47773  0.59269  1.0000
  H   H296      1.0  0.74640  0.50543  0.65548  1.0000
  H   H297      1.0  0.54799  0.44224  0.63179  1.0000
  C   C243      1.0  0.55178  0.51169  0.68677  1.0000
  C   C244      1.0  0.67919  0.18335  0.70746  1.0000
  C   C245      1.0  0.85738  0.42772  0.70303  1.0000
  C   C246      1.0  0.57648  0.46650  0.56499  1.0000
  Fe  Fe33      1.0  0.68838  0.41253  0.38182  1.0000
  H   H298      1.0  0.52555  0.29627  0.38916  1.0000
  C   C247      1.0  0.55713  0.17856  0.70555  1.0000
  H   H299      1.0  0.64245  0.12326  0.70993  1.0000
  H   H300      1.0  0.71716  0.24401  0.71029  1.0000
  C   C248      1.0  0.72027  0.50787  0.70935  1.0000
  C   C249      1.0  0.82798  0.50984  0.37771  1.0000
  H   H301      1.0  0.72977  0.15048  0.77658  1.0000
  H   H302      1.0  0.80179  0.42779  0.77597  1.0000
  Fe  Fe34      1.0  0.95509  0.48511  0.78345  1.0000
  S   S66       1.0  0.88541  0.46408  0.78240  1.0000
  S   S67       1.0  0.98227  0.48063  0.82617  1.0000
  H   H303      1.0  0.60785  0.08104  0.74441  1.0000
  H   H304      1.0  0.74230  0.48131  0.71636  1.0000
  C   C250      1.0  0.59236  0.23654  0.73295  1.0000
  N   N18       1.0  0.01094  0.16347  0.84799  1.0000
  N   N19       1.0  0.67112  0.08704  0.76021  1.0000
  C   C251      1.0  0.81746  0.42777  0.75562  1.0000
  C   C252      1.0  0.85983  0.44282  0.75273  1.0000
  C   C253      1.0  0.72682  0.19936  0.74456  1.0000
  H   H305      1.0  0.91247  0.45399  0.72386  1.0000
  C   C254      1.0  0.63752  0.06096  0.74590  1.0000
  C   C255      1.0  0.79511  0.41275  0.73235  1.0000
  C   C256      1.0  0.65441  0.09850  0.78862  1.0000
  H   H306      1.0  0.59565  0.22228  0.77662  1.0000
  C   C257      1.0  0.56373  0.16811  0.75497  1.0000
  C   C258      1.0  0.54964  0.15221  0.72938  1.0000
  S   S68       1.0  0.61808  0.28964  0.73647  1.0000
  H   H307      1.0  0.94392  0.16471  0.83857  1.0000
  C   C259      1.0  0.87985  0.44248  0.72635  1.0000
  H   H308      1.0  0.97142  0.21625  0.83178  1.0000
  C   C260      1.0  0.58508  0.21003  0.75673  1.0000
  H   H309      1.0  0.97408  0.08095  0.91837  1.0000
  H   H310      1.0  0.73371  0.07204  0.77514  1.0000
  C   C261      1.0  0.99481  0.05183  0.91619  1.0000
  Fe  Fe35      1.0  0.51591  0.05055  0.76227  1.0000
  H   H311      1.0  0.89599  0.52502  0.88028  1.0000
  C   C262      1.0  0.70839  0.05673  0.76244  1.0000
  C   C263      1.0  0.66666  0.14275  0.72019  1.0000
  H   H312      1.0  0.80453  0.53392  0.83564  1.0000
  H   H313      1.0  0.89881  0.52013  0.83090  1.0000
  C   C264      1.0  0.97505  0.17861  0.83108  1.0000
  C   C265      1.0  0.68413  0.12922  0.74570  1.0000
  H   H314      1.0  0.67912  0.11314  0.80206  1.0000
  S   S69       1.0  0.54397  0.06275  0.80389  1.0000
  H   H315      1.0  0.95133  0.09497  0.85407  1.0000
  H   H316      1.0  0.55760  0.14844  0.77343  1.0000
  C   C266      1.0  0.98874  0.03623  0.84641  1.0000
  C   C267      1.0  0.71501  0.15856  0.75730  1.0000
  H   H317      1.0  0.76255  0.40116  0.73488  1.0000
  H   H318      1.0  0.64824  0.04980  0.72466  1.0000
  H   H319      1.0  0.74963  0.22187  0.75412  1.0000
  S   S70       1.0  0.52213  0.09996  0.72648  1.0000
  C   C268      1.0  0.70877  0.21182  0.71977  1.0000
  H   H320      1.0  0.72261  0.04837  0.74154  1.0000
  H   H321      1.0  0.62800  0.12339  0.78788  1.0000
  H   H322      1.0  0.64200  0.06795  0.79966  1.0000
  H   H323      1.0  0.83320  0.49941  0.85843  1.0000
  H   H324      1.0  0.97125  0.15617  0.88525  1.0000
  H   H325      1.0  0.98009  0.16819  0.80890  1.0000
  C   C269      1.0  0.98296  0.08319  0.84844  1.0000
  H   H326      1.0  0.81057  0.50945  0.72076  1.0000
  C   C270      1.0  0.00073  0.17367  0.87768  1.0000
  H   H327      1.0  0.70254  0.52152  0.72800  1.0000
  S   S71       1.0  0.67036  0.39965  0.71168  1.0000
  H   H328      1.0  0.99636  0.21078  0.88151  1.0000
  H   H329      1.0  0.51505  0.31015  0.75176  1.0000
  Fe  Fe36      1.0  0.83671  0.87639  0.14240  1.0000
  S   S72       1.0  0.81094  0.93654  0.16643  1.0000
  S   S73       1.0  0.80531  0.87010  0.10086  1.0000
  Fe  Fe37      1.0  0.89888  0.85360  0.18709  1.0000
  S   S74       1.0  0.87846  0.91286  0.21403  1.0000
  S   S75       1.0  0.95362  0.81399  0.20434  1.0000
  Fe  Fe38      1.0  0.81205  0.89232  0.20380  1.0000
  S   S76       1.0  0.76568  0.89614  0.24072  1.0000
  Fe  Fe39      1.0  0.87897  0.95234  0.17474  1.0000
  C   C271      1.0  0.92254  0.94715  0.04827  1.0000
  S   S77       1.0  0.83205  0.82974  0.17950  1.0000
  S   S78       1.0  0.90508  0.89542  0.14809  1.0000
  H   H330      1.0  0.90257  0.68447  0.31340  1.0000
  H   H331      1.0  0.87183  0.78060  0.24468  1.0000
  H   H332      1.0  0.82061  0.59758  0.32481  1.0000
  S   S79       1.0  0.89860  0.02560  0.17033  1.0000
  S   S80       1.0  0.94922  0.60238  0.22646  1.0000
  C   C272      1.0  0.80869  0.62739  0.31332  1.0000
  S   S81       1.0  0.97653  0.61435  0.30473  1.0000
  H   H333      1.0  0.81466  0.01199  0.20830  1.0000
  Fe  Fe40      1.0  0.54049  0.00753  0.25764  1.0000
  H   H334      1.0  0.95457  0.97938  0.20763  1.0000
  C   C273      1.0  0.71393  0.91682  0.23595  1.0000
  C   C274      1.0  0.69761  0.92016  0.20940  1.0000
  C   C275      1.0  0.65622  0.93662  0.20618  1.0000
  C   C276      1.0  0.63121  0.95063  0.22938  1.0000
  C   C277      1.0  0.64775  0.94799  0.25593  1.0000
  C   C278      1.0  0.68889  0.93066  0.25920  1.0000
  H   H335      1.0  0.71661  0.90943  0.19137  1.0000
  C   C279      1.0  0.87303  0.66828  0.32194  1.0000
  H   H336      1.0  0.62871  0.95884  0.27389  1.0000
  H   H337      1.0  0.70140  0.92819  0.27980  1.0000
  C   C280      1.0  0.94741  0.75605  0.21256  1.0000
  C   C281      1.0  0.97085  0.73799  0.23416  1.0000
  C   C282      1.0  0.97045  0.69105  0.23919  1.0000
  C   C283      1.0  0.94702  0.66181  0.22241  1.0000
  C   C284      1.0  0.92248  0.68001  0.20142  1.0000
  C   C285      1.0  0.92237  0.72707  0.19663  1.0000
  C   C286      1.0  0.81723  0.87692  0.04450  1.0000
  H   H338      1.0  0.98944  0.67731  0.25535  1.0000
  N   N20       1.0  0.84414  0.65340  0.29980  1.0000
  H   H339      1.0  0.90426  0.74065  0.17992  1.0000
  C   C287      1.0  0.87008  0.83310  0.06773  1.0000
  C   C288      1.0  0.83360  0.86010  0.06915  1.0000
  C   C289      1.0  0.86747  0.62175  0.28062  1.0000
  H   H340      1.0  0.88274  0.81975  0.08659  1.0000
  H   H341      1.0  0.84785  0.61173  0.26268  1.0000
  C   C290      1.0  0.00760  0.89747  0.11602  1.0000
  H   H342      1.0  0.78642  0.61368  0.29775  1.0000
  S   S82       1.0  0.57939  0.97063  0.22417  1.0000
  C   C291      1.0  0.84810  0.75984  0.25549  1.0000
  H   H343      1.0  0.89727  0.63692  0.27187  1.0000
  C   C292      1.0  0.54750  0.81640  0.28589  1.0000
  H   H344      1.0  0.85712  0.69322  0.33634  1.0000
  H   H345      1.0  0.74587  0.80364  0.07244  1.0000
  H   H346      1.0  0.76404  0.98932  0.26358  1.0000
  H   H347      1.0  0.99022  0.76029  0.24654  1.0000
  C   C293      1.0  0.53343  0.78366  0.30500  1.0000
  C   C294      1.0  0.78631  0.01863  0.26116  1.0000
  H   H348      1.0  0.89390  0.71359  0.26978  1.0000
  C   C295      1.0  0.54212  0.72490  0.35536  1.0000
  H   H349      1.0  0.66494  0.91744  0.05987  1.0000
  H   H350      1.0  0.90411  0.65757  0.18845  1.0000
  H   H351      1.0  0.98632  0.87093  0.10902  1.0000
  C   C296      1.0  0.80540  0.77184  0.25488  1.0000
  H   H352      1.0  0.78923  0.89819  0.04550  1.0000
  H   H353      1.0  0.88345  0.63915  0.33463  1.0000
  C   C297      1.0  0.52863  0.84165  0.34104  1.0000
  H   H354      1.0  0.64349  0.93856  0.18561  1.0000
  Fe  Fe41      1.0  0.97887  0.57470  0.26485  1.0000
  C   C298      1.0  0.91289  0.95859  0.07603  1.0000
  C   C299      1.0  0.96666  0.01332  0.20409  1.0000
  C   C300      1.0  0.78663  0.70669  0.28316  1.0000
  C   C301      1.0  0.86036  0.72136  0.26994  1.0000
  C   C302      1.0  0.54294  0.87402  0.32177  1.0000
  H   H355      1.0  0.74157  0.75510  0.26804  1.0000
  H   H356      1.0  0.76122  0.68778  0.29330  1.0000
  H   H357      1.0  0.79066  0.64848  0.32896  1.0000
  H   H358      1.0  0.81878  0.00426  0.25747  1.0000
  H   H359      1.0  0.79603  0.80182  0.24371  1.0000
  C   C303      1.0  0.55218  0.86152  0.29425  1.0000
  H   H360      1.0  0.54883  0.70660  0.33540  1.0000
  H   H361      1.0  0.57246  0.74039  0.36217  1.0000
  C   C304      1.0  0.77475  0.74536  0.26865  1.0000
  C   C305      1.0  0.93272  0.99560  0.08846  1.0000
  C   C306      1.0  0.83005  0.69355  0.28428  1.0000
  S   S83       1.0  0.55864  0.02972  0.30050  1.0000
  H   H362      1.0  0.55472  0.80691  0.26441  1.0000
  H   H363      1.0  0.52126  0.85421  0.36180  1.0000
  C   C307      1.0  0.00407  0.02785  0.21676  1.0000
  H   H364      1.0  0.53036  0.74914  0.29749  1.0000
  H   H365      1.0  0.88949  0.93889  0.08792  1.0000
  H   H366      1.0  0.70559  0.86922  0.09122  1.0000
  C   C308      1.0  0.52335  0.79528  0.33318  1.0000
  C   C309      1.0  0.68190  0.88811  0.05146  1.0000
  H   H367      1.0  0.56277  0.88696  0.27934  1.0000
  H   H368      1.0  0.53259  0.69838  0.37078  1.0000
  H   H369      1.0  0.54612  0.90934  0.32812  1.0000
  C   C310      1.0  0.70448  0.86085  0.06923  1.0000
  C   C311      1.0  0.72706  0.82366  0.05859  1.0000
  H   H370      1.0  0.92493  0.00449  0.11000  1.0000
  H   H371      1.0  0.70064  0.02868  0.20709  1.0000
  C   C312      1.0  0.96218  0.02137  0.07309  1.0000
  H   H372      1.0  0.87702  0.59017  0.29127  1.0000
  H   H373      1.0  0.76222  0.98940  0.21199  1.0000
  H   H374      1.0  0.00401  0.87623  0.15862  1.0000
  H   H375      1.0  0.01046  0.68502  0.15931  1.0000
  C   C313      1.0  0.78063  0.02173  0.21172  1.0000
  S   S84       1.0  0.90095  0.55093  0.35749  1.0000
  Fe  Fe42      1.0  0.95347  0.54952  0.32409  1.0000
  C   C314      1.0  0.97207  0.01018  0.04524  1.0000
  N   N21       1.0  0.74273  0.54445  0.69383  1.0000
  H   H376      1.0  0.55494  0.58315  0.67761  1.0000
  H   H377      1.0  0.78585  0.54981  0.65829  1.0000
  C   C315      1.0  0.53433  0.55487  0.68299  1.0000
  C   C316      1.0  0.53016  0.58166  0.40926  1.0000
  H   H378      1.0  0.68873  0.55451  0.66794  1.0000
  H   H379      1.0  0.55281  0.60621  0.41684  1.0000
  C   C317      1.0  0.70976  0.57398  0.68206  1.0000
  H   H380      1.0  0.72428  0.60197  0.66961  1.0000
  H   H381      1.0  0.52683  0.79334  0.39098  1.0000
  H   H382      1.0  0.68815  0.58848  0.69866  1.0000
  H   H383      1.0  0.58463  0.54454  0.59388  1.0000
  C   C318      1.0  0.54288  0.53646  0.40442  1.0000
  Fe  Fe43      1.0  0.80482  0.88683  0.90738  1.0000
  S   S85       1.0  0.83240  0.81722  0.91350  1.0000
  S   S86       1.0  0.73314  0.89717  0.90819  1.0000
  Fe  Fe44      1.0  0.89233  0.93249  0.90786  1.0000
  S   S87       1.0  0.92683  0.86672  0.91292  1.0000
  C   C319      1.0  0.80327  0.67023  0.82468  1.0000
  Fe  Fe45      1.0  0.88208  0.83830  0.88156  1.0000
  S   S88       1.0  0.89848  0.79305  0.84422  1.0000
  Fe  Fe46      1.0  0.87459  0.85124  0.94444  1.0000
  S   S89       1.0  0.89576  0.82132  0.98479  1.0000
  S   S90       1.0  0.85179  0.90609  0.87349  1.0000
  S   S91       1.0  0.84279  0.91864  0.94136  1.0000
  H   H384      1.0  0.78482  0.67864  0.80683  1.0000
  S   S92       1.0  0.97286  0.55851  0.77759  1.0000
  C   C320      1.0  0.88400  0.56048  0.87904  1.0000
  H   H385      1.0  0.99118  0.93768  0.90503  1.0000
  C   C321      1.0  0.99402  0.98897  0.98839  1.0000
  S   S93       1.0  0.54065  0.97920  0.75742  1.0000
  C   C322      1.0  0.87180  0.83736  0.01702  1.0000
  N   N22       1.0  0.96185  0.95935  0.00255  1.0000
  C   C323      1.0  0.83640  0.86587  0.01853  1.0000
  C   C324      1.0  0.97819  0.91214  0.00100  1.0000
  H   H386      1.0  0.82351  0.87900  0.99974  1.0000
  H   H387      1.0  0.85992  0.54818  0.75093  1.0000
  H   H388      1.0  0.79951  0.54402  0.87255  1.0000
  H   H389      1.0  0.75860  0.87223  0.97150  1.0000
  C   C325      1.0  0.92525  0.74088  0.84734  1.0000
  C   C326      1.0  0.94366  0.72831  0.87215  1.0000
  C   C327      1.0  0.96480  0.68644  0.87379  1.0000
  C   C328      1.0  0.96735  0.65668  0.85079  1.0000
  C   C329      1.0  0.94825  0.66895  0.82612  1.0000
  C   C330      1.0  0.92766  0.71105  0.82436  1.0000
  C   C331      1.0  0.95247  0.97242  0.03196  1.0000
  H   H390      1.0  0.66404  0.90115  0.01036  1.0000
  H   H391      1.0  0.94949  0.64637  0.80829  1.0000
  H   H392      1.0  0.91310  0.72048  0.80521  1.0000
  C   C332      1.0  0.70636  0.91870  0.87929  1.0000
  C   C333      1.0  0.66213  0.92565  0.88141  1.0000
  C   C334      1.0  0.63984  0.94246  0.85874  1.0000
  C   C335      1.0  0.66172  0.95231  0.83374  1.0000
  C   C336      1.0  0.70591  0.94538  0.83168  1.0000
  C   C337      1.0  0.72815  0.92869  0.85431  1.0000
  H   H393      1.0  0.64498  0.91805  0.90064  1.0000
  H   H394      1.0  0.91284  0.58263  0.87882  1.0000
  N   N23       1.0  0.85865  0.56723  0.85388  1.0000
  H   H395      1.0  0.76211  0.92340  0.85236  1.0000
  N   N24       1.0  0.70517  0.82888  0.98136  1.0000
  C   C338      1.0  0.67567  0.85678  0.96515  1.0000
  H   H396      1.0  0.91405  0.57857  0.82763  1.0000
  H   H397      1.0  0.95471  0.88700  0.00929  1.0000
  H   H398      1.0  0.92860  0.95400  0.96405  1.0000
  C   C339      1.0  0.70432  0.84032  0.01142  1.0000
  H   H399      1.0  0.80998  0.60090  0.81249  1.0000
  S   S94       1.0  0.92181  0.00275  0.90927  1.0000
  H   H400      1.0  0.87092  0.64442  0.88835  1.0000
  H   H401      1.0  0.98272  0.02465  0.98711  1.0000
  C   C340      1.0  0.69303  0.78056  0.97711  1.0000
  H   H402      1.0  0.85185  0.63037  0.76155  1.0000
  H   H403      1.0  0.64229  0.85395  0.97334  1.0000
  C   C341      1.0  0.81792  0.62591  0.82811  1.0000
  H   H404      1.0  0.00768  0.90863  0.01292  1.0000
  H   H405      1.0  0.66158  0.77312  0.98740  1.0000
  H   H406      1.0  0.68537  0.89323  0.96489  1.0000
  H   H407      1.0  0.60583  0.94763  0.86058  1.0000
  C   C342      1.0  0.72752  0.81375  0.03012  1.0000
  H   H408      1.0  0.91645  0.79953  0.04064  1.0000
  H   H409      1.0  0.69086  0.77179  0.95460  1.0000
  H   H410      1.0  0.94189  0.75102  0.88999  1.0000
  H   H411      1.0  0.69938  0.02407  0.77263  1.0000
  H   H412      1.0  0.72309  0.95275  0.81242  1.0000
  C   C343      1.0  0.84279  0.61420  0.85108  1.0000
  S   S95       1.0  0.99568  0.60524  0.85363  1.0000
  C   C344      1.0  0.85155  0.64948  0.87055  1.0000
  C   C345      1.0  0.00426  0.97104  0.90882  1.0000
  C   C346      1.0  0.83634  0.69352  0.86703  1.0000
  C   C347      1.0  0.81268  0.70401  0.84404  1.0000
  H   H413      1.0  0.97945  0.67724  0.89296  1.0000
  H   H414      1.0  0.74718  0.78578  0.02283  1.0000
  H   H415      1.0  0.71667  0.75674  0.98539  1.0000
  H   H416      1.0  0.84439  0.72031  0.88165  1.0000
  H   H417      1.0  0.80234  0.73870  0.84108  1.0000
  C   C348      1.0  0.97731  0.00854  0.91174  1.0000
  H   H418      1.0  0.00082  0.97761  0.96656  1.0000
  C   C349      1.0  0.76773  0.61572  0.71937  1.0000
  H   H419      1.0  0.67565  0.84607  0.94285  1.0000
  C   C350      1.0  0.74880  0.83596  0.96959  1.0000
  C   C351      1.0  0.88629  0.55525  0.82941  1.0000
  Fe  Fe47      1.0  0.56550  0.98998  0.80048  1.0000
  H   H420      1.0  0.79286  0.67341  0.74163  1.0000
  H   H421      1.0  0.98548  0.90119  0.97910  1.0000
  H   H422      1.0  0.90771  0.99583  0.98812  1.0000
  H   H423      1.0  0.75089  0.82692  0.94706  1.0000
  H   H424      1.0  0.77294  0.81522  0.98003  1.0000
  C   C352      1.0  0.83407  0.56718  0.74223  1.0000
  H   H425      1.0  0.86934  0.55623  0.80954  1.0000
  S   S96       1.0  0.63574  0.97340  0.80444  1.0000
  C   C353      1.0  0.82950  0.61331  0.74822  1.0000
  H   H426      1.0  0.89804  0.93637  0.99383  1.0000
  C   C354      1.0  0.92235  0.96149  0.98658  1.0000
  Fe  Fe48      1.0  0.00298  0.55276  0.81891  1.0000
  C   C355      1.0  0.68171  0.87823  0.02294  1.0000
  H   H427      1.0  0.86485  0.56741  0.89846  1.0000
  C   C356      1.0  0.80569  0.54521  0.72476  1.0000
  C   C357      1.0  0.79631  0.63747  0.73692  1.0000
  C   C358      1.0  0.77186  0.56876  0.71255  1.0000
  C   C359      1.0  0.88891  0.82147  0.04169  1.0000
  H   H428      1.0  0.90599  0.91847  0.03957  1.0000
  H   H429      1.0  0.74279  0.63645  0.71136  1.0000
  H   H430      1.0  0.96194  0.01346  0.85009  1.0000
  H   H431      1.0  0.62844  0.02950  0.75728  1.0000
  H   H432      1.0  0.99481  0.03188  0.03453  1.0000
  C   C360      1.0  0.82233  0.53491  0.85523  1.0000
