data_image0
_chemical_formula_structural       H2SFeHSHCH3SHCH2NC2H2SHC3HCH2C3HCHCNSCHCHC2HC2HCHC7FeCSHCHFe2CH3CHSHC2FeH2CH5SH3CH2SHCSHNHFeC2NH3C2H2CSHCHCHCSCSHC2HCS2HCH4C3HSHC2H3CS2HFeHFeSCHC3HS2H2CH2FeS2FeS2FeSFeS3FeS2HSHFeSCSHCSHFeHSFeHC2FeS3C2H2C2H2S2H2CH2C3H2CHCHCHCHC2H2C6H4C6H4C6HCHC6H5CNC8H14SH2CH3CH3CH5CH2CH2CS2CHFeCHNC9H14NC9H3C2SHC2H3C3HCNH4CNHFeH4FeHCH3C2H2CSCHCHC2HCNHC4HCH2C5H4C2SCSHFeSHFeSCFeSFeCSCFeS2FeS2FeCFeS3CSHCHCHSHSC2HSC2H2FeHC2SHC2HSFeH2C2HSFeH2CHC6H3C7H4C6H4C3HCH4CH2C2H2CHC2HSHC4H3FeHCH2CSC3HNC9H14NC8H9CH2NCNCH2CFe2CHFeCHC2H2SCH2CH7CHCHCH2SHSHCHC3HCH2CNH3CSCHCNH2C2H7C3HCHSH3NCH4CHCH2SHNHC3H2CHSCH6FeHC2SFeSCSCFeS2HSHFeSFeSCSH2SCFeS2FeS2FeSFe2S2HFeH4C6H4C6H4CNHCH2CSNCHC2H4FeHC7H5C2H2C2HC2H4SCH2FeH3C2H2FeC4HC5H2C3H10CNH2CFeCH2C2HCH2CHSC2SCSHCH3CNHCHS2H3CH2CSHC2HC2H2SH2C2HCHCFeSHCFeS2CHS2FeS2FeS2FeSFeS5FeS2HC6H4C6H4C6H4CHSHC6H8SCHC2H2SCH2SHSHC4SHC2H4CHFeCHFeHC2NC5H11CHCH3CHC2H2CHCHC4HFeH2CH2FeHC2HC5HFeH2S2C2SH2FeH2CHSH2SH4NSFeNH2SHC3SC2HCSH2C2FeCSH2CH3NC9H3C3H3CH3C3H3FeCH3CSHFeCHCHC2HC3HCSCH4C2SCSNH6CNH2CHFeC2H5C3Fe2SFeS2FeS2HFeS3HCFeCHCH2FeSH3CNHCHCHSH2CFeS2FeS2FeSFeS3H2C2HCH2NH4C4HCHC2H2C6H4C4H5FeH3CHS2C4HCHC6H4C6H4C3H3C7H3NC9H14SFeHCHCH3SH6CHSCHC2SHCH4C2H2CSH2C3SCHCH2CNC2HCH8CHNC9H9C2HC2HCH2CH2CHFeNCHSHFeH2C3NHCHSHCHC4H3CHSH2NHCH3CHCH2CHCNH3C2H3C2HC2HC2H7CHC5H4C2HCH5CHCHFeS2FeS2Fe2S3FeS2FeS2FeSFeS3FeSCFeS2FeSFeS3FeSFeS2FeSFeHS2H3CHC2FeS2CSHC3H6SCFeC6H4SC6H4C6H2CH2C6H4C6H4C6H7C3HCH4C4H5CHNH2FeHSH12NC9HCH2CH2CSH5C6H2CHCNC6H10CH2CH2C2HCFeC2HC6SHCNHNH2N2FeCH3C4FeSC2H2CHCSHCH2CH4CSH2CH2CHCH2NCH2CH3NC2H2SC2H5CH2CHC2H4SNCH5C3SCH3CH2CH5CHFeSC3H2FeHCH2CH3C2H3CHC2HCH3CH2CH3C3HCHCH2C2H3C2SC2H4SCHC2FeHSH5C3SH2FeS2HFeC3SFeHC2SHNHSCHCHCHC2H2NC2HS2HFeCS2CH4SH3C4SH4CHCH2SCHC7HCHS2C2H2CH2C3H2CFeCSHCHCH2CHNCH2CFeHC5HCSHC2HNCHC4HSHC3H3S2NHSNH2CHC2HCSHC2SCHCNHC3HFeH2CFeCSHC4NFeC2HC3H3FeH3C2HFeH2CH4C2HCH2SH3C3HSHFeHSH3CHNC9H14NH3FeH2C3SH3C2H3SH2CFeHSC2SC3H2FeCS2CHCH2SH2C2FeSCH4SH5FeSFeH2FeSH2FeC3HFeC3HFeHSH2C5HCH2CH4C2FeHCH2CH2CSNHCHNHC2H2CH2CH3C2H6CH5C3H2CH2C2H2C3HC2SH6CHFeS2CSFeS2FeS2FeCFeS3H2CHNHCHC6H5C2HCH2CNC3H3C2HCH2SC2H3C3H2CH2CH3CSCHCSCHCSH6NCSCHSHCHCH6C2FeC3HFeC2H3C2H4FeSCNC9H15SHSNC5H2CH2C3H2C2H2CHCFeCH3SH3C6H6CNC2HCH5SNCH4CH3CSHCSHCH2CH3C4H2CHCH5C2H4CHCNC2HCHNC2HCHC2H2CH2CHC3H9CH2FeS2FeS2FeSFeS3FeS2FeS2FeSFeS3H2CNHC2HC3SC2H2SCSCHCH2CHCH2CHSHCSCFeC2FeCH2C6H5C2H2CHCH2C3H2C6H4C4HCHC5HCHCHC2H2CHCHCS2CHCNCH3NCH2C3H2CH2C2S2HNC5H8CHC4HCH5SHCHNHFeC2H10CSNH4CNH2CHCHC2H2FeHCHC3H2SCSC2HSCHCH4CHSHC2H3C2H5CH2NH2C2H3FeHFeCHCSCHFeH2CH3CHCH9SH4CSH2NFeS2FeSCFeSFeS3FeS4FeS2FeSFeS2H2CFeSHFeSHFeSFeS3FeSC4NCH2C8H4C4H2C6H4C6H4C2HC6H4C6H4C3H2SC2HSHC6H10C2HS2CNC9H13NC9H15CHCH2C2HCH3C2HCH2SCHNC4H2CHCH5CH3C2HSCSCHCFeSH6SCHC2HNHCH3SC3SC2H3CSH2NHCH4C2SH2SHSCHCH3FeH2CHSC2H2NCHC3HFeCHFeCSC2FeCFeSFeCHC2HFeCHSHC4NHSCH3SHFeCSCSCHSHCSCH2CH3NCSH2CHCHCHCHCH2SHFeH2FeHC2HCH2CHCH2FeC3S2HCHC2H2C3NC2HSH6Fe2CHC2H2C4H3C2HCHC3H8NHCHCFeCH3CHC2HSCH3CHCH2CH2CHCHC4H6C3FeH3C2H3SH2CHC5H2C3HNHC3H2FeS2FeS2FeHFeHS2HCH2C7NH4CH2CSCH5CHCH2C3HSHSCH3C3H2C4H5CHCH2C2HC3FeS2FeS2FeSFeS3FeS2FeS2FeSFeS3FeCSC4H3SFeS2FeS2HCFeS3C2SCH2C2FeH2CH2CH4CH3C6H4C3H2C3HC2HCH2C6H4C6H4C6H4C6HCH2C6H6CHCH4NCNC2H6CH2CH3C3NC9H15CH2C3H2CHCH2CHC2H4NH2C2H2C2HC2H3NCH6CH2NCFeHCH5C5NCH2SH4CHCH3C3H3C2H5CNHC2H3SHCH3CFeSHC2FeS3FeS2FeS2FeS2FeS2FeSFeS2FeS2FeS2FeSFeS3CHSC3HCH2C6H4C6H5C6H3C6H4C3H2NC9H17SNC2SCNHC3HC3HNCHFeH2C3HNH2CH3NHSCH5C2H3CNCHCHC3SCHSHCH2FeCH2CH3CHCH6C3H2C3H2SCHCHCH2CHC3H2CSCFeC2H4FeHCHFeHCNC3H3SCH6CHC3H3CHCH2C2H3C3HC2H2CNC4HC2HCH2CH5CH2CHCH7CH7C2H2C2H4CSFeS2FeS2FeSFeS3H3FeS2HFeHS2FeSFeS2FeSFeS3CH4FeHSH2C4H2SHCHCHCHC6H4C6H4C7H4C3HC2HNC5HSC2NH4CH2C2H2CH2C3H3C2NHC3FeCH7C2NC9H14CHC2NCNCH2C4H4C3HCHCHCHC2H2C3SCH2C2HCH8FeHC2H3CHC2H3CHCH3C3H4NCHCNH2CHSHCHCHCHC3NCH6CHCH3CH3CHCH6CHC2H4CH2FeS2FeHFeHS2FeSHFeS2FeSFeS3FeS2FeS2FeSFeS3FeCFeS2FeSC6H5C2H2CH4C6H4C4H3C2HC2H3C5H2C6H6C7H3C2H3SCH2SHC4H5SHCH2CHCHCNCH3NC6H8C2SHFeCHFeCH3C3H2CHSH2CNH3CH2NCH2CHC2HSCHCH4CSH2SH2C4H2CHC3SH3CHCH3CNC3SH2NCHC2H2CHCHSH2CH5SH2C2H2SH2C3H3CSCH2C2FeSHFeS2FeSFeS3FeS2NS3HC6H4C2H2CH4CH2C3H3C2HC2H2C5H2CNH2C3H3CHCSCHC3HCH3CHFeH4C3NC5HC3H18SHC3SCH3CHCHCH3C2H2C4HC2HCNCH2SCHC2H2FeCNCFeC2HC2H4C2H3CHC2H3CHCH3CHCH2NHC2H3C2
_chemical_formula_sum              "H2304 S512 Fe256 C1920 N128"
_cell_length_a       69.5557
_cell_length_b       89.1011
_cell_length_c       52.871
_cell_angle_alpha    74.7401
_cell_angle_beta     75.6293
_cell_angle_gamma    75.9774

_space_group_name_H-M_alt    "P 1"
_space_group_IT_number       1

loop_
  _space_group_symop_operation_xyz
  'x, y, z'

loop_
  _atom_site_type_symbol
  _atom_site_label
  _atom_site_symmetry_multiplicity
  _atom_site_fract_x
  _atom_site_fract_y
  _atom_site_fract_z
  _atom_site_occupancy
  H   H1        1.0  0.30282  0.06854  0.18297  1.0000
  H   H2        1.0  0.27047  0.01928  0.29093  1.0000
  S   S1        1.0  0.31874  0.99478  0.20738  1.0000
  Fe  Fe1       1.0  0.29665  0.01270  0.18510  1.0000
  H   H3        1.0  0.29138  0.02145  0.30302  1.0000
  S   S2        1.0  0.29694  0.03893  0.17687  1.0000
  H   H4        1.0  0.27944  0.06169  0.28071  1.0000
  C   C1        1.0  0.28003  0.02783  0.29033  1.0000
  H   H5        1.0  0.31138  0.05203  0.11816  1.0000
  H   H6        1.0  0.31872  0.07819  0.11272  1.0000
  H   H7        1.0  0.30212  0.99600  0.07869  1.0000
  S   S3        1.0  0.26915  0.00380  0.21148  1.0000
  H   H8        1.0  0.31234  0.01236  0.26236  1.0000
  C   C2        1.0  0.27450  0.04305  0.24674  1.0000
  H   H9        1.0  0.28159  0.04893  0.22639  1.0000
  H   H10       1.0  0.26383  0.05242  0.25618  1.0000
  N   N1        1.0  0.29014  0.03404  0.26259  1.0000
  C   C3        1.0  0.30093  0.02017  0.25079  1.0000
  C   C4        1.0  0.30358  0.04460  0.26278  1.0000
  H   H11       1.0  0.26519  0.03522  0.24401  1.0000
  H   H12       1.0  0.29037  0.01262  0.25058  1.0000
  S   S4        1.0  0.29896  0.99837  0.15485  1.0000
  H   H13       1.0  0.26999  0.03737  0.29998  1.0000
  C   C5        1.0  0.29542  0.05859  0.27289  1.0000
  C   C6        1.0  0.31846  0.04476  0.18058  1.0000
  C   C7        1.0  0.31707  0.06030  0.18312  1.0000
  H   H14       1.0  0.30114  0.07967  0.28031  1.0000
  C   C8        1.0  0.30770  0.06895  0.27280  1.0000
  H   H15       1.0  0.30847  0.02396  0.22966  1.0000
  H   H16       1.0  0.27098  0.99281  0.11284  1.0000
  C   C9        1.0  0.32481  0.04155  0.25292  1.0000
  C   C10       1.0  0.32842  0.06565  0.26284  1.0000
  C   C11       1.0  0.32698  0.05354  0.11386  1.0000
  H   H17       1.0  0.32846  0.10070  0.09010  1.0000
  C   C12       1.0  0.33138  0.06851  0.11060  1.0000
  H   H18       1.0  0.21954  0.18031  0.70281  1.0000
  C   C13       1.0  0.19446  0.20857  0.62153  1.0000
  N   N2        1.0  0.18573  0.19617  0.64314  1.0000
  S   S5        1.0  0.24151  0.19732  0.65391  1.0000
  C   C14       1.0  0.24543  0.17739  0.67103  1.0000
  H   H19       1.0  0.20942  0.20964  0.62428  1.0000
  C   C15       1.0  0.21713  0.17693  0.62635  1.0000
  H   H20       1.0  0.16711  0.19197  0.61978  1.0000
  C   C16       1.0  0.30605  0.23392  0.68043  1.0000
  C   C17       1.0  0.31850  0.15320  0.60728  1.0000
  H   H21       1.0  0.23258  0.13769  0.65151  1.0000
  C   C18       1.0  0.23527  0.15604  0.70755  1.0000
  C   C19       1.0  0.23225  0.17211  0.69467  1.0000
  H   H22       1.0  0.27777  0.13767  0.76894  1.0000
  C   C20       1.0  0.26177  0.16657  0.66048  1.0000
  H   H23       1.0  0.22492  0.15196  0.72570  1.0000
  C   C21       1.0  0.32860  0.20912  0.69726  1.0000
  C   C22       1.0  0.25423  0.22080  0.76482  1.0000
  C   C23       1.0  0.26036  0.23448  0.74795  1.0000
  C   C24       1.0  0.27642  0.16337  0.78763  1.0000
  C   C25       1.0  0.28973  0.16438  0.73917  1.0000
  C   C26       1.0  0.32559  0.16549  0.72117  1.0000
  C   C27       1.0  0.28792  0.16459  0.71297  1.0000
  Fe  Fe2       1.0  0.28853  0.11311  0.71114  1.0000
  C   C28       1.0  0.30455  0.16482  0.69171  1.0000
  S   S6        1.0  0.14926  0.23653  0.70580  1.0000
  H   H24       1.0  0.15580  0.20800  0.63683  1.0000
  C   C29       1.0  0.22902  0.16171  0.62871  1.0000
  H   H25       1.0  0.17423  0.21332  0.66831  1.0000
  Fe  Fe3       1.0  0.32041  0.09921  0.74495  1.0000
  Fe  Fe4       1.0  0.32101  0.08433  0.69892  1.0000
  C   C30       1.0  0.18297  0.20100  0.66880  1.0000
  H   H26       1.0  0.28144  0.17448  0.78674  1.0000
  H   H27       1.0  0.17863  0.16861  0.67921  1.0000
  H   H28       1.0  0.28827  0.15307  0.79403  1.0000
  C   C31       1.0  0.26731  0.21010  0.78052  1.0000
  H   H29       1.0  0.27364  0.16425  0.70897  1.0000
  S   S7        1.0  0.25585  0.12546  0.71488  1.0000
  H   H30       1.0  0.30287  0.16442  0.67201  1.0000
  C   C32       1.0  0.22287  0.14930  0.64907  1.0000
  C   C33       1.0  0.32779  0.14219  0.62702  1.0000
  Fe  Fe5       1.0  0.22330  0.21553  0.67741  1.0000
  H   H31       1.0  0.26280  0.16267  0.80394  1.0000
  H   H32       1.0  0.28786  0.21278  0.71763  1.0000
  C   C34       1.0  0.19850  0.18013  0.64445  1.0000
  H   H33       1.0  0.20015  0.14232  0.68308  1.0000
  H   H34       1.0  0.19789  0.20047  0.67336  1.0000
  H   H35       1.0  0.32616  0.17540  0.86829  1.0000
  H   H36       1.0  0.32273  0.19983  0.65719  1.0000
  H   H37       1.0  0.15729  0.18800  0.65517  1.0000
  S   S8        1.0  0.20198  0.21196  0.71695  1.0000
  H   H38       1.0  0.26236  0.19975  0.79411  1.0000
  H   H39       1.0  0.26063  0.14722  0.74685  1.0000
  H   H40       1.0  0.19635  0.20608  0.60143  1.0000
  C   C35       1.0  0.30121  0.03229  0.65789  1.0000
  H   H41       1.0  0.30487  0.21663  0.64521  1.0000
  H   H42       1.0  0.27195  0.17059  0.64209  1.0000
  S   S9        1.0  0.31323  0.18145  0.57175  1.0000
  H   H43       1.0  0.24924  0.17613  0.73828  1.0000
  C   C36       1.0  0.19251  0.16711  0.66463  1.0000
  S   S10       1.0  0.31718  0.23005  0.75916  1.0000
  H   H44       1.0  0.29313  0.04173  0.64457  1.0000
  N   N3        1.0  0.31161  0.21653  0.68305  1.0000
  H   H45       1.0  0.22335  0.18608  0.61086  1.0000
  Fe  Fe6       1.0  0.21885  0.22695  0.72806  1.0000
  C   C37       1.0  0.32340  0.16513  0.69590  1.0000
  C   C38       1.0  0.30129  0.03431  0.68309  1.0000
  N   N4        1.0  0.27210  0.16316  0.76157  1.0000
  H   H46       1.0  0.27794  0.14232  0.66580  1.0000
  H   H47       1.0  0.31172  0.16541  0.76161  1.0000
  H   H48       1.0  0.28167  0.21202  0.68700  1.0000
  C   C39       1.0  0.29282  0.22654  0.76201  1.0000
  C   C40       1.0  0.32299  0.00859  0.69198  1.0000
  H   H49       1.0  0.30748  0.15006  0.59928  1.0000
  H   H50       1.0  0.29823  0.19593  0.70273  1.0000
  C   C41       1.0  0.26537  0.14804  0.76492  1.0000
  S   S11       1.0  0.24141  0.22893  0.68967  1.0000
  H   H51       1.0  0.26023  0.18817  0.75097  1.0000
  C   C42       1.0  0.31198  0.01841  0.64958  1.0000
  H   H52       1.0  0.31342  0.10227  0.83919  1.0000
  C   C43       1.0  0.26513  0.15056  0.67380  1.0000
  H   H53       1.0  0.32697  0.14908  0.91902  1.0000
  C   C44       1.0  0.31761  0.21280  0.65612  1.0000
  S   S12       1.0  0.23040  0.21677  0.76639  1.0000
  C   C45       1.0  0.25528  0.17659  0.75560  1.0000
  S   S13       1.0  0.30995  0.12380  0.72315  1.0000
  H   H54       1.0  0.29685  0.20439  0.79067  1.0000
  C   C46       1.0  0.29409  0.20905  0.69824  1.0000
  C   C47       1.0  0.20462  0.15197  0.66693  1.0000
  H   H55       1.0  0.18468  0.22052  0.62134  1.0000
  C   C48       1.0  0.16562  0.19600  0.63853  1.0000
  S   S14       1.0  0.29743  0.08865  0.73544  1.0000
  S   S15       1.0  0.32301  0.22065  0.52254  1.0000
  H   H56       1.0  0.24356  0.15969  0.61539  1.0000
  C   C49       1.0  0.25183  0.14528  0.69734  1.0000
  H   H57       1.0  0.17467  0.19332  0.68601  1.0000
  H   H58       1.0  0.32413  0.13057  0.63375  1.0000
  H   H59       1.0  0.24219  0.17682  0.77273  1.0000
  H   H60       1.0  0.25222  0.14652  0.78173  1.0000
  C   C50       1.0  0.28676  0.21276  0.77867  1.0000
  C   C51       1.0  0.30904  0.16516  0.74255  1.0000
  C   C52       1.0  0.31197  0.02243  0.70016  1.0000
  H   H61       1.0  0.33020  0.21876  0.64365  1.0000
  S   S16       1.0  0.30982  0.10796  0.67380  1.0000
  H   H62       1.0  0.29359  0.04533  0.68912  1.0000
  C   C53       1.0  0.31881  0.11242  0.82542  1.0000
  C   C54       1.0  0.32347  0.00621  0.66621  1.0000
  H   H63       1.0  0.31251  0.02432  0.71941  1.0000
  H   H64       1.0  0.32470  0.21115  0.71799  1.0000
  H   H65       1.0  0.31154  0.01745  0.62980  1.0000
  C   C55       1.0  0.32358  0.16818  0.59783  1.0000
  S   S17       1.0  0.20301  0.23723  0.65915  1.0000
  S   S18       1.0  0.32091  0.22026  0.58625  1.0000
  H   H66       1.0  0.31795  0.17769  0.90184  1.0000
  Fe  Fe7       1.0  0.32750  0.20276  0.56023  1.0000
  H   H67       1.0  0.33186  0.15705  0.53770  1.0000
  Fe  Fe8       1.0  0.18306  0.23513  0.70002  1.0000
  S   S19       1.0  0.32444  0.09550  0.78722  1.0000
  C   C56       1.0  0.33187  0.12564  0.78042  1.0000
  H   H68       1.0  0.31453  0.12538  0.85610  1.0000
  C   C57       1.0  0.31954  0.12548  0.83499  1.0000
  C   C58       1.0  0.32480  0.11248  0.79811  1.0000
  C   C59       1.0  0.32693  0.13850  0.81750  1.0000
  H   H69       1.0  0.31290  0.99028  0.63584  1.0000
  S   S20       1.0  0.32775  0.06462  0.67649  1.0000
  S   S21       1.0  0.32752  0.15460  0.83058  1.0000
  H   H70       1.0  0.32586  0.16832  0.94243  1.0000
  H   H71       1.0  0.32956  0.23705  0.69890  1.0000
  C   C60       1.0  0.33150  0.17684  0.88558  1.0000
  H   H72       1.0  0.28078  0.23701  0.66080  1.0000
  H   H73       1.0  0.33159  0.00025  0.70592  1.0000
  Fe  Fe9       1.0  0.09861  0.38655  0.27600  1.0000
  S   S22       1.0  0.11842  0.37899  0.30659  1.0000
  S   S23       1.0  0.09651  0.37082  0.25014  1.0000
  Fe  Fe10      1.0  0.08706  0.42035  0.28294  1.0000
  S   S24       1.0  0.10569  0.41608  0.31406  1.0000
  S   S25       1.0  0.07024  0.44390  0.26461  1.0000
  Fe  Fe11      1.0  0.12910  0.40190  0.28753  1.0000
  S   S26       1.0  0.16129  0.40523  0.27773  1.0000
  Fe  Fe12      1.0  0.09335  0.39367  0.33087  1.0000
  S   S27       1.0  0.08420  0.38345  0.37509  1.0000
  S   S28       1.0  0.11164  0.40815  0.25490  1.0000
  S   S29       1.0  0.07243  0.39915  0.30188  1.0000
  Fe  Fe13      1.0  0.12668  0.39027  0.07790  1.0000
  S   S30       1.0  0.09353  0.38949  0.08540  1.0000
  S   S31       1.0  0.15153  0.36950  0.08729  1.0000
  H   H74       1.0  0.17703  0.44004  0.09126  1.0000
  S   S32       1.0  0.08668  0.42842  0.06941  1.0000
  H   H75       1.0  0.19858  0.43951  0.24984  1.0000
  Fe  Fe14      1.0  0.08934  0.40932  0.10630  1.0000
  S   S33       1.0  0.06853  0.41364  0.14481  1.0000
  C   C61       1.0  0.03263  0.38505  0.45808  1.0000
  S   S34       1.0  0.12231  0.40842  0.10202  1.0000
  H   H76       1.0  0.01156  0.35010  0.00455  1.0000
  C   C62       1.0  0.20682  0.37351  0.09387  1.0000
  S   S35       1.0  0.26173  0.38528  0.17642  1.0000
  H   H77       1.0  0.17769  0.36940  0.38768  1.0000
  Fe  Fe15      1.0  0.23793  0.37450  0.16979  1.0000
  H   H78       1.0  0.06634  0.35228  0.99462  1.0000
  S   S36       1.0  0.21793  0.36056  0.20293  1.0000
  Fe  Fe16      1.0  0.24267  0.39037  0.11129  1.0000
  H   H79       1.0  0.02777  0.41705  0.40685  1.0000
  C   C63       1.0  0.16758  0.38058  0.37998  1.0000
  C   C64       1.0  0.10392  0.48285  0.10402  1.0000
  Fe  Fe17      1.0  0.24673  0.40757  0.15159  1.0000
  S   S37       1.0  0.23819  0.43052  0.16573  1.0000
  S   S38       1.0  0.25660  0.36647  0.13270  1.0000
  S   S39       1.0  0.22180  0.39712  0.14775  1.0000
  C   C65       1.0  0.09303  0.47485  0.09468  1.0000
  C   C66       1.0  0.31207  0.33985  0.15577  1.0000
  H   H80       1.0  0.19869  0.32403  0.20948  1.0000
  H   H81       1.0  0.15858  0.48042  0.00981  1.0000
  C   C67       1.0  0.21676  0.43911  0.03872  1.0000
  C   C68       1.0  0.16862  0.46420  0.25504  1.0000
  H   H82       1.0  0.14311  0.38134  0.14136  1.0000
  H   H83       1.0  0.15977  0.47647  0.25082  1.0000
  S   S40       1.0  0.09276  0.41693  0.46267  1.0000
  S   S41       1.0  0.07391  0.41281  0.01715  1.0000
  H   H84       1.0  0.04145  0.39693  0.40667  1.0000
  H   H85       1.0  0.32098  0.35242  0.20648  1.0000
  C   C69       1.0  0.10924  0.48166  0.24122  1.0000
  H   H86       1.0  0.17522  0.43391  0.25200  1.0000
  H   H87       1.0  0.12094  0.46971  0.27688  1.0000
  C   C70       1.0  0.19180  0.46530  0.14473  1.0000
  C   C71       1.0  0.20284  0.45037  0.15498  1.0000
  C   C72       1.0  0.22395  0.44696  0.14726  1.0000
  H   H88       1.0  0.17562  0.46801  0.15125  1.0000
  H   H89       1.0  0.19520  0.44176  0.16989  1.0000
  C   C73       1.0  0.20930  0.38814  0.07675  1.0000
  H   H90       1.0  0.15487  0.36086  0.14485  1.0000
  C   C74       1.0  0.13524  0.46816  0.08300  1.0000
  H   H91       1.0  0.13127  0.36658  0.16607  1.0000
  C   C75       1.0  0.32800  0.30711  0.09326  1.0000
  H   H92       1.0  0.03282  0.41515  0.46252  1.0000
  C   C76       1.0  0.17412  0.37633  0.08242  1.0000
  H   H93       1.0  0.16149  0.38713  0.39644  1.0000
  C   C77       1.0  0.19445  0.39663  0.06202  1.0000
  C   C78       1.0  0.17667  0.39096  0.06543  1.0000
  H   H94       1.0  0.19652  0.40772  0.04823  1.0000
  H   H95       1.0  0.16510  0.39782  0.05450  1.0000
  C   C79       1.0  0.08761  0.39280  0.39870  1.0000
  C   C80       1.0  0.09119  0.40830  0.39163  1.0000
  C   C81       1.0  0.09317  0.41553  0.41127  1.0000
  C   C82       1.0  0.09134  0.40738  0.43810  1.0000
  C   C83       1.0  0.08819  0.39178  0.44501  1.0000
  C   C84       1.0  0.08625  0.38455  0.42541  1.0000
  H   H96       1.0  0.09201  0.41485  0.37118  1.0000
  H   H97       1.0  0.09566  0.42760  0.40577  1.0000
  H   H98       1.0  0.18212  0.34101  0.29657  1.0000
  H   H99       1.0  0.08367  0.37250  0.43098  1.0000
  C   C85       1.0  0.08699  0.38205  0.22158  1.0000
  C   C86       1.0  0.09190  0.37612  0.19822  1.0000
  C   C87       1.0  0.08660  0.38581  0.17435  1.0000
  C   C88       1.0  0.07514  0.40106  0.17431  1.0000
  C   C89       1.0  0.06895  0.40651  0.19814  1.0000
  C   C90       1.0  0.07538  0.39723  0.22154  1.0000
  H   H100      1.0  0.10013  0.36415  0.19840  1.0000
  H   H101      1.0  0.09098  0.38139  0.15613  1.0000
  H   H102      1.0  0.05962  0.41813  0.19834  1.0000
  H   H103      1.0  0.07120  0.40181  0.23958  1.0000
  C   C91       1.0  0.08509  0.45850  0.25597  1.0000
  C   C92       1.0  0.08337  0.47052  0.23303  1.0000
  C   C93       1.0  0.06239  0.36618  0.02288  1.0000
  C   C94       1.0  0.16021  0.45839  0.21749  1.0000
  C   C95       1.0  0.11068  0.46983  0.26443  1.0000
  C   C96       1.0  0.09885  0.45811  0.27155  1.0000
  H   H104      1.0  0.07270  0.47089  0.22096  1.0000
  C   C97       1.0  0.32401  0.35058  0.13927  1.0000
  H   H105      1.0  0.09994  0.44907  0.28955  1.0000
  C   C98       1.0  0.17665  0.39300  0.25645  1.0000
  C   C99       1.0  0.17035  0.37981  0.25385  1.0000
  C   C100      1.0  0.18330  0.36960  0.23802  1.0000
  C   C101      1.0  0.20209  0.37304  0.22353  1.0000
  C   C102      1.0  0.20802  0.38658  0.22536  1.0000
  C   C103      1.0  0.19553  0.39633  0.24227  1.0000
  H   H106      1.0  0.15581  0.37713  0.26475  1.0000
  H   H107      1.0  0.17869  0.35908  0.23694  1.0000
  H   H108      1.0  0.22250  0.38932  0.21431  1.0000
  H   H109      1.0  0.20059  0.40641  0.24432  1.0000
  H   H110      1.0  0.01110  0.39853  0.39762  1.0000
  C   C104      1.0  0.18945  0.36742  0.09615  1.0000
  N   N5        1.0  0.15116  0.37717  0.37019  1.0000
  C   C105      1.0  0.13983  0.39233  0.35701  1.0000
  C   C106      1.0  0.13713  0.37008  0.39404  1.0000
  C   C107      1.0  0.15967  0.36690  0.35056  1.0000
  C   C108      1.0  0.15187  0.35334  0.35156  1.0000
  C   C109      1.0  0.17566  0.37075  0.32884  1.0000
  C   C110      1.0  0.16001  0.34410  0.33234  1.0000
  C   C111      1.0  0.18392  0.36126  0.31007  1.0000
  C   C112      1.0  0.17605  0.34802  0.31171  1.0000
  H   H111      1.0  0.14933  0.39840  0.33879  1.0000
  H   H112      1.0  0.13372  0.40073  0.37066  1.0000
  H   H113      1.0  0.12676  0.39029  0.35066  1.0000
  H   H114      1.0  0.14461  0.35838  0.40446  1.0000
  H   H115      1.0  0.13146  0.37783  0.40883  1.0000
  H   H116      1.0  0.12333  0.36855  0.38867  1.0000
  H   H117      1.0  0.13921  0.34978  0.36664  1.0000
  H   H118      1.0  0.18152  0.38142  0.32559  1.0000
  H   H119      1.0  0.15361  0.33398  0.33319  1.0000
  H   H120      1.0  0.19604  0.36454  0.29353  1.0000
  H   H121      1.0  0.00856  0.42341  0.45331  1.0000
  H   H122      1.0  0.20152  0.47449  0.07512  1.0000
  H   H123      1.0  0.25017  0.45586  0.12265  1.0000
  H   H124      1.0  0.17957  0.43350  0.06124  1.0000
  S   S42       1.0  0.31341  0.37064  0.12793  1.0000
  H   H125      1.0  0.19344  0.34900  0.17810  1.0000
  H   H126      1.0  0.29593  0.34376  0.16156  1.0000
  C   C113      1.0  0.01842  0.41219  0.46133  1.0000
  H   H127      1.0  0.27726  0.31751  0.09167  1.0000
  H   H128      1.0  0.17032  0.31480  0.24428  1.0000
  H   H129      1.0  0.15812  0.45690  0.26971  1.0000
  C   C114      1.0  0.00257  0.39806  0.44071  1.0000
  H   H130      1.0  0.01188  0.38863  0.00173  1.0000
  H   H131      1.0  0.07668  0.47731  0.09939  1.0000
  H   H132      1.0  0.04755  0.38605  0.46087  1.0000
  C   C115      1.0  0.03761  0.36944  0.99489  1.0000
  H   H133      1.0  0.14911  0.45118  0.23091  1.0000
  H   H134      1.0  0.02381  0.38057  0.47823  1.0000
  H   H135      1.0  0.20612  0.44884  0.09915  1.0000
  H   H136      1.0  0.14245  0.39573  0.17714  1.0000
  H   H137      1.0  0.13358  0.48572  0.10509  1.0000
  C   C116      1.0  0.07886  0.40252  0.99123  1.0000
  H   H138      1.0  0.22381  0.43267  0.08782  1.0000
  H   H139      1.0  0.22730  0.45245  0.07198  1.0000
  C   C117      1.0  0.09482  0.38962  0.98883  1.0000
  H   H140      1.0  0.12982  0.35656  0.21584  1.0000
  H   H141      1.0  0.12923  0.38162  0.19993  1.0000
  C   C118      1.0  0.18451  0.48401  0.20148  1.0000
  S   S43       1.0  0.26659  0.40280  0.11301  1.0000
  S   S44       1.0  0.23065  0.39620  0.07355  1.0000
  C   C119      1.0  0.23386  0.45826  0.12829  1.0000
  H   H142      1.0  0.13592  0.33140  0.24697  1.0000
  Fe  Fe18      1.0  0.27936  0.37924  0.13734  1.0000
  C   C120      1.0  0.09571  0.48192  0.22539  1.0000
  H   H143      1.0  0.15186  0.38453  0.20675  1.0000
  N   N6        1.0  0.10883  0.44147  0.17122  1.0000
  C   C121      1.0  0.10284  0.43870  0.14796  1.0000
  C   C122      1.0  0.09422  0.43559  0.19547  1.0000
  C   C123      1.0  0.10685  0.45872  0.16816  1.0000
  C   C124      1.0  0.12989  0.43371  0.17364  1.0000
  C   C125      1.0  0.13644  0.43120  0.19807  1.0000
  C   C126      1.0  0.14478  0.42930  0.15161  1.0000
  C   C127      1.0  0.15603  0.42341  0.20101  1.0000
  C   C128      1.0  0.16456  0.42194  0.15459  1.0000
  C   C129      1.0  0.17005  0.41872  0.17937  1.0000
  H   H144      1.0  0.10518  0.42582  0.14852  1.0000
  H   H145      1.0  0.08655  0.44361  0.14747  1.0000
  H   H146      1.0  0.11111  0.44466  0.12859  1.0000
  H   H147      1.0  0.09715  0.42243  0.20076  1.0000
  H   H148      1.0  0.07826  0.43973  0.19276  1.0000
  H   H149      1.0  0.09462  0.43989  0.21317  1.0000
  H   H150      1.0  0.11767  0.46362  0.15037  1.0000
  H   H151      1.0  0.09137  0.46524  0.16563  1.0000
  H   H152      1.0  0.11003  0.46160  0.18576  1.0000
  H   H153      1.0  0.12645  0.43521  0.21518  1.0000
  H   H154      1.0  0.14150  0.43148  0.13188  1.0000
  H   H155      1.0  0.16038  0.42109  0.22020  1.0000
  H   H156      1.0  0.17570  0.41864  0.13761  1.0000
  H   H157      1.0  0.18528  0.41283  0.18179  1.0000
  N   N7        1.0  0.15713  0.37151  0.17585  1.0000
  C   C130      1.0  0.17589  0.37739  0.16080  1.0000
  C   C131      1.0  0.14610  0.37004  0.15626  1.0000
  C   C132      1.0  0.14469  0.38381  0.19059  1.0000
  C   C133      1.0  0.16105  0.35592  0.19438  1.0000
  C   C134      1.0  0.18038  0.34581  0.19271  1.0000
  C   C135      1.0  0.14510  0.35000  0.21405  1.0000
  C   C136      1.0  0.18363  0.33123  0.21070  1.0000
  C   C137      1.0  0.14844  0.33541  0.23189  1.0000
  C   C138      1.0  0.16772  0.32607  0.23035  1.0000
  H   H158      1.0  0.18540  0.36958  0.14742  1.0000
  H   H159      1.0  0.17258  0.38922  0.14740  1.0000
  H   H160      1.0  0.18508  0.37834  0.17461  1.0000
  C   C139      1.0  0.19138  0.46772  0.21206  1.0000
  C   C140      1.0  0.10327  0.46355  0.07941  1.0000
  S   S45       1.0  0.13746  0.44553  0.05552  1.0000
  H   H161      1.0  0.19297  0.43546  0.22092  1.0000
  C   C141      1.0  0.05614  0.36166  0.00326  1.0000
  C   C142      1.0  0.12441  0.46013  0.07363  1.0000
  H   H162      1.0  0.09476  0.45757  0.07203  1.0000
  H   H163      1.0  0.23071  0.48192  0.10384  1.0000
  H   H164      1.0  0.07680  0.36039  0.02855  1.0000
  C   C143      1.0  0.03256  0.38657  0.02654  1.0000
  C   C144      1.0  0.16852  0.47904  0.02349  1.0000
  C   C145      1.0  0.05068  0.37862  0.03444  1.0000
  H   H165      1.0  0.28358  0.34401  0.08957  1.0000
  C   C146      1.0  0.17999  0.46414  0.03214  1.0000
  N   N8        1.0  0.17707  0.45790  0.23043  1.0000
  H   H166      1.0  0.19579  0.42298  0.08410  1.0000
  H   H167      1.0  0.20833  0.43698  0.02509  1.0000
  H   H168      1.0  0.17839  0.45440  0.02468  1.0000
  H   H169      1.0  0.03543  0.37582  0.44622  1.0000
  C   C147      1.0  0.22532  0.47116  0.18649  1.0000
  N   N9        1.0  0.02196  0.40040  0.44449  1.0000
  H   H170      1.0  0.15150  0.46539  0.07918  1.0000
  Fe  Fe19      1.0  0.12015  0.42593  0.06346  1.0000
  H   H171      1.0  0.10482  0.38581  0.00301  1.0000
  H   H172      1.0  0.18768  0.35598  0.10900  1.0000
  H   H173      1.0  0.21842  0.36679  0.10497  1.0000
  H   H174      1.0  0.22709  0.44732  0.02675  1.0000
  Fe  Fe20      1.0  0.09362  0.40860  0.04763  1.0000
  H   H175      1.0  0.04919  0.40907  0.42243  1.0000
  C   C148      1.0  0.32105  0.32403  0.16497  1.0000
  H   H176      1.0  0.24104  0.46604  0.17998  1.0000
  H   H177      1.0  0.15144  0.47053  0.21215  1.0000
  H   H178      1.0  0.31170  0.31581  0.17783  1.0000
  C   C149      1.0  0.19222  0.46166  0.05129  1.0000
  C   C150      1.0  0.21234  0.46161  0.20431  1.0000
  H   H179      1.0  0.22632  0.42749  0.04567  1.0000
  H   H180      1.0  0.02383  0.39652  0.03516  1.0000
  C   C151      1.0  0.19270  0.47511  0.06063  1.0000
  S   S46       1.0  0.12717  0.40774  0.03842  1.0000
  C   C152      1.0  0.99953  0.39717  0.41552  1.0000
  H   H181      1.0  0.05600  0.38248  0.04889  1.0000
  C   C153      1.0  0.31518  0.33566  0.09029  1.0000
  H   H182      1.0  0.30464  0.29436  0.09401  1.0000
  C   C154      1.0  0.12505  0.47961  0.09794  1.0000
  C   C155      1.0  0.22284  0.47308  0.11789  1.0000
  H   H183      1.0  0.18084  0.46450  0.26495  1.0000
  C   C156      1.0  0.18827  0.43507  0.07509  1.0000
  N   N10       1.0  0.20312  0.44554  0.06142  1.0000
  H   H184      1.0  0.16590  0.45398  0.19871  1.0000
  C   C157      1.0  0.03553  0.40611  0.41894  1.0000
  C   C158      1.0  0.21562  0.44494  0.08088  1.0000
  C   C159      1.0  0.20187  0.47686  0.12672  1.0000
  C   C160      1.0  0.29236  0.31888  0.09161  1.0000
  H   H185      1.0  0.21906  0.44934  0.21086  1.0000
  C   C161      1.0  0.18646  0.44098  0.23858  1.0000
  H   H186      1.0  0.17702  0.38819  0.36418  1.0000
  H   H187      1.0  0.08746  0.38520  0.46545  1.0000
  C   C162      1.0  0.21795  0.48698  0.17596  1.0000
  C   C163      1.0  0.01042  0.35991  0.98656  1.0000
  C   C164      1.0  0.02601  0.38204  0.00719  1.0000
  C   C165      1.0  0.30814  0.30570  0.09297  1.0000
  C   C166      1.0  0.29587  0.33382  0.09036  1.0000
  H   H188      1.0  0.31774  0.34734  0.08953  1.0000
  H   H189      1.0  0.32524  0.27655  0.12052  1.0000
  H   H190      1.0  0.33129  0.37633  0.17520  1.0000
  H   H191      1.0  0.01129  0.40783  0.48244  1.0000
  C   C167      1.0  0.33108  0.32257  0.09177  1.0000
  C   C168      1.0  0.04018  0.40786  0.75642  1.0000
  S   S47       1.0  0.05485  0.39152  0.50934  1.0000
  C   C169      1.0  0.03918  0.43888  0.77156  1.0000
  S   S48       1.0  0.07439  0.35166  0.55862  1.0000
  H   H192      1.0  0.04244  0.44539  0.57541  1.0000
  Fe  Fe21      1.0  0.01616  0.32288  0.69099  1.0000
  S   S49       1.0  0.03412  0.29832  0.69099  1.0000
  H   H193      1.0  0.08318  0.45573  0.92388  1.0000
  Fe  Fe22      1.0  0.01851  0.32171  0.74773  1.0000
  S   S50       1.0  0.03639  0.29685  0.75323  1.0000
  C   C170      1.0  0.32549  0.29911  0.64358  1.0000
  Fe  Fe23      1.0  0.05416  0.30501  0.71204  1.0000
  S   S51       1.0  0.08826  0.30280  0.70072  1.0000
  Fe  Fe24      1.0  0.01473  0.29229  0.73176  1.0000
  C   C171      1.0  0.28293  0.25894  0.66767  1.0000
  S   S52       1.0  0.03764  0.33034  0.70827  1.0000
  C   C172      1.0  0.03718  0.48432  0.68049  1.0000
  Fe  Fe25      1.0  0.06980  0.38474  0.89170  1.0000
  S   S53       1.0  0.05080  0.36970  0.88447  1.0000
  S   S54       1.0  0.08843  0.37597  0.92414  1.0000
  Fe  Fe26      1.0  0.05827  0.41225  0.84677  1.0000
  S   S55       1.0  0.03766  0.40010  0.83613  1.0000
  S   S56       1.0  0.06017  0.43766  0.82729  1.0000
  Fe  Fe27      1.0  0.02762  0.39217  0.88039  1.0000
  C   C173      1.0  0.06835  0.46464  0.55681  1.0000
  Fe  Fe28      1.0  0.06237  0.37871  0.84068  1.0000
  S   S57       1.0  0.07264  0.36439  0.80861  1.0000
  S   S58       1.0  0.04567  0.40654  0.89067  1.0000
  S   S59       1.0  0.08397  0.39150  0.84817  1.0000
  C   C174      1.0  0.09310  0.44475  0.93039  1.0000
  S   S60       1.0  0.05537  0.42386  0.52900  1.0000
  H   H194      1.0  0.02330  0.45735  0.59525  1.0000
  C   C175      1.0  0.04985  0.44963  0.72492  1.0000
  H   H195      1.0  0.15571  0.26913  0.69111  1.0000
  C   C176      1.0  0.11313  0.42925  0.96314  1.0000
  H   H196      1.0  0.08789  0.32593  0.82858  1.0000
  S   S61       1.0  0.06830  0.41402  0.60230  1.0000
  H   H197      1.0  0.06066  0.43874  0.88147  1.0000
  S   S62       1.0  0.23047  0.27208  0.64808  1.0000
  C   C177      1.0  0.04752  0.47371  0.66407  1.0000
  C   C178      1.0  0.25385  0.28147  0.59933  1.0000
  H   H198      1.0  0.05722  0.44725  0.70476  1.0000
  S   S63       1.0  0.04537  0.39191  0.57287  1.0000
  C   C179      1.0  0.24827  0.26853  0.61913  1.0000
  C   C180      1.0  0.09768  0.38155  0.96815  1.0000
  H   H199      1.0  0.24667  0.29338  0.60158  1.0000
  H   H200      1.0  0.31166  0.28320  0.56614  1.0000
  Fe  Fe29      1.0  0.03462  0.40684  0.53636  1.0000
  H   H201      1.0  0.02181  0.37540  0.93623  1.0000
  C   C181      1.0  0.10492  0.28431  0.70038  1.0000
  C   C182      1.0  0.09778  0.27008  0.70761  1.0000
  S   S64       1.0  0.13358  0.45148  0.73219  1.0000
  H   H202      1.0  0.00636  0.30842  0.63802  1.0000
  C   C183      1.0  0.13961  0.26932  0.69578  1.0000
  C   C184      1.0  0.12586  0.28387  0.69423  1.0000
  H   H203      1.0  0.08168  0.27025  0.71239  1.0000
  S   S65       1.0  0.09852  0.46288  0.68139  1.0000
  Fe  Fe30      1.0  0.21956  0.25038  0.67470  1.0000
  H   H204      1.0  0.13153  0.29482  0.68847  1.0000
  H   H205      1.0  0.03838  0.46679  0.53392  1.0000
  C   C185      1.0  0.10884  0.44663  0.60565  1.0000
  C   C186      1.0  0.03692  0.46471  0.65628  1.0000
  H   H206      1.0  0.08987  0.44812  0.64413  1.0000
  S   S66       1.0  0.12340  0.46028  0.60570  1.0000
  Fe  Fe31      1.0  0.07686  0.40725  0.50442  1.0000
  H   H207      1.0  0.11654  0.40834  0.91704  1.0000
  H   H208      1.0  0.00473  0.35579  0.97211  1.0000
  C   C187      1.0  0.18569  0.47503  0.74684  1.0000
  H   H209      1.0  0.25023  0.24290  0.73605  1.0000
  C   C188      1.0  0.02568  0.34468  0.78618  1.0000
  C   C189      1.0  0.04587  0.34218  0.77298  1.0000
  C   C190      1.0  0.06009  0.34852  0.77975  1.0000
  C   C191      1.0  0.05421  0.35739  0.79967  1.0000
  C   C192      1.0  0.03392  0.36019  0.81243  1.0000
  C   C193      1.0  0.01974  0.35384  0.80564  1.0000
  H   H210      1.0  0.05065  0.33497  0.75816  1.0000
  H   H211      1.0  0.07584  0.34607  0.77026  1.0000
  H   H212      1.0  0.02922  0.36702  0.82780  1.0000
  C   C194      1.0  0.29368  0.30309  0.62997  1.0000
  C   C195      1.0  0.05400  0.34641  0.58385  1.0000
  C   C196      1.0  0.05746  0.33421  0.60599  1.0000
  C   C197      1.0  0.04182  0.33179  0.62829  1.0000
  C   C198      1.0  0.02254  0.34117  0.62801  1.0000
  C   C199      1.0  0.01881  0.35281  0.60530  1.0000
  C   C200      1.0  0.03461  0.35552  0.58334  1.0000
  H   H213      1.0  0.07239  0.32702  0.60629  1.0000
  H   H214      1.0  0.04484  0.32278  0.64573  1.0000
  H   H215      1.0  0.11729  0.26977  0.81331  1.0000
  H   H216      1.0  0.03183  0.36473  0.56601  1.0000
  C   C201      1.0  0.11360  0.44770  0.75925  1.0000
  C   C202      1.0  0.09617  0.45930  0.76275  1.0000
  C   C203      1.0  0.08013  0.45622  0.78421  1.0000
  C   C204      1.0  0.08112  0.44133  0.80170  1.0000
  C   C205      1.0  0.09852  0.42969  0.79820  1.0000
  C   C206      1.0  0.11487  0.43295  0.77720  1.0000
  H   H217      1.0  0.09508  0.47071  0.74908  1.0000
  H   H218      1.0  0.06676  0.46531  0.78691  1.0000
  H   H219      1.0  0.09948  0.41820  0.81163  1.0000
  H   H220      1.0  0.12832  0.42393  0.77449  1.0000
  C   C207      1.0  0.08470  0.42595  0.60345  1.0000
  C   C208      1.0  0.08119  0.43242  0.62602  1.0000
  C   C209      1.0  0.09305  0.44288  0.62699  1.0000
  H   H221      1.0  0.06893  0.42966  0.64256  1.0000
  C   C210      1.0  0.00557  0.47714  0.68069  1.0000
  H   H222      1.0  0.07907  0.42256  0.72896  1.0000
  H   H223      1.0  0.01155  0.36623  0.87793  1.0000
  H   H224      1.0  0.09545  0.45240  0.96486  1.0000
  H   H225      1.0  0.08845  0.42136  0.86346  1.0000
  C   C211      1.0  0.00661  0.40247  0.63580  1.0000
  H   H226      1.0  0.06120  0.42986  0.91608  1.0000
  H   H227      1.0  0.29882  0.31547  0.65681  1.0000
  C   C212      1.0  0.08466  0.38636  0.94980  1.0000
  C   C213      1.0  0.06881  0.39929  0.95227  1.0000
  H   H228      1.0  0.10592  0.24455  0.71465  1.0000
  H   H229      1.0  0.00468  0.29349  0.62181  1.0000
  C   C214      1.0  0.11182  0.41850  0.92615  1.0000
  H   H230      1.0  0.05861  0.40308  0.93854  1.0000
  C   C215      1.0  0.03215  0.38200  0.67021  1.0000
  C   C216      1.0  0.18205  0.46317  0.71296  1.0000
  H   H231      1.0  0.26959  0.26528  0.65971  1.0000
  S   S67       1.0  0.00306  0.26936  0.74394  1.0000
  H   H232      1.0  0.17944  0.46521  0.76206  1.0000
  C   C217      1.0  0.27816  0.26373  0.57357  1.0000
  C   C218      1.0  0.03259  0.39813  0.66250  1.0000
  C   C219      1.0  0.27261  0.25072  0.59333  1.0000
  C   C220      1.0  0.11275  0.43973  0.58341  1.0000
  H   H233      1.0  0.04818  0.40390  0.77283  1.0000
  H   H234      1.0  0.27260  0.28918  0.56122  1.0000
  H   H235      1.0  0.01659  0.38886  0.95765  1.0000
  Fe  Fe32      1.0  0.11672  0.47178  0.64113  1.0000
  H   H236      1.0  0.02613  0.43928  0.70682  1.0000
  C   C221      1.0  0.01932  0.40157  0.73163  1.0000
  H   H237      1.0  0.05830  0.45766  0.72889  1.0000
  H   H238      1.0  0.03829  0.34844  0.94814  1.0000
  C   C222      1.0  0.25752  0.25311  0.61599  1.0000
  S   S68       1.0  0.19821  0.24994  0.71461  1.0000
  C   C223      1.0  0.00673  0.38589  0.64381  1.0000
  C   C224      1.0  0.03969  0.45503  0.58642  1.0000
  C   C225      1.0  0.02757  0.37844  0.95174  1.0000
  H   H239      1.0  0.01423  0.38299  0.53380  1.0000
  N   N11       1.0  0.09035  0.36079  0.63062  1.0000
  C   C226      1.0  0.09646  0.34389  0.62851  1.0000
  C   C227      1.0  0.07109  0.36729  0.62112  1.0000
  C   C228      1.0  0.10615  0.36930  0.61227  1.0000
  C   C229      1.0  0.08746  0.36304  0.65818  1.0000
  C   C230      1.0  0.08457  0.37847  0.66300  1.0000
  C   C231      1.0  0.08631  0.35030  0.68099  1.0000
  C   C232      1.0  0.08130  0.38093  0.68893  1.0000
  C   C233      1.0  0.08293  0.35291  0.70681  1.0000
  C   C234      1.0  0.08051  0.36816  0.71080  1.0000
  H   H240      1.0  0.08446  0.33695  0.63963  1.0000
  H   H241      1.0  0.09915  0.34264  0.60738  1.0000
  H   H242      1.0  0.11064  0.33813  0.63611  1.0000
  H   H243      1.0  0.07283  0.36640  0.60010  1.0000
  H   H244      1.0  0.06566  0.38004  0.62168  1.0000
  H   H245      1.0  0.05897  0.36074  0.63335  1.0000
  H   H246      1.0  0.12039  0.36594  0.62013  1.0000
  H   H247      1.0  0.10978  0.36663  0.59196  1.0000
  H   H248      1.0  0.10134  0.38241  0.60885  1.0000
  H   H249      1.0  0.08451  0.38883  0.64676  1.0000
  H   H250      1.0  0.08793  0.33817  0.67951  1.0000
  H   H251      1.0  0.07936  0.39281  0.69203  1.0000
  H   H252      1.0  0.08224  0.34295  0.72379  1.0000
  H   H253      1.0  0.07802  0.37009  0.73089  1.0000
  N   N12       1.0  0.10905  0.28664  0.77848  1.0000
  C   C235      1.0  0.11912  0.29695  0.75449  1.0000
  C   C236      1.0  0.12443  0.27713  0.79442  1.0000
  C   C237      1.0  0.10119  0.27540  0.76911  1.0000
  C   C238      1.0  0.09316  0.29660  0.79469  1.0000
  C   C239      1.0  0.07228  0.29594  0.79961  1.0000
  C   C240      1.0  0.09837  0.30764  0.80573  1.0000
  C   C241      1.0  0.05770  0.30566  0.81476  1.0000
  C   C242      1.0  0.08366  0.31727  0.82091  1.0000
  H   H254      1.0  0.04567  0.44797  0.77588  1.0000
  H   H255      1.0  0.13093  0.28987  0.74150  1.0000
  H   H256      1.0  0.10799  0.30444  0.74213  1.0000
  H   H257      1.0  0.12676  0.30502  0.75963  1.0000
  H   H258      1.0  0.13277  0.28461  0.79985  1.0000
  H   H259      1.0  0.13610  0.26895  0.78316  1.0000
  H   H260      1.0  0.03432  0.45665  0.72424  1.0000
  H   H261      1.0  0.09013  0.28177  0.75600  1.0000
  H   H262      1.0  0.01873  0.47780  0.55442  1.0000
  C   C243      1.0  0.32089  0.25867  0.60556  1.0000
  H   H263      1.0  0.06674  0.28815  0.79174  1.0000
  H   H264      1.0  0.11385  0.30907  0.80244  1.0000
  N   N13       1.0  0.08997  0.43424  0.89208  1.0000
  C   C244      1.0  0.09834  0.43238  0.91616  1.0000
  N   N14       1.0  0.04975  0.43468  0.74565  1.0000
  C   C245      1.0  0.01983  0.40828  0.64591  1.0000
  H   H265      1.0  0.04507  0.45651  0.64375  1.0000
  H   H266      1.0  0.12500  0.44256  0.56687  1.0000
  C   C246      1.0  0.01587  0.46653  0.66427  1.0000
  Fe  Fe33      1.0  0.12167  0.46892  0.69781  1.0000
  Fe  Fe34      1.0  0.06800  0.40761  0.56383  1.0000
  C   C247      1.0  0.30540  0.30678  0.64453  1.0000
  H   H267      1.0  0.02040  0.42076  0.64119  1.0000
  Fe  Fe35      1.0  0.06789  0.37807  0.54529  1.0000
  C   C248      1.0  0.32791  0.27983  0.56733  1.0000
  H   H268      1.0  0.00416  0.35577  0.81584  1.0000
  C   C249      1.0  0.09532  0.41969  0.88115  1.0000
  C   C250      1.0  0.03950  0.42342  0.74024  1.0000
  H   H269      1.0  0.04290  0.40286  0.66928  1.0000
  H   H270      1.0  0.17665  0.45351  0.72949  1.0000
  S   S69       1.0  0.29780  0.26149  0.54570  1.0000
  C   C251      1.0  0.02788  0.42765  0.71986  1.0000
  H   H271      1.0  0.00877  0.43301  0.60478  1.0000
  H   H272      1.0  0.09190  0.44870  0.85210  1.0000
  C   C252      1.0  0.03035  0.39710  0.75197  1.0000
  H   H273      1.0  0.08983  0.40952  0.89626  1.0000
  H   H274      1.0  0.04778  0.45022  0.60335  1.0000
  H   H275      1.0  0.07978  0.43604  0.74837  1.0000
  H   H276      1.0  0.07274  0.41761  0.76500  1.0000
  H   H277      1.0  0.04032  0.42850  0.78863  1.0000
  H   H278      1.0  0.09387  0.26694  0.78612  1.0000
  H   H279      1.0  0.29221  0.28913  0.60381  1.0000
  C   C253      1.0  0.06756  0.43850  0.89851  1.0000
  H   H280      1.0  0.06365  0.47258  0.65706  1.0000
  C   C254      1.0  0.09776  0.44708  0.87067  1.0000
  H   H281      1.0  0.19848  0.45928  0.70551  1.0000
  C   C255      1.0  0.26853  0.27908  0.57650  1.0000
  H   H282      1.0  0.02286  0.44380  0.77167  1.0000
  H   H283      1.0  0.07455  0.47477  0.54253  1.0000
  S   S70       1.0  0.09167  0.39252  0.53877  1.0000
  H   H284      1.0  0.06207  0.45044  0.90314  1.0000
  S   S71       1.0  0.14156  0.47557  0.65774  1.0000
  H   H285      1.0  0.03117  0.38527  0.76459  1.0000
  C   C256      1.0  0.10061  0.42950  0.58219  1.0000
  H   H286      1.0  0.10349  0.42448  0.56476  1.0000
  C   C257      1.0  0.01795  0.41686  0.71577  1.0000
  C   C258      1.0  0.07117  0.42734  0.74706  1.0000
  C   C259      1.0  0.00312  0.42465  0.59745  1.0000
  H   H287      1.0  0.01053  0.48331  0.59615  1.0000
  C   C260      1.0  0.03534  0.47547  0.54693  1.0000
  H   H288      1.0  0.04188  0.37414  0.68330  1.0000
  H   H289      1.0  0.05350  0.41721  0.97474  1.0000
  C   C261      1.0  0.32261  0.28406  0.61228  1.0000
  N   N15       1.0  0.04677  0.46944  0.56897  1.0000
  H   H290      1.0  0.27792  0.30883  0.63107  1.0000
  H   H291      1.0  0.01616  0.41813  0.58524  1.0000
  H   H292      1.0  0.01196  0.28824  0.65385  1.0000
  C   C262      1.0  0.11154  0.25553  0.70896  1.0000
  S   S72       1.0  0.00759  0.33627  0.77930  1.0000
  C   C263      1.0  0.13250  0.25507  0.70320  1.0000
  H   H293      1.0  0.05199  0.32398  0.83678  1.0000
  C   C264      1.0  0.06339  0.31620  0.82556  1.0000
  N   N16       1.0  0.17800  0.47840  0.72169  1.0000
  H   H294      1.0  0.04180  0.30530  0.81769  1.0000
  H   H295      1.0  0.11348  0.26813  0.75689  1.0000
  C   C265      1.0  0.11913  0.41710  0.94920  1.0000
  C   C266      1.0  0.04416  0.35151  0.96356  1.0000
  H   H296      1.0  0.14824  0.47547  0.74433  1.0000
  H   H297      1.0  0.28379  0.24836  0.73471  1.0000
  H   H298      1.0  0.07067  0.45514  0.54562  1.0000
  H   H299      1.0  0.30430  0.26211  0.60671  1.0000
  H   H300      1.0  0.01913  0.36331  0.66665  1.0000
  H   H301      1.0  0.12890  0.40625  0.95697  1.0000
  H   H302      1.0  0.17389  0.46386  0.69695  1.0000
  C   C267      1.0  0.10022  0.44308  0.95369  1.0000
  C   C268      1.0  0.06593  0.40731  0.97285  1.0000
  C   C269      1.0  0.29323  0.26696  0.67763  1.0000
  H   H303      1.0  0.32348  0.25251  0.62599  1.0000
  C   C270      1.0  0.31034  0.25889  0.68799  1.0000
  H   H304      1.0  0.11457  0.44441  0.86541  1.0000
  S   S73       1.0  0.00281  0.45556  0.65332  1.0000
  H   H305      1.0  0.09326  0.45869  0.87669  1.0000
  H   H306      1.0  0.11192  0.41628  0.87423  1.0000
  H   H307      1.0  0.01172  0.39320  0.72829  1.0000
  N   N17       1.0  0.03022  0.36481  0.97457  1.0000
  C   C271      1.0  0.30205  0.29182  0.61427  1.0000
  H   H308      1.0  0.20247  0.47148  0.74313  1.0000
  H   H309      1.0  0.28769  0.27939  0.67775  1.0000
  H   H310      1.0  0.31815  0.26508  0.69619  1.0000
  H   H311      1.0  0.17470  0.48690  0.66868  1.0000
  C   C272      1.0  0.01930  0.37590  0.66082  1.0000
  H   H312      1.0  0.04221  0.38227  0.94204  1.0000
  C   C273      1.0  0.28933  0.24271  0.66871  1.0000
  H   H313      1.0  0.00913  0.42046  0.70013  1.0000
  H   H314      1.0  0.32651  0.24990  0.59258  1.0000
  S   S74       1.0  0.00324  0.33880  0.65632  1.0000
  H   H315      1.0  0.07769  0.45976  0.57242  1.0000
  N   N18       1.0  0.33116  0.27244  0.59497  1.0000
  H   H316      1.0  0.00388  0.35997  0.60481  1.0000
  C   C274      1.0  0.04328  0.48169  0.58477  1.0000
  C   C275      1.0  0.15587  0.48405  0.72789  1.0000
  C   C276      1.0  0.01619  0.48600  0.68879  1.0000
  H   H317      1.0  0.10999  0.37154  0.96644  1.0000
  H   H318      1.0  0.25309  0.24304  0.63099  1.0000
  C   C277      1.0  0.00159  0.29688  0.64146  1.0000
  H   H319      1.0  0.05921  0.35465  0.95346  1.0000
  S   S75       1.0  0.00157  0.41602  0.53752  1.0000
  C   C278      1.0  0.31673  0.24261  0.68946  1.0000
  H   H320      1.0  0.07495  0.48388  0.58020  1.0000
  H   H321      1.0  0.14889  0.48575  0.71030  1.0000
  H   H322      1.0  0.04635  0.34058  0.97945  1.0000
  H   H323      1.0  0.18111  0.48543  0.75640  1.0000
  H   H324      1.0  0.27963  0.23882  0.59096  1.0000
  H   H325      1.0  0.03957  0.48673  0.53406  1.0000
  Fe  Fe36      1.0  0.31947  0.23818  0.54786  1.0000
  H   H326      1.0  0.11817  0.42781  0.98163  1.0000
  C   C279      1.0  0.27943  0.23751  0.74708  1.0000
  C   C280      1.0  0.15184  0.65789  0.45425  1.0000
  S   S76       1.0  0.15020  0.52094  0.16429  1.0000
  Fe  Fe37      1.0  0.12514  0.53478  0.14282  1.0000
  S   S77       1.0  0.11649  0.56149  0.13196  1.0000
  C   C281      1.0  0.03478  0.62539  0.31810  1.0000
  S   S78       1.0  0.10195  0.52074  0.16871  1.0000
  C   C282      1.0  0.02156  0.60233  0.30334  1.0000
  Fe  Fe38      1.0  0.03442  0.64014  0.16748  1.0000
  S   S79       1.0  0.05942  0.63772  0.18895  1.0000
  S   S80       1.0  0.03724  0.64741  0.12322  1.0000
  H   H327      1.0  0.16528  0.66240  0.45485  1.0000
  S   S81       1.0  0.02527  0.63007  0.24445  1.0000
  H   H328      1.0  0.10127  0.69223  0.02289  1.0000
  Fe  Fe39      1.0  0.03558  0.65144  0.21598  1.0000
  S   S82       1.0  0.03893  0.67333  0.22684  1.0000
  Fe  Fe40      1.0  0.04717  0.61651  0.21538  1.0000
  S   S83       1.0  0.06557  0.59251  0.22874  1.0000
  C   C283      1.0  0.13286  0.68447  0.44548  1.0000
  S   S84       1.0  0.02454  0.61766  0.19112  1.0000
  H   H329      1.0  0.09328  0.62457  0.13444  1.0000
  H   H330      1.0  0.15320  0.65693  0.43327  1.0000
  S   S85       1.0  0.05548  0.71648  0.09128  1.0000
  C   C284      1.0  0.09403  0.63645  0.12097  1.0000
  Fe  Fe41      1.0  0.06838  0.68732  0.34806  1.0000
  S   S86       1.0  0.05908  0.71145  0.32365  1.0000
  S   S87       1.0  0.07457  0.66589  0.32979  1.0000
  Fe  Fe42      1.0  0.06571  0.70065  0.39735  1.0000
  S   S88       1.0  0.05517  0.72573  0.37635  1.0000
  S   S89       1.0  0.06913  0.69285  0.44072  1.0000
  Fe  Fe43      1.0  0.03570  0.71512  0.36009  1.0000
  S   S90       1.0  0.13418  0.52036  0.11119  1.0000
  Fe  Fe44      1.0  0.07961  0.71913  0.34204  1.0000
  Fe  Fe45      1.0  0.07862  0.72738  0.98883  1.0000
  S   S91       1.0  0.04407  0.69057  0.38412  1.0000
  S   S92       1.0  0.09117  0.69461  0.36375  1.0000
  H   H331      1.0  0.13172  0.63033  0.09200  1.0000
  Fe  Fe46      1.0  0.00354  0.63297  0.21778  1.0000
  H   H332      1.0  0.11993  0.61321  0.10244  1.0000
  H   H333      1.0  0.07880  0.64391  0.12546  1.0000
  H   H334      1.0  0.02576  0.69409  0.34072  1.0000
  H   H335      1.0  0.08980  0.62437  0.06729  1.0000
  C   C285      1.0  0.04801  0.67060  0.25625  1.0000
  C   C286      1.0  0.04448  0.68350  0.26826  1.0000
  C   C287      1.0  0.05209  0.68197  0.29115  1.0000
  C   C288      1.0  0.06380  0.66769  0.30191  1.0000
  C   C289      1.0  0.06732  0.65472  0.28988  1.0000
  C   C290      1.0  0.05923  0.65610  0.26726  1.0000
  H   H336      1.0  0.03582  0.69474  0.25989  1.0000
  H   H337      1.0  0.04891  0.69192  0.30030  1.0000
  H   H338      1.0  0.07640  0.64362  0.29801  1.0000
  H   H339      1.0  0.06209  0.64608  0.25801  1.0000
  C   C291      1.0  0.04237  0.66657  0.11394  1.0000
  C   C292      1.0  0.04482  0.67366  0.13330  1.0000
  C   C293      1.0  0.04872  0.68904  0.12618  1.0000
  C   C294      1.0  0.05048  0.69730  0.09958  1.0000
  C   C295      1.0  0.04823  0.69017  0.08013  1.0000
  C   C296      1.0  0.04409  0.67480  0.08731  1.0000
  H   H340      1.0  0.04392  0.66732  0.15381  1.0000
  H   H341      1.0  0.05057  0.69446  0.14128  1.0000
  H   H342      1.0  0.04972  0.69640  0.05955  1.0000
  H   H343      1.0  0.04230  0.66934  0.07224  1.0000
  C   C297      1.0  0.12820  0.68775  0.41962  1.0000
  N   N19       1.0  0.13286  0.66853  0.46332  1.0000
  H   H344      1.0  0.00842  0.57933  0.20025  1.0000
  C   C298      1.0  0.10496  0.65235  0.04561  1.0000
  H   H345      1.0  0.11702  0.65835  0.44323  1.0000
  H   H346      1.0  0.05917  0.72594  0.25726  1.0000
  C   C299      1.0  0.09740  0.68014  0.06433  1.0000
  S   S93       1.0  0.04976  0.72089  0.01492  1.0000
  N   N20       1.0  0.03416  0.56138  0.18938  1.0000
  C   C300      1.0  0.01008  0.69479  0.34086  1.0000
  H   H347      1.0  0.15270  0.64572  0.46707  1.0000
  C   C301      1.0  0.08396  0.71891  0.44196  1.0000
  C   C302      1.0  0.07872  0.70430  0.45575  1.0000
  H   H348      1.0  0.22789  0.49418  0.16139  1.0000
  H   H349      1.0  0.10818  0.66769  0.00621  1.0000
  H   H350      1.0  0.00563  0.56928  0.17637  1.0000
  H   H351      1.0  0.11331  0.72825  0.25382  1.0000
  Fe  Fe47      1.0  0.05976  0.72714  0.04734  1.0000
  H   H352      1.0  0.00351  0.55972  0.21093  1.0000
  C   C303      1.0  0.09249  0.72721  0.45436  1.0000
  C   C304      1.0  0.08042  0.58416  0.20187  1.0000
  C   C305      1.0  0.09046  0.56833  0.20674  1.0000
  C   C306      1.0  0.10160  0.56128  0.18538  1.0000
  C   C307      1.0  0.10310  0.57014  0.15909  1.0000
  C   C308      1.0  0.09335  0.58607  0.15425  1.0000
  C   C309      1.0  0.08184  0.59302  0.17556  1.0000
  H   H353      1.0  0.08946  0.56144  0.22705  1.0000
  H   H354      1.0  0.10917  0.54901  0.18928  1.0000
  H   H355      1.0  0.09440  0.59287  0.13393  1.0000
  H   H356      1.0  0.07401  0.60519  0.17168  1.0000
  H   H357      1.0  0.12469  0.70495  0.38294  1.0000
  C   C310      1.0  0.09690  0.66558  0.08257  1.0000
  C   C311      1.0  0.10060  0.65118  0.07371  1.0000
  H   H358      1.0  0.09449  0.49104  0.20746  1.0000
  H   H359      1.0  0.00404  0.69180  0.20478  1.0000
  C   C312      1.0  0.07708  0.71707  0.16679  1.0000
  C   C313      1.0  0.05146  0.54385  0.15585  1.0000
  H   H360      1.0  0.10514  0.64129  0.12696  1.0000
  C   C314      1.0  0.10519  0.66700  0.02759  1.0000
  C   C315      1.0  0.03839  0.54627  0.18043  1.0000
  H   H361      1.0  0.00424  0.63406  0.33344  1.0000
  H   H362      1.0  0.07697  0.69635  0.23017  1.0000
  H   H363      1.0  0.10701  0.69697  0.24956  1.0000
  H   H364      1.0  0.10797  0.64194  0.03738  1.0000
  S   S94       1.0  0.01152  0.65561  0.19211  1.0000
  C   C316      1.0  0.07466  0.70502  0.18961  1.0000
  H   H365      1.0  0.07368  0.71608  0.14839  1.0000
  H   H366      1.0  0.05045  0.50535  0.15945  1.0000
  Fe  Fe48      1.0  0.12760  0.50571  0.18765  1.0000
  H   H367      1.0  0.19191  0.50567  0.17499  1.0000
  H   H368      1.0  0.12484  0.62273  0.06793  1.0000
  H   H369      1.0  0.06073  0.57016  0.16568  1.0000
  C   C317      1.0  0.11548  0.66182  0.46243  1.0000
  C   C318      1.0  0.13901  0.69675  0.45232  1.0000
  H   H370      1.0  0.03346  0.55063  0.23135  1.0000
  H   H371      1.0  0.01027  0.71825  0.09228  1.0000
  Fe  Fe49      1.0  0.15714  0.50500  0.13518  1.0000
  C   C319      1.0  0.04874  0.61440  0.30506  1.0000
  C   C320      1.0  0.10135  0.68087  0.03694  1.0000
  C   C321      1.0  0.10870  0.72858  0.23487  1.0000
  C   C322      1.0  0.04215  0.60290  0.29768  1.0000
  H   H372      1.0  0.07009  0.63647  0.08613  1.0000
  C   C323      1.0  0.11993  0.62503  0.08845  1.0000
  C   C324      1.0  0.08481  0.62810  0.08672  1.0000
  C   C325      1.0  0.07931  0.70609  0.21329  1.0000
  C   C326      1.0  0.12889  0.70256  0.40226  1.0000
  C   C327      1.0  0.13975  0.71148  0.43475  1.0000
  H   H373      1.0  0.06574  0.52755  0.12982  1.0000
  H   H374      1.0  0.05910  0.55288  0.14210  1.0000
  C   C328      1.0  0.00692  0.61317  0.31704  1.0000
  C   C329      1.0  0.00193  0.71183  0.08532  1.0000
  C   C330      1.0  0.18116  0.48996  0.05187  1.0000
  H   H375      1.0  0.01546  0.67171  0.33208  1.0000
  H   H376      1.0  0.12376  0.67905  0.41253  1.0000
  H   H377      1.0  0.08182  0.61730  0.10225  1.0000
  H   H378      1.0  0.05302  0.59469  0.28672  1.0000
  H   H379      1.0  0.09962  0.70690  0.27698  1.0000
  H   H380      1.0  0.09312  0.66602  0.10348  1.0000
  H   H381      1.0  0.06912  0.69472  0.18906  1.0000
  H   H382      1.0  0.09414  0.69102  0.07152  1.0000
  H   H383      1.0  0.16885  0.48958  0.20669  1.0000
  H   H384      1.0  0.00432  0.72697  0.04590  1.0000
  C   C331      1.0  0.05548  0.52927  0.14844  1.0000
  N   N21       1.0  0.09981  0.63555  0.09231  1.0000
  H   H385      1.0  0.08169  0.72372  0.42165  1.0000
  H   H386      1.0  0.15967  0.50333  0.02735  1.0000
  C   C332      1.0  0.00419  0.68207  0.33589  1.0000
  Fe  Fe50      1.0  0.11294  0.50520  0.13893  1.0000
  C   C333      1.0  0.04399  0.57389  0.16961  1.0000
  H   H387      1.0  0.05801  0.55292  0.21176  1.0000
  H   H388      1.0  0.18132  0.49993  0.05995  1.0000
  C   C334      1.0  0.03407  0.51864  0.18939  1.0000
  C   C335      1.0  0.04691  0.51669  0.16519  1.0000
  H   H389      1.0  0.14371  0.72085  0.44091  1.0000
  C   C336      1.0  0.01205  0.56766  0.19446  1.0000
  H   H390      1.0  0.01721  0.59367  0.29601  1.0000
  H   H391      1.0  0.07517  0.73247  0.27236  1.0000
  C   C337      1.0  0.02980  0.53320  0.19694  1.0000
  H   H392      1.0  0.06466  0.61501  0.30016  1.0000
  S   S95       1.0  0.00347  0.72357  0.35403  1.0000
  C   C338      1.0  0.07295  0.73115  0.25300  1.0000
  C   C339      1.0  0.08664  0.71937  0.21477  1.0000
  S   S96       1.0  0.12493  0.49572  0.23161  1.0000
  C   C340      1.0  0.01417  0.62491  0.32391  1.0000
  S   S97       1.0  0.09109  0.49603  0.12480  1.0000
  H   H393      1.0  0.03990  0.63454  0.32338  1.0000
  C   C341      1.0  0.09485  0.70560  0.25912  1.0000
  H   H394      1.0  0.14294  0.69544  0.47137  1.0000
  H   H395      1.0  0.08117  0.70021  0.26753  1.0000
  H   H396      1.0  0.13469  0.72597  0.39656  1.0000
  C   C342      1.0  0.13460  0.71441  0.40984  1.0000
  N   N22       1.0  0.09081  0.72104  0.23998  1.0000
  H   H397      1.0  0.02756  0.50875  0.20244  1.0000
  C   C343      1.0  0.04168  0.55855  0.21447  1.0000
  H   H398      1.0  0.10107  0.67049  0.46530  1.0000
  S   S98       1.0  0.18906  0.49617  0.11480  1.0000
  S   S99       1.0  0.10175  0.73347  0.31390  1.0000
  H   H399      1.0  0.01990  0.53409  0.21600  1.0000
  H   H400      1.0  0.04013  0.56979  0.22101  1.0000
  H   H401      1.0  0.03869  0.57690  0.15036  1.0000
  C   C344      1.0  0.19762  0.49341  0.18357  1.0000
  H   H402      1.0  0.04071  0.58505  0.17695  1.0000
  H   H403      1.0  0.12192  0.72247  0.22212  1.0000
  C   C345      1.0  0.08823  0.73169  0.19138  1.0000
  S   S100      1.0  0.09005  0.73098  0.02272  1.0000
  H   H404      1.0  0.00157  0.70532  0.15893  1.0000
  C   C346      1.0  0.09635  0.72075  0.48029  1.0000
  C   C347      1.0  0.08162  0.69828  0.48216  1.0000
  H   H405      1.0  0.00217  0.65922  0.09389  1.0000
  C   C348      1.0  0.08381  0.73040  0.16770  1.0000
  C   C349      1.0  0.16901  0.49190  0.03347  1.0000
  H   H406      1.0  0.00418  0.69515  0.24557  1.0000
  H   H407      1.0  0.11369  0.65089  0.47818  1.0000
  S   S101      1.0  0.13647  0.48869  0.16042  1.0000
  H   H408      1.0  0.13884  0.71071  0.92739  1.0000
  H   H409      1.0  0.18291  0.69605  0.63041  1.0000
  C   C350      1.0  0.05288  0.68933  0.91690  1.0000
  C   C351      1.0  0.06788  0.67257  0.84491  1.0000
  H   H410      1.0  0.02372  0.67184  0.92253  1.0000
  C   C352      1.0  0.20972  0.72340  0.61830  1.0000
  H   H411      1.0  0.09565  0.53454  0.66051  1.0000
  C   C353      1.0  0.12243  0.57793  0.69780  1.0000
  Fe  Fe51      1.0  0.12372  0.50024  0.65803  1.0000
  S   S102      1.0  0.13845  0.52190  0.64165  1.0000
  H   H412      1.0  0.24455  0.65031  0.76554  1.0000
  C   C354      1.0  0.02868  0.68879  0.86009  1.0000
  Fe  Fe52      1.0  0.13798  0.68257  0.55779  1.0000
  S   S103      1.0  0.10773  0.69865  0.56229  1.0000
  S   S104      1.0  0.14447  0.65702  0.55613  1.0000
  C   C355      1.0  0.16655  0.67487  0.70403  1.0000
  H   H413      1.0  0.20719  0.63771  0.79333  1.0000
  S   S105      1.0  0.14814  0.69004  0.58880  1.0000
  S   S106      1.0  0.10249  0.66192  0.78518  1.0000
  Fe  Fe53      1.0  0.18134  0.57440  0.70388  1.0000
  S   S107      1.0  0.15641  0.58978  0.72682  1.0000
  S   S108      1.0  0.17782  0.54873  0.71280  1.0000
  Fe  Fe54      1.0  0.20335  0.60198  0.67548  1.0000
  S   S109      1.0  0.17995  0.61935  0.69543  1.0000
  S   S110      1.0  0.22975  0.61063  0.64536  1.0000
  Fe  Fe55      1.0  0.18079  0.60025  0.73243  1.0000
  S   S111      1.0  0.18042  0.60898  0.76868  1.0000
  Fe  Fe56      1.0  0.15769  0.60746  0.68796  1.0000
  S   S112      1.0  0.12862  0.62199  0.67698  1.0000
  S   S113      1.0  0.20608  0.58333  0.71317  1.0000
  S   S114      1.0  0.18094  0.59151  0.66428  1.0000
  S   S115      1.0  0.27400  0.70534  0.63274  1.0000
  S   S116      1.0  0.29052  0.68899  0.68803  1.0000
  Fe  Fe57      1.0  0.27260  0.68258  0.66374  1.0000
  S   S117      1.0  0.28153  0.65835  0.65376  1.0000
  S   S118      1.0  0.24252  0.69122  0.68769  1.0000
  H   H414      1.0  0.19273  0.68112  0.71073  1.0000
  C   C356      1.0  0.24309  0.62372  0.65084  1.0000
  C   C357      1.0  0.23360  0.63661  0.66306  1.0000
  C   C358      1.0  0.24496  0.64759  0.66411  1.0000
  C   C359      1.0  0.26585  0.64540  0.65359  1.0000
  C   C360      1.0  0.27517  0.63226  0.64229  1.0000
  C   C361      1.0  0.26386  0.62168  0.64053  1.0000
  H   H415      1.0  0.21753  0.63833  0.67100  1.0000
  H   H416      1.0  0.23765  0.65770  0.67293  1.0000
  H   H417      1.0  0.29124  0.63044  0.63418  1.0000
  H   H418      1.0  0.27129  0.61189  0.63094  1.0000
  C   C362      1.0  0.12362  0.64660  0.78248  1.0000
  C   C363      1.0  0.12376  0.63473  0.76960  1.0000
  C   C364      1.0  0.14118  0.62314  0.76543  1.0000
  C   C365      1.0  0.15833  0.62311  0.77477  1.0000
  C   C366      1.0  0.15802  0.63477  0.78826  1.0000
  C   C367      1.0  0.14076  0.64662  0.79183  1.0000
  H   H419      1.0  0.11053  0.63467  0.76237  1.0000
  H   H420      1.0  0.14121  0.61416  0.75520  1.0000
  H   H421      1.0  0.17113  0.63472  0.79579  1.0000
  H   H422      1.0  0.14063  0.65563  0.80218  1.0000
  C   C368      1.0  0.13888  0.64661  0.58914  1.0000
  C   C369      1.0  0.12402  0.65378  0.60780  1.0000
  C   C370      1.0  0.12027  0.64579  0.63461  1.0000
  C   C371      1.0  0.13210  0.63104  0.64300  1.0000
  C   C372      1.0  0.14687  0.62383  0.62431  1.0000
  C   C373      1.0  0.14999  0.63148  0.59725  1.0000
  H   H423      1.0  0.11528  0.66543  0.60152  1.0000
  H   H424      1.0  0.10852  0.65123  0.64893  1.0000
  H   H425      1.0  0.15574  0.61229  0.63054  1.0000
  H   H426      1.0  0.16131  0.62586  0.58276  1.0000
  C   C374      1.0  0.26304  0.64889  0.58299  1.0000
  H   H427      1.0  0.06973  0.54432  0.73821  1.0000
  S   S119      1.0  0.09863  0.71305  0.62802  1.0000
  H   H428      1.0  0.18381  0.69450  0.76763  1.0000
  C   C375      1.0  0.14810  0.52995  0.66203  1.0000
  C   C376      1.0  0.14537  0.52424  0.68969  1.0000
  C   C377      1.0  0.15436  0.53022  0.70512  1.0000
  C   C378      1.0  0.16564  0.54226  0.69310  1.0000
  C   C379      1.0  0.16758  0.54849  0.66559  1.0000
  C   C380      1.0  0.15898  0.54225  0.65010  1.0000
  H   H429      1.0  0.13649  0.51514  0.69907  1.0000
  H   H430      1.0  0.15261  0.52550  0.72644  1.0000
  H   H431      1.0  0.17635  0.55770  0.65610  1.0000
  H   H432      1.0  0.16111  0.54675  0.62868  1.0000
  H   H433      1.0  0.09308  0.70140  0.51435  1.0000
  H   H434      1.0  0.00542  0.68897  0.91177  1.0000
  H   H435      1.0  0.21922  0.66100  0.76784  1.0000
  H   H436      1.0  0.19949  0.63555  0.74023  1.0000
  S   S120      1.0  0.10048  0.49706  0.63783  1.0000
  C   C381      1.0  0.19470  0.68768  0.80459  1.0000
  H   H437      1.0  0.04097  0.71596  0.88023  1.0000
  C   C382      1.0  0.26981  0.60956  0.70637  1.0000
  C   C383      1.0  0.02337  0.48773  0.59732  1.0000
  H   H438      1.0  0.11231  0.58409  0.63601  1.0000
  H   H439      1.0  0.13058  0.58800  0.69213  1.0000
  S   S121      1.0  0.11576  0.68594  0.82948  1.0000
  C   C384      1.0  0.25073  0.60587  0.71749  1.0000
  H   H440      1.0  0.20569  0.66724  0.55162  1.0000
  H   H441      1.0  0.07711  0.68721  0.49325  1.0000
  S   S122      1.0  0.05027  0.49514  0.69155  1.0000
  H   H442      1.0  0.14473  0.70210  0.88110  1.0000
  S   S123      1.0  0.09824  0.71166  0.96128  1.0000
  H   H443      1.0  0.08168  0.71576  0.68208  1.0000
  C   C385      1.0  0.21920  0.71095  0.58021  1.0000
  C   C386      1.0  0.05377  0.67508  0.82889  1.0000
  C   C387      1.0  0.19597  0.66525  0.57195  1.0000
  C   C388      1.0  0.21150  0.68492  0.81631  1.0000
  S   S124      1.0  0.09476  0.70762  0.77875  1.0000
  H   H444      1.0  0.11634  0.69669  0.91716  1.0000
  C   C389      1.0  0.27450  0.62297  0.71045  1.0000
  C   C390      1.0  0.19309  0.65046  0.61768  1.0000
  H   H445      1.0  0.19250  0.63513  0.58140  1.0000
  H   H446      1.0  0.18980  0.66149  0.62524  1.0000
  H   H447      1.0  0.17821  0.64772  0.61795  1.0000
  H   H448      1.0  0.20051  0.64074  0.63229  1.0000
  C   C391      1.0  0.09153  0.71455  0.93003  1.0000
  H   H449      1.0  0.21464  0.62654  0.59529  1.0000
  Fe  Fe58      1.0  0.26033  0.69958  0.70941  1.0000
  C   C392      1.0  0.20764  0.63714  0.58161  1.0000
  H   H450      1.0  0.24321  0.68521  0.80963  1.0000
  Fe  Fe59      1.0  0.28919  0.71273  0.65960  1.0000
  H   H451      1.0  0.20148  0.71928  0.70522  1.0000
  C   C393      1.0  0.18978  0.68920  0.66968  1.0000
  C   C394      1.0  0.23134  0.65373  0.75551  1.0000
  N   N23       1.0  0.13554  0.66921  0.69454  1.0000
  C   C395      1.0  0.12244  0.67546  0.71769  1.0000
  C   C396      1.0  0.12329  0.67273  0.67359  1.0000
  C   C397      1.0  0.14104  0.65176  0.70275  1.0000
  C   C398      1.0  0.15416  0.67603  0.68562  1.0000
  C   C399      1.0  0.16070  0.68377  0.65874  1.0000
  H   H452      1.0  0.11869  0.67751  0.49897  1.0000
  H   H453      1.0  0.11928  0.68862  0.71305  1.0000
  H   H454      1.0  0.10768  0.67141  0.72393  1.0000
  H   H455      1.0  0.12933  0.67142  0.73568  1.0000
  H   H456      1.0  0.11842  0.68567  0.66661  1.0000
  H   H457      1.0  0.10928  0.66764  0.68114  1.0000
  H   H458      1.0  0.13173  0.66759  0.65606  1.0000
  H   H459      1.0  0.14993  0.64798  0.71891  1.0000
  H   H460      1.0  0.12741  0.64617  0.71042  1.0000
  H   H461      1.0  0.15007  0.64661  0.68549  1.0000
  H   H462      1.0  0.15223  0.68540  0.64341  1.0000
  C   C400      1.0  0.24542  0.67206  0.60017  1.0000
  H   H463      1.0  0.21171  0.62027  0.78067  1.0000
  C   C401      1.0  0.24461  0.64518  0.58303  1.0000
  H   H464      1.0  0.13443  0.57233  0.64873  1.0000
  H   H465      1.0  0.16274  0.66887  0.72471  1.0000
  H   H466      1.0  0.19256  0.67661  0.57862  1.0000
  C   C402      1.0  0.21864  0.63032  0.78048  1.0000
  H   H467      1.0  0.21101  0.65157  0.71909  1.0000
  C   C403      1.0  0.22591  0.65509  0.59123  1.0000
  C   C404      1.0  0.17833  0.69011  0.65099  1.0000
  H   H468      1.0  0.24589  0.68220  0.60750  1.0000
  H   H469      1.0  0.13402  0.56686  0.69816  1.0000
  C   C405      1.0  0.18389  0.68162  0.69619  1.0000
  H   H470      1.0  0.28913  0.62613  0.70090  1.0000
  C   C406      1.0  0.22691  0.66868  0.59975  1.0000
  H   H471      1.0  0.22168  0.61218  0.74089  1.0000
  C   C407      1.0  0.20675  0.64537  0.74030  1.0000
  C   C408      1.0  0.23629  0.61555  0.73280  1.0000
  C   C409      1.0  0.19682  0.69226  0.77672  1.0000
  C   C410      1.0  0.26344  0.66228  0.59157  1.0000
  H   H472      1.0  0.27773  0.66479  0.59248  1.0000
  Fe  Fe60      1.0  0.11204  0.68297  0.79041  1.0000
  H   H473      1.0  0.21657  0.63761  0.56090  1.0000
  H   H474      1.0  0.08539  0.56765  0.72649  1.0000
  C   C411      1.0  0.24047  0.62940  0.73717  1.0000
  H   H475      1.0  0.06586  0.69484  0.90471  1.0000
  H   H476      1.0  0.05813  0.67075  0.81053  1.0000
  Fe  Fe61      1.0  0.12537  0.71338  0.75889  1.0000
  H   H477      1.0  0.01525  0.71342  0.88702  1.0000
  C   C412      1.0  0.15854  0.70723  0.87704  1.0000
  C   C413      1.0  0.13174  0.66861  0.49178  1.0000
  H   H478      1.0  0.13822  0.71910  0.62701  1.0000
  C   C414      1.0  0.07479  0.72583  0.92293  1.0000
  C   C415      1.0  0.09707  0.71765  0.67765  1.0000
  C   C416      1.0  0.06263  0.67828  0.86841  1.0000
  C   C417      1.0  0.03560  0.50498  0.61567  1.0000
  C   C418      1.0  0.04275  0.68657  0.87677  1.0000
  H   H479      1.0  0.02794  0.72906  0.97284  1.0000
  Fe  Fe62      1.0  0.11950  0.70810  0.58979  1.0000
  H   H480      1.0  0.06769  0.50372  0.60648  1.0000
  H   H481      1.0  0.16401  0.70984  0.85507  1.0000
  S   S125      1.0  0.10866  0.73063  0.49473  1.0000
  S   S126      1.0  0.13297  0.72673  0.55728  1.0000
  C   C419      1.0  0.19201  0.50502  0.65329  1.0000
  C   C420      1.0  0.05923  0.48787  0.58841  1.0000
  S   S127      1.0  0.21588  0.72831  0.64507  1.0000
  H   H482      1.0  0.01330  0.69493  0.86525  1.0000
  H   H483      1.0  0.20991  0.68131  0.83782  1.0000
  Fe  Fe63      1.0  0.24477  0.71444  0.65842  1.0000
  H   H484      1.0  0.20316  0.69453  0.66357  1.0000
  H   H485      1.0  0.28080  0.60227  0.69391  1.0000
  C   C421      1.0  0.20310  0.51448  0.65867  1.0000
  H   H486      1.0  0.11402  0.57777  0.71864  1.0000
  S   S128      1.0  0.17120  0.68607  0.82568  1.0000
  H   H487      1.0  0.12813  0.59315  0.64700  1.0000
  H   H488      1.0  0.07455  0.52774  0.70537  1.0000
  S   S129      1.0  0.14226  0.68841  0.76804  1.0000
  H   H489      1.0  0.19482  0.65359  0.75108  1.0000
  H   H490      1.0  0.21340  0.67686  0.60608  1.0000
  H   H491      1.0  0.24545  0.63432  0.57703  1.0000
  H   H492      1.0  0.27711  0.64103  0.57718  1.0000
  N   N24       1.0  0.20610  0.65192  0.59059  1.0000
  S   S130      1.0  0.25613  0.69551  0.75387  1.0000
  Fe  Fe64      1.0  0.14441  0.69387  0.80597  1.0000
  N   N25       1.0  0.22470  0.63961  0.75304  1.0000
  H   H493      1.0  0.15213  0.72439  0.66218  1.0000
  H   H494      1.0  0.23191  0.62525  0.79032  1.0000
  S   S131      1.0  0.07856  0.72431  0.84568  1.0000
  H   H495      1.0  0.18878  0.50723  0.63343  1.0000
  C   C422      1.0  0.08365  0.72040  0.87811  1.0000
  C   C423      1.0  0.10898  0.71716  0.65213  1.0000
  C   C424      1.0  0.23032  0.68712  0.80039  1.0000
  S   S132      1.0  0.15278  0.69905  0.52302  1.0000
  C   C425      1.0  0.10377  0.70576  0.91150  1.0000
  C   C426      1.0  0.10007  0.70885  0.88551  1.0000
  H   H496      1.0  0.26463  0.64330  0.72696  1.0000
  C   C427      1.0  0.01966  0.49918  0.61253  1.0000
  S   S133      1.0  0.13489  0.72682  0.71668  1.0000
  H   H497      1.0  0.03277  0.51347  0.62818  1.0000
  H   H498      1.0  0.12996  0.65692  0.50538  1.0000
  C   C428      1.0  0.09063  0.70634  0.49422  1.0000
  C   C429      1.0  0.15280  0.71572  0.91816  1.0000
  Fe  Fe65      1.0  0.10129  0.71125  0.81624  1.0000
  C   C430      1.0  0.19838  0.50056  0.70509  1.0000
  S   S134      1.0  0.25982  0.72377  0.68272  1.0000
  H   H499      1.0  0.23540  0.66165  0.73564  1.0000
  H   H500      1.0  0.17052  0.69766  0.88498  1.0000
  C   C431      1.0  0.26009  0.63285  0.72546  1.0000
  H   H501      1.0  0.10994  0.70231  0.87122  1.0000
  H   H502      1.0  0.24697  0.59562  0.71376  1.0000
  H   H503      1.0  0.18137  0.66308  0.56990  1.0000
  N   N26       1.0  0.10911  0.57945  0.67892  1.0000
  C   C432      1.0  0.09292  0.59364  0.68102  1.0000
  C   C433      1.0  0.23249  0.69200  0.77264  1.0000
  C   C434      1.0  0.12148  0.58231  0.65143  1.0000
  C   C435      1.0  0.09996  0.56514  0.68580  1.0000
  C   C436      1.0  0.10251  0.55526  0.66755  1.0000
  C   C437      1.0  0.08786  0.56079  0.71151  1.0000
  C   C438      1.0  0.09330  0.54201  0.67467  1.0000
  C   C439      1.0  0.07882  0.54746  0.71843  1.0000
  C   C440      1.0  0.08151  0.53811  0.70001  1.0000
  H   H504      1.0  0.09921  0.60473  0.67493  1.0000
  H   H505      1.0  0.08207  0.59483  0.66795  1.0000
  H   H506      1.0  0.08421  0.59329  0.70178  1.0000
  C   C441      1.0  0.18984  0.72810  0.61388  1.0000
  C   C442      1.0  0.02929  0.71000  0.89527  1.0000
  C   C443      1.0  0.01970  0.68497  0.91957  1.0000
  H   H507      1.0  0.11182  0.55727  0.64777  1.0000
  H   H508      1.0  0.17850  0.73490  0.62672  1.0000
  H   H509      1.0  0.15214  0.49558  0.73412  1.0000
  C   C444      1.0  0.21581  0.69442  0.76068  1.0000
  H   H510      1.0  0.21744  0.69834  0.73926  1.0000
  H   H511      1.0  0.02325  0.68512  0.82392  1.0000
  H   H512      1.0  0.00811  0.49417  0.70153  1.0000
  C   C445      1.0  0.22437  0.71482  0.60142  1.0000
  C   C446      1.0  0.13674  0.72255  0.66650  1.0000
  C   C447      1.0  0.18452  0.72386  0.59307  1.0000
  H   H513      1.0  0.17977  0.72920  0.69080  1.0000
  H   H514      1.0  0.20865  0.52393  0.64301  1.0000
  H   H515      1.0  0.01591  0.68782  0.93969  1.0000
  Fe  Fe66      1.0  0.12325  0.71595  0.52947  1.0000
  C   C448      1.0  0.18720  0.49053  0.70020  1.0000
  H   H516      1.0  0.05831  0.67639  0.92359  1.0000
  H   H517      1.0  0.23979  0.71144  0.60435  1.0000
  H   H518      1.0  0.08307  0.66620  0.83891  1.0000
  C   C449      1.0  0.12487  0.72287  0.69211  1.0000
  S   S135      1.0  0.31778  0.72358  0.64367  1.0000
  H   H519      1.0  0.08774  0.73093  0.57338  1.0000
  Fe  Fe67      1.0  0.16089  0.70790  0.55425  1.0000
  C   C450      1.0  0.05530  0.49938  0.60356  1.0000
  H   H520      1.0  0.04786  0.69436  0.93517  1.0000
  C   C451      1.0  0.01201  0.72917  0.97553  1.0000
  H   H521      1.0  0.17652  0.71979  0.72551  1.0000
  C   C452      1.0  0.22346  0.73352  0.76390  1.0000
  C   C453      1.0  0.20619  0.51231  0.68453  1.0000
  H   H522      1.0  0.09571  0.72076  0.71724  1.0000
  C   C454      1.0  0.18625  0.72686  0.70906  1.0000
  C   C455      1.0  0.03419  0.68317  0.83646  1.0000
  C   C456      1.0  0.10503  0.72038  0.69763  1.0000
  H   H523      1.0  0.07448  0.67612  0.87951  1.0000
  C   C457      1.0  0.12890  0.71952  0.64661  1.0000
  S   S136      1.0  0.13038  0.71949  0.79518  1.0000
  C   C458      1.0  0.07081  0.72868  0.89706  1.0000
  H   H524      1.0  0.16914  0.72737  0.58990  1.0000
  H   H525      1.0  0.23068  0.70450  0.56694  1.0000
  H   H526      1.0  0.14574  0.67107  0.49512  1.0000
  H   H527      1.0  0.16581  0.70626  0.92344  1.0000
  C   C459      1.0  0.00573  0.71734  0.96835  1.0000
  C   C460      1.0  0.19925  0.71525  0.57621  1.0000
  S   S137      1.0  0.19325  0.70959  0.55011  1.0000
  C   C461      1.0  0.18401  0.49332  0.67372  1.0000
  S   S138      1.0  0.10552  0.49384  0.69946  1.0000
  N   N27       1.0  0.03643  0.69257  0.90174  1.0000
  H   H528      1.0  0.21401  0.52021  0.68888  1.0000
  H   H529      1.0  0.00441  0.50319  0.62268  1.0000
  H   H530      1.0  0.20086  0.49991  0.72472  1.0000
  H   H531      1.0  0.17461  0.73349  0.85609  1.0000
  H   H532      1.0  0.01687  0.70789  0.96112  1.0000
  H   H533      1.0  0.02572  0.71522  0.91322  1.0000
  C   C462      1.0  0.32664  0.73575  0.65838  1.0000
  N   N28       1.0  0.15453  0.72142  0.88873  1.0000
  H   H534      1.0  0.15254  0.72531  0.92819  1.0000
  H   H535      1.0  0.18195  0.72268  0.80768  1.0000
  C   C463      1.0  0.19120  0.72759  0.78901  1.0000
  H   H536      1.0  0.16850  0.73032  0.76694  1.0000
  Fe  Fe68      1.0  0.08394  0.48838  0.67925  1.0000
  C   C464      1.0  0.21114  0.72826  0.78822  1.0000
  C   C465      1.0  0.18358  0.73208  0.76547  1.0000
  H   H537      1.0  0.21736  0.72401  0.80624  1.0000
  H   H538      1.0  0.18629  0.72138  0.88325  1.0000
  H   H539      1.0  0.23926  0.73329  0.76316  1.0000
  H   H540      1.0  0.06509  0.73254  0.93717  1.0000
  H   H541      1.0  0.14351  0.73098  0.83926  1.0000
  C   C466      1.0  0.17213  0.72942  0.87824  1.0000
  C   C467      1.0  0.13633  0.73276  0.88122  1.0000
  C   C468      1.0  0.13312  0.73647  0.85456  1.0000
  Fe  Fe69      1.0  0.05539  0.81731  0.15008  1.0000
  Fe  Fe70      1.0  0.07447  0.75619  0.01161  1.0000
  S   S139      1.0  0.08635  0.77661  0.01575  1.0000
  Fe  Fe71      1.0  0.09161  0.79030  0.14978  1.0000
  S   S140      1.0  0.08721  0.81527  0.12645  1.0000
  S   S141      1.0  0.10520  0.76934  0.13035  1.0000
  Fe  Fe72      1.0  0.06932  0.80051  0.20177  1.0000
  S   S142      1.0  0.06303  0.82635  0.18173  1.0000
  S   S143      1.0  0.05365  0.79204  0.24402  1.0000
  H   H542      1.0  0.10435  0.74944  0.05254  1.0000
  Fe  Fe73      1.0  0.09570  0.82150  0.16046  1.0000
  S   S144      1.0  0.12145  0.83546  0.14764  1.0000
  S   S145      1.0  0.05961  0.79201  0.17168  1.0000
  S   S146      1.0  0.10226  0.79602  0.18240  1.0000
  H   H543      1.0  0.21973  0.89448  0.34525  1.0000
  C   C469      1.0  0.26138  0.87122  0.32488  1.0000
  Fe  Fe74      1.0  0.32456  0.86311  0.29301  1.0000
  C   C470      1.0  0.29388  0.98697  0.07939  1.0000
  H   H544      1.0  0.04740  0.78483  0.07773  1.0000
  C   C471      1.0  0.31398  0.92460  0.18776  1.0000
  H   H545      1.0  0.26104  0.94219  0.12775  1.0000
  H   H546      1.0  0.23629  0.96547  0.07179  1.0000
  Fe  Fe75      1.0  0.30922  0.89370  0.31207  1.0000
  S   S147      1.0  0.28155  0.90878  0.33079  1.0000
  H   H547      1.0  0.03133  0.78942  0.13258  1.0000
  H   H548      1.0  0.01687  0.77945  0.26315  1.0000
  H   H549      1.0  0.26950  0.83110  0.33474  1.0000
  C   C472      1.0  0.24500  0.84721  0.31810  1.0000
  N   N29       1.0  0.23477  0.89252  0.30513  1.0000
  H   H550      1.0  0.23917  0.83786  0.31458  1.0000
  C   C473      1.0  0.26878  0.94193  0.06190  1.0000
  H   H551      1.0  0.13561  0.77865  0.05578  1.0000
  C   C474      1.0  0.27028  0.85533  0.33276  1.0000
  H   H552      1.0  0.31526  0.97781  0.04750  1.0000
  S   S148      1.0  0.31894  0.86878  0.33346  1.0000
  H   H553      1.0  0.24373  0.90059  0.33501  1.0000
  H   H554      1.0  0.22269  0.91315  0.32239  1.0000
  C   C475      1.0  0.00332  0.77642  0.25942  1.0000
  Fe  Fe76      1.0  0.22681  0.86738  0.21071  1.0000
  S   S149      1.0  0.19859  0.88031  0.23230  1.0000
  S   S150      1.0  0.24169  0.84450  0.23432  1.0000
  Fe  Fe77      1.0  0.22399  0.89133  0.15843  1.0000
  S   S151      1.0  0.19521  0.90610  0.17628  1.0000
  S   S152      1.0  0.23966  0.90048  0.11642  1.0000
  Fe  Fe78      1.0  0.21095  0.90234  0.21045  1.0000
  S   S153      1.0  0.21501  0.91925  0.23327  1.0000
  Fe  Fe79      1.0  0.18575  0.88246  0.19600  1.0000
  S   S154      1.0  0.15433  0.87629  0.20513  1.0000
  S   S155      1.0  0.24012  0.88903  0.19139  1.0000
  S   S156      1.0  0.21355  0.86806  0.17557  1.0000
  H   H555      1.0  0.28821  0.82853  0.15749  1.0000
  H   H556      1.0  0.14349  0.79267  0.08415  1.0000
  C   C476      1.0  0.22271  0.94282  0.18827  1.0000
  C   C477      1.0  0.22419  0.93660  0.21507  1.0000
  H   H557      1.0  0.21562  0.93703  0.17843  1.0000
  C   C478      1.0  0.04981  0.75572  0.10942  1.0000
  H   H558      1.0  0.28491  0.91143  0.39609  1.0000
  H   H559      1.0  0.25305  0.97196  0.11623  1.0000
  N   N30       1.0  0.26224  0.94959  0.08523  1.0000
  H   H560      1.0  0.26340  0.90036  0.28986  1.0000
  H   H561      1.0  0.04212  0.77016  0.15066  1.0000
  H   H562      1.0  0.25888  0.92716  0.11240  1.0000
  H   H563      1.0  0.01506  0.81238  0.18563  1.0000
  C   C479      1.0  0.22995  0.95678  0.17439  1.0000
  C   C480      1.0  0.24939  0.90040  0.28325  1.0000
  C   C481      1.0  0.24003  0.95534  0.08843  1.0000
  C   C482      1.0  0.23593  0.86307  0.31014  1.0000
  H   H564      1.0  0.23199  0.94582  0.08887  1.0000
  C   C483      1.0  0.32693  0.91397  0.45738  1.0000
  H   H565      1.0  0.31428  0.93490  0.19574  1.0000
  C   C484      1.0  0.27282  0.96272  0.08230  1.0000
  C   C485      1.0  0.04121  0.77779  0.13047  1.0000
  H   H566      1.0  0.20896  0.90787  0.28998  1.0000
  H   H567      1.0  0.08570  0.73982  0.14995  1.0000
  C   C486      1.0  0.30118  0.87032  0.09037  1.0000
  C   C487      1.0  0.28558  0.86297  0.10743  1.0000
  C   C488      1.0  0.26665  0.87213  0.11599  1.0000
  C   C489      1.0  0.26304  0.88856  0.10636  1.0000
  C   C490      1.0  0.27831  0.89571  0.08825  1.0000
  C   C491      1.0  0.29738  0.88669  0.08060  1.0000
  H   H568      1.0  0.28821  0.85027  0.11441  1.0000
  H   H569      1.0  0.25481  0.86648  0.12968  1.0000
  H   H570      1.0  0.27565  0.90831  0.08065  1.0000
  H   H571      1.0  0.30773  0.84167  0.21760  1.0000
  C   C492      1.0  0.28958  0.88069  0.18605  1.0000
  C   C493      1.0  0.24379  0.87559  0.31355  1.0000
  C   C494      1.0  0.29543  0.88180  0.15857  1.0000
  C   C495      1.0  0.30088  0.90835  0.15286  1.0000
  H   H572      1.0  0.22831  0.96172  0.15392  1.0000
  H   H573      1.0  0.28198  0.83353  0.20279  1.0000
  H   H574      1.0  0.30334  0.95130  0.25732  1.0000
  H   H575      1.0  0.23401  0.93982  0.24859  1.0000
  H   H576      1.0  0.10574  0.74138  0.22520  1.0000
  Fe  Fe80      1.0  0.03739  0.74684  0.00348  1.0000
  H   H577      1.0  0.28464  0.93520  0.06052  1.0000
  H   H578      1.0  0.02908  0.75250  0.27899  1.0000
  H   H579      1.0  0.26863  0.88006  0.32729  1.0000
  C   C496      1.0  0.26209  0.84336  0.32945  1.0000
  H   H580      1.0  0.26753  0.95082  0.04287  1.0000
  S   S157      1.0  0.32564  0.85928  0.08230  1.0000
  S   S158      1.0  0.04482  0.75252  0.03820  1.0000
  C   C497      1.0  0.28252  0.92859  0.31533  1.0000
  C   C498      1.0  0.29375  0.93247  0.28941  1.0000
  C   C499      1.0  0.27367  0.95639  0.31714  1.0000
  C   C500      1.0  0.27231  0.94055  0.32910  1.0000
  H   H581      1.0  0.30177  0.92325  0.27876  1.0000
  C   C501      1.0  0.00186  0.77021  0.14948  1.0000
  H   H582      1.0  0.11522  0.75493  0.26512  1.0000
  C   C502      1.0  0.29448  0.84368  0.27241  1.0000
  C   C503      1.0  0.28892  0.82970  0.27195  1.0000
  C   C504      1.0  0.27247  0.83023  0.26075  1.0000
  C   C505      1.0  0.26145  0.84475  0.24954  1.0000
  C   C506      1.0  0.26674  0.85886  0.25017  1.0000
  C   C507      1.0  0.28330  0.85833  0.26158  1.0000
  H   H583      1.0  0.29745  0.81835  0.28026  1.0000
  H   H584      1.0  0.26850  0.81929  0.26037  1.0000
  H   H585      1.0  0.25809  0.87013  0.24186  1.0000
  H   H586      1.0  0.28735  0.86917  0.26205  1.0000
  C   C508      1.0  0.13028  0.84660  0.16437  1.0000
  C   C509      1.0  0.14873  0.85176  0.15263  1.0000
  C   C510      1.0  0.15639  0.86071  0.16492  1.0000
  C   C511      1.0  0.14554  0.86477  0.18902  1.0000
  C   C512      1.0  0.12716  0.85953  0.20086  1.0000
  C   C513      1.0  0.11960  0.85043  0.18871  1.0000
  H   H587      1.0  0.15712  0.84892  0.13380  1.0000
  H   H588      1.0  0.17048  0.86471  0.15550  1.0000
  H   H589      1.0  0.11864  0.86259  0.21950  1.0000
  H   H590      1.0  0.10540  0.84656  0.19801  1.0000
  C   C514      1.0  0.08843  0.77152  0.25546  1.0000
  C   C515      1.0  0.06765  0.77645  0.26385  1.0000
  C   C516      1.0  0.05762  0.76863  0.28830  1.0000
  H   H591      1.0  0.13472  0.83623  0.02352  1.0000
  H   H592      1.0  0.09628  0.77763  0.23677  1.0000
  H   H593      1.0  0.04166  0.77265  0.29511  1.0000
  C   C517      1.0  0.32413  0.88049  0.40240  1.0000
  C   C518      1.0  0.09163  0.77436  0.04760  1.0000
  C   C519      1.0  0.08710  0.78756  0.05913  1.0000
  C   C520      1.0  0.09103  0.78606  0.08455  1.0000
  C   C521      1.0  0.10017  0.77146  0.09833  1.0000
  C   C522      1.0  0.10514  0.75829  0.08653  1.0000
  C   C523      1.0  0.10058  0.75967  0.06141  1.0000
  H   H594      1.0  0.08032  0.79898  0.04850  1.0000
  H   H595      1.0  0.08710  0.79630  0.09325  1.0000
  H   H596      1.0  0.11226  0.74694  0.09697  1.0000
  N   N31       1.0  0.17912  0.82872  0.24334  1.0000
  C   C524      1.0  0.19379  0.81740  0.25877  1.0000
  C   C525      1.0  0.19097  0.83587  0.21733  1.0000
  C   C526      1.0  0.16890  0.84162  0.25772  1.0000
  C   C527      1.0  0.16376  0.82056  0.24063  1.0000
  C   C528      1.0  0.15953  0.82086  0.21549  1.0000
  C   C529      1.0  0.15191  0.81245  0.26374  1.0000
  C   C530      1.0  0.14454  0.81335  0.21379  1.0000
  C   C531      1.0  0.13695  0.80499  0.26180  1.0000
  C   C532      1.0  0.13325  0.80547  0.23686  1.0000
  H   H597      1.0  0.20612  0.82308  0.25992  1.0000
  H   H598      1.0  0.18669  0.81272  0.27974  1.0000
  H   H599      1.0  0.20104  0.80712  0.24924  1.0000
  H   H600      1.0  0.19895  0.82685  0.20528  1.0000
  H   H601      1.0  0.20278  0.84146  0.22014  1.0000
  H   H602      1.0  0.18123  0.84547  0.20539  1.0000
  H   H603      1.0  0.16163  0.83709  0.27868  1.0000
  H   H604      1.0  0.17962  0.84894  0.25837  1.0000
  H   H605      1.0  0.15679  0.84976  0.24764  1.0000
  H   H606      1.0  0.16724  0.82712  0.19682  1.0000
  H   H607      1.0  0.15389  0.81204  0.28355  1.0000
  H   H608      1.0  0.14130  0.81398  0.19444  1.0000
  H   H609      1.0  0.12795  0.79898  0.27972  1.0000
  H   H610      1.0  0.12141  0.79992  0.23541  1.0000
  S   S159      1.0  0.29398  0.96784  0.20641  1.0000
  Fe  Fe81      1.0  0.31886  0.97970  0.17951  1.0000
  H   H611      1.0  0.20409  0.88927  0.31070  1.0000
  C   C533      1.0  0.30816  0.89098  0.39203  1.0000
  H   H612      1.0  0.29804  0.95684  0.04975  1.0000
  C   C534      1.0  0.26646  0.93737  0.10932  1.0000
  H   H613      1.0  0.29333  0.91480  0.43631  1.0000
  H   H614      1.0  0.21840  0.89056  0.27669  1.0000
  H   H615      1.0  0.32335  0.91399  0.19827  1.0000
  S   S160      1.0  0.32797  0.92999  0.08415  1.0000
  H   H616      1.0  0.28402  0.85225  0.34071  1.0000
  H   H617      1.0  0.05003  0.74638  0.12811  1.0000
  H   H618      1.0  0.06024  0.74940  0.32261  1.0000
  H   H619      1.0  0.23317  0.95917  0.10757  1.0000
  H   H620      1.0  0.01836  0.74521  0.25794  1.0000
  H   H621      1.0  0.02133  0.79207  0.09049  1.0000
  C   C535      1.0  0.23310  0.94437  0.22777  1.0000
  H   H622      1.0  0.24801  0.96381  0.22350  1.0000
  S   S161      1.0  0.00543  0.75519  0.99717  1.0000
  C   C536      1.0  0.08892  0.75062  0.29561  1.0000
  H   H623      1.0  0.25379  0.89444  0.26606  1.0000
  C   C537      1.0  0.29725  0.90327  0.40446  1.0000
  C   C538      1.0  0.29094  0.96477  0.06315  1.0000
  S   S162      1.0  0.02882  0.82428  0.12909  1.0000
  H   H624      1.0  0.01320  0.73838  0.29376  1.0000
  C   C539      1.0  0.31904  0.95094  0.11659  1.0000
  H   H625      1.0  0.05653  0.78053  0.12130  1.0000
  H   H626      1.0  0.22312  0.86516  0.30076  1.0000
  H   H627      1.0  0.31129  0.96717  0.14282  1.0000
  H   H628      1.0  0.30433  0.88969  0.37415  1.0000
  C   C540      1.0  0.23942  0.96427  0.18684  1.0000
  C   C541      1.0  0.32312  0.95863  0.13403  1.0000
  H   H629      1.0  0.32060  0.83209  0.12628  1.0000
  H   H630      1.0  0.28299  0.93262  0.10757  1.0000
  C   C542      1.0  0.24097  0.95801  0.21361  1.0000
  S   S163      1.0  0.25001  0.98092  0.16811  1.0000
  H   H631      1.0  0.24284  0.91303  0.27563  1.0000
  H   H632      1.0  0.26369  0.93756  0.34917  1.0000
  C   C543      1.0  0.01431  0.76529  0.12622  1.0000
  C   C544      1.0  0.26603  0.97318  0.10021  1.0000
  C   C545      1.0  0.21574  0.89504  0.29531  1.0000
  S   S164      1.0  0.31221  0.88761  0.27274  1.0000
  C   C546      1.0  0.23002  0.90048  0.32794  1.0000
  H   H633      1.0  0.00722  0.77471  0.23851  1.0000
  C   C547      1.0  0.03272  0.78112  0.08783  1.0000
  H   H634      1.0  0.12611  0.79269  0.01249  1.0000
  H   H635      1.0  0.25934  0.93315  0.06332  1.0000
  C   C548      1.0  0.29635  0.83482  0.18945  1.0000
  N   N32       1.0  0.29320  0.92196  0.19117  1.0000
  C   C549      1.0  0.28134  0.93615  0.17621  1.0000
  C   C550      1.0  0.28361  0.92042  0.21993  1.0000
  H   H636      1.0  0.02841  0.77583  0.07372  1.0000
  C   C551      1.0  0.29413  0.90793  0.18059  1.0000
  H   H637      1.0  0.26601  0.93415  0.17706  1.0000
  H   H638      1.0  0.27960  0.94682  0.18431  1.0000
  H   H639      1.0  0.28857  0.93944  0.15493  1.0000
  H   H640      1.0  0.26798  0.91814  0.22372  1.0000
  H   H641      1.0  0.28239  0.93145  0.22690  1.0000
  H   H642      1.0  0.29267  0.91082  0.23274  1.0000
  H   H643      1.0  0.29307  0.90266  0.48228  1.0000
  H   H644      1.0  0.06514  0.75862  0.10229  1.0000
  C   C552      1.0  0.30234  0.90515  0.42729  1.0000
  H   H645      1.0  0.30623  0.91852  0.13920  1.0000
  N   N33       1.0  0.14581  0.82518  0.07254  1.0000
  C   C553      1.0  0.16417  0.83158  0.05743  1.0000
  C   C554      1.0  0.12912  0.83863  0.07787  1.0000
  C   C555      1.0  0.15018  0.81557  0.09879  1.0000
  C   C556      1.0  0.14025  0.81607  0.05657  1.0000
  C   C557      1.0  0.13504  0.82370  0.03131  1.0000
  C   C558      1.0  0.14026  0.79952  0.06502  1.0000
  C   C559      1.0  0.13001  0.81534  0.01565  1.0000
  C   C560      1.0  0.13567  0.79124  0.04888  1.0000
  C   C561      1.0  0.13036  0.79913  0.02441  1.0000
  H   H646      1.0  0.16164  0.84004  0.03841  1.0000
  H   H647      1.0  0.16916  0.83814  0.06917  1.0000
  H   H648      1.0  0.17694  0.82187  0.05235  1.0000
  H   H649      1.0  0.12593  0.84733  0.05939  1.0000
  H   H650      1.0  0.13258  0.84541  0.09063  1.0000
  H   H651      1.0  0.11488  0.83439  0.08864  1.0000
  H   H652      1.0  0.16311  0.80553  0.09645  1.0000
  H   H653      1.0  0.15431  0.82274  0.11031  1.0000
  H   H654      1.0  0.13668  0.81087  0.11167  1.0000
  C   C562      1.0  0.28469  0.96032  0.29111  1.0000
  C   C563      1.0  0.09913  0.75873  0.27155  1.0000
  H   H655      1.0  0.28510  0.86991  0.19868  1.0000
  C   C564      1.0  0.29459  0.94836  0.27719  1.0000
  C   C565      1.0  0.28882  0.89354  0.19710  1.0000
  H   H656      1.0  0.28384  0.89196  0.21848  1.0000
  C   C566      1.0  0.06816  0.75557  0.30397  1.0000
  H   H657      1.0  0.26602  0.96562  0.32796  1.0000
  H   H658      1.0  0.30913  0.89246  0.06718  1.0000
  C   C567      1.0  0.30099  0.89565  0.14206  1.0000
  H   H659      1.0  0.30561  0.89656  0.12069  1.0000
  H   H660      1.0  0.29572  0.87191  0.15005  1.0000
  C   C568      1.0  0.29983  0.83199  0.16391  1.0000
  H   H661      1.0  0.30412  0.95357  0.11221  1.0000
  Fe  Fe82      1.0  0.27373  0.98740  0.18376  1.0000
  N   N34       1.0  0.03415  0.76994  0.11386  1.0000
  C   C569      1.0  0.00670  0.75582  0.11462  1.0000
  H   H662      1.0  0.31258  0.92272  0.45677  1.0000
  S   S165      1.0  0.31573  0.84195  0.28627  1.0000
  H   H663      1.0  0.09284  0.74251  0.19098  1.0000
  Fe  Fe83      1.0  0.29156  0.98500  0.23183  1.0000
  H   H664      1.0  0.00541  0.76930  0.31030  1.0000
  H   H665      1.0  0.04768  0.75037  0.09384  1.0000
  C   C570      1.0  0.30117  0.97678  0.06174  1.0000
  C   C571      1.0  0.31124  0.83939  0.19775  1.0000
  C   C572      1.0  0.01523  0.74896  0.27727  1.0000
  N   N35       1.0  0.32416  0.89738  0.46196  1.0000
  H   H666      1.0  0.32172  0.92689  0.16642  1.0000
  C   C573      1.0  0.31890  0.89492  0.43803  1.0000
  H   H667      1.0  0.09674  0.73841  0.44347  1.0000
  S   S166      1.0  0.28645  0.98016  0.27653  1.0000
  H   H668      1.0  0.01505  0.75202  0.09649  1.0000
  C   C574      1.0  0.00691  0.81679  0.14728  1.0000
  H   H669      1.0  0.00594  0.77794  0.15914  1.0000
  C   C575      1.0  0.31808  0.83394  0.14642  1.0000
  C   C576      1.0  0.27635  0.98516  0.09859  1.0000
  C   C577      1.0  0.32962  0.88242  0.42492  1.0000
  C   C578      1.0  0.00393  0.81166  0.17507  1.0000
  H   H670      1.0  0.12569  0.82145  0.99668  1.0000
  H   H671      1.0  0.32102  0.96567  0.30911  1.0000
  H   H672      1.0  0.06993  0.74329  0.24034  1.0000
  C   C579      1.0  0.33017  0.84120  0.18065  1.0000
  H   H673      1.0  0.32469  0.86368  0.20908  1.0000
  S   S167      1.0  0.06564  0.75318  0.97521  1.0000
  H   H674      1.0  0.20236  0.76162  0.69634  1.0000
  H   H675      1.0  0.15547  0.74537  0.73355  1.0000
  N   N36       1.0  0.18745  0.74176  0.71555  1.0000
  H   H676      1.0  0.31327  0.75351  0.59773  1.0000
  C   C580      1.0  0.08020  0.74201  0.56135  1.0000
  H   H677      1.0  0.12224  0.75401  0.62707  1.0000
  H   H678      1.0  0.16985  0.74008  0.88669  1.0000
  H   H679      1.0  0.14654  0.76440  0.58723  1.0000
  C   C581      1.0  0.16689  0.75175  0.71901  1.0000
  H   H680      1.0  0.10634  0.76645  0.53666  1.0000
  C   C582      1.0  0.11607  0.74716  0.84715  1.0000
  H   H681      1.0  0.16683  0.76259  0.72571  1.0000
  H   H682      1.0  0.11335  0.74920  0.82707  1.0000
  C   C583      1.0  0.13205  0.76293  0.58505  1.0000
  H   H683      1.0  0.32988  0.97208  0.64477  1.0000
  C   C584      1.0  0.06491  0.76958  0.55896  1.0000
  N   N37       1.0  0.07547  0.75522  0.57540  1.0000
  H   H684      1.0  0.31244  0.75745  0.70657  1.0000
  H   H685      1.0  0.09047  0.74453  0.54155  1.0000
  H   H686      1.0  0.04980  0.76812  0.55747  1.0000
  C   C585      1.0  0.12195  0.74109  0.89953  1.0000
  C   C586      1.0  0.10887  0.76416  0.55680  1.0000
  H   H687      1.0  0.31408  0.78742  0.64081  1.0000
  H   H688      1.0  0.09395  0.75769  0.90634  1.0000
  H   H689      1.0  0.19330  0.75400  0.67406  1.0000
  C   C587      1.0  0.11835  0.75706  0.60745  1.0000
  C   C588      1.0  0.32022  0.76272  0.59967  1.0000
  H   H690      1.0  0.32725  0.90016  0.89513  1.0000
  C   C589      1.0  0.20015  0.75061  0.69221  1.0000
  C   C590      1.0  0.32110  0.78212  0.62379  1.0000
  H   H691      1.0  0.16101  0.75545  0.70007  1.0000
  C   C591      1.0  0.09989  0.75465  0.60472  1.0000
  C   C592      1.0  0.12729  0.76653  0.55978  1.0000
  H   H692      1.0  0.05735  0.76016  0.61286  1.0000
  H   H693      1.0  0.06638  0.73947  0.55760  1.0000
  H   H694      1.0  0.08857  0.76276  0.86010  1.0000
  H   H695      1.0  0.13819  0.77073  0.54231  1.0000
  H   H696      1.0  0.05799  0.73756  0.89158  1.0000
  H   H697      1.0  0.09036  0.74961  0.62289  1.0000
  H   H698      1.0  0.31021  0.97972  0.67011  1.0000
  C   C593      1.0  0.09454  0.75818  0.57921  1.0000
  H   H699      1.0  0.29829  0.76766  0.63433  1.0000
  C   C594      1.0  0.10511  0.75193  0.89177  1.0000
  C   C595      1.0  0.31178  0.77075  0.62032  1.0000
  C   C596      1.0  0.21590  0.73824  0.74028  1.0000
  C   C597      1.0  0.10207  0.75483  0.86573  1.0000
  C   C598      1.0  0.32144  0.98314  0.65159  1.0000
  H   H700      1.0  0.04666  0.74927  0.59743  1.0000
  H   H701      1.0  0.21520  0.74327  0.68621  1.0000
  H   H702      1.0  0.29967  0.73964  0.68815  1.0000
  H   H703      1.0  0.07330  0.77231  0.53798  1.0000
  C   C599      1.0  0.31465  0.74226  0.67979  1.0000
  C   C600      1.0  0.06111  0.75088  0.60091  1.0000
  H   H704      1.0  0.30484  0.88214  0.48913  1.0000
  C   C601      1.0  0.32193  0.75241  0.69012  1.0000
  H   H705      1.0  0.12296  0.73912  0.92024  1.0000
  H   H706      1.0  0.06269  0.78013  0.56765  1.0000
  H   H707      1.0  0.31107  0.89598  0.50381  1.0000
  H   H708      1.0  0.32300  0.81233  0.62821  1.0000
  H   H709      1.0  0.22650  0.74174  0.72214  1.0000
  C   C602      1.0  0.30754  0.89444  0.48530  1.0000
  H   H710      1.0  0.06731  0.73936  0.61334  1.0000
  C   C603      1.0  0.19557  0.73779  0.74039  1.0000
  H   H711      1.0  0.40710  0.13464  0.23938  1.0000
  Fe  Fe84      1.0  0.50582  0.12937  0.23187  1.0000
  S   S168      1.0  0.52673  0.12894  0.25825  1.0000
  S   S169      1.0  0.47391  0.12607  0.24725  1.0000
  Fe  Fe85      1.0  0.53687  0.13499  0.18106  1.0000
  S   S170      1.0  0.56080  0.13527  0.20249  1.0000
  S   S171      1.0  0.54445  0.13668  0.13677  1.0000
  Fe  Fe86      1.0  0.54969  0.11436  0.23164  1.0000
  Fe  Fe87      1.0  0.53589  0.14986  0.22690  1.0000
  S   S172      1.0  0.53888  0.17285  0.23458  1.0000
  S   S173      1.0  0.52783  0.11293  0.20815  1.0000
  S   S174      1.0  0.51284  0.15147  0.20278  1.0000
  Fe  Fe88      1.0  0.41031  0.10540  0.17146  1.0000
  S   S175      1.0  0.39703  0.09595  0.14583  1.0000
  S   S176      1.0  0.44310  0.10737  0.15939  1.0000
  Fe  Fe89      1.0  0.36968  0.11547  0.20571  1.0000
  S   S177      1.0  0.35260  0.10713  0.18261  1.0000
  S   S178      1.0  0.35330  0.12992  0.23660  1.0000
  Fe  Fe90      1.0  0.37747  0.08568  0.18409  1.0000
  S   S179      1.0  0.37439  0.06021  0.18938  1.0000
  Fe  Fe91      1.0  0.37346  0.11795  0.14622  1.0000
  S   S180      1.0  0.36346  0.13188  0.10803  1.0000
  S   S181      1.0  0.39314  0.09310  0.21016  1.0000
  S   S182      1.0  0.38812  0.12828  0.16900  1.0000
  Fe  Fe92      1.0  0.54903  0.21915  0.36600  1.0000
  S   S183      1.0  0.57492  0.19879  0.37210  1.0000
  C   C604      1.0  0.35276  0.21079  0.45289  1.0000
  Fe  Fe93      1.0  0.51758  0.19986  0.39899  1.0000
  S   S184      1.0  0.54062  0.17788  0.40850  1.0000
  S   S185      1.0  0.48391  0.20220  0.41265  1.0000
  Fe  Fe94      1.0  0.55851  0.19394  0.41489  1.0000
  S   S186      1.0  0.57684  0.18597  0.44760  1.0000
  Fe  Fe95      1.0  0.55498  0.18445  0.36514  1.0000
  S   S187      1.0  0.56647  0.16440  0.34344  1.0000
  S   S188      1.0  0.53403  0.21542  0.40938  1.0000
  S   S189      1.0  0.53048  0.20533  0.35502  1.0000
  Fe  Fe96      1.0  0.41508  0.17464  0.31532  1.0000
  S   S190      1.0  0.38293  0.17107  0.32718  1.0000
  Fe  Fe97      1.0  0.42479  0.15661  0.36943  1.0000
  S   S191      1.0  0.39380  0.15102  0.38568  1.0000
  S   S192      1.0  0.44959  0.14773  0.39312  1.0000
  Fe  Fe98      1.0  0.39598  0.14612  0.34530  1.0000
  S   S193      1.0  0.39028  0.12397  0.33780  1.0000
  Fe  Fe99      1.0  0.38355  0.17644  0.36638  1.0000
  H   H712      1.0  0.35673  0.18196  0.09891  1.0000
  S   S194      1.0  0.42805  0.14934  0.33097  1.0000
  S   S195      1.0  0.41454  0.18238  0.35250  1.0000
  H   H713      1.0  0.57408  0.09256  0.11372  1.0000
  H   H714      1.0  0.46088  0.17099  0.34202  1.0000
  H   H715      1.0  0.57442  0.11866  0.27331  1.0000
  C   C605      1.0  0.42791  0.21485  0.24064  1.0000
  H   H716      1.0  0.37232  0.15857  0.12910  1.0000
  C   C606      1.0  0.40294  0.17416  0.20778  1.0000
  C   C607      1.0  0.48217  0.17941  0.01549  1.0000
  Fe  Fe100     1.0  0.41806  0.19077  0.00459  1.0000
  S   S196      1.0  0.42755  0.21081  0.01344  1.0000
  S   S197      1.0  0.43095  0.16631  0.02603  1.0000
  C   C608      1.0  0.53318  0.06712  0.11851  1.0000
  S   S198      1.0  0.51515  0.22394  0.00940  1.0000
  H   H717      1.0  0.48216  0.20940  0.00965  1.0000
  C   C609      1.0  0.42323  0.23038  0.28186  1.0000
  C   C610      1.0  0.58939  0.06475  0.22838  1.0000
  C   C611      1.0  0.56315  0.22408  0.48175  1.0000
  H   H718      1.0  0.35711  0.08311  0.14459  1.0000
  H   H719      1.0  0.38073  0.22794  0.36365  1.0000
  H   H720      1.0  0.58539  0.99438  0.24042  1.0000
  H   H721      1.0  0.42323  0.13785  0.44425  1.0000
  H   H722      1.0  0.44510  0.21432  0.47246  1.0000
  H   H723      1.0  0.46533  0.18234  0.46311  1.0000
  S   S199      1.0  0.37837  0.23592  0.04859  1.0000
  C   C612      1.0  0.48680  0.14764  0.32226  1.0000
  Fe  Fe101     1.0  0.60641  0.99412  0.18194  1.0000
  C   C613      1.0  0.47472  0.18712  0.40648  1.0000
  C   C614      1.0  0.45493  0.19009  0.40227  1.0000
  C   C615      1.0  0.44703  0.17795  0.39859  1.0000
  C   C616      1.0  0.45888  0.16282  0.39907  1.0000
  C   C617      1.0  0.47851  0.15975  0.40387  1.0000
  C   C618      1.0  0.48653  0.17194  0.40724  1.0000
  H   H724      1.0  0.44571  0.20180  0.40171  1.0000
  H   H725      1.0  0.43165  0.18024  0.39591  1.0000
  H   H726      1.0  0.48763  0.14798  0.40469  1.0000
  H   H727      1.0  0.50170  0.16950  0.41092  1.0000
  S   S200      1.0  0.57019  0.09178  0.24696  1.0000
  C   C619      1.0  0.38258  0.14064  0.08454  1.0000
  C   C620      1.0  0.40268  0.13627  0.08787  1.0000
  C   C621      1.0  0.41759  0.14387  0.06941  1.0000
  C   C622      1.0  0.41238  0.15611  0.04796  1.0000
  C   C623      1.0  0.39236  0.16017  0.04437  1.0000
  C   C624      1.0  0.37753  0.15241  0.06253  1.0000
  H   H728      1.0  0.40674  0.12713  0.10473  1.0000
  H   H729      1.0  0.43309  0.14040  0.07205  1.0000
  H   H730      1.0  0.38831  0.16917  0.02744  1.0000
  H   H731      1.0  0.36203  0.15576  0.05978  1.0000
  C   C625      1.0  0.36363  0.12790  0.26484  1.0000
  C   C626      1.0  0.37908  0.11524  0.27183  1.0000
  C   C627      1.0  0.38718  0.11413  0.29427  1.0000
  C   C628      1.0  0.38022  0.12585  0.30942  1.0000
  C   C629      1.0  0.36495  0.13862  0.30221  1.0000
  C   C630      1.0  0.33400  0.06518  0.18616  1.0000
  H   H732      1.0  0.38462  0.10620  0.26022  1.0000
  H   H733      1.0  0.39891  0.10417  0.29990  1.0000
  C   C631      1.0  0.57918  0.08803  0.19534  1.0000
  H   H734      1.0  0.57270  0.10048  0.19004  1.0000
  H   H735      1.0  0.58612  0.08500  0.15487  1.0000
  C   C632      1.0  0.54640  0.17048  0.26496  1.0000
  C   C633      1.0  0.54631  0.18385  0.27421  1.0000
  C   C634      1.0  0.55201  0.18213  0.29865  1.0000
  C   C635      1.0  0.55798  0.16700  0.31375  1.0000
  C   C636      1.0  0.55793  0.15363  0.30456  1.0000
  C   C637      1.0  0.55210  0.15537  0.28024  1.0000
  H   H736      1.0  0.54205  0.19553  0.26237  1.0000
  H   H737      1.0  0.55231  0.19248  0.30548  1.0000
  H   H738      1.0  0.56254  0.14191  0.31623  1.0000
  H   H739      1.0  0.55233  0.14502  0.27315  1.0000
  C   C638      1.0  0.52880  0.15215  0.11900  1.0000
  C   C639      1.0  0.53615  0.15870  0.09222  1.0000
  C   C640      1.0  0.52455  0.17200  0.07837  1.0000
  C   C641      1.0  0.50550  0.17866  0.09122  1.0000
  C   C642      1.0  0.49781  0.17170  0.11768  1.0000
  C   C643      1.0  0.50943  0.15843  0.13155  1.0000
  H   H740      1.0  0.55113  0.15384  0.08243  1.0000
  H   H741      1.0  0.53056  0.17723  0.05790  1.0000
  H   H742      1.0  0.48333  0.17696  0.12798  1.0000
  H   H743      1.0  0.50351  0.15322  0.15204  1.0000
  C   C644      1.0  0.46531  0.12091  0.22286  1.0000
  C   C645      1.0  0.44750  0.11484  0.22973  1.0000
  C   C646      1.0  0.44045  0.11082  0.21020  1.0000
  C   C647      1.0  0.45135  0.11271  0.18388  1.0000
  C   C648      1.0  0.46906  0.11893  0.17695  1.0000
  C   C649      1.0  0.47599  0.12309  0.19641  1.0000
  H   H744      1.0  0.43922  0.11312  0.25022  1.0000
  H   H745      1.0  0.42677  0.10602  0.21567  1.0000
  H   H746      1.0  0.47723  0.12076  0.15648  1.0000
  H   H747      1.0  0.48946  0.12816  0.19083  1.0000
  H   H748      1.0  0.59048  0.05914  0.24891  1.0000
  H   H749      1.0  0.36811  0.03084  0.18380  1.0000
  H   H750      1.0  0.51417  0.18865  0.01774  1.0000
  C   C650      1.0  0.57322  0.23548  0.29883  1.0000
  C   C651      1.0  0.37277  0.21117  0.45280  1.0000
  C   C652      1.0  0.53716  0.20825  0.15640  1.0000
  H   H751      1.0  0.43219  0.16307  0.14750  1.0000
  C   C653      1.0  0.34850  0.09121  0.12954  1.0000
  H   H752      1.0  0.46943  0.20803  0.98502  1.0000
  H   H753      1.0  0.53012  0.22070  0.14841  1.0000
  H   H754      1.0  0.34452  0.14932  0.27487  1.0000
  H   H755      1.0  0.58582  0.11585  0.30154  1.0000
  C   C654      1.0  0.40753  0.18865  0.20873  1.0000
  C   C655      1.0  0.40297  0.20260  0.18981  1.0000
  C   C656      1.0  0.38821  0.18867  0.16842  1.0000
  C   C657      1.0  0.39331  0.20260  0.16969  1.0000
  H   H756      1.0  0.41203  0.14255  0.20415  1.0000
  H   H757      1.0  0.41440  0.18925  0.22453  1.0000
  H   H758      1.0  0.40673  0.21354  0.19082  1.0000
  H   H759      1.0  0.38031  0.18885  0.15300  1.0000
  H   H760      1.0  0.38971  0.21347  0.15512  1.0000
  C   C658      1.0  0.35654  0.13954  0.28013  1.0000
  H   H761      1.0  0.45749  0.16156  0.12843  1.0000
  N   N38       1.0  0.49415  0.18886  0.99216  1.0000
  H   H762      1.0  0.36142  0.19558  0.28819  1.0000
  H   H763      1.0  0.52269  0.11467  0.11529  1.0000
  Fe  Fe102     1.0  0.61734  0.02660  0.16386  1.0000
  H   H764      1.0  0.50766  0.19000  0.19850  1.0000
  S   S201      1.0  0.60210  0.05240  0.15628  1.0000
  H   H765      1.0  0.38019  0.09978  0.09229  1.0000
  H   H766      1.0  0.44419  0.20584  0.44598  1.0000
  H   H767      1.0  0.55382  0.20732  0.14938  1.0000
  H   H768      1.0  0.39746  0.22467  0.33288  1.0000
  H   H769      1.0  0.51880  0.02156  0.20243  1.0000
  H   H770      1.0  0.33280  0.20475  0.43328  1.0000
  H   H771      1.0  0.33246  0.03138  0.24444  1.0000
  H   H772      1.0  0.46953  0.22204  0.22791  1.0000
  H   H773      1.0  0.43105  0.18206  0.45457  1.0000
  H   H774      1.0  0.50287  0.20717  0.23784  1.0000
  H   H775      1.0  0.38646  0.07993  0.10996  1.0000
  H   H776      1.0  0.37664  0.20236  0.07211  1.0000
  N   N39       1.0  0.54490  0.03167  0.19953  1.0000
  C   C659      1.0  0.53229  0.01931  0.21150  1.0000
  C   C660      1.0  0.55072  0.03283  0.17024  1.0000
  C   C661      1.0  0.56374  0.02607  0.21038  1.0000
  C   C662      1.0  0.53339  0.04717  0.20515  1.0000
  C   C663      1.0  0.51456  0.05382  0.19704  1.0000
  C   C664      1.0  0.54028  0.05605  0.21876  1.0000
  C   C665      1.0  0.50307  0.06817  0.20294  1.0000
  C   C666      1.0  0.52869  0.07039  0.22449  1.0000
  C   C667      1.0  0.51006  0.07638  0.21680  1.0000
  H   H777      1.0  0.52694  0.01852  0.23341  1.0000
  C   C668      1.0  0.40123  0.16578  0.11988  1.0000
  H   H778      1.0  0.33790  0.07378  0.26247  1.0000
  H   H779      1.0  0.34068  0.21499  0.46815  1.0000
  C   C669      1.0  0.37763  0.08753  0.09475  1.0000
  H   H780      1.0  0.56023  0.04202  0.16054  1.0000
  H   H781      1.0  0.57458  0.03428  0.20111  1.0000
  C   C670      1.0  0.34624  0.23431  0.34658  1.0000
  S   S202      1.0  0.60652  0.01203  0.14343  1.0000
  H   H782      1.0  0.50846  0.04787  0.18635  1.0000
  H   H783      1.0  0.55450  0.05215  0.22543  1.0000
  H   H784      1.0  0.48852  0.07290  0.19705  1.0000
  H   H785      1.0  0.53419  0.07684  0.23521  1.0000
  H   H786      1.0  0.50096  0.08738  0.22169  1.0000
  C   C671      1.0  0.54111  0.09428  0.15199  1.0000
  C   C672      1.0  0.52744  0.08193  0.12642  1.0000
  C   C673      1.0  0.50649  0.08723  0.13549  1.0000
  C   C674      1.0  0.49217  0.07837  0.13642  1.0000
  C   C675      1.0  0.51869  0.05839  0.11938  1.0000
  C   C676      1.0  0.49824  0.06400  0.12833  1.0000
  H   H787      1.0  0.54459  0.08280  0.16627  1.0000
  H   H788      1.0  0.52601  0.10061  0.16045  1.0000
  C   C677      1.0  0.57684  0.19942  0.46670  1.0000
  H   H789      1.0  0.52333  0.04726  0.11283  1.0000
  C   C678      1.0  0.49367  0.20638  0.13806  1.0000
  N   N40       1.0  0.60661  0.11738  0.26342  1.0000
  C   C679      1.0  0.58815  0.11270  0.28185  1.0000
  C   C680      1.0  0.60875  0.11222  0.23813  1.0000
  C   C681      1.0  0.62449  0.10857  0.27528  1.0000
  C   C682      1.0  0.60496  0.13470  0.25954  1.0000
  C   C683      1.0  0.60051  0.14559  0.23574  1.0000
  C   C684      1.0  0.59830  0.16193  0.23308  1.0000
  H   H790      1.0  0.58872  0.09969  0.28564  1.0000
  H   H791      1.0  0.55203  0.10168  0.15163  1.0000
  H   H792      1.0  0.59484  0.11671  0.22957  1.0000
  H   H793      1.0  0.61102  0.09907  0.24134  1.0000
  H   H794      1.0  0.62182  0.11612  0.22290  1.0000
  H   H795      1.0  0.62278  0.10956  0.29626  1.0000
  H   H796      1.0  0.62706  0.09562  0.27613  1.0000
  H   H797      1.0  0.63845  0.11293  0.26336  1.0000
  H   H798      1.0  0.59830  0.14183  0.21903  1.0000
  H   H799      1.0  0.43928  0.15440  0.20989  1.0000
  C   C685      1.0  0.48039  0.22825  0.23015  1.0000
  H   H800      1.0  0.37937  0.16455  0.25522  1.0000
  H   H801      1.0  0.54874  0.06209  0.11132  1.0000
  C   C686      1.0  0.56345  0.08475  0.11472  1.0000
  H   H802      1.0  0.49625  0.11509  0.37258  1.0000
  H   H803      1.0  0.43532  0.20080  0.09543  1.0000
  C   C687      1.0  0.35385  0.03908  0.18377  1.0000
  C   C688      1.0  0.40325  0.14531  0.22359  1.0000
  H   H804      1.0  0.38687  0.14655  0.22409  1.0000
  C   C689      1.0  0.47736  0.19751  0.19243  1.0000
  Fe  Fe103     1.0  0.51333  0.21312  0.05280  1.0000
  C   C690      1.0  0.36247  0.04207  0.10887  1.0000
  C   C691      1.0  0.53607  0.19956  0.11762  1.0000
  H   H805      1.0  0.56862  0.07322  0.12799  1.0000
  C   C692      1.0  0.60656  0.14127  0.28052  1.0000
  C   C693      1.0  0.42960  0.15628  0.22940  1.0000
  C   C694      1.0  0.39298  0.17459  0.18703  1.0000
  C   C695      1.0  0.58033  0.08079  0.22191  1.0000
  C   C696      1.0  0.58668  0.07923  0.17542  1.0000
  C   C697      1.0  0.35255  0.05464  0.18608  1.0000
  S   S203      1.0  0.49201  0.19637  0.07508  1.0000
  H   H806      1.0  0.45321  0.18937  0.11467  1.0000
  C   C698      1.0  0.34832  0.20502  0.43308  1.0000
  N   N41       1.0  0.54217  0.09181  0.12497  1.0000
  H   H807      1.0  0.60862  0.13394  0.29984  1.0000
  N   N42       1.0  0.40779  0.15966  0.22837  1.0000
  H   H808      1.0  0.43423  0.16581  0.23509  1.0000
  H   H809      1.0  0.43348  0.14542  0.24485  1.0000
  N   N43       1.0  0.35580  0.08671  0.10329  1.0000
  N   N44       1.0  0.36659  0.23456  0.32921  1.0000
  Fe  Fe104     1.0  0.54855  0.21898  0.00630  1.0000
  C   C699      1.0  0.59670  0.05587  0.20835  1.0000
  H   H810      1.0  0.39910  0.15134  0.27100  1.0000
  H   H811      1.0  0.39939  0.17197  0.26093  1.0000
  H   H812      1.0  0.35033  0.10342  0.12837  1.0000
  C   C700      1.0  0.37414  0.23118  0.25647  1.0000
  C   C701      1.0  0.35160  0.07078  0.10588  1.0000
  C   C702      1.0  0.33695  0.05193  0.25312  1.0000
  C   C703      1.0  0.36708  0.05702  0.10538  1.0000
  Fe  Fe105     1.0  0.39518  0.22293  0.01541  1.0000
  S   S204      1.0  0.65456  0.99602  0.09284  1.0000
  C   C704      1.0  0.60039  0.16792  0.25387  1.0000
  C   C705      1.0  0.51473  0.18649  0.99773  1.0000
  H   H813      1.0  0.38839  0.16428  0.18499  1.0000
  H   H814      1.0  0.55286  0.19749  0.11131  1.0000
  C   C706      1.0  0.40362  0.19050  0.08750  1.0000
  H   H815      1.0  0.59443  0.17005  0.21503  1.0000
  C   C707      1.0  0.37008  0.21615  0.25990  1.0000
  S   S205      1.0  0.54688  0.20631  0.04924  1.0000
  H   H816      1.0  0.48247  0.18239  0.03454  1.0000
  C   C708      1.0  0.53719  0.10748  0.10695  1.0000
  H   H817      1.0  0.35971  0.20575  0.32744  1.0000
  H   H818      1.0  0.57351  0.22333  0.30970  1.0000
  C   C709      1.0  0.39588  0.16204  0.25495  1.0000
  H   H819      1.0  0.53401  0.20619  0.17860  1.0000
  H   H820      1.0  0.61669  0.23682  0.35675  1.0000
  H   H821      1.0  0.59818  0.18060  0.25200  1.0000
  H   H822      1.0  0.47092  0.19409  0.21355  1.0000
  C   C710      1.0  0.33688  0.03414  0.18107  1.0000
  S   S206      1.0  0.35791  0.19187  0.38901  1.0000
  H   H823      1.0  0.52401  0.19479  0.98327  1.0000
  H   H824      1.0  0.51645  0.16197  0.32404  1.0000
  C   C711      1.0  0.59212  0.19626  0.48142  1.0000
  H   H825      1.0  0.50870  0.16036  0.27774  1.0000
  H   H826      1.0  0.46988  0.11906  0.30544  1.0000
  C   C712      1.0  0.36369  0.21323  0.30792  1.0000
  H   H827      1.0  0.46683  0.18701  0.31425  1.0000
  C   C713      1.0  0.46706  0.17403  0.32016  1.0000
  H   H828      1.0  0.37578  0.17615  0.46185  1.0000
  H   H829      1.0  0.42112  0.21391  0.46520  1.0000
  N   N45       1.0  0.52948  0.19693  0.14709  1.0000
  C   C714      1.0  0.49495  0.16896  0.28406  1.0000
  H   H830      1.0  0.50308  0.18205  0.31793  1.0000
  H   H831      1.0  0.49882  0.18098  0.27730  1.0000
  C   C715      1.0  0.47827  0.14029  0.30798  1.0000
  H   H832      1.0  0.48349  0.16911  0.27256  1.0000
  H   H833      1.0  0.53293  0.17168  0.15308  1.0000
  H   H834      1.0  0.45641  0.17156  0.30989  1.0000
  N   N46       1.0  0.48763  0.16474  0.31345  1.0000
  C   C716      1.0  0.50115  0.16955  0.32646  1.0000
  C   C717      1.0  0.59504  0.06309  0.18185  1.0000
  H   H835      1.0  0.53069  0.21198  0.10770  1.0000
  H   H836      1.0  0.47621  0.08278  0.14325  1.0000
  S   S207      1.0  0.38520  0.20208  0.00955  1.0000
  C   C718      1.0  0.60379  0.22127  0.40656  1.0000
  C   C719      1.0  0.36385  0.19935  0.41331  1.0000
  H   H837      1.0  0.47217  0.14687  0.29049  1.0000
  H   H838      1.0  0.49500  0.16891  0.34818  1.0000
  H   H839      1.0  0.46384  0.17251  0.08056  1.0000
  H   H840      1.0  0.40373  0.20641  0.43202  1.0000
  H   H841      1.0  0.53610  0.10614  0.08704  1.0000
  C   C720      1.0  0.43754  0.19038  0.11208  1.0000
  H   H842      1.0  0.44114  0.15060  0.12323  1.0000
  H   H843      1.0  0.44378  0.18362  0.06366  1.0000
  C   C721      1.0  0.38191  0.22432  0.34460  1.0000
  H   H844      1.0  0.54090  0.00733  0.20872  1.0000
  C   C722      1.0  0.39998  0.15804  0.45107  1.0000
  C   C723      1.0  0.44760  0.17356  0.08034  1.0000
  H   H845      1.0  0.60526  0.16235  0.29413  1.0000
  H   H846      1.0  0.56635  0.23289  0.39694  1.0000
  H   H847      1.0  0.53739  0.03578  0.16069  1.0000
  H   H848      1.0  0.60009  0.21884  0.42872  1.0000
  S   S208      1.0  0.42918  0.18553  0.27332  1.0000
  N   N47       1.0  0.43452  0.17576  0.10636  1.0000
  C   C724      1.0  0.44153  0.16216  0.12736  1.0000
  H   H849      1.0  0.53758  0.17804  0.18023  1.0000
  H   H850      1.0  0.44586  0.16269  0.07520  1.0000
  H   H851      1.0  0.42700  0.19325  0.13046  1.0000
  H   H852      1.0  0.38283  0.05740  0.10288  1.0000
  H   H853      1.0  0.57174  0.01434  0.20599  1.0000
  C   C725      1.0  0.36779  0.22850  0.30517  1.0000
  C   C726      1.0  0.60455  0.15760  0.27752  1.0000
  C   C727      1.0  0.53927  0.18056  0.15823  1.0000
  S   S209      1.0  0.61492  0.00935  0.20339  1.0000
  C   C728      1.0  0.37221  0.18080  0.10086  1.0000
  H   H854      1.0  0.56558  0.08300  0.09406  1.0000
  H   H855      1.0  0.38417  0.08396  0.07529  1.0000
  H   H856      1.0  0.55971  0.02138  0.16536  1.0000
  C   C729      1.0  0.38382  0.19991  0.41307  1.0000
  H   H857      1.0  0.39589  0.19575  0.39785  1.0000
  H   H858      1.0  0.49878  0.21014  0.11679  1.0000
  C   C730      1.0  0.41311  0.17729  0.10485  1.0000
  H   H859      1.0  0.41177  0.19951  0.07478  1.0000
  H   H860      1.0  0.37443  0.03168  0.10893  1.0000
  H   H861      1.0  0.38030  0.21174  0.35012  1.0000
  H   H862      1.0  0.33222  0.09082  0.13748  1.0000
  H   H863      1.0  0.35307  0.04952  0.24508  1.0000
  C   C731      1.0  0.49837  0.19507  0.18357  1.0000
  H   H864      1.0  0.49936  0.14264  0.35848  1.0000
  Fe  Fe106     1.0  0.64671  0.99799  0.18785  1.0000
  S   S210      1.0  0.65023  0.01684  0.15016  1.0000
  C   C732      1.0  0.49335  0.13802  0.34580  1.0000
  C   C733      1.0  0.38374  0.16443  0.46921  1.0000
  C   C734      1.0  0.43660  0.20708  0.46665  1.0000
  H   H865      1.0  0.42580  0.20707  0.30758  1.0000
  H   H866      1.0  0.35928  0.14755  0.31406  1.0000
  Fe  Fe107     1.0  0.63902  0.00076  0.13319  1.0000
  H   H867      1.0  0.33890  0.02869  0.11644  1.0000
  C   C735      1.0  0.47672  0.12432  0.31651  1.0000
  H   H868      1.0  0.60347  0.04347  0.21345  1.0000
  H   H869      1.0  0.52711  0.22103  0.24393  1.0000
  C   C736      1.0  0.38347  0.19222  0.08569  1.0000
  H   H870      1.0  0.53057  0.19150  0.10940  1.0000
  H   H871      1.0  0.37111  0.21140  0.24263  1.0000
  H   H872      1.0  0.56062  0.02458  0.23251  1.0000
  C   C737      1.0  0.42742  0.20608  0.26688  1.0000
  C   C738      1.0  0.38824  0.20596  0.43254  1.0000
  H   H873      1.0  0.33823  0.02222  0.17873  1.0000
  H   H874      1.0  0.55060  0.23619  0.22802  1.0000
  H   H875      1.0  0.54885  0.11482  0.10364  1.0000
  C   C739      1.0  0.56226  0.21331  0.46702  1.0000
  H   H876      1.0  0.50095  0.09835  0.14179  1.0000
  C   C740      1.0  0.42547  0.21382  0.28746  1.0000
  C   C741      1.0  0.49162  0.12207  0.35421  1.0000
  H   H877      1.0  0.60370  0.18573  0.48068  1.0000
  C   C742      1.0  0.50721  0.19921  0.15601  1.0000
  H   H878      1.0  0.59744  0.21260  0.40079  1.0000
  H   H879      1.0  0.48703  0.05727  0.12883  1.0000
  H   H880      1.0  0.42999  0.20894  0.22457  1.0000
  C   C743      1.0  0.38104  0.16765  0.11795  1.0000
  H   H881      1.0  0.40724  0.15504  0.13284  1.0000
  H   H882      1.0  0.55587  0.17830  0.15027  1.0000
  C   C744      1.0  0.48336  0.11523  0.33958  1.0000
  H   H883      1.0  0.55033  0.21578  0.45592  1.0000
  H   H884      1.0  0.48172  0.10294  0.34639  1.0000
  H   H885      1.0  0.42183  0.23643  0.29766  1.0000
  C   C745      1.0  0.36473  0.20724  0.28557  1.0000
  C   C746      1.0  0.51295  0.22797  0.23912  1.0000
  C   C747      1.0  0.49910  0.21993  0.23580  1.0000
  H   H886      1.0  0.40397  0.16481  0.43085  1.0000
  C   C748      1.0  0.42501  0.23138  0.23519  1.0000
  H   H887      1.0  0.62054  0.21844  0.40056  1.0000
  C   C749      1.0  0.48449  0.20573  0.99036  1.0000
  H   H888      1.0  0.46594  0.18186  0.01411  1.0000
  H   H889      1.0  0.48816  0.16648  0.01738  1.0000
  C   C750      1.0  0.41241  0.23244  0.06934  1.0000
  C   C751      1.0  0.39146  0.23739  0.07230  1.0000
  H   H890      1.0  0.59354  0.23072  0.35915  1.0000
  H   H891      1.0  0.34925  0.11054  0.07987  1.0000
  H   H892      1.0  0.34896  0.09508  0.06386  1.0000
  C   C752      1.0  0.41085  0.14282  0.45857  1.0000
  C   C753      1.0  0.34514  0.09869  0.08340  1.0000
  S   S211      1.0  0.51095  0.23610  0.06419  1.0000
  C   C754      1.0  0.47274  0.20892  0.14714  1.0000
  C   C755      1.0  0.46459  0.20446  0.17420  1.0000
  H   H893      1.0  0.59015  0.22922  0.26170  1.0000
  H   H894      1.0  0.43852  0.22894  0.08676  1.0000
  H   H895      1.0  0.44834  0.20657  0.18093  1.0000
  H   H896      1.0  0.33267  0.07705  0.18878  1.0000
  S   S212      1.0  0.55933  0.23115  0.09060  1.0000
  C   C756      1.0  0.34248  0.04034  0.11304  1.0000
  H   H897      1.0  0.42106  0.22823  0.05184  1.0000
  C   C757      1.0  0.42232  0.23301  0.08910  1.0000
  C   C758      1.0  0.42501  0.18253  0.47598  1.0000
  Fe  Fe108     1.0  0.54487  0.23027  0.05730  1.0000
  H   H898      1.0  0.46278  0.21449  0.13300  1.0000
  S   S213      1.0  0.37914  0.21749  0.47812  1.0000
  H   H899      1.0  0.55195  0.23489  0.48178  1.0000
  H   H900      1.0  0.40874  0.18820  0.47792  1.0000
  H   H901      1.0  0.34328  0.22207  0.35502  1.0000
  H   H902      1.0  0.52313  0.17422  0.99714  1.0000
  H   H903      1.0  0.53262  0.23450  0.27395  1.0000
  C   C759      1.0  0.37298  0.23736  0.27864  1.0000
  C   C760      1.0  0.57262  0.04122  0.76396  1.0000
  C   C761      1.0  0.45663  0.00294  0.64688  1.0000
  S   S214      1.0  0.58662  0.20317  0.57781  1.0000
  H   H904      1.0  0.60662  0.20477  0.92470  1.0000
  H   H905      1.0  0.61441  0.14475  0.52080  1.0000
  Fe  Fe109     1.0  0.58884  0.21495  0.60921  1.0000
  S   S215      1.0  0.56583  0.21145  0.64740  1.0000
  S   S216      1.0  0.54152  0.21731  0.79655  1.0000
  H   H906      1.0  0.35063  0.13986  0.53315  1.0000
  Fe  Fe110     1.0  0.57152  0.22379  0.77546  1.0000
  C   C762      1.0  0.34169  0.16858  0.93971  1.0000
  C   C763      1.0  0.47595  0.18261  0.68436  1.0000
  C   C764      1.0  0.42188  0.23267  0.83755  1.0000
  S   S217      1.0  0.58263  0.13049  0.68158  1.0000
  Fe  Fe111     1.0  0.33222  0.11649  0.68794  1.0000
  H   H907      1.0  0.54568  0.00296  0.60816  1.0000
  C   C765      1.0  0.47090  0.99276  0.63228  1.0000
  C   C766      1.0  0.50809  0.19125  0.94289  1.0000
  S   S218      1.0  0.35321  0.13278  0.66281  1.0000
  H   H908      1.0  0.55910  0.15754  0.53250  1.0000
  N   N48       1.0  0.36098  0.16209  0.51551  1.0000
  H   H909      1.0  0.51966  0.19251  0.90077  1.0000
  S   S219      1.0  0.42497  0.19962  0.96000  1.0000
  C   C767      1.0  0.57842  0.22088  0.49652  1.0000
  H   H910      1.0  0.43238  0.16712  0.52980  1.0000
  C   C768      1.0  0.40917  0.19415  0.56754  1.0000
  H   H911      1.0  0.47238  0.16943  0.98034  1.0000
  C   C769      1.0  0.40554  0.13389  0.48428  1.0000
  H   H912      1.0  0.60752  0.20822  0.85236  1.0000
  C   C770      1.0  0.35424  0.03766  0.66627  1.0000
  C   C771      1.0  0.40913  0.20799  0.54773  1.0000
  H   H913      1.0  0.47530  0.16315  0.93757  1.0000
  H   H914      1.0  0.57022  0.01636  0.74314  1.0000
  N   N49       1.0  0.34805  0.16362  0.89334  1.0000
  C   C772      1.0  0.41762  0.20733  0.52103  1.0000
  C   C773      1.0  0.46447  0.17427  0.70669  1.0000
  H   H915      1.0  0.58957  0.16966  0.57069  1.0000
  S   S220      1.0  0.62932  0.21417  0.54385  1.0000
  S   S221      1.0  0.56747  0.20686  0.97346  1.0000
  H   H916      1.0  0.34907  0.21506  0.89826  1.0000
  Fe  Fe112     1.0  0.33894  0.20816  0.77378  1.0000
  C   C774      1.0  0.34224  0.14609  0.63715  1.0000
  S   S222      1.0  0.62141  0.20424  0.61002  1.0000
  S   S223      1.0  0.34486  0.09265  0.71076  1.0000
  C   C775      1.0  0.57960  0.11206  0.60381  1.0000
  H   H917      1.0  0.63115  0.02422  0.72939  1.0000
  H   H918      1.0  0.41658  0.21850  0.50668  1.0000
  H   H919      1.0  0.66445  0.18556  0.57427  1.0000
  H   H920      1.0  0.58670  0.18852  0.69118  1.0000
  S   S224      1.0  0.34130  0.19627  0.81627  1.0000
  H   H921      1.0  0.63440  0.15959  0.68588  1.0000
  H   H922      1.0  0.53907  0.02879  0.76856  1.0000
  H   H923      1.0  0.45885  0.17042  0.49545  1.0000
  C   C776      1.0  0.33798  0.17213  0.60801  1.0000
  C   C777      1.0  0.49374  0.16491  0.72753  1.0000
  C   C778      1.0  0.56394  0.15644  0.78941  1.0000
  C   C779      1.0  0.40467  0.19713  0.87161  1.0000
  S   S225      1.0  0.38445  0.17453  0.71209  1.0000
  H   H924      1.0  0.34242  0.21389  0.68658  1.0000
  H   H925      1.0  0.52358  0.99934  0.58238  1.0000
  H   H926      1.0  0.38263  0.22667  0.65065  1.0000
  H   H927      1.0  0.45129  0.01719  0.67604  1.0000
  C   C780      1.0  0.42675  0.19262  0.51346  1.0000
  H   H928      1.0  0.60879  0.15709  0.69061  1.0000
  C   C781      1.0  0.55502  0.20562  0.90340  1.0000
  H   H929      1.0  0.53808  0.15120  0.69173  1.0000
  H   H930      1.0  0.55498  0.15588  0.70786  1.0000
  S   S226      1.0  0.58125  0.22387  0.81277  1.0000
  C   C782      1.0  0.59052  0.18223  0.71093  1.0000
  H   H931      1.0  0.50426  0.18907  0.66564  1.0000
  C   C783      1.0  0.62194  0.20064  0.68102  1.0000
  C   C784      1.0  0.58904  0.12583  0.55790  1.0000
  C   C785      1.0  0.59283  0.20688  0.49648  1.0000
  C   C786      1.0  0.53426  0.22938  0.91652  1.0000
  C   C787      1.0  0.36633  0.02269  0.67341  1.0000
  C   C788      1.0  0.36850  0.01663  0.69997  1.0000
  C   C789      1.0  0.35933  0.02591  0.71904  1.0000
  H   H932      1.0  0.38744  0.16552  0.89636  1.0000
  C   C790      1.0  0.48321  0.17453  0.96379  1.0000
  H   H933      1.0  0.37360  0.01573  0.65857  1.0000
  S   S227      1.0  0.38135  0.99713  0.71046  1.0000
  S   S228      1.0  0.54852  0.99997  0.66824  1.0000
  C   C791      1.0  0.53870  0.15653  0.70829  1.0000
  C   C792      1.0  0.58046  0.13187  0.77533  1.0000
  H   H934      1.0  0.37222  0.17170  0.66571  1.0000
  H   H935      1.0  0.54710  0.20900  0.70244  1.0000
  C   C793      1.0  0.61007  0.20334  0.87312  1.0000
  H   H936      1.0  0.36222  0.18687  0.50005  1.0000
  H   H937      1.0  0.37027  0.17347  0.86086  1.0000
  C   C794      1.0  0.34765  0.16095  0.62719  1.0000
  C   C795      1.0  0.60886  0.15412  0.53260  1.0000
  C   C796      1.0  0.57381  0.23386  0.71134  1.0000
  H   H938      1.0  0.64402  0.17650  0.73226  1.0000
  H   H939      1.0  0.35903  0.16390  0.63469  1.0000
  C   C797      1.0  0.48465  0.17087  0.93914  1.0000
  Fe  Fe113     1.0  0.55262  0.21496  0.83416  1.0000
  C   C798      1.0  0.56265  0.20157  0.92703  1.0000
  S   S229      1.0  0.65077  0.09254  0.73925  1.0000
  H   H940      1.0  0.45847  0.99337  0.72572  1.0000
  C   C799      1.0  0.55646  0.21159  0.94515  1.0000
  H   H941      1.0  0.41749  0.23096  0.82033  1.0000
  C   C800      1.0  0.64313  0.19847  0.79805  1.0000
  H   H942      1.0  0.34181  0.00320  0.61447  1.0000
  H   H943      1.0  0.58278  0.99483  0.80885  1.0000
  C   C801      1.0  0.59814  0.03848  0.79884  1.0000
  H   H944      1.0  0.61819  0.15128  0.54821  1.0000
  N   N50       1.0  0.58707  0.15535  0.54492  1.0000
  C   C802      1.0  0.34513  0.15228  0.52324  1.0000
  H   H945      1.0  0.56422  0.17170  0.56535  1.0000
  H   H946      1.0  0.57658  0.16871  0.50872  1.0000
  C   C803      1.0  0.40702  0.23569  0.85968  1.0000
  Fe  Fe114     1.0  0.65049  0.11295  0.70344  1.0000
  H   H947      1.0  0.54371  0.18009  0.72871  1.0000
  C   C804      1.0  0.59347  0.05239  0.68693  1.0000
  C   C805      1.0  0.59348  0.03604  0.69355  1.0000
  C   C806      1.0  0.60706  0.02591  0.70903  1.0000
  C   C807      1.0  0.62051  0.03212  0.71772  1.0000
  C   C808      1.0  0.34960  0.99646  0.63114  1.0000
  H   H948      1.0  0.60770  0.01326  0.71348  1.0000
  C   C809      1.0  0.57446  0.12643  0.61185  1.0000
  S   S230      1.0  0.57718  0.02890  0.68041  1.0000
  H   H949      1.0  0.61057  0.20213  0.66942  1.0000
  C   C810      1.0  0.56604  0.14595  0.77292  1.0000
  C   C811      1.0  0.49528  0.18462  0.96649  1.0000
  H   H950      1.0  0.55685  0.14881  0.75796  1.0000
  N   N51       1.0  0.61680  0.21496  0.88297  1.0000
  C   C812      1.0  0.34810  0.17150  0.96074  1.0000
  H   H951      1.0  0.53725  0.23332  0.95378  1.0000
  C   C813      1.0  0.33344  0.13848  0.79021  1.0000
  C   C814      1.0  0.56832  0.22085  0.67131  1.0000
  C   C815      1.0  0.55752  0.21705  0.69749  1.0000
  C   C816      1.0  0.56049  0.22334  0.71754  1.0000
  H   H952      1.0  0.57398  0.16046  0.82201  1.0000
  S   S231      1.0  0.33781  0.18600  0.76247  1.0000
  H   H953      1.0  0.59107  0.01588  0.81728  1.0000
  C   C817      1.0  0.59575  0.14086  0.65211  1.0000
  C   C818      1.0  0.59095  0.15738  0.64556  1.0000
  C   C819      1.0  0.60225  0.16580  0.62295  1.0000
  H   H954      1.0  0.57891  0.16368  0.65836  1.0000
  H   H955      1.0  0.59877  0.17854  0.61865  1.0000
  H   H956      1.0  0.49909  0.17420  0.89756  1.0000
  S   S232      1.0  0.54721  0.17466  0.78471  1.0000
  S   S233      1.0  0.56675  0.18921  0.83788  1.0000
  N   N52       1.0  0.65757  0.13768  0.79799  1.0000
  H   H957      1.0  0.41725  0.16878  0.57623  1.0000
  S   S234      1.0  0.37015  0.22414  0.60453  1.0000
  N   N53       1.0  0.61231  0.17497  0.70893  1.0000
  H   H958      1.0  0.59501  0.12496  0.53731  1.0000
  H   H959      1.0  0.61498  0.11997  0.64025  1.0000
  C   C820      1.0  0.34478  0.04685  0.68544  1.0000
  H   H960      1.0  0.60396  0.15510  0.74014  1.0000
  C   C821      1.0  0.49634  0.18223  0.68348  1.0000
  C   C822      1.0  0.57669  0.14058  0.59307  1.0000
  H   H961      1.0  0.33501  0.14599  0.88570  1.0000
  C   C823      1.0  0.35130  0.17871  0.50548  1.0000
  S   S235      1.0  0.60227  0.09415  0.73859  1.0000
  H   H962      1.0  0.63118  0.22240  0.65771  1.0000
  C   C824      1.0  0.47570  0.21727  0.88216  1.0000
  C   C825      1.0  0.57575  0.15257  0.80893  1.0000
  S   S236      1.0  0.45651  0.23278  0.94431  1.0000
  C   C826      1.0  0.57280  0.00749  0.76181  1.0000
  H   H963      1.0  0.40243  0.19480  0.58815  1.0000
  C   C827      1.0  0.56676  0.00105  0.80969  1.0000
  N   N54       1.0  0.52720  0.17306  0.70548  1.0000
  H   H964      1.0  0.37315  0.17472  0.97452  1.0000
  C   C828      1.0  0.52804  0.17934  0.72846  1.0000
  C   C829      1.0  0.50585  0.17338  0.70521  1.0000
  C   C830      1.0  0.53770  0.18270  0.68088  1.0000
  H   H965      1.0  0.51870  0.19145  0.72788  1.0000
  Fe  Fe115     1.0  0.56231  0.00728  0.69651  1.0000
  H   H966      1.0  0.49991  0.15796  0.74480  1.0000
  H   H967      1.0  0.46636  0.18896  0.49185  1.0000
  C   C831      1.0  0.37424  0.18374  0.66256  1.0000
  Fe  Fe116     1.0  0.62784  0.22544  0.57788  1.0000
  C   C832      1.0  0.63795  0.21483  0.79638  1.0000
  S   S237      1.0  0.48909  0.01296  0.69177  1.0000
  H   H968      1.0  0.58941  0.00310  0.75965  1.0000
  C   C833      1.0  0.46242  0.00938  0.66470  1.0000
  C   C834      1.0  0.37004  0.20587  0.86578  1.0000
  C   C835      1.0  0.36462  0.21000  0.89092  1.0000
  C   C836      1.0  0.62474  0.18734  0.70241  1.0000
  N   N55       1.0  0.56443  0.01421  0.78595  1.0000
  Fe  Fe117     1.0  0.37138  0.18349  0.75022  1.0000
  C   C837      1.0  0.38222  0.16943  0.93538  1.0000
  C   C838      1.0  0.38016  0.18840  0.68241  1.0000
  H   H969      1.0  0.60377  0.06142  0.77628  1.0000
  C   C839      1.0  0.39927  0.20135  0.89671  1.0000
  C   C840      1.0  0.48246  0.00553  0.66820  1.0000
  C   C841      1.0  0.37919  0.20784  0.90647  1.0000
  H   H970      1.0  0.58070  0.17320  0.71915  1.0000
  H   H971      1.0  0.53034  0.19545  0.67784  1.0000
  H   H972      1.0  0.57297  0.15118  0.60090  1.0000
  Fe  Fe118     1.0  0.59455  0.19823  0.81321  1.0000
  H   H973      1.0  0.58321  0.06029  0.67469  1.0000
  H   H974      1.0  0.62949  0.15170  0.81489  1.0000
  H   H975      1.0  0.42025  0.19221  0.86417  1.0000
  C   C842      1.0  0.57486  0.02721  0.78424  1.0000
  C   C843      1.0  0.58255  0.05355  0.76167  1.0000
  H   H976      1.0  0.38777  0.20760  0.69318  1.0000
  Fe  Fe119     1.0  0.35630  0.21970  0.51638  1.0000
  H   H977      1.0  0.39126  0.23632  0.85962  1.0000
  H   H978      1.0  0.45296  0.22895  0.82005  1.0000
  C   C844      1.0  0.41752  0.17953  0.56074  1.0000
  H   H979      1.0  0.33658  0.18842  0.87985  1.0000
  H   H980      1.0  0.53404  0.01064  0.79005  1.0000
  H   H981      1.0  0.47431  0.20635  0.87686  1.0000
  H   H982      1.0  0.53299  0.14867  0.72742  1.0000
  C   C845      1.0  0.61842  0.16603  0.68729  1.0000
  C   C846      1.0  0.62066  0.20768  0.91033  1.0000
  H   H983      1.0  0.37358  0.14948  0.55064  1.0000
  C   C847      1.0  0.42616  0.17872  0.53413  1.0000
  H   H984      1.0  0.44861  0.17474  0.70738  1.0000
  H   H985      1.0  0.58271  0.18077  0.53996  1.0000
  S   S238      1.0  0.63157  0.16835  0.57745  1.0000
  H   H986      1.0  0.57818  0.10111  0.61856  1.0000
  H   H987      1.0  0.56569  0.99742  0.76265  1.0000
  H   H988      1.0  0.60848  0.03738  0.81184  1.0000
  C   C848      1.0  0.61451  0.16356  0.73467  1.0000
  C   C849      1.0  0.58972  0.13828  0.81190  1.0000
  C   C850      1.0  0.38303  0.20394  0.67809  1.0000
  H   H989      1.0  0.60663  0.07121  0.69046  1.0000
  S   S239      1.0  0.39751  0.19398  0.82451  1.0000
  H   H990      1.0  0.62633  0.21588  0.91816  1.0000
  Fe  Fe120     1.0  0.61963  0.19407  0.57639  1.0000
  H   H991      1.0  0.49888  0.98986  0.57406  1.0000
  S   S240      1.0  0.63577  0.10152  0.68182  1.0000
  H   H992      1.0  0.65054  0.17108  0.61784  1.0000
  H   H993      1.0  0.35196  0.04209  0.64591  1.0000
  H   H994      1.0  0.41388  0.12195  0.48987  1.0000
  C   C851      1.0  0.54243  0.02034  0.78725  1.0000
  H   H995      1.0  0.35610  0.16720  0.55450  1.0000
  N   N56       1.0  0.38896  0.12443  0.71919  1.0000
  C   C852      1.0  0.40746  0.13128  0.71333  1.0000
  C   C853      1.0  0.39185  0.11433  0.69971  1.0000
  C   C854      1.0  0.37160  0.13749  0.71447  1.0000
  C   C855      1.0  0.38495  0.11582  0.74746  1.0000
  C   C856      1.0  0.38049  0.10031  0.75517  1.0000
  C   C857      1.0  0.38415  0.12336  0.76840  1.0000
  C   C858      1.0  0.37573  0.09285  0.78212  1.0000
  C   C859      1.0  0.37942  0.11577  0.79528  1.0000
  C   C860      1.0  0.37515  0.10056  0.80211  1.0000
  H   H996      1.0  0.42058  0.12199  0.71870  1.0000
  H   H997      1.0  0.41144  0.13700  0.69177  1.0000
  H   H998      1.0  0.40556  0.14083  0.72418  1.0000
  H   H999      1.0  0.40434  0.10395  0.70271  1.0000
  H   H1000     1.0  0.39536  0.12105  0.67866  1.0000
  H   H1001     1.0  0.37781  0.11004  0.70103  1.0000
  H   H1002     1.0  0.36864  0.14563  0.72824  1.0000
  H   H1003     1.0  0.37419  0.14472  0.69371  1.0000
  H   H1004     1.0  0.35753  0.13284  0.71737  1.0000
  H   H1005     1.0  0.37991  0.09381  0.74086  1.0000
  H   H1006     1.0  0.38637  0.13543  0.76419  1.0000
  H   H1007     1.0  0.37149  0.08130  0.78753  1.0000
  H   H1008     1.0  0.37817  0.12197  0.81088  1.0000
  H   H1009     1.0  0.37063  0.09494  0.82291  1.0000
  N   N57       1.0  0.33529  0.99188  0.65653  1.0000
  H   H1010     1.0  0.39785  0.17016  0.93360  1.0000
  H   H1011     1.0  0.46435  0.15900  0.74563  1.0000
  H   H1012     1.0  0.36099  0.02128  0.73962  1.0000
  Fe  Fe121     1.0  0.43090  0.22103  0.96949  1.0000
  H   H1013     1.0  0.62360  0.21996  0.80707  1.0000
  H   H1014     1.0  0.61220  0.16540  0.51882  1.0000
  C   C861      1.0  0.50958  0.18737  0.91843  1.0000
  C   C862      1.0  0.49795  0.17714  0.91658  1.0000
  C   C863      1.0  0.58402  0.14070  0.56539  1.0000
  S   S241      1.0  0.53175  0.22509  0.86809  1.0000
  H   H1015     1.0  0.49153  0.21604  0.88446  1.0000
  H   H1016     1.0  0.51654  0.99580  0.54351  1.0000
  H   H1017     1.0  0.58228  0.12392  0.76224  1.0000
  C   C864      1.0  0.36398  0.16242  0.86894  1.0000
  C   C865      1.0  0.39009  0.19939  0.85602  1.0000
  H   H1018     1.0  0.55361  0.18234  0.68185  1.0000
  H   H1019     1.0  0.63460  0.13487  0.59976  1.0000
  H   H1020     1.0  0.53843  0.17831  0.66275  1.0000
  S   S242      1.0  0.39911  0.23450  0.97160  1.0000
  H   H1021     1.0  0.52259  0.17176  0.74809  1.0000
  H   H1022     1.0  0.37656  0.15224  0.87279  1.0000
  C   C866      1.0  0.58684  0.11176  0.57687  1.0000
  Fe  Fe122     1.0  0.55816  0.19227  0.79838  1.0000
  H   H1023     1.0  0.55988  0.19784  0.88952  1.0000
  S   S243      1.0  0.58721  0.19895  0.77420  1.0000
  C   C867      1.0  0.63383  0.21226  0.67397  1.0000
  C   C868      1.0  0.62044  0.04849  0.71111  1.0000
  S   S244      1.0  0.37245  0.20658  0.75888  1.0000
  C   C869      1.0  0.38014  0.21471  0.65396  1.0000
  C   C870      1.0  0.65173  0.22460  0.78166  1.0000
  C   C871      1.0  0.35535  0.16636  0.91551  1.0000
  H   H1024     1.0  0.46893  0.18954  0.66770  1.0000
  H   H1025     1.0  0.36608  0.19104  0.62359  1.0000
  Fe  Fe123     1.0  0.34341  0.17376  0.80325  1.0000
  C   C872      1.0  0.54101  0.21964  0.89793  1.0000
  S   S245      1.0  0.37705  0.16929  0.79054  1.0000
  S   S246      1.0  0.61200  0.11150  0.79586  1.0000
  C   C873      1.0  0.60676  0.05861  0.69579  1.0000
  H   H1026     1.0  0.35875  0.20795  0.85380  1.0000
  C   C874      1.0  0.59542  0.05212  0.77890  1.0000
  H   H1027     1.0  0.57350  0.19070  0.93120  1.0000
  H   H1028     1.0  0.51225  0.99233  0.65625  1.0000
  S   S247      1.0  0.37152  0.21339  0.93785  1.0000
  H   H1029     1.0  0.44104  0.00580  0.64457  1.0000
  H   H1030     1.0  0.33275  0.19612  0.69878  1.0000
  C   C875      1.0  0.49678  0.99540  0.65355  1.0000
  C   C876      1.0  0.59246  0.12812  0.79465  1.0000
  Fe  Fe124     1.0  0.60644  0.11388  0.70257  1.0000
  S   S248      1.0  0.62623  0.18611  0.81743  1.0000
  C   C877      1.0  0.57543  0.15740  0.52379  1.0000
  H   H1031     1.0  0.62994  0.15612  0.73367  1.0000
  H   H1032     1.0  0.59577  0.20007  0.88567  1.0000
  H   H1033     1.0  0.40216  0.21931  0.55311  1.0000
  H   H1034     1.0  0.59876  0.13530  0.82711  1.0000
  S   S249      1.0  0.63758  0.05596  0.72218  1.0000
  H   H1035     1.0  0.41065  0.19969  0.90840  1.0000
  H   H1036     1.0  0.35936  0.00401  0.63357  1.0000
  H   H1037     1.0  0.38562  0.13271  0.52218  1.0000
  H   H1038     1.0  0.56371  0.04259  0.74912  1.0000
  H   H1039     1.0  0.63200  0.19647  0.91103  1.0000
  Fe  Fe125     1.0  0.37483  0.19273  0.80087  1.0000
  S   S250      1.0  0.36118  0.20048  0.55260  1.0000
  Fe  Fe126     1.0  0.62021  0.10535  0.75570  1.0000
  H   H1040     1.0  0.59097  0.10051  0.57075  1.0000
  H   H1041     1.0  0.58095  0.06401  0.74570  1.0000
  Fe  Fe127     1.0  0.63287  0.08240  0.71944  1.0000
  S   S251      1.0  0.62122  0.12617  0.72176  1.0000
  H   H1042     1.0  0.61095  0.16978  0.75146  1.0000
  H   H1043     1.0  0.38093  0.16834  0.53469  1.0000
  Fe  Fe128     1.0  0.39265  0.21233  0.96521  1.0000
  C   C878      1.0  0.37389  0.21014  0.63430  1.0000
  C   C879      1.0  0.37079  0.19465  0.63872  1.0000
  C   C880      1.0  0.54205  0.22542  0.94003  1.0000
  H   H1044     1.0  0.61704  0.17391  0.66738  1.0000
  Fe  Fe129     1.0  0.35424  0.21980  0.57534  1.0000
  C   C881      1.0  0.61154  0.13277  0.63561  1.0000
  C   C882      1.0  0.64045  0.18627  0.71602  1.0000
  C   C883      1.0  0.47336  0.16541  0.72821  1.0000
  H   H1045     1.0  0.58587  0.19083  0.72425  1.0000
  Fe  Fe130     1.0  0.52019  0.00182  0.69941  1.0000
  H   H1046     1.0  0.60482  0.20446  0.50752  1.0000
  S   S252      1.0  0.53305  0.01088  0.72592  1.0000
  H   H1047     1.0  0.65865  0.21966  0.68170  1.0000
  H   H1048     1.0  0.64086  0.16042  0.78176  1.0000
  C   C884      1.0  0.62254  0.14119  0.61258  1.0000
  C   C885      1.0  0.61796  0.15773  0.60630  1.0000
  C   C886      1.0  0.36831  0.17199  0.95852  1.0000
  C   C887      1.0  0.63821  0.14895  0.79544  1.0000
  C   C888      1.0  0.58802  0.02617  0.80164  1.0000
  H   H1049     1.0  0.55230  0.22014  0.73779  1.0000
  C   C889      1.0  0.58054  0.16994  0.55585  1.0000
  H   H1050     1.0  0.65254  0.19498  0.86826  1.0000
  H   H1051     1.0  0.58089  0.14791  0.51225  1.0000
  C   C890      1.0  0.36832  0.16172  0.53978  1.0000
  H   H1052     1.0  0.59579  0.23457  0.86499  1.0000
  H   H1053     1.0  0.56105  0.00537  0.82861  1.0000
  H   H1054     1.0  0.46606  0.21761  0.90224  1.0000
  H   H1055     1.0  0.56920  0.12654  0.63294  1.0000
  C   C891      1.0  0.38935  0.14017  0.50260  1.0000
  C   C892      1.0  0.37594  0.16677  0.91402  1.0000
  Fe  Fe131     1.0  0.59612  0.22434  0.54821  1.0000
  H   H1056     1.0  0.65470  0.12678  0.76732  1.0000
  C   C893      1.0  0.37799  0.15569  0.49568  1.0000
  H   H1057     1.0  0.42586  0.17005  0.48731  1.0000
  H   H1058     1.0  0.53580  0.02648  0.80412  1.0000
  C   C894      1.0  0.63561  0.21929  0.86499  1.0000
  H   H1059     1.0  0.58572  0.22497  0.89808  1.0000
  H   H1060     1.0  0.51686  0.19969  0.94311  1.0000
  C   C895      1.0  0.34769  0.04107  0.71175  1.0000
  S   S253      1.0  0.57990  0.23484  0.51371  1.0000
  N   N58       1.0  0.46986  0.23159  0.86179  1.0000
  H   H1061     1.0  0.62110  0.19202  0.87307  1.0000
  C   C896      1.0  0.65234  0.19791  0.70873  1.0000
  H   H1062     1.0  0.62806  0.14408  0.78769  1.0000
  N   N59       1.0  0.43626  0.19143  0.48550  1.0000
  H   H1063     1.0  0.35202  0.13845  0.90877  1.0000
  C   C897      1.0  0.64917  0.21080  0.68759  1.0000
  C   C898      1.0  0.54820  0.99176  0.60221  1.0000
  H   H1064     1.0  0.33731  0.17369  0.97870  1.0000
  H   H1065     1.0  0.34454  0.17982  0.48789  1.0000
  C   C899      1.0  0.44229  0.23142  0.83779  1.0000
  H   H1066     1.0  0.64361  0.11710  0.81409  1.0000
  H   H1067     1.0  0.35798  0.16058  0.85256  1.0000
  C   C900      1.0  0.48412  0.23010  0.83609  1.0000
  H   H1068     1.0  0.34022  0.16603  0.72420  1.0000
  H   H1069     1.0  0.34169  0.18378  0.60114  1.0000
  H   H1070     1.0  0.33954  0.15194  0.50543  1.0000
  C   C901      1.0  0.58168  0.23137  0.66498  1.0000
  C   C902      1.0  0.34017  0.14864  0.90216  1.0000
  H   H1071     1.0  0.65082  0.15111  0.84134  1.0000
  H   H1072     1.0  0.64563  0.12664  0.83871  1.0000
  H   H1073     1.0  0.59005  0.23434  0.64473  1.0000
  H   H1074     1.0  0.34033  0.04801  0.72668  1.0000
  H   H1075     1.0  0.49351  0.21379  0.97475  1.0000
  H   H1076     1.0  0.48412  0.21905  0.83001  1.0000
  C   C903      1.0  0.59973  0.22866  0.88489  1.0000
  H   H1077     1.0  0.33985  0.14824  0.77675  1.0000
  H   H1078     1.0  0.33635  0.16504  0.67960  1.0000
  H   H1079     1.0  0.62201  0.23543  0.71445  1.0000
  H   H1080     1.0  0.64432  0.23220  0.72795  1.0000
  H   H1081     1.0  0.33864  0.18322  0.52079  1.0000
  C   C904      1.0  0.65278  0.20735  0.85945  1.0000
  C   C905      1.0  0.65349  0.12354  0.81922  1.0000
  C   C906      1.0  0.44839  0.23313  0.86052  1.0000
  H   H1082     1.0  0.55808  0.99179  0.81095  1.0000
  H   H1083     1.0  0.33683  0.12559  0.75943  1.0000
  C   C907      1.0  0.63755  0.23524  0.85257  1.0000
  H   H1084     1.0  0.50001  0.22947  0.83763  1.0000
  H   H1085     1.0  0.66180  0.18003  0.63596  1.0000
  C   C908      1.0  0.43283  0.23587  0.88291  1.0000
  C   C909      1.0  0.49100  0.98908  0.63552  1.0000
  H   H1086     1.0  0.66112  0.21750  0.62380  1.0000
  H   H1087     1.0  0.43624  0.23679  0.90123  1.0000
  C   C910      1.0  0.66446  0.17027  0.62527  1.0000
  C   C911      1.0  0.66198  0.19198  0.78440  1.0000
  C   C912      1.0  0.53556  0.98947  0.58727  1.0000
  H   H1088     1.0  0.66418  0.19684  0.71950  1.0000
  C   C913      1.0  0.45754  0.18289  0.48408  1.0000
  C   C914      1.0  0.41249  0.23717  0.88238  1.0000
  S   S254      1.0  0.59515  0.23732  0.57986  1.0000
  H   H1089     1.0  0.64782  0.23718  0.78100  1.0000
  H   H1090     1.0  0.45978  0.98757  0.76052  1.0000
  H   H1091     1.0  0.44347  0.25656  0.08660  1.0000
  H   H1092     1.0  0.55619  0.27320  0.30780  1.0000
  H   H1093     1.0  0.45369  0.27565  0.04497  1.0000
  H   H1094     1.0  0.35412  0.35358  0.11866  1.0000
  C   C915      1.0  0.62051  0.26956  0.42115  1.0000
  H   H1095     1.0  0.38119  0.32657  0.19244  1.0000
  Fe  Fe132     1.0  0.54450  0.30659  0.19138  1.0000
  S   S255      1.0  0.56021  0.32130  0.15448  1.0000
  S   S256      1.0  0.51120  0.31068  0.20962  1.0000
  C   C916      1.0  0.57127  0.26471  0.11990  1.0000
  S   S257      1.0  0.56826  0.30428  0.21496  1.0000
  Fe  Fe133     1.0  0.38576  0.28876  0.16893  1.0000
  S   S258      1.0  0.39145  0.26297  0.18914  1.0000
  S   S259      1.0  0.35248  0.29893  0.17044  1.0000
  Fe  Fe134     1.0  0.43051  0.29009  0.15515  1.0000
  S   S260      1.0  0.43976  0.26447  0.17357  1.0000
  S   S261      1.0  0.45466  0.30491  0.13615  1.0000
  Fe  Fe135     1.0  0.41677  0.26027  0.15419  1.0000
  C   C917      1.0  0.57337  0.24102  0.40297  1.0000
  Fe  Fe136     1.0  0.41370  0.26929  0.20680  1.0000
  S   S262      1.0  0.41678  0.25987  0.24960  1.0000
  S   S263      1.0  0.40971  0.28563  0.13226  1.0000
  S   S264      1.0  0.40589  0.29530  0.19003  1.0000
  H   H1096     1.0  0.61869  0.36460  0.16764  1.0000
  H   H1097     1.0  0.48946  0.26332  0.12031  1.0000
  C   C918      1.0  0.61570  0.34127  0.19146  1.0000
  H   H1098     1.0  0.54170  0.25165  0.20150  1.0000
  N   N60       1.0  0.34433  0.29289  0.09523  1.0000
  H   H1099     1.0  0.36633  0.37603  0.15218  1.0000
  C   C919      1.0  0.33868  0.28127  0.12032  1.0000
  H   H1100     1.0  0.35890  0.25946  0.31173  1.0000
  C   C920      1.0  0.49590  0.30837  0.18926  1.0000
  C   C921      1.0  0.50188  0.31168  0.16140  1.0000
  C   C922      1.0  0.48909  0.31066  0.14534  1.0000
  C   C923      1.0  0.47060  0.30568  0.15697  1.0000
  C   C924      1.0  0.46489  0.30186  0.18488  1.0000
  C   C925      1.0  0.47736  0.30345  0.20096  1.0000
  H   H1101     1.0  0.51614  0.31547  0.15217  1.0000
  H   H1102     1.0  0.49358  0.31378  0.12383  1.0000
  H   H1103     1.0  0.45067  0.29800  0.19408  1.0000
  H   H1104     1.0  0.47264  0.30085  0.22250  1.0000
  H   H1105     1.0  0.39927  0.37486  0.15614  1.0000
  C   C926      1.0  0.41147  0.23903  0.11155  1.0000
  C   C927      1.0  0.60430  0.24887  0.40297  1.0000
  H   H1106     1.0  0.39056  0.36780  0.11896  1.0000
  C   C928      1.0  0.57257  0.26694  0.27053  1.0000
  H   H1107     1.0  0.36436  0.24716  0.09735  1.0000
  H   H1108     1.0  0.60724  0.25822  0.46081  1.0000
  C   C929      1.0  0.62320  0.35545  0.18427  1.0000
  N   N61       1.0  0.52346  0.25275  0.24064  1.0000
  C   C930      1.0  0.56629  0.26169  0.07059  1.0000
  C   C931      1.0  0.38060  0.24349  0.09477  1.0000
  C   C932      1.0  0.58227  0.25456  0.25749  1.0000
  H   H1109     1.0  0.33509  0.28678  0.13800  1.0000
  H   H1110     1.0  0.52912  0.27610  0.23750  1.0000
  H   H1111     1.0  0.57246  0.27905  0.25987  1.0000
  C   C933      1.0  0.64262  0.34615  0.21975  1.0000
  C   C934      1.0  0.48937  0.25280  0.23067  1.0000
  H   H1112     1.0  0.57368  0.26562  0.13878  1.0000
  C   C935      1.0  0.57033  0.27588  0.07320  1.0000
  H   H1113     1.0  0.42456  0.23806  0.21503  1.0000
  H   H1114     1.0  0.55432  0.25561  0.22408  1.0000
  S   S265      1.0  0.65964  0.34845  0.23800  1.0000
  C   C936      1.0  0.35395  0.32950  0.14110  1.0000
  C   C937      1.0  0.36415  0.29633  0.09547  1.0000
  H   H1115     1.0  0.49354  0.30751  0.05093  1.0000
  H   H1116     1.0  0.51148  0.24958  0.28297  1.0000
  H   H1117     1.0  0.37007  0.32556  0.13542  1.0000
  C   C938      1.0  0.56376  0.24790  0.31186  1.0000
  C   C939      1.0  0.46142  0.27328  0.06147  1.0000
  C   C940      1.0  0.63484  0.33207  0.22722  1.0000
  H   H1118     1.0  0.48570  0.30645  0.08622  1.0000
  H   H1119     1.0  0.46280  0.25182  0.02046  1.0000
  C   C941      1.0  0.34723  0.28550  0.07211  1.0000
  H   H1120     1.0  0.36018  0.27529  0.07199  1.0000
  H   H1121     1.0  0.52660  0.26809  0.05620  1.0000
  C   C942      1.0  0.56348  0.26361  0.29770  1.0000
  H   H1122     1.0  0.48138  0.28896  0.04014  1.0000
  H   H1123     1.0  0.56850  0.23943  0.42498  1.0000
  H   H1124     1.0  0.61813  0.26129  0.36335  1.0000
  C   C943      1.0  0.45581  0.26239  0.08481  1.0000
  S   S266      1.0  0.42416  0.23844  0.13688  1.0000
  C   C944      1.0  0.49865  0.30293  0.07032  1.0000
  H   H1125     1.0  0.50449  0.28426  0.11757  1.0000
  C   C945      1.0  0.36272  0.36531  0.16599  1.0000
  S   S267      1.0  0.49664  0.26790  0.00059  1.0000
  C   C946      1.0  0.34493  0.34531  0.13166  1.0000
  H   H1126     1.0  0.51511  0.27516  0.21407  1.0000
  C   C947      1.0  0.63664  0.35787  0.19824  1.0000
  S   S268      1.0  0.54984  0.24243  0.01373  1.0000
  H   H1127     1.0  0.53665  0.25366  0.27296  1.0000
  H   H1128     1.0  0.64227  0.36884  0.19248  1.0000
  H   H1129     1.0  0.42357  0.36230  0.15112  1.0000
  H   H1130     1.0  0.41346  0.33117  0.18101  1.0000
  H   H1131     1.0  0.56480  0.26044  0.05140  1.0000
  H   H1132     1.0  0.40713  0.35970  0.18349  1.0000
  N   N62       1.0  0.50564  0.28550  0.07591  1.0000
  C   C948      1.0  0.34201  0.31886  0.15799  1.0000
  S   S269      1.0  0.57669  0.29563  0.10104  1.0000
  C   C949      1.0  0.48218  0.26648  0.10335  1.0000
  H   H1133     1.0  0.61597  0.31860  0.21878  1.0000
  S   S270      1.0  0.60188  0.29505  0.16215  1.0000
  H   H1134     1.0  0.37605  0.28538  0.09712  1.0000
  C   C950      1.0  0.52126  0.28116  0.05286  1.0000
  H   H1135     1.0  0.34552  0.32489  0.09211  1.0000
  C   C951      1.0  0.48838  0.27761  0.07966  1.0000
  H   H1136     1.0  0.42779  0.33539  0.14788  1.0000
  H   H1137     1.0  0.63911  0.32196  0.14546  1.0000
  H   H1138     1.0  0.65757  0.33124  0.17005  1.0000
  H   H1139     1.0  0.52813  0.28739  0.09625  1.0000
  H   H1140     1.0  0.39132  0.34748  0.11948  1.0000
  H   H1141     1.0  0.52198  0.26820  0.10408  1.0000
  C   C952      1.0  0.56732  0.25054  0.11729  1.0000
  C   C953      1.0  0.52614  0.24737  0.26880  1.0000
  Fe  Fe137     1.0  0.58545  0.31719  0.17689  1.0000
  C   C954      1.0  0.37116  0.33780  0.18828  1.0000
  C   C955      1.0  0.51738  0.27030  0.23503  1.0000
  C   C956      1.0  0.51539  0.28109  0.09956  1.0000
  H   H1142     1.0  0.57174  0.28563  0.05603  1.0000
  Fe  Fe138     1.0  0.57528  0.29809  0.14297  1.0000
  C   C957      1.0  0.57260  0.27749  0.09795  1.0000
  C   C958      1.0  0.65536  0.32113  0.13900  1.0000
  H   H1143     1.0  0.40665  0.32615  0.15370  1.0000
  H   H1144     1.0  0.36324  0.30141  0.11295  1.0000
  H   H1145     1.0  0.53461  0.28677  0.04944  1.0000
  C   C959      1.0  0.62161  0.32956  0.21302  1.0000
  C   C960      1.0  0.46615  0.25898  0.10568  1.0000
  H   H1146     1.0  0.38213  0.24899  0.13167  1.0000
  H   H1147     1.0  0.51087  0.30929  0.06933  1.0000
  H   H1148     1.0  0.59338  0.25123  0.35420  1.0000
  H   H1149     1.0  0.41435  0.35478  0.11319  1.0000
  Fe  Fe139     1.0  0.58280  0.28244  0.19886  1.0000
  S   S271      1.0  0.59902  0.33887  0.17288  1.0000
  C   C961      1.0  0.47739  0.28084  0.05891  1.0000
  N   N63       1.0  0.54374  0.35092  0.22842  1.0000
  C   C962      1.0  0.55678  0.36308  0.21816  1.0000
  C   C963      1.0  0.54139  0.34568  0.20516  1.0000
  C   C964      1.0  0.52364  0.35873  0.24126  1.0000
  C   C965      1.0  0.55207  0.33695  0.24767  1.0000
  C   C966      1.0  0.57189  0.33443  0.25276  1.0000
  C   C967      1.0  0.54051  0.32501  0.26129  1.0000
  C   C968      1.0  0.57944  0.32090  0.27057  1.0000
  C   C969      1.0  0.54817  0.31157  0.27918  1.0000
  C   C970      1.0  0.56761  0.30951  0.28377  1.0000
  H   H1150     1.0  0.54993  0.37361  0.20430  1.0000
  H   H1151     1.0  0.55952  0.36731  0.23474  1.0000
  H   H1152     1.0  0.57165  0.35844  0.20631  1.0000
  H   H1153     1.0  0.55626  0.33994  0.19489  1.0000
  H   H1154     1.0  0.53515  0.35577  0.19007  1.0000
  H   H1155     1.0  0.53117  0.33695  0.21098  1.0000
  H   H1156     1.0  0.52450  0.36165  0.26013  1.0000
  H   H1157     1.0  0.51764  0.36992  0.22791  1.0000
  H   H1158     1.0  0.51204  0.35120  0.24613  1.0000
  H   H1159     1.0  0.58207  0.34258  0.24290  1.0000
  H   H1160     1.0  0.52570  0.32568  0.25753  1.0000
  H   H1161     1.0  0.59471  0.31915  0.27380  1.0000
  H   H1162     1.0  0.53918  0.30251  0.28900  1.0000
  H   H1163     1.0  0.57366  0.29893  0.29723  1.0000
  H   H1164     1.0  0.35112  0.27085  0.12354  1.0000
  S   S272      1.0  0.59392  0.25847  0.22349  1.0000
  H   H1165     1.0  0.56661  0.25333  0.39384  1.0000
  S   S273      1.0  0.55766  0.28378  0.17837  1.0000
  N   N64       1.0  0.39862  0.35100  0.15444  1.0000
  C   C971      1.0  0.41208  0.33525  0.15963  1.0000
  C   C972      1.0  0.39870  0.35550  0.12531  1.0000
  C   C973      1.0  0.40751  0.36248  0.16157  1.0000
  C   C974      1.0  0.37758  0.35126  0.16969  1.0000
  C   C975      1.0  0.34261  0.36570  0.17936  1.0000
  H   H1166     1.0  0.33381  0.28081  0.07210  1.0000
  H   H1167     1.0  0.63928  0.32296  0.24393  1.0000
  C   C976      1.0  0.54326  0.24882  0.22279  1.0000
  H   H1168     1.0  0.35030  0.29420  0.05283  1.0000
  H   H1169     1.0  0.36910  0.25525  0.34135  1.0000
  C   C977      1.0  0.33674  0.35222  0.19698  1.0000
  C   C978      1.0  0.39061  0.24453  0.11418  1.0000
  C   C979      1.0  0.56462  0.24905  0.09274  1.0000
  H   H1170     1.0  0.50330  0.27435  0.24890  1.0000
  H   H1171     1.0  0.36969  0.30465  0.07678  1.0000
  C   C980      1.0  0.60959  0.25877  0.43950  1.0000
  C   C981      1.0  0.48333  0.26017  0.98439  1.0000
  H   H1172     1.0  0.38562  0.25199  0.31076  1.0000
  H   H1173     1.0  0.34624  0.32774  0.21474  1.0000
  C   C982      1.0  0.61541  0.26009  0.38473  1.0000
  H   H1174     1.0  0.51559  0.28488  0.03381  1.0000
  C   C983      1.0  0.62338  0.27024  0.39385  1.0000
  Fe  Fe140     1.0  0.51601  0.24633  0.02016  1.0000
  C   C984      1.0  0.58261  0.23883  0.27171  1.0000
  H   H1175     1.0  0.46174  0.25040  0.12374  1.0000
  H   H1176     1.0  0.56643  0.24069  0.13435  1.0000
  H   H1177     1.0  0.46087  0.25105  0.22352  1.0000
  S   S274      1.0  0.55231  0.24428  0.34584  1.0000
  H   H1178     1.0  0.48454  0.26547  0.22845  1.0000
  H   H1179     1.0  0.34442  0.23950  0.36422  1.0000
  H   H1180     1.0  0.65706  0.31070  0.10603  1.0000
  C   C985      1.0  0.35100  0.33834  0.20156  1.0000
  C   C986      1.0  0.50858  0.24465  0.23655  1.0000
  C   C987      1.0  0.46769  0.25219  0.99926  1.0000
  C   C988      1.0  0.47555  0.24462  0.22762  1.0000
  C   C989      1.0  0.37019  0.25104  0.32290  1.0000
  C   C990      1.0  0.60158  0.24860  0.43061  1.0000
  H   H1181     1.0  0.33414  0.24103  0.33531  1.0000
  H   H1182     1.0  0.63186  0.27870  0.37966  1.0000
  H   H1183     1.0  0.37659  0.24902  0.27433  1.0000
  H   H1184     1.0  0.62671  0.27742  0.42815  1.0000
  H   H1185     1.0  0.44664  0.23821  0.99841  1.0000
  H   H1186     1.0  0.59317  0.24053  0.44573  1.0000
  C   C991      1.0  0.60015  0.23930  0.36481  1.0000
  N   N65       1.0  0.59566  0.23787  0.39425  1.0000
  C   C992      1.0  0.45869  0.24432  0.98684  1.0000
  C   C993      1.0  0.42232  0.23917  0.25590  1.0000
  H   H1187     1.0  0.37847  0.23806  0.23648  1.0000
  C   C994      1.0  0.66546  0.31482  0.11678  1.0000
  H   H1188     1.0  0.48889  0.24503  0.86982  1.0000
  H   H1189     1.0  0.61268  0.27926  0.70155  1.0000
  H   H1190     1.0  0.62083  0.26637  0.66228  1.0000
  H   H1191     1.0  0.62544  0.24516  0.85566  1.0000
  H   H1192     1.0  0.46771  0.25679  0.85520  1.0000
  S   S275      1.0  0.65097  0.23994  0.57496  1.0000
  N   N66       1.0  0.63209  0.25673  0.71275  1.0000
  C   C995      1.0  0.49001  0.26021  0.95715  1.0000
  H   H1193     1.0  0.46428  0.24688  0.88974  1.0000
  H   H1194     1.0  0.63161  0.26400  0.74890  1.0000
  H   H1195     1.0  0.60261  0.26705  0.73276  1.0000
  H   H1196     1.0  0.34966  0.28235  0.62804  1.0000
  C   C996      1.0  0.35321  0.26633  0.59325  1.0000
  H   H1197     1.0  0.35677  0.25940  0.61294  1.0000
  H   H1198     1.0  0.64287  0.26609  0.61888  1.0000
  H   H1199     1.0  0.36195  0.27608  0.58552  1.0000
  C   C997      1.0  0.62957  0.24028  0.72597  1.0000
  S   S276      1.0  0.57779  0.24133  0.73682  1.0000
  H   H1200     1.0  0.60248  0.26223  0.70268  1.0000
  C   C998      1.0  0.61169  0.26683  0.71223  1.0000
  S   S277      1.0  0.35253  0.23900  0.53827  1.0000
  H   H1201     1.0  0.59466  0.24605  0.67995  1.0000
  C   C999      1.0  0.64169  0.26275  0.72930  1.0000
  H   H1202     1.0  0.35915  0.25799  0.57943  1.0000
  H   H1203     1.0  0.33462  0.29067  0.55903  1.0000
  C   C1000     1.0  0.46572  0.24406  0.95972  1.0000
  H   H1204     1.0  0.33465  0.27155  0.55353  1.0000
  H   H1205     1.0  0.48051  0.24049  0.81977  1.0000
  H   H1206     1.0  0.52335  0.24022  0.91247  1.0000
  C   C1001     1.0  0.47274  0.24568  0.86939  1.0000
  C   C1002     1.0  0.64927  0.26207  0.63684  1.0000
  C   C1003     1.0  0.63677  0.26212  0.66203  1.0000
  C   C1004     1.0  0.64487  0.25675  0.68577  1.0000
  H   H1207     1.0  0.65568  0.25466  0.73440  1.0000
  H   H1208     1.0  0.40089  0.23893  0.89994  1.0000
  C   C1005     1.0  0.33406  0.28788  0.62776  1.0000
  H   H1209     1.0  0.50242  0.26602  0.94576  1.0000
  C   C1006     1.0  0.48124  0.25213  0.94487  1.0000
  H   H1210     1.0  0.33449  0.30190  0.65520  1.0000
  H   H1211     1.0  0.65657  0.25103  0.82571  1.0000
  H   H1212     1.0  0.64564  0.27451  0.71877  1.0000
  H   H1213     1.0  0.62002  0.23956  0.74642  1.0000
  H   H1214     1.0  0.48679  0.25189  0.92395  1.0000
  C   C1007     1.0  0.58428  0.23800  0.68496  1.0000
  C   C1008     1.0  0.65545  0.23883  0.83531  1.0000
  H   H1215     1.0  0.60310  0.23750  0.89383  1.0000
  H   H1216     1.0  0.36267  0.70240  0.71102  1.0000
  H   H1217     1.0  0.37565  0.70719  0.77235  1.0000
  H   H1218     1.0  0.61323  0.72489  0.72910  1.0000
  C   C1009     1.0  0.34893  0.73009  0.74884  1.0000
  H   H1219     1.0  0.41213  0.72958  0.65802  1.0000
  C   C1010     1.0  0.41804  0.73490  0.69234  1.0000
  N   N67       1.0  0.36356  0.71767  0.73633  1.0000
  C   C1011     1.0  0.38914  0.72403  0.69300  1.0000
  C   C1012     1.0  0.57888  0.73514  0.70518  1.0000
  H   H1220     1.0  0.60791  0.70590  0.74491  1.0000
  C   C1013     1.0  0.57508  0.72897  0.75314  1.0000
  H   H1221     1.0  0.34804  0.72217  0.70372  1.0000
  N   N68       1.0  0.58316  0.72244  0.72873  1.0000
  C   C1014     1.0  0.60509  0.71594  0.72773  1.0000
  C   C1015     1.0  0.65525  0.73187  0.71991  1.0000
  H   H1222     1.0  0.55654  0.71208  0.73605  1.0000
  C   C1016     1.0  0.38191  0.72390  0.72070  1.0000
  H   H1223     1.0  0.63185  0.73120  0.78484  1.0000
  C   C1017     1.0  0.65149  0.72696  0.74777  1.0000
  C   C1018     1.0  0.57329  0.70897  0.73104  1.0000
  H   H1224     1.0  0.55844  0.73331  0.75611  1.0000
  H   H1225     1.0  0.61238  0.71160  0.70904  1.0000
  C   C1019     1.0  0.39350  0.72972  0.73338  1.0000
  H   H1226     1.0  0.57762  0.69876  0.74731  1.0000
  H   H1227     1.0  0.38077  0.69452  0.74918  1.0000
  C   C1020     1.0  0.36922  0.70389  0.75775  1.0000
  H   H1228     1.0  0.38128  0.72009  0.68145  1.0000
  C   C1021     1.0  0.35296  0.71233  0.72004  1.0000
  C   C1022     1.0  0.63481  0.73512  0.76329  1.0000
  C   C1023     1.0  0.40694  0.72948  0.67916  1.0000
  H   H1229     1.0  0.33900  0.70802  0.73213  1.0000
  H   H1230     1.0  0.57833  0.72006  0.77149  1.0000
  H   H1231     1.0  0.57761  0.70471  0.71202  1.0000
  H   H1232     1.0  0.54613  0.73639  0.71489  1.0000
  H   H1233     1.0  0.35541  0.73449  0.63102  1.0000
  H   H1234     1.0  0.66120  0.71673  0.75733  1.0000
  H   H1235     1.0  0.35593  0.69850  0.76941  1.0000
  H   H1236     1.0  0.38893  0.73013  0.75429  1.0000
  H   H1237     1.0  0.35487  0.73379  0.76344  1.0000
  C   C1024     1.0  0.41126  0.73513  0.71932  1.0000
  H   H1238     1.0  0.33454  0.72609  0.75972  1.0000
  H   H1239     1.0  0.65295  0.96789  0.02625  1.0000
  Fe  Fe141     1.0  0.57974  0.91925  0.13192  1.0000
  S   S278      1.0  0.61313  0.91903  0.12220  1.0000
  S   S279      1.0  0.56000  0.92790  0.16818  1.0000
  Fe  Fe142     1.0  0.58087  0.90757  0.08191  1.0000
  S   S280      1.0  0.61433  0.90589  0.06864  1.0000
  S   S281      1.0  0.56034  0.90409  0.05756  1.0000
  Fe  Fe143     1.0  0.61566  0.89576  0.11183  1.0000
  S   S282      1.0  0.63955  0.87528  0.12545  1.0000
  Fe  Fe144     1.0  0.60886  0.92930  0.08008  1.0000
  S   S283      1.0  0.62454  0.94765  0.05006  1.0000
  S   S284      1.0  0.58245  0.89509  0.12455  1.0000
  S   S285      1.0  0.57524  0.93184  0.09035  1.0000
  Fe  Fe145     1.0  0.57836  0.89849  0.31255  1.0000
  S   S286      1.0  0.60137  0.91385  0.30383  1.0000
  S   S287      1.0  0.57645  0.88648  0.28094  1.0000
  Fe  Fe146     1.0  0.56695  0.89934  0.37176  1.0000
  S   S288      1.0  0.58922  0.91459  0.36793  1.0000
  S   S289      1.0  0.54858  0.88940  0.41173  1.0000
  Fe  Fe147     1.0  0.57807  0.92794  0.33060  1.0000
  S   S290      1.0  0.57438  0.95426  0.32212  1.0000
  Fe  Fe148     1.0  0.61048  0.89912  0.34177  1.0000
  S   S291      1.0  0.64315  0.89204  0.34510  1.0000
  S   S292      1.0  0.55388  0.91398  0.33613  1.0000
  S   S293      1.0  0.58934  0.88247  0.34881  1.0000
  H   H1240     1.0  0.44126  0.88029  0.00719  1.0000
  H   H1241     1.0  0.65223  0.86514  0.27210  1.0000
  C   C1025     1.0  0.38775  0.88003  0.15739  1.0000
  N   N69       1.0  0.64282  0.95481  0.28061  1.0000
  H   H1242     1.0  0.62348  0.97603  0.26350  1.0000
  C   C1026     1.0  0.36335  0.89585  0.36533  1.0000
  C   C1027     1.0  0.33401  0.93964  0.10532  1.0000
  H   H1243     1.0  0.62960  0.92579  0.98466  1.0000
  C   C1028     1.0  0.34937  0.83532  0.21605  1.0000
  C   C1029     1.0  0.64523  0.98282  0.08168  1.0000
  C   C1030     1.0  0.45808  0.87752  0.00396  1.0000
  S   S294      1.0  0.34742  0.96490  0.16195  1.0000
  C   C1031     1.0  0.53902  0.91520  0.47952  1.0000
  C   C1032     1.0  0.59576  0.88019  0.00144  1.0000
  H   H1244     1.0  0.63248  0.82847  0.07512  1.0000
  H   H1245     1.0  0.36191  0.83800  0.22276  1.0000
  S   S295      1.0  0.35692  0.86627  0.28276  1.0000
  C   C1033     1.0  0.65752  0.88345  0.31823  1.0000
  S   S296      1.0  0.33976  0.90018  0.30256  1.0000
  C   C1034     1.0  0.36553  0.84499  0.17106  1.0000
  H   H1246     1.0  0.35424  0.90033  0.35016  1.0000
  C   C1035     1.0  0.56086  0.86255  0.07948  1.0000
  H   H1247     1.0  0.60702  0.90808  0.42144  1.0000
  H   H1248     1.0  0.34642  0.84049  0.13935  1.0000
  C   C1036     1.0  0.33455  0.95747  0.30255  1.0000
  H   H1249     1.0  0.60475  0.95647  0.00408  1.0000
  C   C1037     1.0  0.34302  0.88675  0.46904  1.0000
  H   H1250     1.0  0.54665  0.86961  0.08735  1.0000
  H   H1251     1.0  0.35710  0.91463  0.16842  1.0000
  C   C1038     1.0  0.37683  0.90028  0.40067  1.0000
  H   H1252     1.0  0.63535  0.94237  0.32154  1.0000
  S   S297      1.0  0.37069  0.86677  0.35146  1.0000
  H   H1253     1.0  0.64269  0.96691  0.23967  1.0000
  C   C1039     1.0  0.54454  0.89968  0.43742  1.0000
  S   S298      1.0  0.41747  0.91397  0.46189  1.0000
  C   C1040     1.0  0.63614  0.87144  0.42320  1.0000
  Fe  Fe149     1.0  0.34860  0.87472  0.07479  1.0000
  C   C1041     1.0  0.54569  0.92274  0.45299  1.0000
  C   C1042     1.0  0.54854  0.91498  0.43199  1.0000
  Fe  Fe150     1.0  0.35053  0.90796  0.07682  1.0000
  C   C1043     1.0  0.65572  0.94040  0.27223  1.0000
  H   H1254     1.0  0.54884  0.93457  0.44865  1.0000
  H   H1255     1.0  0.55369  0.92091  0.41160  1.0000
  C   C1044     1.0  0.57490  0.96199  0.28807  1.0000
  C   C1045     1.0  0.57972  0.97696  0.27661  1.0000
  C   C1046     1.0  0.57732  0.85934  0.09208  1.0000
  C   C1047     1.0  0.57779  0.97409  0.23302  1.0000
  C   C1048     1.0  0.57228  0.95932  0.24465  1.0000
  C   C1049     1.0  0.57125  0.95311  0.27212  1.0000
  H   H1256     1.0  0.53428  0.88045  0.46822  1.0000
  H   H1257     1.0  0.46285  0.86572  0.01670  1.0000
  H   H1258     1.0  0.56904  0.95260  0.23241  1.0000
  H   H1259     1.0  0.56729  0.94158  0.28100  1.0000
  H   H1260     1.0  0.55028  0.86051  0.04583  1.0000
  C   C1050     1.0  0.64809  0.87723  0.30389  1.0000
  C   C1051     1.0  0.56288  0.85748  0.05603  1.0000
  H   H1261     1.0  0.46241  0.88647  0.01165  1.0000
  H   H1262     1.0  0.61675  0.92910  0.01716  1.0000
  C   C1052     1.0  0.65680  0.89437  0.19453  1.0000
  H   H1263     1.0  0.63198  0.87754  0.30942  1.0000
  C   C1053     1.0  0.59254  0.89078  0.47109  1.0000
  H   H1264     1.0  0.33275  0.87105  0.39236  1.0000
  H   H1265     1.0  0.36492  0.92733  0.10294  1.0000
  C   C1054     1.0  0.56944  0.89554  0.02927  1.0000
  C   C1055     1.0  0.58933  0.88737  0.02363  1.0000
  C   C1056     1.0  0.55625  0.89687  0.01220  1.0000
  H   H1266     1.0  0.59955  0.88620  0.03675  1.0000
  H   H1267     1.0  0.54086  0.90323  0.01644  1.0000
  C   C1057     1.0  0.56384  0.91605  0.19964  1.0000
  C   C1058     1.0  0.57581  0.90088  0.20178  1.0000
  C   C1059     1.0  0.57931  0.89185  0.22690  1.0000
  C   C1060     1.0  0.57158  0.89816  0.24986  1.0000
  C   C1061     1.0  0.55993  0.91346  0.24770  1.0000
  C   C1062     1.0  0.55572  0.92225  0.22271  1.0000
  H   H1268     1.0  0.58227  0.89605  0.18411  1.0000
  H   H1269     1.0  0.58836  0.88003  0.22845  1.0000
  H   H1270     1.0  0.55385  0.91840  0.26532  1.0000
  H   H1271     1.0  0.54658  0.93404  0.22111  1.0000
  C   C1063     1.0  0.63235  0.96090  0.06302  1.0000
  C   C1064     1.0  0.62434  0.96315  0.08914  1.0000
  C   C1065     1.0  0.63064  0.97428  0.09839  1.0000
  C   C1066     1.0  0.34108  0.95736  0.27536  1.0000
  H   H1272     1.0  0.35326  0.82265  0.21468  1.0000
  C   C1067     1.0  0.64676  0.96958  0.04642  1.0000
  H   H1273     1.0  0.61296  0.95663  0.10190  1.0000
  C   C1068     1.0  0.60440  0.95467  0.98409  1.0000
  C   C1069     1.0  0.37011  0.96105  0.22157  1.0000
  C   C1070     1.0  0.58148  0.98290  0.24904  1.0000
  C   C1071     1.0  0.62050  0.86906  0.47927  1.0000
  C   C1072     1.0  0.60916  0.85024  0.12162  1.0000
  H   H1274     1.0  0.37458  0.96105  0.19979  1.0000
  C   C1073     1.0  0.34506  0.94685  0.32126  1.0000
  H   H1275     1.0  0.57476  0.92693  0.00880  1.0000
  C   C1074     1.0  0.62823  0.85831  0.07744  1.0000
  H   H1276     1.0  0.45736  0.93298  0.46771  1.0000
  C   C1075     1.0  0.36606  0.90289  0.17287  1.0000
  C   C1076     1.0  0.38455  0.87426  0.39007  1.0000
  H   H1277     1.0  0.54881  0.87329  0.33486  1.0000
  H   H1278     1.0  0.63303  0.93613  0.14733  1.0000
  C   C1077     1.0  0.58250  0.88140  0.98449  1.0000
  H   H1279     1.0  0.39537  0.93435  0.23579  1.0000
  C   C1078     1.0  0.50390  0.88640  0.37494  1.0000
  H   H1280     1.0  0.33793  0.88142  0.00705  1.0000
  C   C1079     1.0  0.61024  0.88074  0.46049  1.0000
  S   S299      1.0  0.63800  0.98124  0.16980  1.0000
  S   S300      1.0  0.34870  0.89733  0.04374  1.0000
  C   C1080     1.0  0.62208  0.94382  0.20935  1.0000
  H   H1281     1.0  0.61562  0.95661  0.20321  1.0000
  C   C1081     1.0  0.34186  0.88397  0.98537  1.0000
  N   N70       1.0  0.34578  0.84586  0.19005  1.0000
  C   C1082     1.0  0.49533  0.89784  0.35438  1.0000
  H   H1282     1.0  0.33986  0.94684  0.34236  1.0000
  H   H1283     1.0  0.62267  0.84689  0.13113  1.0000
  H   H1284     1.0  0.58381  0.89982  0.45810  1.0000
  N   N71       1.0  0.61431  0.84762  0.09389  1.0000
  C   C1083     1.0  0.64670  0.88569  0.21776  1.0000
  H   H1285     1.0  0.61282  0.93955  0.22923  1.0000
  H   H1286     1.0  0.37341  0.90051  0.13193  1.0000
  C   C1084     1.0  0.52461  0.89096  0.32073  1.0000
  C   C1085     1.0  0.62780  0.95017  0.30517  1.0000
  C   C1086     1.0  0.52367  0.87773  0.36723  1.0000
  H   H1287     1.0  0.57478  0.86409  0.10968  1.0000
  H   H1288     1.0  0.48073  0.90532  0.35878  1.0000
  C   C1087     1.0  0.65331  0.98038  0.05580  1.0000
  H   H1289     1.0  0.62413  0.97638  0.11823  1.0000
  H   H1290     1.0  0.62494  0.95491  0.15632  1.0000
  C   C1088     1.0  0.33882  0.86237  0.19373  1.0000
  C   C1089     1.0  0.38055  0.88076  0.20460  1.0000
  S   S301      1.0  0.38447  0.90346  0.06855  1.0000
  S   S302      1.0  0.40076  0.88036  0.47903  1.0000
  H   H1291     1.0  0.38457  0.93235  0.20977  1.0000
  N   N72       1.0  0.62167  0.93494  0.18949  1.0000
  C   C1090     1.0  0.60042  0.93669  0.18714  1.0000
  C   C1091     1.0  0.63037  0.91801  0.19864  1.0000
  C   C1092     1.0  0.62065  0.90887  0.22255  1.0000
  C   C1093     1.0  0.64881  0.91026  0.18488  1.0000
  C   C1094     1.0  0.62864  0.89292  0.23176  1.0000
  H   H1292     1.0  0.61800  0.96067  0.31252  1.0000
  H   H1293     1.0  0.62074  0.87094  0.07644  1.0000
  H   H1294     1.0  0.65578  0.90309  0.09472  1.0000
  H   H1295     1.0  0.59926  0.92913  0.17408  1.0000
  H   H1296     1.0  0.59044  0.93337  0.20673  1.0000
  H   H1297     1.0  0.59363  0.94914  0.17865  1.0000
  H   H1298     1.0  0.60667  0.91392  0.23429  1.0000
  H   H1299     1.0  0.62073  0.88612  0.24986  1.0000
  C   C1095     1.0  0.35748  0.94394  0.12875  1.0000
  H   H1300     1.0  0.58739  0.88904  0.42170  1.0000
  C   C1096     1.0  0.62513  0.83094  0.09517  1.0000
  C   C1097     1.0  0.35822  0.94638  0.26611  1.0000
  C   C1098     1.0  0.65873  0.91587  0.25739  1.0000
  C   C1099     1.0  0.38121  0.93289  0.23131  1.0000
  H   H1301     1.0  0.64893  0.87310  0.43068  1.0000
  C   C1100     1.0  0.64694  0.92947  0.26565  1.0000
  H   H1302     1.0  0.59771  0.84327  0.13465  1.0000
  H   H1303     1.0  0.35025  0.86639  0.20051  1.0000
  H   H1304     1.0  0.35099  0.94062  0.20833  1.0000
  H   H1305     1.0  0.38310  0.96320  0.22798  1.0000
  H   H1306     1.0  0.65297  0.87332  0.22484  1.0000
  S   S303      1.0  0.35512  0.90571  0.22472  1.0000
  H   H1307     1.0  0.65175  0.90748  0.25297  1.0000
  C   C1101     1.0  0.63258  0.94247  0.16307  1.0000
  H   H1308     1.0  0.63780  0.94274  0.21191  1.0000
  N   N73       1.0  0.36407  0.94593  0.23737  1.0000
  H   H1309     1.0  0.37773  0.92114  0.24278  1.0000
  Fe  Fe151     1.0  0.34405  0.89133  0.26512  1.0000
  C   C1102     1.0  0.58144  0.84930  0.04488  1.0000
  C   C1103     1.0  0.61465  0.92663  0.99854  1.0000
  H   H1310     1.0  0.35760  0.97139  0.22357  1.0000
  H   H1311     1.0  0.34262  0.87417  0.43116  1.0000
  H   H1312     1.0  0.63760  0.82797  0.10648  1.0000
  H   H1313     1.0  0.37123  0.83300  0.16654  1.0000
  H   H1314     1.0  0.48272  0.89726  0.43439  1.0000
  H   H1315     1.0  0.60347  0.86296  0.12212  1.0000
  H   H1316     1.0  0.62710  0.90056  0.39712  1.0000
  H   H1317     1.0  0.33742  0.91727  0.43804  1.0000
  H   H1318     1.0  0.58317  0.84608  0.02590  1.0000
  H   H1319     1.0  0.37240  0.94118  0.13345  1.0000
  C   C1104     1.0  0.57926  0.93861  0.00452  1.0000
  S   S304      1.0  0.38236  0.86684  0.06669  1.0000
  N   N74       1.0  0.61722  0.88262  0.43115  1.0000
  H   H1320     1.0  0.63084  0.93134  0.26704  1.0000
  H   H1321     1.0  0.40061  0.86171  0.18764  1.0000
  H   H1322     1.0  0.49873  0.90875  0.31227  1.0000
  H   H1323     1.0  0.36461  0.85391  0.15195  1.0000
  C   C1105     1.0  0.37544  0.89495  0.15212  1.0000
  N   N75       1.0  0.59920  0.93910  0.98621  1.0000
  H   H1324     1.0  0.63331  0.85662  0.05654  1.0000
  H   H1325     1.0  0.61460  0.82255  0.10520  1.0000
  C   C1106     1.0  0.53745  0.89228  0.46388  1.0000
  H   H1326     1.0  0.62061  0.95843  0.25616  1.0000
  C   C1107     1.0  0.33296  0.83871  0.15437  1.0000
  H   H1327     1.0  0.61731  0.94357  0.30188  1.0000
  C   C1108     1.0  0.38642  0.88436  0.40546  1.0000
  C   C1109     1.0  0.50554  0.89998  0.32769  1.0000
  H   H1328     1.0  0.64197  0.85647  0.08599  1.0000
  H   H1329     1.0  0.39541  0.87987  0.42080  1.0000
  Fe  Fe152     1.0  0.38184  0.88020  0.09754  1.0000
  H   H1330     1.0  0.61230  0.84051  0.04692  1.0000
  C   C1110     1.0  0.35324  0.93605  0.11156  1.0000
  H   H1331     1.0  0.65731  0.91610  0.16650  1.0000
  C   C1111     1.0  0.39158  0.86837  0.98884  1.0000
  C   C1112     1.0  0.63194  0.96439  0.25906  1.0000
  C   C1113     1.0  0.59641  0.85077  0.08151  1.0000
  H   H1332     1.0  0.61046  0.91474  0.00432  1.0000
  H   H1333     1.0  0.61102  0.87356  0.99746  1.0000
  S   S305      1.0  0.40168  0.89456  0.99665  1.0000
  C   C1114     1.0  0.59805  0.84614  0.05718  1.0000
  S   S306      1.0  0.34816  0.88577  0.10828  1.0000
  C   C1115     1.0  0.65958  0.87027  0.28262  1.0000
  C   C1116     1.0  0.60139  0.87994  0.41941  1.0000
  H   H1334     1.0  0.37741  0.84756  0.17913  1.0000
  S   S307      1.0  0.39844  0.86973  0.13156  1.0000
  C   C1117     1.0  0.62101  0.89893  0.41907  1.0000
  H   H1335     1.0  0.60650  0.88041  0.39755  1.0000
  C   C1118     1.0  0.39073  0.87311  0.18356  1.0000
  H   H1336     1.0  0.38260  0.87529  0.22483  1.0000
  H   H1337     1.0  0.35621  0.88849  0.45240  1.0000
  H   H1338     1.0  0.64821  0.94297  0.16381  1.0000
  H   H1339     1.0  0.63401  0.86082  0.47322  1.0000
  C   C1119     1.0  0.34240  0.95525  0.14000  1.0000
  H   H1340     1.0  0.46229  0.89217  0.39450  1.0000
  S   S308      1.0  0.37865  0.91347  0.41940  1.0000
  H   H1341     1.0  0.39207  0.86197  0.39375  1.0000
  C   C1120     1.0  0.66187  0.88165  0.12433  1.0000
  C   C1121     1.0  0.53371  0.87996  0.34045  1.0000
  H   H1342     1.0  0.49323  0.86869  0.44203  1.0000
  H   H1343     1.0  0.64097  0.87332  0.40099  1.0000
  H   H1344     1.0  0.57931  0.94076  0.02436  1.0000
  C   C1122     1.0  0.47200  0.88155  0.40446  1.0000
  C   C1123     1.0  0.49072  0.89860  0.41309  1.0000
  H   H1345     1.0  0.47273  0.87157  0.39505  1.0000
  H   H1346     1.0  0.48218  0.90926  0.40143  1.0000
  H   H1347     1.0  0.53187  0.86932  0.38151  1.0000
  H   H1348     1.0  0.50591  0.90112  0.41183  1.0000
  H   H1349     1.0  0.46367  0.87868  0.42552  1.0000
  C   C1124     1.0  0.50246  0.87045  0.42136  1.0000
  H   H1350     1.0  0.51727  0.87219  0.42337  1.0000
  H   H1351     1.0  0.50476  0.85926  0.41447  1.0000
  N   N76       1.0  0.49259  0.88419  0.40299  1.0000
  H   H1352     1.0  0.63413  0.85890  0.43044  1.0000
  H   H1353     1.0  0.38425  0.86641  0.00968  1.0000
  C   C1125     1.0  0.36812  0.89565  0.19921  1.0000
  C   C1126     1.0  0.36524  0.90595  0.38066  1.0000
  H   H1354     1.0  0.35757  0.91819  0.37713  1.0000
  H   H1355     1.0  0.38202  0.92708  0.28071  1.0000
  H   H1356     1.0  0.63214  0.90170  0.42825  1.0000
  Fe  Fe153     1.0  0.38243  0.89057  0.03819  1.0000
  H   H1357     1.0  0.53255  0.89268  0.30003  1.0000
  Fe  Fe154     1.0  0.39080  0.90541  0.45775  1.0000
  C   C1127     1.0  0.34652  0.94382  0.22826  1.0000
  H   H1358     1.0  0.59709  0.86820  0.42905  1.0000
  C   C1128     1.0  0.37305  0.87995  0.36991  1.0000
  S   S309      1.0  0.58059  0.98122  0.19839  1.0000
  C   C1129     1.0  0.65431  0.96511  0.28650  1.0000
  H   H1359     1.0  0.33600  0.87073  0.17466  1.0000
  Fe  Fe155     1.0  0.35002  0.87470  0.32137  1.0000
  H   H1360     1.0  0.44094  0.85635  0.99976  1.0000
  H   H1361     1.0  0.33339  0.91582  0.47335  1.0000
  C   C1130     1.0  0.56279  0.88995  0.98973  1.0000
  H   H1362     1.0  0.34173  0.87406  0.47427  1.0000
  H   H1363     1.0  0.66233  0.95881  0.30319  1.0000
  H   H1364     1.0  0.33227  0.96571  0.26164  1.0000
  C   C1131     1.0  0.36880  0.93586  0.28570  1.0000
  H   H1365     1.0  0.33607  0.83670  0.23258  1.0000
  C   C1132     1.0  0.36223  0.93616  0.31283  1.0000
  H   H1366     1.0  0.46753  0.94785  0.47420  1.0000
  H   H1367     1.0  0.64422  0.97590  0.29247  1.0000
  H   H1368     1.0  0.33482  0.95477  0.22601  1.0000
  H   H1369     1.0  0.66459  0.98695  0.04287  1.0000
  H   H1370     1.0  0.33927  0.93420  0.24252  1.0000
  H   H1371     1.0  0.56710  0.94763  0.99592  1.0000
  H   H1372     1.0  0.58246  0.98384  0.28900  1.0000
  H   H1373     1.0  0.37040  0.92789  0.32742  1.0000
  H   H1374     1.0  0.34183  0.86033  0.98297  1.0000
  S   S310      1.0  0.45862  0.87818  0.48215  1.0000
  H   H1375     1.0  0.39615  0.91244  0.65120  1.0000
  H   H1376     1.0  0.37960  0.78464  0.59811  1.0000
  H   H1377     1.0  0.50138  0.83679  0.60838  1.0000
  H   H1378     1.0  0.38176  0.90326  0.86747  1.0000
  C   C1133     1.0  0.53689  0.96640  0.54024  1.0000
  S   S311      1.0  0.56686  0.95298  0.67536  1.0000
  H   H1379     1.0  0.47025  0.95258  0.71399  1.0000
  H   H1380     1.0  0.37388  0.91332  0.89429  1.0000
  N   N77       1.0  0.50804  0.81648  0.84558  1.0000
  Fe  Fe156     1.0  0.57998  0.89932  0.86561  1.0000
  S   S312      1.0  0.55923  0.88854  0.85255  1.0000
  S   S313      1.0  0.59563  0.91821  0.83687  1.0000
  Fe  Fe157     1.0  0.57610  0.87822  0.92137  1.0000
  S   S314      1.0  0.55471  0.86535  0.91356  1.0000
  C   C1134     1.0  0.45186  0.84441  0.94147  1.0000
  Fe  Fe158     1.0  0.57501  0.86518  0.87322  1.0000
  S   S315      1.0  0.58423  0.84277  0.85698  1.0000
  Fe  Fe159     1.0  0.54026  0.88945  0.89340  1.0000
  S   S316      1.0  0.50649  0.89657  0.89738  1.0000
  S   S317      1.0  0.59781  0.87591  0.88260  1.0000
  S   S318      1.0  0.55965  0.90250  0.90479  1.0000
  Fe  Fe160     1.0  0.44716  0.86032  0.83683  1.0000
  S   S319      1.0  0.42090  0.87532  0.85851  1.0000
  S   S320      1.0  0.47871  0.86504  0.82200  1.0000
  S   S321      1.0  0.43106  0.85857  0.80634  1.0000
  S   S322      1.0  0.53649  0.88392  0.55912  1.0000
  Fe  Fe161     1.0  0.51502  0.91403  0.60565  1.0000
  S   S323      1.0  0.51890  0.88790  0.62143  1.0000
  S   S324      1.0  0.50249  0.92991  0.63500  1.0000
  Fe  Fe162     1.0  0.54852  0.88712  0.59262  1.0000
  S   S325      1.0  0.57571  0.87315  0.60916  1.0000
  Fe  Fe163     1.0  0.50622  0.88739  0.58669  1.0000
  S   S326      1.0  0.48142  0.87387  0.59232  1.0000
  S   S327      1.0  0.54548  0.91345  0.57882  1.0000
  H   H1381     1.0  0.37536  0.87087  0.89500  1.0000
  H   H1382     1.0  0.51494  0.82082  0.80223  1.0000
  C   C1135     1.0  0.51375  0.95898  0.58150  1.0000
  Fe  Fe164     1.0  0.57754  0.77712  0.75228  1.0000
  S   S328      1.0  0.58348  0.80058  0.72601  1.0000
  H   H1383     1.0  0.37975  0.92425  0.55825  1.0000
  Fe  Fe165     1.0  0.53234  0.78533  0.75198  1.0000
  S   S329      1.0  0.53466  0.80934  0.72620  1.0000
  H   H1384     1.0  0.59049  0.90697  0.93456  1.0000
  Fe  Fe166     1.0  0.56249  0.79692  0.70290  1.0000
  S   S330      1.0  0.56433  0.80256  0.65856  1.0000
  Fe  Fe167     1.0  0.55504  0.81094  0.75181  1.0000
  S   S331      1.0  0.54794  0.83464  0.76350  1.0000
  S   S332      1.0  0.55883  0.77260  0.72699  1.0000
  S   S333      1.0  0.55046  0.78784  0.77989  1.0000
  Fe  Fe168     1.0  0.42266  0.77558  0.69028  1.0000
  S   S334      1.0  0.45327  0.76072  0.69589  1.0000
  C   C1136     1.0  0.56953  0.76074  0.66220  1.0000
  C   C1137     1.0  0.49870  0.76733  0.72529  1.0000
  C   C1138     1.0  0.48782  0.76302  0.70993  1.0000
  C   C1139     1.0  0.46658  0.76658  0.71500  1.0000
  N   N78       1.0  0.34945  0.79803  0.60896  1.0000
  C   C1140     1.0  0.59366  0.91828  0.93481  1.0000
  H   H1385     1.0  0.43746  0.95844  0.74085  1.0000
  H   H1386     1.0  0.49773  0.87746  0.95146  1.0000
  C   C1141     1.0  0.47161  0.95576  0.76330  1.0000
  C   C1142     1.0  0.60181  0.94374  0.91128  1.0000
  C   C1143     1.0  0.57343  0.85329  0.62184  1.0000
  C   C1144     1.0  0.58273  0.84435  0.64311  1.0000
  C   C1145     1.0  0.57976  0.82880  0.65471  1.0000
  C   C1146     1.0  0.56842  0.82189  0.64407  1.0000
  C   C1147     1.0  0.55997  0.83059  0.62193  1.0000
  C   C1148     1.0  0.56195  0.84644  0.61132  1.0000
  H   H1387     1.0  0.59191  0.84956  0.65093  1.0000
  H   H1388     1.0  0.58665  0.82203  0.67148  1.0000
  H   H1389     1.0  0.55155  0.82516  0.61331  1.0000
  H   H1390     1.0  0.55496  0.85323  0.59466  1.0000
  C   C1149     1.0  0.47581  0.87406  0.56167  1.0000
  C   C1150     1.0  0.48961  0.87759  0.53772  1.0000
  C   C1151     1.0  0.48479  0.87795  0.51329  1.0000
  C   C1152     1.0  0.46602  0.87502  0.51279  1.0000
  H   H1391     1.0  0.50395  0.88012  0.53795  1.0000
  H   H1392     1.0  0.49531  0.88104  0.49475  1.0000
  C   C1153     1.0  0.57413  0.84081  0.83078  1.0000
  C   C1154     1.0  0.56029  0.85309  0.81876  1.0000
  C   C1155     1.0  0.55246  0.85110  0.79801  1.0000
  C   C1156     1.0  0.55843  0.83682  0.78915  1.0000
  C   C1157     1.0  0.57224  0.82452  0.80114  1.0000
  C   C1158     1.0  0.58006  0.82653  0.82189  1.0000
  H   H1393     1.0  0.55554  0.86407  0.82558  1.0000
  H   H1394     1.0  0.54152  0.86058  0.78917  1.0000
  H   H1395     1.0  0.57693  0.81347  0.79446  1.0000
  H   H1396     1.0  0.59079  0.81699  0.83112  1.0000
  C   C1159     1.0  0.49859  0.88800  0.87630  1.0000
  C   C1160     1.0  0.47857  0.89230  0.87253  1.0000
  C   C1161     1.0  0.47221  0.88517  0.85609  1.0000
  C   C1162     1.0  0.48598  0.87399  0.84302  1.0000
  C   C1163     1.0  0.50595  0.86984  0.84662  1.0000
  C   C1164     1.0  0.51211  0.87653  0.86372  1.0000
  H   H1397     1.0  0.46799  0.90107  0.88240  1.0000
  H   H1398     1.0  0.45680  0.88857  0.85312  1.0000
  H   H1399     1.0  0.51660  0.86120  0.83660  1.0000
  H   H1400     1.0  0.52727  0.87255  0.86749  1.0000
  C   C1165     1.0  0.42062  0.90117  0.78414  1.0000
  C   C1166     1.0  0.43350  0.90931  0.76307  1.0000
  H   H1401     1.0  0.42642  0.89373  0.80137  1.0000
  C   C1167     1.0  0.55151  0.96132  0.80327  1.0000
  C   C1168     1.0  0.57212  0.95952  0.79188  1.0000
  C   C1169     1.0  0.58571  0.94644  0.80278  1.0000
  C   C1170     1.0  0.57866  0.93505  0.82480  1.0000
  C   C1171     1.0  0.55807  0.93692  0.83629  1.0000
  C   C1172     1.0  0.54454  0.95017  0.82573  1.0000
  H   H1402     1.0  0.57764  0.96813  0.77466  1.0000
  H   H1403     1.0  0.60166  0.94497  0.79387  1.0000
  H   H1404     1.0  0.55256  0.92817  0.85333  1.0000
  H   H1405     1.0  0.52862  0.95161  0.83475  1.0000
  C   C1173     1.0  0.54879  0.94663  0.66434  1.0000
  C   C1174     1.0  0.52848  0.95417  0.66802  1.0000
  C   C1175     1.0  0.51432  0.94878  0.65940  1.0000
  C   C1176     1.0  0.52045  0.93609  0.64639  1.0000
  C   C1177     1.0  0.54077  0.92858  0.64256  1.0000
  C   C1178     1.0  0.55483  0.93368  0.65188  1.0000
  H   H1406     1.0  0.52368  0.96425  0.67728  1.0000
  H   H1407     1.0  0.49863  0.95469  0.66224  1.0000
  H   H1408     1.0  0.54566  0.91879  0.63254  1.0000
  H   H1409     1.0  0.57051  0.92780  0.64891  1.0000
  C   C1179     1.0  0.41101  0.81673  0.79745  1.0000
  C   C1180     1.0  0.46756  0.80655  0.60115  1.0000
  C   C1181     1.0  0.59608  0.87784  0.51653  1.0000
  H   H1410     1.0  0.45421  0.84354  0.61383  1.0000
  H   H1411     1.0  0.48169  0.79746  0.59925  1.0000
  S   S335      1.0  0.42200  0.80156  0.67567  1.0000
  C   C1182     1.0  0.45122  0.83892  0.75519  1.0000
  C   C1183     1.0  0.38501  0.93326  0.56360  1.0000
  H   H1412     1.0  0.34681  0.88907  0.48679  1.0000
  S   S336      1.0  0.53605  0.92503  0.50557  1.0000
  H   H1413     1.0  0.37634  0.82909  0.62251  1.0000
  C   C1184     1.0  0.48272  0.81849  0.62644  1.0000
  C   C1185     1.0  0.49758  0.82733  0.62517  1.0000
  C   C1186     1.0  0.47811  0.80720  0.65060  1.0000
  C   C1187     1.0  0.50807  0.82418  0.64597  1.0000
  C   C1188     1.0  0.48869  0.80421  0.67123  1.0000
  C   C1189     1.0  0.50390  0.81247  0.66870  1.0000
  H   H1414     1.0  0.44244  0.82667  0.63008  1.0000
  H   H1415     1.0  0.46641  0.80046  0.65388  1.0000
  H   H1416     1.0  0.51950  0.83091  0.64455  1.0000
  H   H1417     1.0  0.48516  0.79535  0.68921  1.0000
  H   H1418     1.0  0.51245  0.80984  0.68441  1.0000
  H   H1419     1.0  0.52899  0.79824  0.86588  1.0000
  H   H1420     1.0  0.52945  0.89411  0.50514  1.0000
  H   H1421     1.0  0.44668  0.86771  0.57963  1.0000
  H   H1422     1.0  0.45642  0.95972  0.58401  1.0000
  H   H1423     1.0  0.45631  0.93746  0.76133  1.0000
  C   C1190     1.0  0.46517  0.85431  0.92613  1.0000
  C   C1191     1.0  0.45740  0.87050  0.56123  1.0000
  H   H1424     1.0  0.54007  0.81410  0.84272  1.0000
  S   S337      1.0  0.44252  0.92900  0.71441  1.0000
  S   S338      1.0  0.60082  0.75785  0.77122  1.0000
  C   C1192     1.0  0.48963  0.87539  0.97267  1.0000
  N   N79       1.0  0.42668  0.89978  0.65228  1.0000
  C   C1193     1.0  0.42740  0.90410  0.67732  1.0000
  C   C1194     1.0  0.44698  0.89988  0.63473  1.0000
  C   C1195     1.0  0.41175  0.91228  0.63901  1.0000
  C   C1196     1.0  0.42088  0.88419  0.65679  1.0000
  C   C1197     1.0  0.42027  0.87813  0.63473  1.0000
  C   C1198     1.0  0.41477  0.87498  0.68279  1.0000
  C   C1199     1.0  0.41374  0.86388  0.63844  1.0000
  C   C1200     1.0  0.40831  0.86073  0.68624  1.0000
  C   C1201     1.0  0.40775  0.85521  0.66416  1.0000
  H   H1425     1.0  0.43838  0.89522  0.68840  1.0000
  H   H1426     1.0  0.43226  0.91569  0.67325  1.0000
  H   H1427     1.0  0.41227  0.90546  0.69078  1.0000
  H   H1428     1.0  0.45847  0.89008  0.64324  1.0000
  H   H1429     1.0  0.45220  0.91119  0.63207  1.0000
  H   H1430     1.0  0.44735  0.89856  0.61428  1.0000
  H   H1431     1.0  0.41509  0.92429  0.63595  1.0000
  H   H1432     1.0  0.41137  0.91072  0.61897  1.0000
  H   H1433     1.0  0.42433  0.88460  0.61440  1.0000
  H   H1434     1.0  0.41439  0.87866  0.70083  1.0000
  H   H1435     1.0  0.41277  0.85976  0.62129  1.0000
  H   H1436     1.0  0.40318  0.85405  0.70620  1.0000
  H   H1437     1.0  0.40222  0.84435  0.66711  1.0000
  N   N80       1.0  0.56098  0.92092  0.75803  1.0000
  C   C1202     1.0  0.55713  0.93837  0.75503  1.0000
  C   C1203     1.0  0.56854  0.91361  0.78331  1.0000
  C   C1204     1.0  0.57730  0.91658  0.73564  1.0000
  C   C1205     1.0  0.54239  0.91588  0.75721  1.0000
  C   C1206     1.0  0.53358  0.90417  0.77779  1.0000
  C   C1207     1.0  0.53266  0.92260  0.73504  1.0000
  C   C1208     1.0  0.51595  0.89980  0.77627  1.0000
  C   C1209     1.0  0.51496  0.91825  0.73383  1.0000
  C   C1210     1.0  0.50657  0.90695  0.75451  1.0000
  H   H1438     1.0  0.54427  0.94231  0.77068  1.0000
  H   H1439     1.0  0.57061  0.94245  0.75657  1.0000
  H   H1440     1.0  0.55367  0.94492  0.73521  1.0000
  H   H1441     1.0  0.55708  0.91667  0.80099  1.0000
  H   H1442     1.0  0.58231  0.91785  0.78355  1.0000
  H   H1443     1.0  0.57293  0.90049  0.78635  1.0000
  H   H1444     1.0  0.57343  0.92267  0.71577  1.0000
  H   H1445     1.0  0.59163  0.92003  0.73581  1.0000
  H   H1446     1.0  0.58050  0.90358  0.73683  1.0000
  H   H1447     1.0  0.53985  0.89831  0.79545  1.0000
  H   H1448     1.0  0.53861  0.93141  0.71851  1.0000
  H   H1449     1.0  0.50930  0.89100  0.79233  1.0000
  H   H1450     1.0  0.50762  0.92377  0.71687  1.0000
  H   H1451     1.0  0.49257  0.90390  0.75390  1.0000
  H   H1452     1.0  0.37080  0.92755  0.60523  1.0000
  C   C1211     1.0  0.55872  0.74100  0.70109  1.0000
  H   H1453     1.0  0.49008  0.86715  0.64360  1.0000
  C   C1212     1.0  0.59416  0.74276  0.68677  1.0000
  H   H1454     1.0  0.57870  0.95560  0.60978  1.0000
  H   H1455     1.0  0.33793  0.91664  0.89487  1.0000
  C   C1213     1.0  0.50807  0.82716  0.81877  1.0000
  C   C1214     1.0  0.55422  0.75350  0.67974  1.0000
  H   H1456     1.0  0.44297  0.83492  0.59522  1.0000
  C   C1215     1.0  0.44948  0.93233  0.55436  1.0000
  H   H1457     1.0  0.46882  0.91761  0.79820  1.0000
  H   H1458     1.0  0.36741  0.88287  0.86508  1.0000
  H   H1459     1.0  0.49566  0.92900  0.49057  1.0000
  C   C1216     1.0  0.61342  0.86770  0.50686  1.0000
  C   C1217     1.0  0.46624  0.94055  0.77119  1.0000
  H   H1460     1.0  0.46759  0.89599  0.93847  1.0000
  C   C1218     1.0  0.48678  0.84614  0.70766  1.0000
  H   H1461     1.0  0.34504  0.74092  0.73347  1.0000
  H   H1462     1.0  0.47540  0.81146  0.88903  1.0000
  S   S339      1.0  0.53418  0.97727  0.78947  1.0000
  C   C1219     1.0  0.46040  0.89423  0.96007  1.0000
  H   H1463     1.0  0.36120  0.77965  0.57138  1.0000
  N   N81       1.0  0.35837  0.89402  0.89904  1.0000
  C   C1220     1.0  0.34734  0.98075  0.67572  1.0000
  C   C1221     1.0  0.44838  0.81916  0.73362  1.0000
  C   C1222     1.0  0.47342  0.96391  0.71568  1.0000
  C   C1223     1.0  0.50379  0.82662  0.86535  1.0000
  H   H1464     1.0  0.48171  0.87067  0.75530  1.0000
  H   H1465     1.0  0.40318  0.96596  0.58289  1.0000
  C   C1224     1.0  0.46335  0.78775  0.85746  1.0000
  H   H1466     1.0  0.50445  0.96229  0.60034  1.0000
  C   C1225     1.0  0.55408  0.96258  0.58846  1.0000
  H   H1467     1.0  0.49243  0.83315  0.81629  1.0000
  H   H1468     1.0  0.49154  0.91211  0.51695  1.0000
  H   H1469     1.0  0.35610  0.97015  0.66783  1.0000
  H   H1470     1.0  0.62142  0.85873  0.52090  1.0000
  H   H1471     1.0  0.61600  0.76345  0.71370  1.0000
  C   C1226     1.0  0.56681  0.96511  0.60303  1.0000
  H   H1472     1.0  0.51503  0.76462  0.72122  1.0000
  H   H1473     1.0  0.55249  0.89095  0.97678  1.0000
  H   H1474     1.0  0.46849  0.97327  0.69866  1.0000
  C   C1227     1.0  0.46208  0.86624  0.96430  1.0000
  C   C1228     1.0  0.39609  0.94348  0.54383  1.0000
  H   H1475     1.0  0.59306  0.96467  0.97575  1.0000
  S   S340      1.0  0.40090  0.84661  0.92753  1.0000
  C   C1229     1.0  0.45255  0.87093  0.53683  1.0000
  S   S341      1.0  0.36328  0.87443  0.54884  1.0000
  C   C1230     1.0  0.42610  0.91908  0.74077  1.0000
  H   H1476     1.0  0.46403  0.90350  0.96774  1.0000
  C   C1231     1.0  0.45193  0.83214  0.61124  1.0000
  Fe  Fe169     1.0  0.53048  0.91053  0.54778  1.0000
  S   S342      1.0  0.49942  0.91381  0.57336  1.0000
  H   H1477     1.0  0.59726  0.92660  0.89217  1.0000
  H   H1478     1.0  0.45901  0.78314  0.76871  1.0000
  H   H1479     1.0  0.44914  0.90808  0.76419  1.0000
  H   H1480     1.0  0.45617  0.80140  0.61789  1.0000
  H   H1481     1.0  0.37722  0.91385  0.75977  1.0000
  H   H1482     1.0  0.43830  0.86816  0.53660  1.0000
  S   S343      1.0  0.52650  0.97659  0.72127  1.0000
  C   C1232     1.0  0.46042  0.84290  0.68807  1.0000
  H   H1483     1.0  0.38493  0.84574  0.75555  1.0000
  C   C1233     1.0  0.40027  0.90286  0.78306  1.0000
  C   C1234     1.0  0.40585  0.92061  0.73955  1.0000
  H   H1484     1.0  0.41134  0.96311  0.53573  1.0000
  N   N82       1.0  0.47151  0.82151  0.60458  1.0000
  H   H1485     1.0  0.36890  0.78106  0.63326  1.0000
  C   C1235     1.0  0.39289  0.91264  0.76078  1.0000
  H   H1486     1.0  0.40016  0.92769  0.72215  1.0000
  H   H1487     1.0  0.44196  0.94574  0.48919  1.0000
  H   H1488     1.0  0.65605  0.80302  0.70207  1.0000
  S   S344      1.0  0.38395  0.82463  0.72362  1.0000
  C   C1236     1.0  0.39238  0.83402  0.76416  1.0000
  C   C1237     1.0  0.45809  0.95308  0.56881  1.0000
  C   C1238     1.0  0.37655  0.90147  0.88961  1.0000
  S   S345      1.0  0.59092  0.87160  0.95764  1.0000
  C   C1239     1.0  0.35342  0.74944  0.65818  1.0000
  C   C1240     1.0  0.59752  0.92930  0.91095  1.0000
  H   H1489     1.0  0.38444  0.84762  0.98238  1.0000
  H   H1490     1.0  0.46098  0.80845  0.58311  1.0000
  H   H1491     1.0  0.48376  0.84142  0.57775  1.0000
  C   C1241     1.0  0.44107  0.96882  0.74544  1.0000
  S   S346      1.0  0.43242  0.94984  0.64262  1.0000
  H   H1492     1.0  0.49010  0.96265  0.71265  1.0000
  H   H1493     1.0  0.50589  0.79675  0.81448  1.0000
  N   N83       1.0  0.46736  0.87806  0.97527  1.0000
  H   H1494     1.0  0.37812  0.79906  0.61653  1.0000
  C   C1242     1.0  0.36278  0.87986  0.88727  1.0000
  H   H1495     1.0  0.47325  0.80899  0.76617  1.0000
  H   H1496     1.0  0.43567  0.91976  0.52048  1.0000
  H   H1497     1.0  0.38929  0.89392  0.89891  1.0000
  H   H1498     1.0  0.59088  0.91273  0.97695  1.0000
  C   C1243     1.0  0.37995  0.93516  0.59018  1.0000
  C   C1244     1.0  0.48260  0.82914  0.57829  1.0000
  S   S347      1.0  0.34969  0.76849  0.69419  1.0000
  H   H1499     1.0  0.48198  0.90826  0.68524  1.0000
  H   H1500     1.0  0.57220  0.89726  0.50625  1.0000
  S   S348      1.0  0.37091  0.91329  0.49440  1.0000
  H   H1501     1.0  0.45153  0.78127  0.85946  1.0000
  S   S349      1.0  0.40140  0.94222  0.51001  1.0000
  C   C1245     1.0  0.47044  0.95704  0.54391  1.0000
  H   H1502     1.0  0.45669  0.90561  0.53226  1.0000
  C   C1246     1.0  0.48439  0.85952  0.66214  1.0000
  H   H1503     1.0  0.50685  0.86137  0.68186  1.0000
  H   H1504     1.0  0.49812  0.82219  0.57326  1.0000
  H   H1505     1.0  0.46021  0.85589  0.64741  1.0000
  Fe  Fe170     1.0  0.39893  0.98184  0.68127  1.0000
  H   H1506     1.0  0.47981  0.78137  0.82058  1.0000
  H   H1507     1.0  0.58200  0.73925  0.75193  1.0000
  C   C1247     1.0  0.40096  0.88145  0.97733  1.0000
  H   H1508     1.0  0.40071  0.84184  0.79455  1.0000
  S   S350      1.0  0.39335  0.77821  0.72020  1.0000
  C   C1248     1.0  0.45207  0.91491  0.51508  1.0000
  C   C1249     1.0  0.47262  0.94858  0.52422  1.0000
  H   H1509     1.0  0.35828  0.82005  0.58566  1.0000
  H   H1510     1.0  0.48776  0.91302  0.48413  1.0000
  N   N84       1.0  0.46420  0.92760  0.50722  1.0000
  C   C1250     1.0  0.48590  0.95824  0.77622  1.0000
  H   H1511     1.0  0.47469  0.83034  0.56172  1.0000
  C   C1251     1.0  0.46758  0.85307  0.66434  1.0000
  C   C1252     1.0  0.49392  0.85614  0.68372  1.0000
  C   C1253     1.0  0.34523  0.89896  0.97117  1.0000
  H   H1512     1.0  0.44735  0.83829  0.68842  1.0000
  Fe  Fe171     1.0  0.42638  0.94896  0.68648  1.0000
  C   C1254     1.0  0.46207  0.93603  0.52875  1.0000
  H   H1513     1.0  0.43323  0.96963  0.76625  1.0000
  Fe  Fe172     1.0  0.43530  0.97499  0.63762  1.0000
  C   C1255     1.0  0.41038  0.88389  0.95025  1.0000
  S   S351      1.0  0.46307  0.98354  0.61204  1.0000
  C   C1256     1.0  0.48991  0.87693  0.73684  1.0000
  C   C1257     1.0  0.64246  0.74511  0.70774  1.0000
  Fe  Fe173     1.0  0.39847  0.91976  0.50035  1.0000
  C   C1258     1.0  0.37822  0.85741  0.56473  1.0000
  Fe  Fe174     1.0  0.40419  0.87175  0.83011  1.0000
  S   S352      1.0  0.38431  0.89231  0.80903  1.0000
  Fe  Fe175     1.0  0.39179  0.80428  0.70294  1.0000
  C   C1259     1.0  0.52850  0.80665  0.84621  1.0000
  H   H1514     1.0  0.53346  0.79954  0.83056  1.0000
  C   C1260     1.0  0.47921  0.78797  0.83541  1.0000
  C   C1261     1.0  0.48567  0.92014  0.49937  1.0000
  H   H1515     1.0  0.54722  0.95481  0.54480  1.0000
  Fe  Fe176     1.0  0.40526  0.79995  0.64582  1.0000
  C   C1262     1.0  0.59843  0.93615  0.96020  1.0000
  H   H1516     1.0  0.36841  0.75201  0.64986  1.0000
  S   S353      1.0  0.57266  0.98204  0.71759  1.0000
  H   H1517     1.0  0.43384  0.97935  0.73189  1.0000
  C   C1263     1.0  0.33853  0.80621  0.63104  1.0000
  C   C1264     1.0  0.40126  0.83182  0.78629  1.0000
  C   C1265     1.0  0.39339  0.82118  0.75294  1.0000
  C   C1266     1.0  0.38644  0.94696  0.59723  1.0000
  N   N85       1.0  0.52468  0.97167  0.56478  1.0000
  H   H1518     1.0  0.51687  0.83665  0.81545  1.0000
  S   S354      1.0  0.41596  0.81140  0.60295  1.0000
  C   C1267     1.0  0.47004  0.83893  0.71041  1.0000
  H   H1519     1.0  0.49440  0.84427  0.72402  1.0000
  H   H1520     1.0  0.48068  0.87238  0.92479  1.0000
  H   H1521     1.0  0.52418  0.94765  0.58730  1.0000
  S   S355      1.0  0.44094  0.83738  0.86422  1.0000
  H   H1522     1.0  0.50197  0.98088  0.62499  1.0000
  Fe  Fe177     1.0  0.55591  0.97515  0.69214  1.0000
  C   C1268     1.0  0.46605  0.98418  0.74087  1.0000
  S   S356      1.0  0.39303  0.95718  0.68998  1.0000
  C   C1269     1.0  0.39814  0.95681  0.57765  1.0000
  S   S357      1.0  0.40874  0.89604  0.52529  1.0000
  C   C1270     1.0  0.47725  0.80506  0.87361  1.0000
  H   H1523     1.0  0.49587  0.75701  0.69398  1.0000
  S   S358      1.0  0.40808  0.77355  0.65796  1.0000
  H   H1524     1.0  0.60488  0.95223  0.89258  1.0000
  C   C1271     1.0  0.59400  0.92165  0.95904  1.0000
  S   S359      1.0  0.37475  0.80497  0.67168  1.0000
  C   C1272     1.0  0.52223  0.88089  0.70636  1.0000
  H   H1525     1.0  0.40387  0.85817  0.53206  1.0000
  H   H1526     1.0  0.48251  0.95201  0.50529  1.0000
  C   C1273     1.0  0.56378  0.97961  0.61008  1.0000
  H   H1527     1.0  0.48875  0.81031  0.73329  1.0000
  H   H1528     1.0  0.43376  0.82655  0.72914  1.0000
  H   H1529     1.0  0.45543  0.81207  0.71808  1.0000
  N   N86       1.0  0.46230  0.82874  0.73614  1.0000
  C   C1274     1.0  0.53479  0.89997  0.48487  1.0000
  S   S360      1.0  0.43189  0.97328  0.68134  1.0000
  H   H1530     1.0  0.43992  0.77691  0.74008  1.0000
  H   H1531     1.0  0.40356  0.79606  0.75591  1.0000
  C   C1275     1.0  0.47950  0.88959  0.72053  1.0000
  H   H1532     1.0  0.41838  0.87491  0.91422  1.0000
  C   C1276     1.0  0.48834  0.77461  0.74654  1.0000
  H   H1533     1.0  0.48872  0.82329  0.75439  1.0000
  C   C1277     1.0  0.47905  0.81746  0.74775  1.0000
  H   H1534     1.0  0.57049  0.87335  0.71675  1.0000
  C   C1278     1.0  0.51094  0.87258  0.72988  1.0000
  H   H1535     1.0  0.33758  0.97621  0.69502  1.0000
  C   C1279     1.0  0.36987  0.79034  0.61442  1.0000
  H   H1536     1.0  0.34637  0.81544  0.63223  1.0000
  H   H1537     1.0  0.43783  0.84712  0.74810  1.0000
  S   S361      1.0  0.50129  0.77915  0.76758  1.0000
  H   H1538     1.0  0.35551  0.85356  0.60057  1.0000
  Fe  Fe178     1.0  0.39935  0.96006  0.64541  1.0000
  H   H1539     1.0  0.46096  0.84622  0.75836  1.0000
  H   H1540     1.0  0.44429  0.81059  0.75260  1.0000
  Fe  Fe179     1.0  0.42240  0.83685  0.83541  1.0000
  H   H1541     1.0  0.54925  0.86724  0.74006  1.0000
  C   C1280     1.0  0.40151  0.82942  0.58920  1.0000
  C   C1281     1.0  0.41135  0.80377  0.78689  1.0000
  H   H1542     1.0  0.44562  0.83170  0.77515  1.0000
  C   C1282     1.0  0.55367  0.87620  0.72178  1.0000
  H   H1543     1.0  0.54907  0.88800  0.72714  1.0000
  H   H1544     1.0  0.50443  0.81943  0.88591  1.0000
  C   C1283     1.0  0.38229  0.83530  0.60273  1.0000
  H   H1545     1.0  0.42418  0.83334  0.55327  1.0000
  C   C1284     1.0  0.40275  0.80602  0.76444  1.0000
  H   H1546     1.0  0.56618  0.85509  0.69147  1.0000
  H   H1547     1.0  0.57083  0.88218  0.67015  1.0000
  Fe  Fe180     1.0  0.41293  0.85220  0.88317  1.0000
  C   C1285     1.0  0.41053  0.87323  0.93479  1.0000
  C   C1286     1.0  0.47356  0.92899  0.79202  1.0000
  C   C1287     1.0  0.40929  0.83779  0.56381  1.0000
  S   S362      1.0  0.37912  0.94949  0.63044  1.0000
  S   S363      1.0  0.42439  0.81417  0.82290  1.0000
  H   H1548     1.0  0.51828  0.90108  0.67240  1.0000
  C   C1288     1.0  0.49399  0.79690  0.83208  1.0000
  H   H1549     1.0  0.50417  0.94874  0.80639  1.0000
  C   C1289     1.0  0.46713  0.77791  0.75186  1.0000
  C   C1290     1.0  0.45628  0.77430  0.73575  1.0000
  H   H1550     1.0  0.54630  0.97521  0.52779  1.0000
  H   H1551     1.0  0.54859  0.88636  0.65700  1.0000
  C   C1291     1.0  0.37052  0.84916  0.59032  1.0000
  C   C1292     1.0  0.39778  0.85185  0.55174  1.0000
  C   C1293     1.0  0.40101  0.86021  0.94626  1.0000
  N   N87       1.0  0.54448  0.87597  0.69939  1.0000
  C   C1294     1.0  0.54959  0.85966  0.69460  1.0000
  C   C1295     1.0  0.55415  0.88634  0.67503  1.0000
  H   H1552     1.0  0.55153  0.89874  0.67753  1.0000
  S   S364      1.0  0.39378  0.84987  0.85639  1.0000
  H   H1553     1.0  0.41769  0.89397  0.94123  1.0000
  H   H1554     1.0  0.54443  0.85920  0.67654  1.0000
  H   H1555     1.0  0.60119  0.76134  0.65233  1.0000
  H   H1556     1.0  0.54272  0.85105  0.71167  1.0000
  H   H1557     1.0  0.51833  0.86269  0.74322  1.0000
  H   H1558     1.0  0.41888  0.79207  0.79549  1.0000
  Fe  Fe181     1.0  0.37849  0.77850  0.68639  1.0000
  Fe  Fe182     1.0  0.38300  0.88884  0.51604  1.0000
  C   C1296     1.0  0.48712  0.93196  0.80475  1.0000
  H   H1559     1.0  0.36165  0.80557  0.56671  1.0000
  C   C1297     1.0  0.51112  0.89387  0.69040  1.0000
  C   C1298     1.0  0.49009  0.89809  0.69749  1.0000
  H   H1560     1.0  0.64536  0.74900  0.68619  1.0000
  H   H1561     1.0  0.59067  0.87676  0.53794  1.0000
  C   C1299     1.0  0.40272  0.95519  0.55095  1.0000
  C   C1300     1.0  0.49315  0.80609  0.85072  1.0000
  C   C1301     1.0  0.62581  0.75329  0.72326  1.0000
  C   C1302     1.0  0.64610  0.78655  0.73792  1.0000
  H   H1562     1.0  0.44053  0.92321  0.55957  1.0000
  H   H1563     1.0  0.46323  0.89308  0.72602  1.0000
  H   H1564     1.0  0.49143  0.96920  0.77107  1.0000
  C   C1303     1.0  0.49346  0.94648  0.79663  1.0000
  C   C1304     1.0  0.58942  0.75539  0.66571  1.0000
  H   H1565     1.0  0.50331  0.95636  0.57108  1.0000
  C   C1305     1.0  0.60232  0.94719  0.93547  1.0000
  H   H1566     1.0  0.34933  0.87426  0.89151  1.0000
  C   C1306     1.0  0.62186  0.74823  0.75109  1.0000
  C   C1307     1.0  0.50934  0.98580  0.55644  1.0000
  C   C1308     1.0  0.44768  0.94073  0.57401  1.0000
  H   H1567     1.0  0.51522  0.83432  0.86074  1.0000
  H   H1568     1.0  0.52720  0.96468  0.52771  1.0000
  H   H1569     1.0  0.47820  0.96683  0.53977  1.0000
  H   H1570     1.0  0.45001  0.79600  0.89370  1.0000
  H   H1571     1.0  0.34455  0.90812  0.86598  1.0000
  H   H1572     1.0  0.48879  0.83469  0.86527  1.0000
  H   H1573     1.0  0.53869  0.75798  0.67727  1.0000
  H   H1574     1.0  0.43770  0.93793  0.59316  1.0000
  N   N88       1.0  0.46319  0.96802  0.74177  1.0000
  H   H1575     1.0  0.60590  0.95852  0.93423  1.0000
  C   C1309     1.0  0.34964  0.87506  0.94385  1.0000
  H   H1576     1.0  0.49281  0.92295  0.82085  1.0000
  C   C1310     1.0  0.46251  0.79611  0.87669  1.0000
  Fe  Fe183     1.0  0.42572  0.88962  0.48649  1.0000
  C   C1311     1.0  0.34734  0.77756  0.58528  1.0000
  H   H1577     1.0  0.64002  0.76794  0.77228  1.0000
  H   H1578     1.0  0.63160  0.79414  0.74302  1.0000
  H   H1579     1.0  0.44730  0.83650  0.93257  1.0000
  C   C1312     1.0  0.47035  0.86494  0.93741  1.0000
  H   H1580     1.0  0.45381  0.90889  0.49846  1.0000
  C   C1313     1.0  0.53807  0.97471  0.58001  1.0000
  C   C1314     1.0  0.65090  0.77176  0.75444  1.0000
  H   H1581     1.0  0.47124  0.85399  0.90526  1.0000
  S   S365      1.0  0.40254  0.98559  0.63665  1.0000
  C   C1315     1.0  0.35308  0.89027  0.92867  1.0000
  H   H1582     1.0  0.34397  0.90807  0.98195  1.0000
  H   H1583     1.0  0.55662  0.95092  0.58438  1.0000
  H   H1584     1.0  0.44372  0.89668  0.96155  1.0000
  C   C1316     1.0  0.58569  0.88936  0.49867  1.0000
  H   H1585     1.0  0.56592  0.77080  0.64623  1.0000
  C   C1317     1.0  0.34133  0.75605  0.67945  1.0000
  H   H1586     1.0  0.35845  0.98650  0.67987  1.0000
  H   H1587     1.0  0.35166  0.86509  0.93482  1.0000
  C   C1318     1.0  0.35154  0.81034  0.58381  1.0000
  H   H1588     1.0  0.61972  0.95558  0.97166  1.0000
  H   H1589     1.0  0.48219  0.98530  0.73463  1.0000
  C   C1319     1.0  0.44372  0.84514  0.96810  1.0000
  H   H1590     1.0  0.60984  0.73942  0.68846  1.0000
  C   C1320     1.0  0.39169  0.85774  0.97335  1.0000
  H   H1591     1.0  0.33658  0.81580  0.57820  1.0000
  C   C1321     1.0  0.34607  0.73939  0.64769  1.0000
  C   C1322     1.0  0.44852  0.85597  0.97941  1.0000
  C   C1323     1.0  0.35052  0.90217  0.94323  1.0000
  C   C1324     1.0  0.65986  0.79148  0.71485  1.0000
  H   H1592     1.0  0.34465  0.75961  0.56645  1.0000
  H   H1593     1.0  0.35269  0.91403  0.93319  1.0000
  H   H1594     1.0  0.43183  0.73915  0.68157  1.0000
  H   H1595     1.0  0.35970  0.98589  0.62425  1.0000
  H   H1596     1.0  0.49957  0.98323  0.54497  1.0000
  H   H1597     1.0  0.41986  0.73964  0.72929  1.0000
  C   C1325     1.0  0.33916  0.78598  0.60614  1.0000
  C   C1326     1.0  0.33798  0.76610  0.58220  1.0000
  C   C1327     1.0  0.34128  0.90525  0.88830  1.0000
  Fe  Fe184     1.0  0.54224  0.98537  0.74490  1.0000
  H   H1598     1.0  0.33757  0.79777  0.65090  1.0000
  H   H1599     1.0  0.57329  0.98130  0.62216  1.0000
  H   H1600     1.0  0.43287  0.83776  0.97970  1.0000
  C   C1328     1.0  0.34398  0.87209  0.97174  1.0000
  C   C1329     1.0  0.45755  0.93903  0.48356  1.0000
  H   H1601     1.0  0.49566  0.86304  0.98244  1.0000
  H   H1602     1.0  0.49409  0.88361  0.98185  1.0000
  H   H1603     1.0  0.69995  0.99366  0.14272  1.0000
  S   S366      1.0  0.66900  0.98988  0.21517  1.0000
  H   H1604     1.0  0.87837  0.20129  0.79762  1.0000
  H   H1605     1.0  0.70681  0.16698  0.82471  1.0000
  C   C1330     1.0  0.70354  0.15456  0.79674  1.0000
  H   H1606     1.0  0.96096  0.23359  0.74170  1.0000
  C   C1331     1.0  0.69712  0.16085  0.81958  1.0000
  C   C1332     1.0  0.70811  0.22672  0.60990  1.0000
  C   C1333     1.0  0.67755  0.18574  0.58272  1.0000
  C   C1334     1.0  0.70765  0.15676  0.63241  1.0000
  C   C1335     1.0  0.72644  0.18282  0.62000  1.0000
  H   H1607     1.0  0.67973  0.12335  0.77300  1.0000
  H   H1608     1.0  0.67327  0.15806  0.58037  1.0000
  C   C1336     1.0  0.85888  0.20126  0.74467  1.0000
  C   C1337     1.0  0.67063  0.21809  0.76819  1.0000
  C   C1338     1.0  0.70760  0.23623  0.58435  1.0000
  H   H1609     1.0  0.82969  0.22100  0.68977  1.0000
  N   N89       1.0  0.68237  0.17109  0.60320  1.0000
  H   H1610     1.0  0.81963  0.23229  0.61614  1.0000
  C   C1339     1.0  0.69105  0.14684  0.78967  1.0000
  C   C1340     1.0  0.69145  0.21965  0.62407  1.0000
  C   C1341     1.0  0.73315  0.16920  0.63806  1.0000
  H   H1611     1.0  0.90234  0.22198  0.74857  1.0000
  H   H1612     1.0  0.81147  0.19431  0.75254  1.0000
  Fe  Fe185     1.0  0.75868  0.20894  0.70502  1.0000
  S   S367      1.0  0.73512  0.22961  0.69120  1.0000
  S   S368      1.0  0.79116  0.21148  0.70234  1.0000
  Fe  Fe186     1.0  0.73070  0.18514  0.71176  1.0000
  S   S369      1.0  0.70551  0.20421  0.69802  1.0000
  S   S370      1.0  0.72801  0.15922  0.72505  1.0000
  Fe  Fe187     1.0  0.72989  0.21440  0.66677  1.0000
  H   H1613     1.0  0.77033  0.23498  0.73471  1.0000
  Fe  Fe188     1.0  0.71315  0.21731  0.72391  1.0000
  H   H1614     1.0  0.67089  0.16332  0.68261  1.0000
  S   S371      1.0  0.75481  0.19436  0.67822  1.0000
  S   S372      1.0  0.73691  0.19764  0.74003  1.0000
  H   H1615     1.0  0.69185  0.21211  0.64371  1.0000
  C   C1342     1.0  0.79908  0.22659  0.71128  1.0000
  H   H1616     1.0  0.69706  0.14233  0.77170  1.0000
  H   H1617     1.0  0.80381  0.21364  0.78134  1.0000
  C   C1343     1.0  0.70022  0.17053  0.61421  1.0000
  C   C1344     1.0  0.68349  0.13895  0.69820  1.0000
  C   C1345     1.0  0.68184  0.15544  0.69375  1.0000
  C   C1346     1.0  0.69508  0.16184  0.70236  1.0000
  C   C1347     1.0  0.71017  0.15179  0.71538  1.0000
  C   C1348     1.0  0.71129  0.13533  0.72075  1.0000
  C   C1349     1.0  0.69801  0.12893  0.71223  1.0000
  N   N90       1.0  0.87099  0.21982  0.76417  1.0000
  H   H1618     1.0  0.69409  0.17451  0.69802  1.0000
  H   H1619     1.0  0.72294  0.12747  0.73080  1.0000
  H   H1620     1.0  0.69971  0.11621  0.71527  1.0000
  H   H1621     1.0  0.73371  0.19297  0.61539  1.0000
  C   C1350     1.0  0.67049  0.21107  0.84191  1.0000
  H   H1622     1.0  0.68314  0.20172  0.83718  1.0000
  H   H1623     1.0  0.74541  0.16880  0.64766  1.0000
  C   C1351     1.0  0.67571  0.20178  0.76939  1.0000
  S   S373      1.0  0.68765  0.23050  0.74975  1.0000
  C   C1352     1.0  0.78591  0.23638  0.72751  1.0000
  H   H1624     1.0  0.66778  0.11503  0.82231  1.0000
  H   H1625     1.0  0.66865  0.14257  0.75532  1.0000
  H   H1626     1.0  0.70576  0.19457  0.59457  1.0000
  H   H1627     1.0  0.79593  0.22595  0.62966  1.0000
  H   H1628     1.0  0.67308  0.16440  0.85317  1.0000
  C   C1353     1.0  0.72390  0.15614  0.64403  1.0000
  H   H1629     1.0  0.71825  0.15582  0.78413  1.0000
  C   C1354     1.0  0.82358  0.19905  0.75537  1.0000
  H   H1630     1.0  0.88951  0.21970  0.72487  1.0000
  H   H1631     1.0  0.72894  0.14562  0.65841  1.0000
  C   C1355     1.0  0.80588  0.23337  0.63209  1.0000
  C   C1356     1.0  0.84331  0.19469  0.74200  1.0000
  C   C1357     1.0  0.81929  0.20995  0.77158  1.0000
  H   H1632     1.0  0.83051  0.22508  0.78706  1.0000
  S   S374      1.0  0.72964  0.22472  0.62325  1.0000
  H   H1633     1.0  0.69029  0.19664  0.75903  1.0000
  S   S375      1.0  0.67007  0.13130  0.68173  1.0000
  C   C1358     1.0  0.81932  0.22856  0.70221  1.0000
  H   H1634     1.0  0.84643  0.18639  0.72907  1.0000
  H   H1635     1.0  0.70058  0.14648  0.63847  1.0000
  H   H1636     1.0  0.87374  0.19745  0.73353  1.0000
  C   C1359     1.0  0.71024  0.18357  0.60815  1.0000
  C   C1360     1.0  0.67818  0.15935  0.83557  1.0000
  C   C1361     1.0  0.67149  0.14534  0.80526  1.0000
  H   H1637     1.0  0.68648  0.14588  0.60534  1.0000
  H   H1638     1.0  0.86005  0.21801  0.80663  1.0000
  C   C1362     1.0  0.68578  0.15738  0.59055  1.0000
  C   C1363     1.0  0.85497  0.21253  0.76091  1.0000
  C   C1364     1.0  0.83471  0.21654  0.77449  1.0000
  C   C1365     1.0  0.67411  0.22262  0.61280  1.0000
  H   H1639     1.0  0.67321  0.19652  0.59128  1.0000
  H   H1640     1.0  0.69052  0.18719  0.56561  1.0000
  H   H1641     1.0  0.88609  0.21960  0.79532  1.0000
  H   H1642     1.0  0.70010  0.15679  0.57538  1.0000
  H   H1643     1.0  0.68541  0.22958  0.81574  1.0000
  C   C1366     1.0  0.87400  0.21443  0.79216  1.0000
  H   H1644     1.0  0.81067  0.22786  0.65157  1.0000
  C   C1367     1.0  0.67334  0.23295  0.58778  1.0000
  H   H1645     1.0  0.89727  0.20295  0.75086  1.0000
  H   H1646     1.0  0.66618  0.15887  0.64019  1.0000
  C   C1368     1.0  0.89082  0.21584  0.74631  1.0000
  C   C1369     1.0  0.67181  0.22677  0.82984  1.0000
  H   H1647     1.0  0.66593  0.17942  0.78513  1.0000
  C   C1370     1.0  0.66554  0.15169  0.82862  1.0000
  C   C1371     1.0  0.66558  0.13242  0.77228  1.0000
  C   C1372     1.0  0.86490  0.23732  0.75819  1.0000
  Fe  Fe189     1.0  0.80921  0.37797  0.33684  1.0000
  S   S376      1.0  0.83305  0.35583  0.33989  1.0000
  S   S377      1.0  0.77552  0.38153  0.34041  1.0000
  Fe  Fe190     1.0  0.83998  0.39919  0.32320  1.0000
  S   S378      1.0  0.86655  0.37914  0.32324  1.0000
  S   S379      1.0  0.84205  0.42464  0.31660  1.0000
  Fe  Fe191     1.0  0.85017  0.36905  0.30193  1.0000
  S   S380      1.0  0.86322  0.35668  0.26746  1.0000
  Fe  Fe192     1.0  0.84734  0.36795  0.36101  1.0000
  S   S381      1.0  0.86240  0.35685  0.39670  1.0000
  S   S382      1.0  0.82549  0.39037  0.29796  1.0000
  S   S383      1.0  0.82162  0.38869  0.36183  1.0000
  Fe  Fe193     1.0  0.86728  0.38806  0.12103  1.0000
  S   S384      1.0  0.83398  0.38805  0.13146  1.0000
  S   S385      1.0  0.88120  0.39602  0.14819  1.0000
  Fe  Fe194     1.0  0.87314  0.37777  0.06851  1.0000
  S   S386      1.0  0.84047  0.37652  0.07533  1.0000
  S   S387      1.0  0.89543  0.37245  0.03116  1.0000
  Fe  Fe195     1.0  0.83441  0.39941  0.08828  1.0000
  S   S388      1.0  0.81028  0.41791  0.07070  1.0000
  Fe  Fe196     1.0  0.84326  0.36521  0.11754  1.0000
  S   S389      1.0  0.82860  0.34465  0.14062  1.0000
  S   S390      1.0  0.86696  0.40164  0.07871  1.0000
  S   S391      1.0  0.87664  0.36429  0.11013  1.0000
  Fe  Fe197     1.0  0.81442  0.46724  0.18648  1.0000
  C   C1373     1.0  0.75168  0.45821  0.13507  1.0000
  S   S392      1.0  0.83933  0.44681  0.19490  1.0000
  C   C1374     1.0  0.72061  0.41607  0.27419  1.0000
  C   C1375     1.0  0.79655  0.41565  0.25322  1.0000
  C   C1376     1.0  0.78041  0.44253  0.25340  1.0000
  C   C1377     1.0  0.79868  0.46638  0.09077  1.0000
  H   H1648     1.0  0.89237  0.32573  0.01501  1.0000
  H   H1649     1.0  0.94917  0.42571  0.37128  1.0000
  H   H1650     1.0  0.69900  0.46830  0.23792  1.0000
  S   S393      1.0  0.79008  0.46152  0.17190  1.0000
  Fe  Fe198     1.0  0.72015  0.37093  0.18288  1.0000
  S   S394      1.0  0.68832  0.38415  0.19043  1.0000
  S   S395      1.0  0.73552  0.36828  0.14144  1.0000
  Fe  Fe199     1.0  0.72393  0.36364  0.24097  1.0000
  S   S396      1.0  0.69210  0.37609  0.25363  1.0000
  S   S397      1.0  0.74707  0.34956  0.26574  1.0000
  H   H1651     1.0  0.71321  0.31812  0.11468  1.0000
  C   C1378     1.0  0.83583  0.33541  0.01059  1.0000
  Fe  Fe200     1.0  0.70004  0.39481  0.21656  1.0000
  S   S398      1.0  0.69175  0.42131  0.21350  1.0000
  S   S399      1.0  0.71499  0.35034  0.21660  1.0000
  S   S400      1.0  0.73229  0.38306  0.20586  1.0000
  C   C1379     1.0  0.89809  0.40781  0.32051  1.0000
  C   C1380     1.0  0.89252  0.43507  0.11064  1.0000
  S   S401      1.0  0.87806  0.40464  0.45636  1.0000
  C   C1381     1.0  0.88031  0.30919  0.06963  1.0000
  H   H1652     1.0  0.76948  0.45124  0.26408  1.0000
  H   H1653     1.0  0.77680  0.44479  0.23321  1.0000
  C   C1382     1.0  0.93976  0.39863  0.33074  1.0000
  C   C1383     1.0  0.88598  0.41442  0.36344  1.0000
  Fe  Fe201     1.0  0.76903  0.47684  0.19801  1.0000
  H   H1654     1.0  0.90741  0.39912  0.30852  1.0000
  H   H1655     1.0  0.70935  0.43545  0.29408  1.0000
  C   C1384     1.0  0.87111  0.33102  0.98976  1.0000
  H   H1656     1.0  0.89071  0.42591  0.10109  1.0000
  H   H1657     1.0  0.97791  0.41237  0.34167  1.0000
  C   C1385     1.0  0.90065  0.38747  0.36073  1.0000
  H   H1658     1.0  0.90363  0.38426  0.38144  1.0000
  H   H1659     1.0  0.73583  0.39766  0.25314  1.0000
  H   H1660     1.0  0.80638  0.36689  0.42735  1.0000
  H   H1661     1.0  0.79564  0.44537  0.25066  1.0000
  C   C1386     1.0  0.95936  0.40079  0.32893  1.0000
  H   H1662     1.0  0.87075  0.34925  0.05982  1.0000
  H   H1663     1.0  0.89380  0.33661  0.04897  1.0000
  H   H1664     1.0  0.70571  0.41380  0.27551  1.0000
  C   C1387     1.0  0.72813  0.45626  0.22073  1.0000
  C   C1388     1.0  0.70718  0.45820  0.22946  1.0000
  C   C1389     1.0  0.69655  0.44733  0.22706  1.0000
  C   C1390     1.0  0.70670  0.43397  0.21676  1.0000
  C   C1391     1.0  0.72783  0.43175  0.20821  1.0000
  C   C1392     1.0  0.73854  0.44301  0.20992  1.0000
  H   H1665     1.0  0.81622  0.48367  0.28281  1.0000
  H   H1666     1.0  0.86603  0.43541  0.07832  1.0000
  H   H1667     1.0  0.73580  0.42156  0.19999  1.0000
  H   H1668     1.0  0.75474  0.44134  0.20324  1.0000
  C   C1393     1.0  0.88584  0.37035  0.00454  1.0000
  C   C1394     1.0  0.86506  0.37246  0.00623  1.0000
  C   C1395     1.0  0.92281  0.40648  0.34684  1.0000
  H   H1669     1.0  0.85470  0.37494  0.02399  1.0000
  H   H1670     1.0  0.76937  0.40228  0.24958  1.0000
  C   C1396     1.0  0.80650  0.43646  0.07843  1.0000
  C   C1397     1.0  0.79577  0.44955  0.06313  1.0000
  C   C1398     1.0  0.79204  0.46451  0.06912  1.0000
  H   H1671     1.0  0.76426  0.46428  0.13049  1.0000
  C   C1399     1.0  0.80946  0.45327  0.10614  1.0000
  C   C1400     1.0  0.81350  0.43829  0.09987  1.0000
  H   H1672     1.0  0.79024  0.44815  0.04663  1.0000
  C   C1401     1.0  0.84097  0.33243  0.03566  1.0000
  H   H1673     1.0  0.81499  0.45481  0.12245  1.0000
  H   H1674     1.0  0.82182  0.42817  0.11173  1.0000
  C   C1402     1.0  0.76126  0.36091  0.14107  1.0000
  C   C1403     1.0  0.77529  0.36402  0.11724  1.0000
  C   C1404     1.0  0.79600  0.35889  0.11706  1.0000
  C   C1405     1.0  0.80269  0.35028  0.14053  1.0000
  C   C1406     1.0  0.78862  0.34677  0.16421  1.0000
  C   C1407     1.0  0.76791  0.35235  0.16460  1.0000
  H   H1675     1.0  0.77018  0.37064  0.09903  1.0000
  H   H1676     1.0  0.80674  0.36143  0.09864  1.0000
  H   H1677     1.0  0.79374  0.34007  0.18238  1.0000
  H   H1678     1.0  0.75712  0.34989  0.18309  1.0000
  C   C1408     1.0  0.86565  0.36988  0.41473  1.0000
  C   C1409     1.0  0.87820  0.36431  0.43365  1.0000
  C   C1410     1.0  0.88181  0.37475  0.44712  1.0000
  C   C1411     1.0  0.87282  0.39080  0.44171  1.0000
  C   C1412     1.0  0.85981  0.39622  0.42344  1.0000
  C   C1413     1.0  0.85628  0.38584  0.40996  1.0000
  H   H1679     1.0  0.88550  0.35197  0.43745  1.0000
  H   H1680     1.0  0.89198  0.37046  0.46105  1.0000
  H   H1681     1.0  0.85260  0.40858  0.41942  1.0000
  H   H1682     1.0  0.84648  0.39026  0.39565  1.0000
  C   C1414     1.0  0.86981  0.36749  0.23449  1.0000
  C   C1415     1.0  0.87327  0.38296  0.22909  1.0000
  C   C1416     1.0  0.87780  0.39137  0.20243  1.0000
  C   C1417     1.0  0.87798  0.38463  0.18119  1.0000
  C   C1418     1.0  0.87475  0.36911  0.18660  1.0000
  C   C1419     1.0  0.87109  0.36048  0.21315  1.0000
  H   H1683     1.0  0.87268  0.38834  0.24543  1.0000
  H   H1684     1.0  0.88078  0.40323  0.19822  1.0000
  H   H1685     1.0  0.87514  0.36372  0.17035  1.0000
  H   H1686     1.0  0.86873  0.34843  0.21720  1.0000
  C   C1420     1.0  0.84364  0.43170  0.28234  1.0000
  C   C1421     1.0  0.83570  0.44750  0.27203  1.0000
  C   C1422     1.0  0.83481  0.45249  0.24481  1.0000
  C   C1423     1.0  0.84193  0.44161  0.22817  1.0000
  C   C1424     1.0  0.85054  0.42603  0.23840  1.0000
  C   C1425     1.0  0.85137  0.42105  0.26548  1.0000
  H   H1687     1.0  0.82986  0.45569  0.28520  1.0000
  C   C1426     1.0  0.85877  0.43498  0.13658  1.0000
  H   H1688     1.0  0.85594  0.41766  0.22556  1.0000
  H   H1689     1.0  0.85782  0.40889  0.27336  1.0000
  C   C1427     1.0  0.76752  0.37243  0.32007  1.0000
  C   C1428     1.0  0.74822  0.37805  0.31385  1.0000
  C   C1429     1.0  0.74170  0.37109  0.29726  1.0000
  C   C1430     1.0  0.75431  0.35827  0.28733  1.0000
  C   C1431     1.0  0.77334  0.35234  0.29426  1.0000
  C   C1432     1.0  0.78011  0.35958  0.31016  1.0000
  H   H1690     1.0  0.73835  0.38788  0.32171  1.0000
  H   H1691     1.0  0.72679  0.37546  0.29255  1.0000
  H   H1692     1.0  0.78292  0.34215  0.28720  1.0000
  H   H1693     1.0  0.79488  0.35500  0.31524  1.0000
  H   H1694     1.0  0.90078  0.41984  0.30943  1.0000
  H   H1695     1.0  0.91500  0.42231  0.37505  1.0000
  C   C1433     1.0  0.94649  0.41818  0.35988  1.0000
  H   H1696     1.0  0.88530  0.38524  0.36224  1.0000
  C   C1434     1.0  0.92681  0.41615  0.36176  1.0000
  H   H1697     1.0  0.79898  0.42553  0.29450  1.0000
  H   H1698     1.0  0.79276  0.38819  0.45262  1.0000
  H   H1699     1.0  0.81150  0.41849  0.25221  1.0000
  H   H1700     1.0  0.77263  0.43195  0.30657  1.0000
  N   N91       1.0  0.69811  0.33131  0.16053  1.0000
  C   C1435     1.0  0.69445  0.32274  0.18896  1.0000
  N   N92       1.0  0.87300  0.44527  0.11967  1.0000
  C   C1436     1.0  0.98655  0.39531  0.46295  1.0000
  C   C1437     1.0  0.81181  0.36633  0.44519  1.0000
  H   H1701     1.0  0.82869  0.46468  0.23675  1.0000
  H   H1702     1.0  0.89477  0.30814  0.05483  1.0000
  H   H1703     1.0  0.86426  0.42789  0.15506  1.0000
  H   H1704     1.0  0.97939  0.39338  0.39362  1.0000
  H   H1705     1.0  0.82855  0.33334  0.05246  1.0000
  H   H1706     1.0  0.82010  0.33853  0.00874  1.0000
  C   C1438     1.0  0.84662  0.48040  0.07306  1.0000
  H   H1707     1.0  0.90326  0.44225  0.09630  1.0000
  H   H1708     1.0  0.88387  0.44692  0.15364  1.0000
  C   C1439     1.0  0.86139  0.44801  0.07697  1.0000
  H   H1709     1.0  0.70332  0.32592  0.20093  1.0000
  H   H1710     1.0  0.72545  0.40157  0.12787  1.0000
  H   H1711     1.0  0.72792  0.33343  0.16283  1.0000
  C   C1440     1.0  0.85745  0.37170  0.98455  1.0000
  C   C1441     1.0  0.82656  0.35364  0.45375  1.0000
  C   C1442     1.0  0.85857  0.41591  0.01404  1.0000
  N   N93       1.0  0.80522  0.37044  0.21758  1.0000
  C   C1443     1.0  0.81105  0.36637  0.24411  1.0000
  C   C1444     1.0  0.78512  0.36625  0.22170  1.0000
  C   C1445     1.0  0.81977  0.36039  0.20027  1.0000
  C   C1446     1.0  0.80571  0.38730  0.20483  1.0000
  C   C1447     1.0  0.82354  0.39329  0.20116  1.0000
  C   C1448     1.0  0.78921  0.39799  0.19453  1.0000
  C   C1449     1.0  0.82512  0.40876  0.18743  1.0000
  C   C1450     1.0  0.79091  0.41353  0.18081  1.0000
  C   C1451     1.0  0.80896  0.41878  0.17690  1.0000
  H   H1712     1.0  0.80090  0.37398  0.25756  1.0000
  H   H1713     1.0  0.81039  0.35381  0.25433  1.0000
  H   H1714     1.0  0.82682  0.36749  0.24286  1.0000
  H   H1715     1.0  0.77334  0.37331  0.23470  1.0000
  H   H1716     1.0  0.78524  0.35355  0.23174  1.0000
  H   H1717     1.0  0.78032  0.36781  0.20246  1.0000
  H   H1718     1.0  0.83552  0.36198  0.19758  1.0000
  H   H1719     1.0  0.81970  0.34754  0.20862  1.0000
  H   H1720     1.0  0.81613  0.36333  0.18000  1.0000
  H   H1721     1.0  0.83664  0.38590  0.20838  1.0000
  H   H1722     1.0  0.77493  0.39457  0.19667  1.0000
  H   H1723     1.0  0.83909  0.41289  0.18482  1.0000
  H   H1724     1.0  0.77824  0.42156  0.17306  1.0000
  H   H1725     1.0  0.81050  0.43064  0.16584  1.0000
  H   H1726     1.0  0.75009  0.41075  0.09046  1.0000
  C   C1452     1.0  0.85032  0.32597  0.08757  1.0000
  H   H1727     1.0  0.75284  0.40730  0.16159  1.0000
  H   H1728     1.0  0.75881  0.39641  0.13560  1.0000
  C   C1453     1.0  0.75695  0.40844  0.13956  1.0000
  C   C1454     1.0  0.73287  0.46508  0.14787  1.0000
  C   C1455     1.0  0.85163  0.45686  0.05609  1.0000
  H   H1729     1.0  0.69233  0.35530  0.13793  1.0000
  H   H1730     1.0  0.89985  0.42816  0.12781  1.0000
  C   C1456     1.0  0.74818  0.42205  0.09695  1.0000
  H   H1731     1.0  0.84665  0.41971  0.03074  1.0000
  C   C1457     1.0  0.72034  0.32907  0.15062  1.0000
  H   H1732     1.0  0.77210  0.41179  0.13235  1.0000
  H   H1733     1.0  0.86265  0.46159  0.14628  1.0000
  C   C1458     1.0  0.68729  0.32557  0.14518  1.0000
  H   H1734     1.0  0.97203  0.39482  0.31622  1.0000
  C   C1459     1.0  0.86414  0.45515  0.09655  1.0000
  C   C1460     1.0  0.87644  0.32811  0.01465  1.0000
  H   H1735     1.0  0.72727  0.31635  0.15154  1.0000
  H   H1736     1.0  0.85662  0.42640  0.12607  1.0000
  H   H1737     1.0  0.84368  0.44212  0.14293  1.0000
  H   H1738     1.0  0.88447  0.30604  0.08968  1.0000
  N   N94       1.0  0.86766  0.32526  0.06461  1.0000
  H   H1739     1.0  0.67841  0.32555  0.19918  1.0000
  H   H1740     1.0  0.88622  0.42721  0.35477  1.0000
  C   C1461     1.0  0.96270  0.41063  0.34333  1.0000
  C   C1462     1.0  0.69042  0.34850  0.15904  1.0000
  H   H1741     1.0  0.85540  0.32341  0.10695  1.0000
  H   H1742     1.0  0.87065  0.41263  0.36342  1.0000
  C   C1463     1.0  0.78357  0.42367  0.29502  1.0000
  C   C1464     1.0  0.72270  0.42826  0.28460  1.0000
  H   H1743     1.0  0.95183  0.38927  0.43321  1.0000
  C   C1465     1.0  0.75959  0.42235  0.26969  1.0000
  C   C1466     1.0  0.74187  0.43140  0.28243  1.0000
  H   H1744     1.0  0.93797  0.39075  0.31941  1.0000
  H   H1745     1.0  0.79732  0.40293  0.26326  1.0000
  H   H1746     1.0  0.88725  0.41171  0.38483  1.0000
  N   N95       1.0  0.77972  0.42590  0.26778  1.0000
  C   C1467     1.0  0.73765  0.40703  0.26142  1.0000
  H   H1747     1.0  0.88212  0.40757  0.32077  1.0000
  H   H1748     1.0  0.74270  0.44103  0.29068  1.0000
  H   H1749     1.0  0.70576  0.43744  0.15294  1.0000
  H   H1750     1.0  0.78827  0.46873  0.29898  1.0000
  H   H1751     1.0  0.78238  0.41144  0.30677  1.0000
  H   H1752     1.0  0.79494  0.41726  0.23228  1.0000
  C   C1468     1.0  0.75690  0.40996  0.25929  1.0000
  H   H1753     1.0  0.70204  0.46262  0.16434  1.0000
  H   H1754     1.0  0.91140  0.37898  0.34936  1.0000
  N   N96       1.0  0.90220  0.40418  0.34797  1.0000
  C   C1469     1.0  0.87690  0.45468  0.13667  1.0000
  Fe  Fe202     1.0  0.68349  0.36417  0.22615  1.0000
  H   H1755     1.0  0.76921  0.43882  0.11821  1.0000
  C   C1470     1.0  0.75432  0.44363  0.12817  1.0000
  H   H1756     1.0  0.71711  0.41062  0.15608  1.0000
  H   H1757     1.0  0.71035  0.42096  0.12417  1.0000
  H   H1758     1.0  0.76312  0.42579  0.08984  1.0000
  H   H1759     1.0  0.73719  0.43115  0.08617  1.0000
  H   H1760     1.0  0.84060  0.33800  0.08581  1.0000
  C   C1471     1.0  0.87960  0.33703  0.06432  1.0000
  C   C1472     1.0  0.72269  0.41306  0.13399  1.0000
  C   C1473     1.0  0.73804  0.43546  0.13391  1.0000
  C   C1474     1.0  0.71656  0.45744  0.15372  1.0000
  C   C1475     1.0  0.71899  0.44284  0.14697  1.0000
  N   N97       1.0  0.74124  0.42003  0.12634  1.0000
  C   C1476     1.0  0.85086  0.33467  0.98772  1.0000
  H   H1761     1.0  0.88726  0.46292  0.12499  1.0000
  H   H1762     1.0  0.78363  0.47460  0.05732  1.0000
  S   S402      1.0  0.74032  0.47038  0.22534  1.0000
  H   H1763     1.0  0.72427  0.33599  0.12980  1.0000
  H   H1764     1.0  0.69854  0.30968  0.19075  1.0000
  H   H1765     1.0  0.68027  0.44923  0.23350  1.0000
  H   H1766     1.0  0.69855  0.35341  0.16966  1.0000
  C   C1477     1.0  0.85645  0.47169  0.09394  1.0000
  H   H1767     1.0  0.87216  0.30007  0.06874  1.0000
  C   C1478     1.0  0.80428  0.37835  0.45936  1.0000
  H   H1768     1.0  0.82154  0.41632  0.01319  1.0000
  H   H1769     1.0  0.83576  0.39982  0.99916  1.0000
  H   H1770     1.0  0.83257  0.34443  0.44237  1.0000
  C   C1479     1.0  0.96851  0.39225  0.46014  1.0000
  C   C1480     1.0  0.86154  0.32859  0.03845  1.0000
  C   C1481     1.0  0.84420  0.47302  0.05421  1.0000
  H   H1771     1.0  0.84082  0.31715  0.08958  1.0000
  H   H1772     1.0  0.88403  0.33525  0.08391  1.0000
  H   H1773     1.0  0.86400  0.40292  0.02048  1.0000
  C   C1482     1.0  0.96584  0.39176  0.43517  1.0000
  C   C1483     1.0  0.83434  0.35309  0.47602  1.0000
  H   H1774     1.0  0.89297  0.40833  0.98466  1.0000
  H   H1775     1.0  0.85731  0.47815  0.10813  1.0000
  H   H1776     1.0  0.87109  0.42213  0.01212  1.0000
  H   H1777     1.0  0.83423  0.44231  0.99629  1.0000
  H   H1778     1.0  0.73102  0.47626  0.15360  1.0000
  C   C1484     1.0  0.98135  0.39416  0.41291  1.0000
  N   N98       1.0  0.85090  0.41962  0.98882  1.0000
  H   H1779     1.0  0.84906  0.45104  0.04197  1.0000
  C   C1485     1.0  0.69715  0.31916  0.12228  1.0000
  C   C1486     1.0  0.83219  0.41295  0.99512  1.0000
  H   H1780     1.0  0.84129  0.37343  0.98606  1.0000
  H   H1781     1.0  0.69404  0.30896  0.09104  1.0000
  H   H1782     1.0  0.84618  0.34312  0.48089  1.0000
  S   S403      1.0  0.79316  0.48075  0.21569  1.0000
  H   H1783     1.0  0.67418  0.35114  0.16834  1.0000
  C   C1487     1.0  0.68629  0.31386  0.10841  1.0000
  H   H1784     1.0  0.95668  0.38996  0.47763  1.0000
  H   H1785     1.0  0.83589  0.47977  0.03871  1.0000
  H   H1786     1.0  0.75526  0.48032  0.28770  1.0000
  C   C1488     1.0  0.78566  0.48070  0.28705  1.0000
  Fe  Fe203     1.0  0.79324  0.48397  0.14133  1.0000
  S   S404      1.0  0.79278  0.48511  0.09864  1.0000
  H   H1787     1.0  0.99851  0.36980  0.99280  1.0000
  C   C1489     1.0  0.66607  0.32643  0.15299  1.0000
  C   C1490     1.0  0.81167  0.37779  0.48198  1.0000
  Fe  Fe204     1.0  0.93591  0.45618  0.71799  1.0000
  S   S405      1.0  0.92960  0.45025  0.76281  1.0000
  S   S406      1.0  0.92641  0.42296  0.66195  1.0000
  S   S407      1.0  0.95711  0.43855  0.69607  1.0000
  Fe  Fe205     1.0  0.89452  0.40992  0.54133  1.0000
  S   S408      1.0  0.90202  0.38561  0.56620  1.0000
  S   S409      1.0  0.89525  0.43175  0.55513  1.0000
  Fe  Fe206     1.0  0.87686  0.38012  0.55323  1.0000
  S   S410      1.0  0.85366  0.36763  0.58332  1.0000
  S   S411      1.0  0.86735  0.40506  0.53144  1.0000
  Fe  Fe207     1.0  0.87866  0.28859  0.67211  1.0000
  S   S412      1.0  0.87858  0.26340  0.69425  1.0000
  S   S413      1.0  0.88652  0.29525  0.62729  1.0000
  Fe  Fe208     1.0  0.86973  0.30113  0.72256  1.0000
  S   S414      1.0  0.86808  0.27715  0.74931  1.0000
  S   S415      1.0  0.86759  0.32420  0.73414  1.0000
  Fe  Fe209     1.0  0.89587  0.26899  0.72038  1.0000
  S   S416      1.0  0.92236  0.25135  0.73434  1.0000
  Fe  Fe210     1.0  0.85075  0.27355  0.72113  1.0000
  S   S417      1.0  0.89866  0.29309  0.69550  1.0000
  S   S418      1.0  0.84972  0.29857  0.69707  1.0000
  Fe  Fe211     1.0  0.88869  0.34223  0.85623  1.0000
  S   S419      1.0  0.86409  0.36300  0.86345  1.0000
  S   S420      1.0  0.88510  0.31955  0.84837  1.0000
  Fe  Fe212     1.0  0.92130  0.35797  0.86094  1.0000
  S   S421      1.0  0.89980  0.38041  0.86817  1.0000
  S   S422      1.0  0.95513  0.35236  0.85584  1.0000
  Fe  Fe213     1.0  0.87978  0.36389  0.89532  1.0000
  S   S423      1.0  0.85986  0.36853  0.93418  1.0000
  Fe  Fe214     1.0  0.88597  0.37771  0.83596  1.0000
  S   S424      1.0  0.87660  0.39729  0.80223  1.0000
  S   S425      1.0  0.90246  0.34160  0.89076  1.0000
  S   S426      1.0  0.90936  0.35681  0.82606  1.0000
  C   C1491     1.0  0.96549  0.36303  0.87091  1.0000
  H   H1788     1.0  0.94521  0.40575  0.74759  1.0000
  S   S427      1.0  0.95253  0.36656  0.53114  1.0000
  C   C1492     1.0  0.79306  0.24772  0.73514  1.0000
  C   C1493     1.0  0.89908  0.36691  0.98111  1.0000
  C   C1494     1.0  0.95353  0.37556  0.88229  1.0000
  H   H1789     1.0  0.98045  0.43589  0.77057  1.0000
  C   C1495     1.0  0.96712  0.40568  0.54072  1.0000
  H   H1790     1.0  0.80532  0.37220  0.53775  1.0000
  H   H1791     1.0  0.93743  0.37829  0.88324  1.0000
  C   C1496     1.0  0.87274  0.32278  0.76580  1.0000
  C   C1497     1.0  0.87329  0.33658  0.77345  1.0000
  C   C1498     1.0  0.87713  0.33573  0.79874  1.0000
  C   C1499     1.0  0.88023  0.32107  0.81658  1.0000
  C   C1500     1.0  0.87975  0.30729  0.80889  1.0000
  C   C1501     1.0  0.87619  0.30812  0.78351  1.0000
  H   H1792     1.0  0.87055  0.34797  0.75993  1.0000
  H   H1793     1.0  0.87733  0.34644  0.80459  1.0000
  H   H1794     1.0  0.88206  0.29594  0.82267  1.0000
  H   H1795     1.0  0.87582  0.29743  0.77786  1.0000
  C   C1502     1.0  0.86269  0.34744  0.59484  1.0000
  C   C1503     1.0  0.88107  0.33977  0.58196  1.0000
  C   C1504     1.0  0.88802  0.32359  0.59151  1.0000
  C   C1505     1.0  0.87703  0.31523  0.61458  1.0000
  C   C1506     1.0  0.85870  0.32296  0.62746  1.0000
  C   C1507     1.0  0.85143  0.33900  0.61744  1.0000
  H   H1796     1.0  0.88989  0.34622  0.56456  1.0000
  H   H1797     1.0  0.90206  0.31762  0.58120  1.0000
  H   H1798     1.0  0.84985  0.31651  0.64478  1.0000
  H   H1799     1.0  0.83716  0.34488  0.62739  1.0000
  H   H1800     1.0  0.93999  0.39808  0.54146  1.0000
  C   C1508     1.0  0.91916  0.42529  0.63136  1.0000
  C   C1509     1.0  0.91311  0.41265  0.62632  1.0000
  C   C1510     1.0  0.90599  0.41448  0.60286  1.0000
  C   C1511     1.0  0.90512  0.42888  0.58410  1.0000
  C   C1512     1.0  0.91149  0.44145  0.58901  1.0000
  C   C1513     1.0  0.91860  0.43965  0.61253  1.0000
  H   H1801     1.0  0.91343  0.40154  0.64090  1.0000
  H   H1802     1.0  0.90058  0.40490  0.59976  1.0000
  H   H1803     1.0  0.91091  0.45261  0.57453  1.0000
  C   C1514     1.0  0.91581  0.43492  0.77417  1.0000
  C   C1515     1.0  0.90967  0.42907  0.80161  1.0000
  C   C1516     1.0  0.89762  0.41740  0.81052  1.0000
  C   C1517     1.0  0.89177  0.41164  0.79193  1.0000
  C   C1518     1.0  0.89798  0.41747  0.76458  1.0000
  C   C1519     1.0  0.91016  0.42894  0.75574  1.0000
  H   H1804     1.0  0.91410  0.43362  0.81594  1.0000
  H   H1805     1.0  0.89270  0.41298  0.83171  1.0000
  H   H1806     1.0  0.89362  0.41291  0.75019  1.0000
  H   H1807     1.0  0.91525  0.43301  0.73459  1.0000
  C   C1520     1.0  0.87053  0.36877  0.96089  1.0000
  C   C1521     1.0  0.89144  0.36611  0.95926  1.0000
  C   C1522     1.0  0.82765  0.26061  0.62019  1.0000
  H   H1808     1.0  0.90167  0.36372  0.94107  1.0000
  H   H1809     1.0  0.98789  0.27332  0.67709  1.0000
  N   N99       1.0  0.89123  0.35268  0.66041  1.0000
  C   C1523     1.0  0.88080  0.35721  0.68616  1.0000
  C   C1524     1.0  0.87919  0.36201  0.63988  1.0000
  C   C1525     1.0  0.89108  0.33571  0.66299  1.0000
  C   C1526     1.0  0.91233  0.35526  0.65396  1.0000
  C   C1527     1.0  0.92604  0.34668  0.67102  1.0000
  C   C1528     1.0  0.91978  0.36650  0.63125  1.0000
  C   C1529     1.0  0.94596  0.34908  0.66545  1.0000
  C   C1530     1.0  0.93976  0.36869  0.62568  1.0000
  C   C1531     1.0  0.95283  0.35999  0.64273  1.0000
  H   H1810     1.0  0.88069  0.36985  0.68523  1.0000
  H   H1811     1.0  0.86484  0.35540  0.69179  1.0000
  H   H1812     1.0  0.88808  0.34994  0.70308  1.0000
  H   H1813     1.0  0.87740  0.37499  0.63793  1.0000
  H   H1814     1.0  0.86360  0.35946  0.64490  1.0000
  H   H1815     1.0  0.88620  0.35913  0.61995  1.0000
  H   H1816     1.0  0.89791  0.32791  0.67990  1.0000
  H   H1817     1.0  0.87539  0.33344  0.66715  1.0000
  H   H1818     1.0  0.89934  0.33163  0.64435  1.0000
  H   H1819     1.0  0.92135  0.33814  0.68895  1.0000
  H   H1820     1.0  0.91045  0.37382  0.61750  1.0000
  H   H1821     1.0  0.95617  0.34250  0.67878  1.0000
  H   H1822     1.0  0.94510  0.37721  0.60795  1.0000
  H   H1823     1.0  0.96832  0.36168  0.63834  1.0000
  H   H1824     1.0  0.72040  0.24165  0.57323  1.0000
  H   H1825     1.0  0.91523  0.36519  0.97962  1.0000
  H   H1826     1.0  0.87389  0.48592  0.67644  1.0000
  S   S428      1.0  0.99494  0.39391  0.90026  1.0000
  N   N100      1.0  0.97999  0.29734  0.65476  1.0000
  C   C1532     1.0  0.93660  0.31211  0.61645  1.0000
  C   C1533     1.0  0.84037  0.26906  0.62515  1.0000
  S   S429      1.0  0.99529  0.31638  0.73011  1.0000
  C   C1534     1.0  0.67002  0.25674  0.63453  1.0000
  N   N101      1.0  0.95718  0.31206  0.82576  1.0000
  H   H1827     1.0  0.97957  0.38029  0.81899  1.0000
  C   C1535     1.0  0.83457  0.27607  0.64718  1.0000
  C   C1536     1.0  0.81606  0.27463  0.66439  1.0000
  C   C1537     1.0  0.87423  0.40759  0.92203  1.0000
  H   H1828     1.0  0.94688  0.26217  0.79384  1.0000
  C   C1538     1.0  0.96789  0.27244  0.80458  1.0000
  C   C1539     1.0  0.85287  0.35234  0.51899  1.0000
  C   C1540     1.0  0.94221  0.31385  0.85076  1.0000
  H   H1829     1.0  0.92360  0.30809  0.61462  1.0000
  N   N102      1.0  0.96135  0.38794  0.77549  1.0000
  C   C1541     1.0  0.94089  0.32670  0.60129  1.0000
  H   H1830     1.0  0.86671  0.47279  0.81827  1.0000
  Fe  Fe215     1.0  0.88852  0.39686  0.49590  1.0000
  H   H1831     1.0  0.67962  0.25696  0.61493  1.0000
  H   H1832     1.0  0.85247  0.47015  0.62052  1.0000
  C   C1542     1.0  0.98702  0.37520  0.53448  1.0000
  C   C1543     1.0  0.82725  0.36530  0.49071  1.0000
  C   C1544     1.0  0.98025  0.26566  0.73975  1.0000
  H   H1833     1.0  0.87299  0.44649  0.63446  1.0000
  N   N103      1.0  0.99243  0.41355  0.61946  1.0000
  H   H1834     1.0  0.98105  0.30006  0.84746  1.0000
  H   H1835     1.0  0.96009  0.30458  0.68937  1.0000
  C   C1545     1.0  0.94204  0.38633  0.79460  1.0000
  H   H1836     1.0  0.82407  0.36187  0.55726  1.0000
  H   H1837     1.0  0.87322  0.44731  0.78598  1.0000
  H   H1838     1.0  0.99615  0.42460  0.81053  1.0000
  N   N104      1.0  0.86807  0.47982  0.77571  1.0000
  H   H1839     1.0  0.89830  0.47197  0.64153  1.0000
  S   S430      1.0  0.94958  0.47693  0.69288  1.0000
  C   C1546     1.0  0.97688  0.42296  0.63680  1.0000
  H   H1840     1.0  0.93259  0.39813  0.79615  1.0000
  H   H1841     1.0  0.84923  0.34031  0.52345  1.0000
  H   H1842     1.0  0.83474  0.47718  0.64786  1.0000
  H   H1843     1.0  0.87102  0.41564  0.71155  1.0000
  H   H1844     1.0  0.99219  0.24063  0.74523  1.0000
  C   C1547     1.0  0.98192  0.40543  0.60722  1.0000
  C   C1548     1.0  0.94903  0.27213  0.80033  1.0000
  H   H1845     1.0  0.98244  0.32720  0.62303  1.0000
  H   H1846     1.0  0.87521  0.41991  0.66250  1.0000
  H   H1847     1.0  0.81425  0.44360  0.78172  1.0000
  C   C1549     1.0  0.67832  0.25071  0.65738  1.0000
  N   N105      1.0  0.83492  0.36502  0.51463  1.0000
  C   C1550     1.0  0.88547  0.47568  0.63078  1.0000
  H   H1848     1.0  0.78284  0.25503  0.74815  1.0000
  C   C1551     1.0  0.88370  0.47865  0.75117  1.0000
  H   H1849     1.0  0.80436  0.47284  0.77039  1.0000
  C   C1552     1.0  0.97398  0.37188  0.77546  1.0000
  C   C1553     1.0  0.98633  0.35945  0.87007  1.0000
  C   C1554     1.0  0.90097  0.40357  0.94600  1.0000
  S   S431      1.0  0.91170  0.46013  0.69457  1.0000
  C   C1555     1.0  0.95357  0.32671  0.80494  1.0000
  H   H1850     1.0  0.67311  0.24526  0.69974  1.0000
  S   S432      1.0  0.82157  0.26374  0.73731  1.0000
  H   H1851     1.0  0.78352  0.26997  0.60270  1.0000
  C   C1556     1.0  0.80859  0.25899  0.63722  1.0000
  H   H1852     1.0  0.95930  0.41748  0.54297  1.0000
  H   H1853     1.0  0.97852  0.31668  0.67281  1.0000
  Fe  Fe216     1.0  0.93411  0.44409  0.67026  1.0000
  C   C1557     1.0  0.95615  0.39467  0.53969  1.0000
  H   H1854     1.0  0.86378  0.43850  0.73275  1.0000
  H   H1855     1.0  0.80438  0.25647  0.58823  1.0000
  C   C1558     1.0  0.97919  0.24990  0.74185  1.0000
  H   H1856     1.0  0.94471  0.29141  0.64499  1.0000
  H   H1857     1.0  0.98039  0.26273  0.80111  1.0000
  H   H1858     1.0  0.88826  0.46216  0.79892  1.0000
  C   C1559     1.0  0.69023  0.23952  0.57356  1.0000
  H   H1859     1.0  0.96906  0.41509  0.65433  1.0000
  C   C1560     1.0  0.87048  0.44533  0.65586  1.0000
  H   H1860     1.0  0.95334  0.39462  0.90053  1.0000
  H   H1861     1.0  0.85490  0.27015  0.61198  1.0000
  H   H1862     1.0  0.84753  0.38011  0.52936  1.0000
  H   H1863     1.0  0.98350  0.43058  0.64460  1.0000
  H   H1864     1.0  0.98974  0.37252  0.76447  1.0000
  H   H1865     1.0  0.86550  0.35351  0.50130  1.0000
  C   C1561     1.0  0.95484  0.29837  0.81662  1.0000
  C   C1562     1.0  0.98810  0.40158  0.53823  1.0000
  C   C1563     1.0  0.98954  0.41724  0.80298  1.0000
  H   H1866     1.0  0.97882  0.27494  0.64727  1.0000
  H   H1867     1.0  0.85877  0.35285  0.53645  1.0000
  C   C1564     1.0  0.94908  0.30251  0.63386  1.0000
  C   C1565     1.0  0.97090  0.28535  0.81250  1.0000
  C   C1566     1.0  0.94518  0.27348  0.73368  1.0000
  H   H1868     1.0  0.83876  0.44061  0.96211  1.0000
  H   H1869     1.0  0.90549  0.39858  0.90712  1.0000
  S   S433      1.0  0.91488  0.40434  0.50340  1.0000
  C   C1567     1.0  0.98081  0.42353  0.78048  1.0000
  H   H1870     1.0  0.98617  0.29749  0.69260  1.0000
  C   C1568     1.0  0.97694  0.28066  0.66432  1.0000
  H   H1871     1.0  0.93187  0.28256  0.73121  1.0000
  C   C1569     1.0  0.94434  0.25757  0.73576  1.0000
  H   H1872     1.0  0.91856  0.28469  0.79978  1.0000
  H   H1873     1.0  0.92308  0.30730  0.81400  1.0000
  C   C1570     1.0  0.81331  0.24963  0.72623  1.0000
  H   H1874     1.0  0.84875  0.43109  0.78956  1.0000
  C   C1571     1.0  0.97004  0.32242  0.62134  1.0000
  C   C1572     1.0  0.96608  0.37955  0.53587  1.0000
  C   C1573     1.0  0.99539  0.36885  0.87927  1.0000
  H   H1875     1.0  0.94446  0.32320  0.85953  1.0000
  H   H1876     1.0  0.97477  0.36468  0.79598  1.0000
  C   C1574     1.0  0.81947  0.46743  0.77394  1.0000
  S   S434      1.0  0.89645  0.37151  0.51727  1.0000
  C   C1575     1.0  0.77577  0.24981  0.65061  1.0000
  Fe  Fe217     1.0  0.96905  0.45950  0.66860  1.0000
  C   C1576     1.0  0.96144  0.24589  0.73988  1.0000
  C   C1577     1.0  0.98916  0.40159  0.81638  1.0000
  H   H1877     1.0  0.81363  0.35117  0.54110  1.0000
  H   H1878     1.0  0.84455  0.28253  0.65102  1.0000
  H   H1879     1.0  0.98792  0.39517  0.48289  1.0000
  H   H1880     1.0  0.99478  0.36348  0.53171  1.0000
  Fe  Fe218     1.0  0.92096  0.37965  0.52817  1.0000
  H   H1881     1.0  0.92342  0.44940  0.61617  1.0000
  C   C1578     1.0  0.97157  0.39800  0.78405  1.0000
  H   H1882     1.0  0.96475  0.41998  0.75420  1.0000
  Fe  Fe219     1.0  0.92708  0.47946  0.66734  1.0000
  H   H1883     1.0  0.94443  0.38019  0.81514  1.0000
  C   C1579     1.0  0.84086  0.38033  0.51220  1.0000
  N   N106      1.0  0.86587  0.47487  0.64981  1.0000
  C   C1580     1.0  0.80322  0.26619  0.65968  1.0000
  C   C1581     1.0  0.98352  0.38159  0.89012  1.0000
  C   C1582     1.0  0.83324  0.47696  0.77235  1.0000
  H   H1884     1.0  0.85906  0.44260  0.97552  1.0000
  H   H1885     1.0  0.97875  0.32117  0.83803  1.0000
  H   H1886     1.0  0.96441  0.32570  0.78576  1.0000
  S   S435      1.0  0.94767  0.46371  0.64067  1.0000
  C   C1583     1.0  0.97183  0.41414  0.77114  1.0000
  H   H1887     1.0  0.89624  0.48469  0.75010  1.0000
  H   H1888     1.0  0.68971  0.24756  0.55431  1.0000
  H   H1889     1.0  0.81182  0.27982  0.68189  1.0000
  H   H1890     1.0  0.98953  0.30985  0.81308  1.0000
  H   H1891     1.0  0.80513  0.38728  0.49247  1.0000
  H   H1892     1.0  0.99296  0.39755  0.59485  1.0000
  C   C1584     1.0  0.86011  0.41296  0.94323  1.0000
  H   H1893     1.0  0.86027  0.24164  0.73847  1.0000
  C   C1585     1.0  0.85827  0.45336  0.78297  1.0000
  C   C1586     1.0  0.87178  0.43000  0.67177  1.0000
  C   C1587     1.0  0.85303  0.47015  0.77733  1.0000
  H   H1894     1.0  0.95551  0.33723  0.81104  1.0000
  H   H1895     1.0  0.86066  0.46535  0.70620  1.0000
  H   H1896     1.0  0.97236  0.41402  0.59364  1.0000
  C   C1588     1.0  0.96652  0.30723  0.63640  1.0000
  H   H1897     1.0  0.93134  0.33402  0.58751  1.0000
  C   C1589     1.0  0.89462  0.40296  0.92338  1.0000
  H   H1898     1.0  0.94320  0.30259  0.86617  1.0000
  H   H1899     1.0  0.99305  0.43215  0.58361  1.0000
  C   C1590     1.0  0.96254  0.38477  0.89210  1.0000
  C   C1591     1.0  0.81876  0.36246  0.53870  1.0000
  H   H1900     1.0  0.92642  0.31733  0.84751  1.0000
  H   H1901     1.0  0.93309  0.37961  0.78843  1.0000
  H   H1902     1.0  0.93801  0.32934  0.80093  1.0000
  C   C1592     1.0  0.86659  0.45879  0.66724  1.0000
  C   C1593     1.0  0.86596  0.41340  0.96689  1.0000
  C   C1594     1.0  0.97755  0.31059  0.83135  1.0000
  H   H1903     1.0  0.83292  0.25528  0.60298  1.0000
  C   C1595     1.0  0.97602  0.30431  0.67845  1.0000
  C   C1596     1.0  0.93313  0.28483  0.80359  1.0000
  H   H1904     1.0  0.96177  0.27977  0.67723  1.0000
  H   H1905     1.0  0.86928  0.40667  0.90468  1.0000
  C   C1597     1.0  0.79070  0.25723  0.60436  1.0000
  N   N107      1.0  0.79537  0.25005  0.63137  1.0000
  C   C1598     1.0  0.96313  0.27751  0.73582  1.0000
  C   C1599     1.0  0.84438  0.44394  0.78475  1.0000
  C   C1600     1.0  0.86537  0.44051  0.71127  1.0000
  C   C1601     1.0  0.86945  0.42758  0.69938  1.0000
  H   H1906     1.0  0.97062  0.39706  0.73322  1.0000
  C   C1602     1.0  0.84963  0.47832  0.63432  1.0000
  C   C1603     1.0  0.86373  0.45594  0.69562  1.0000
  H   H1907     1.0  0.98597  0.28486  0.81507  1.0000
  C   C1604     1.0  0.93593  0.29777  0.81163  1.0000
  H   H1908     1.0  0.96513  0.43088  0.62583  1.0000
  H   H1909     1.0  0.85193  0.24179  0.77315  1.0000
  C   C1605     1.0  0.98021  0.39212  0.80723  1.0000
  H   H1910     1.0  0.89074  0.46613  0.75037  1.0000
  H   H1911     1.0  0.96343  0.28961  0.73563  1.0000
  H   H1912     1.0  0.84458  0.41658  0.94086  1.0000
  H   H1913     1.0  0.96081  0.34325  0.59192  1.0000
  H   H1914     1.0  0.96783  0.36469  0.76617  1.0000
  C   C1606     1.0  0.95677  0.39463  0.74826  1.0000
  H   H1915     1.0  0.99536  0.39684  0.83440  1.0000
  H   H1916     1.0  0.97141  0.39845  0.62253  1.0000
  C   C1607     1.0  0.82499  0.45096  0.78029  1.0000
  H   H1917     1.0  0.95018  0.38644  0.74163  1.0000
  C   C1608     1.0  0.99803  0.38623  0.53564  1.0000
  H   H1918     1.0  0.78011  0.25114  0.59978  1.0000
  H   H1919     1.0  0.99555  0.34948  0.86203  1.0000
  H   H1920     1.0  0.82344  0.41716  0.97886  1.0000
  H   H1921     1.0  0.76684  0.26197  0.65089  1.0000
  H   H1922     1.0  0.78938  0.26523  0.67429  1.0000
  H   H1923     1.0  0.88837  0.46799  0.61624  1.0000
  H   H1924     1.0  0.77799  0.24378  0.67124  1.0000
  C   C1609     1.0  0.84548  0.43706  0.98034  1.0000
  H   H1925     1.0  0.82798  0.39049  0.51193  1.0000
  H   H1926     1.0  0.85228  0.38310  0.49366  1.0000
  H   H1927     1.0  0.99722  0.38030  0.63732  1.0000
  H   H1928     1.0  0.69443  0.24598  0.65542  1.0000
  H   H1929     1.0  0.91681  0.39961  0.94720  1.0000
  H   H1930     1.0  0.87727  0.48405  0.73282  1.0000
  H   H1931     1.0  0.87743  0.24321  0.75777  1.0000
  C   C1610     1.0  0.82638  0.24010  0.70945  1.0000
  C   C1611     1.0  0.87806  0.47387  0.79922  1.0000
  H   H1932     1.0  0.76615  0.24313  0.64548  1.0000
  H   H1933     1.0  0.84685  0.33739  0.96821  1.0000
  C   C1612     1.0  0.88695  0.40864  0.96753  1.0000
  C   C1613     1.0  0.95755  0.33186  0.60379  1.0000
  H   H1934     1.0  0.88803  0.48181  0.79978  1.0000
  H   H1935     1.0  0.88270  0.33099  0.97172  1.0000
  H   H1936     1.0  0.84196  0.24146  0.70231  1.0000
  H   H1937     1.0  0.98944  0.47862  0.68711  1.0000
  C   C1614     1.0  0.66596  0.25050  0.68268  1.0000
  S   S436      1.0  0.79644  0.52626  0.18696  1.0000
  Fe  Fe220     1.0  0.88005  0.56584  0.20910  1.0000
  S   S437      1.0  0.85884  0.58926  0.20975  1.0000
  S   S438      1.0  0.87151  0.54162  0.21760  1.0000
  Fe  Fe221     1.0  0.91723  0.58040  0.19962  1.0000
  S   S439      1.0  0.89920  0.60484  0.19973  1.0000
  S   S440      1.0  0.95096  0.57769  0.19195  1.0000
  Fe  Fe222     1.0  0.87834  0.59325  0.23460  1.0000
  S   S441      1.0  0.86399  0.60606  0.26807  1.0000
  Fe  Fe223     1.0  0.88161  0.59898  0.17480  1.0000
  S   S442      1.0  0.87210  0.61788  0.14031  1.0000
  S   S443      1.0  0.89793  0.56908  0.23702  1.0000
  S   S444      1.0  0.90128  0.57527  0.17169  1.0000
  H   H1938     1.0  0.83723  0.65245  0.46086  1.0000
  H   H1939     1.0  0.95688  0.68730  0.29032  1.0000
  H   H1940     1.0  0.98283  0.71133  0.40755  1.0000
  Fe  Fe224     1.0  0.92875  0.67758  0.03901  1.0000
  S   S445      1.0  0.89735  0.69093  0.03611  1.0000
  S   S446      1.0  0.93826  0.65831  0.07348  1.0000
  H   H1941     1.0  0.94787  0.62681  0.04650  1.0000
  Fe  Fe225     1.0  0.91091  0.71272  0.02554  1.0000
  H   H1942     1.0  0.98021  0.66280  0.07931  1.0000
  S   S447      1.0  0.97101  0.63117  0.23362  1.0000
  S   S448      1.0  0.94170  0.69936  0.03092  1.0000
  Fe  Fe226     1.0  0.90223  0.66919  0.36681  1.0000
  S   S449      1.0  0.91922  0.68580  0.33404  1.0000
  Fe  Fe227     1.0  0.91798  0.64157  0.33902  1.0000
  S   S450      1.0  0.93691  0.65555  0.30488  1.0000
  S   S451      1.0  0.92031  0.61613  0.33740  1.0000
  Fe  Fe228     1.0  0.94474  0.66498  0.33545  1.0000
  S   S452      1.0  0.97739  0.66593  0.33096  1.0000
  Fe  Fe229     1.0  0.90979  0.67502  0.30618  1.0000
  S   S453      1.0  0.90350  0.68672  0.26515  1.0000
  S   S454      1.0  0.92857  0.64893  0.36999  1.0000
  S   S455      1.0  0.89007  0.66048  0.33860  1.0000
  C   C1615     1.0  0.89627  0.70732  0.26066  1.0000
  H   H1943     1.0  0.98318  0.67732  0.46711  1.0000
  H   H1944     1.0  0.98407  0.71025  0.25690  1.0000
  H   H1945     1.0  0.81086  0.51069  0.25465  1.0000
  H   H1946     1.0  0.84011  0.49286  0.07210  1.0000
  Fe  Fe230     1.0  0.94709  0.69870  0.98782  1.0000
  H   H1947     1.0  0.90262  0.71117  0.21770  1.0000
  S   S456      1.0  0.76986  0.49920  0.16619  1.0000
  H   H1948     1.0  0.97433  0.71269  0.44191  1.0000
  H   H1949     1.0  0.88836  0.70727  0.30275  1.0000
  C   C1616     1.0  0.98392  0.68256  0.33623  1.0000
  C   C1617     1.0  0.96955  0.69611  0.34077  1.0000
  C   C1618     1.0  0.97547  0.70885  0.34601  1.0000
  C   C1619     1.0  0.96541  0.61636  0.22195  1.0000
  H   H1950     1.0  0.73606  0.52603  0.28442  1.0000
  H   H1951     1.0  0.95386  0.69663  0.34093  1.0000
  S   S457      1.0  0.88198  0.67761  0.40292  1.0000
  H   H1952     1.0  0.85019  0.58927  0.33765  1.0000
  C   C1620     1.0  0.94389  0.69460  0.40524  1.0000
  H   H1953     1.0  0.82874  0.53532  0.30648  1.0000
  C   C1621     1.0  0.97248  0.62268  0.34092  1.0000
  H   H1954     1.0  0.83268  0.56945  0.27830  1.0000
  C   C1622     1.0  0.90943  0.60713  0.07751  1.0000
  H   H1955     1.0  0.93986  0.71225  0.45690  1.0000
  C   C1623     1.0  0.89025  0.62973  0.12383  1.0000
  C   C1624     1.0  0.88489  0.64365  0.10529  1.0000
  C   C1625     1.0  0.89947  0.65268  0.09026  1.0000
  C   C1626     1.0  0.91946  0.64788  0.09378  1.0000
  C   C1627     1.0  0.92467  0.63434  0.11324  1.0000
  C   C1628     1.0  0.91010  0.62521  0.12816  1.0000
  H   H1956     1.0  0.86946  0.64730  0.10234  1.0000
  H   H1957     1.0  0.89525  0.66324  0.07578  1.0000
  H   H1958     1.0  0.94013  0.63054  0.11607  1.0000
  H   H1959     1.0  0.91446  0.61435  0.14215  1.0000
  C   C1629     1.0  0.88054  0.60949  0.28539  1.0000
  C   C1630     1.0  0.87396  0.62146  0.29998  1.0000
  C   C1631     1.0  0.88640  0.62388  0.31520  1.0000
  C   C1632     1.0  0.90530  0.61405  0.31655  1.0000
  C   C1633     1.0  0.91190  0.60205  0.30197  1.0000
  C   C1634     1.0  0.89971  0.59999  0.28597  1.0000
  H   H1960     1.0  0.85910  0.62881  0.29969  1.0000
  H   H1961     1.0  0.88102  0.63300  0.32665  1.0000
  H   H1962     1.0  0.92646  0.59435  0.30298  1.0000
  H   H1963     1.0  0.90475  0.59060  0.27502  1.0000
  C   C1635     1.0  0.93314  0.62360  0.05062  1.0000
  C   C1636     1.0  0.81790  0.53044  0.19420  1.0000
  C   C1637     1.0  0.83379  0.51835  0.20172  1.0000
  C   C1638     1.0  0.85014  0.52200  0.20867  1.0000
  C   C1639     1.0  0.85102  0.53776  0.20757  1.0000
  C   C1640     1.0  0.83523  0.54987  0.19979  1.0000
  C   C1641     1.0  0.81866  0.54619  0.19336  1.0000
  H   H1964     1.0  0.86229  0.51256  0.21468  1.0000
  H   H1965     1.0  0.83570  0.56205  0.19890  1.0000
  H   H1966     1.0  0.80645  0.55562  0.18752  1.0000
  H   H1967     1.0  0.84100  0.53436  0.33331  1.0000
  C   C1642     1.0  0.98156  0.59623  0.33387  1.0000
  C   C1643     1.0  0.98533  0.66142  0.09826  1.0000
  C   C1644     1.0  0.72707  0.50154  0.26986  1.0000
  H   H1968     1.0  0.95097  0.72843  0.29957  1.0000
  C   C1645     1.0  0.92488  0.70160  0.39898  1.0000
  C   C1646     1.0  0.89920  0.60935  0.44121  1.0000
  H   H1969     1.0  0.86626  0.69139  0.44877  1.0000
  N   N108      1.0  0.88326  0.63957  0.02670  1.0000
  C   C1647     1.0  0.97519  0.61343  0.19672  1.0000
  C   C1648     1.0  0.89454  0.61632  0.06333  1.0000
  C   C1649     1.0  0.98203  0.69466  0.06644  1.0000
  C   C1650     1.0  0.89867  0.62942  0.04199  1.0000
  C   C1651     1.0  0.91838  0.63289  0.03634  1.0000
  H   H1970     1.0  0.98219  0.66718  0.27278  1.0000
  S   S458      1.0  0.93714  0.67543  0.99610  1.0000
  C   C1652     1.0  0.95480  0.69313  0.26957  1.0000
  C   C1653     1.0  0.90872  0.67574  0.47494  1.0000
  N   N109      1.0  0.97045  0.69137  0.43297  1.0000
  H   H1971     1.0  0.93996  0.60384  0.08274  1.0000
  H   H1972     1.0  0.98554  0.62077  0.18378  1.0000
  H   H1973     1.0  0.86242  0.64900  0.42325  1.0000
  H   H1974     1.0  0.97483  0.68066  0.14896  1.0000
  C   C1654     1.0  0.98481  0.68940  0.09326  1.0000
  H   H1975     1.0  0.95313  0.68614  0.39376  1.0000
  H   H1976     1.0  0.97216  0.63547  0.33199  1.0000
  C   C1655     1.0  0.97795  0.61837  0.29656  1.0000
  C   C1656     1.0  0.98125  0.67363  0.25185  1.0000
  H   H1977     1.0  0.98606  0.61089  0.28187  1.0000
  H   H1978     1.0  0.98660  0.71177  0.02926  1.0000
  C   C1657     1.0  0.95226  0.71488  0.18826  1.0000
  H   H1979     1.0  0.92239  0.64309  0.02133  1.0000
  H   H1980     1.0  0.97796  0.61965  0.36004  1.0000
  C   C1658     1.0  0.83577  0.54227  0.31519  1.0000
  C   C1659     1.0  0.89273  0.67685  0.43025  1.0000
  C   C1660     1.0  0.97101  0.60133  0.18773  1.0000
  H   H1981     1.0  0.85959  0.52902  0.27572  1.0000
  H   H1982     1.0  0.87300  0.52590  0.30206  1.0000
  H   H1983     1.0  0.83337  0.50618  0.20248  1.0000
  C   C1661     1.0  0.89685  0.61591  0.41490  1.0000
  C   C1662     1.0  0.93625  0.70905  0.44053  1.0000
  N   N110      1.0  0.85279  0.54859  0.29561  1.0000
  H   H1984     1.0  0.77825  0.52296  0.24260  1.0000
  C   C1663     1.0  0.76304  0.50320  0.26454  1.0000
  C   C1664     1.0  0.86417  0.63342  0.03316  1.0000
  C   C1665     1.0  0.95023  0.69821  0.42618  1.0000
  Fe  Fe231     1.0  0.90663  0.69060  0.99214  1.0000
  C   C1666     1.0  0.95344  0.70738  0.21481  1.0000
  H   H1985     1.0  0.85736  0.66321  0.45507  1.0000
  H   H1986     1.0  0.75720  0.52002  0.21562  1.0000
  H   H1987     1.0  0.95920  0.67355  0.46585  1.0000
  H   H1988     1.0  0.83860  0.55343  0.26144  1.0000
  H   H1989     1.0  0.73048  0.48988  0.26408  1.0000
  H   H1990     1.0  0.88582  0.58058  0.34243  1.0000
  H   H1991     1.0  0.87989  0.53906  0.27010  1.0000
  C   C1667     1.0  0.85064  0.57050  0.31864  1.0000
  C   C1668     1.0  0.73642  0.52672  0.26298  1.0000
  N   N111      1.0  0.90093  0.65054  0.21081  1.0000
  C   C1669     1.0  0.88183  0.64495  0.21409  1.0000
  C   C1670     1.0  0.91819  0.63762  0.20489  1.0000
  C   C1671     1.0  0.90155  0.65353  0.23696  1.0000
  C   C1672     1.0  0.90205  0.66461  0.18843  1.0000
  C   C1673     1.0  0.90160  0.66357  0.16221  1.0000
  C   C1674     1.0  0.90333  0.67966  0.19180  1.0000
  C   C1675     1.0  0.90218  0.67674  0.14084  1.0000
  C   C1676     1.0  0.90388  0.69277  0.17025  1.0000
  C   C1677     1.0  0.90320  0.69134  0.14488  1.0000
  H   H1992     1.0  0.88099  0.64088  0.19630  1.0000
  H   H1993     1.0  0.88011  0.63467  0.23136  1.0000
  H   H1994     1.0  0.86846  0.65451  0.21763  1.0000
  H   H1995     1.0  0.91845  0.63390  0.18631  1.0000
  H   H1996     1.0  0.91753  0.62680  0.22122  1.0000
  H   H1997     1.0  0.93288  0.64121  0.20269  1.0000
  H   H1998     1.0  0.88857  0.66275  0.24338  1.0000
  H   H1999     1.0  0.90077  0.64267  0.25326  1.0000
  H   H2000     1.0  0.91585  0.65728  0.23636  1.0000
  H   H2001     1.0  0.90055  0.65256  0.15805  1.0000
  H   H2002     1.0  0.90366  0.68167  0.21097  1.0000
  H   H2003     1.0  0.90165  0.67564  0.12106  1.0000
  H   H2004     1.0  0.90449  0.70420  0.17332  1.0000
  H   H2005     1.0  0.90333  0.70159  0.12832  1.0000
  C   C1678     1.0  0.98885  0.70811  0.04973  1.0000
  H   H2006     1.0  0.92011  0.69840  0.38338  1.0000
  C   C1679     1.0  0.99581  0.70814  0.34624  1.0000
  C   C1680     1.0  0.91713  0.71573  0.43443  1.0000
  N   N112      1.0  0.97406  0.69092  0.24990  1.0000
  C   C1681     1.0  0.88281  0.55262  0.31106  1.0000
  N   N113      1.0  0.98512  0.61265  0.32217  1.0000
  C   C1682     1.0  0.97214  0.69886  0.22199  1.0000
  H   H2007     1.0  0.89299  0.54289  0.30334  1.0000
  H   H2008     1.0  0.97096  0.66843  0.24490  1.0000
  C   C1683     1.0  0.88963  0.71447  0.28267  1.0000
  C   C1684     1.0  0.80147  0.48907  0.27799  1.0000
  C   C1685     1.0  0.89242  0.73323  0.23074  1.0000
  C   C1686     1.0  0.96827  0.68298  0.46149  1.0000
  H   H2009     1.0  0.98069  0.73603  0.30579  1.0000
  H   H2010     1.0  0.88171  0.63521  0.38854  1.0000
  H   H2011     1.0  0.71239  0.50770  0.26389  1.0000
  H   H2012     1.0  0.99073  0.69143  0.27901  1.0000
  C   C1687     1.0  0.86221  0.55716  0.30835  1.0000
  C   C1688     1.0  0.88809  0.61699  0.46176  1.0000
  C   C1689     1.0  0.84484  0.55960  0.27250  1.0000
  H   H2013     1.0  0.90574  0.59753  0.09432  1.0000
  C   C1690     1.0  0.87226  0.63789  0.42942  1.0000
  H   H2014     1.0  0.94746  0.68910  0.12293  1.0000
  C   C1691     1.0  0.88128  0.68471  0.45045  1.0000
  H   H2015     1.0  0.97557  0.66962  0.41947  1.0000
  C   C1692     1.0  0.91148  0.71204  0.41365  1.0000
  H   H2016     1.0  0.90691  0.55753  0.32481  1.0000
  C   C1693     1.0  0.88919  0.68410  0.47276  1.0000
  C   C1694     1.0  0.90579  0.73585  0.07177  1.0000
  H   H2017     1.0  0.90552  0.61005  0.39890  1.0000
  H   H2018     1.0  0.92115  0.66222  0.41714  1.0000
  C   C1695     1.0  0.91222  0.66836  0.43251  1.0000
  C   C1696     1.0  0.87426  0.63152  0.45652  1.0000
  C   C1697     1.0  0.85908  0.57872  0.33095  1.0000
  S   S459      1.0  0.81949  0.48850  0.15370  1.0000
  C   C1698     1.0  0.95656  0.59247  0.20361  1.0000
  H   H2019     1.0  0.99807  0.67494  0.42226  1.0000
  H   H2020     1.0  0.98826  0.59099  0.35204  1.0000
  C   C1699     1.0  0.77956  0.51129  0.25558  1.0000
  C   C1700     1.0  0.98159  0.67101  0.13784  1.0000
  H   H2021     1.0  0.96425  0.71909  0.35042  1.0000
  C   C1701     1.0  0.88339  0.63011  0.40907  1.0000
  H   H2022     1.0  0.83508  0.57497  0.31665  1.0000
  H   H2023     1.0  0.96044  0.69096  0.47543  1.0000
  H   H2024     1.0  0.93507  0.58891  0.24070  1.0000
  H   H2025     1.0  0.96150  0.61843  0.29930  1.0000
  H   H2026     1.0  0.93947  0.70841  0.22931  1.0000
  H   H2027     1.0  0.82352  0.55185  0.32185  1.0000
  H   H2028     1.0  0.86702  0.62124  0.02957  1.0000
  H   H2029     1.0  0.74630  0.53521  0.25071  1.0000
  Fe  Fe232     1.0  0.79603  0.50189  0.18161  1.0000
  H   H2030     1.0  0.93526  0.66127  0.45637  1.0000
  C   C1702     1.0  0.94632  0.59571  0.22850  1.0000
  C   C1703     1.0  0.89107  0.56093  0.32348  1.0000
  H   H2031     1.0  0.94846  0.70586  0.26949  1.0000
  H   H2032     1.0  0.85319  0.64101  0.02068  1.0000
  H   H2033     1.0  0.94780  0.66830  0.12659  1.0000
  C   C1704     1.0  0.92024  0.66791  0.45471  1.0000
  H   H2034     1.0  0.89048  0.61153  0.48184  1.0000
  C   C1705     1.0  0.86699  0.53504  0.28563  1.0000
  C   C1706     1.0  0.98298  0.67986  0.41672  1.0000
  H   H2035     1.0  0.72462  0.49954  0.29201  1.0000
  H   H2036     1.0  0.97854  0.59912  0.16817  1.0000
  H   H2037     1.0  0.98604  0.68553  0.39507  1.0000
  C   C1707     1.0  0.99876  0.71670  0.05914  1.0000
  H   H2038     1.0  0.99743  0.69969  0.43205  1.0000
  C   C1708     1.0  0.89753  0.71669  0.23472  1.0000
  H   H2039     1.0  0.90975  0.59832  0.44567  1.0000
  H   H2040     1.0  0.75093  0.50089  0.22168  1.0000
  H   H2041     1.0  0.95643  0.62128  0.34594  1.0000
  C   C1709     1.0  0.84898  0.65445  0.46990  1.0000
  C   C1710     1.0  0.92527  0.72821  0.07564  1.0000
  C   C1711     1.0  0.95091  0.60754  0.23779  1.0000
  H   H2042     1.0  0.94316  0.60993  0.25715  1.0000
  H   H2043     1.0  0.72101  0.53224  0.25891  1.0000
  H   H2044     1.0  0.90398  0.64762  0.99015  1.0000
  H   H2045     1.0  0.85706  0.56505  0.25796  1.0000
  N   N114      1.0  0.74337  0.51078  0.25651  1.0000
  C   C1712     1.0  0.98805  0.70582  0.17448  1.0000
  H   H2046     1.0  0.73143  0.51823  0.22017  1.0000
  C   C1713     1.0  0.87921  0.57389  0.33351  1.0000
  N   N115      1.0  0.86285  0.63941  0.47866  1.0000
  H   H2047     1.0  0.87981  0.61313  0.07008  1.0000
  H   H2048     1.0  0.93412  0.71994  0.06369  1.0000
  C   C1714     1.0  0.98886  0.69727  0.25813  1.0000
  H   H2049     1.0  0.94331  0.68773  0.26561  1.0000
  S   S460      1.0  0.89546  0.73292  0.04644  1.0000
  H   H2050     1.0  0.96509  0.59587  0.33960  1.0000
  C   C1715     1.0  0.74582  0.51261  0.22727  1.0000
  H   H2051     1.0  0.94896  0.72599  0.09674  1.0000
  C   C1716     1.0  0.92870  0.61071  0.07110  1.0000
  H   H2052     1.0  0.97461  0.68830  0.05813  1.0000
  C   C1717     1.0  0.89127  0.64103  0.99752  1.0000
  H   H2053     1.0  0.96838  0.71995  0.14766  1.0000
  C   C1718     1.0  0.98936  0.69822  0.20092  1.0000
  C   C1719     1.0  0.95448  0.67863  0.11384  1.0000
  C   C1720     1.0  0.98171  0.70431  0.42852  1.0000
  N   N116      1.0  0.97680  0.67538  0.11065  1.0000
  C   C1721     1.0  0.96950  0.71408  0.16815  1.0000
  H   H2054     1.0  0.86669  0.66366  0.02144  1.0000
  H   H2055     1.0  0.89648  0.71692  0.40933  1.0000
  H   H2056     1.0  0.98054  0.65043  0.11153  1.0000
  H   H2057     1.0  0.94958  0.68113  0.09441  1.0000
  H   H2058     1.0  0.89160  0.66131  0.02692  1.0000
  H   H2059     1.0  0.97560  0.66030  0.15026  1.0000
  C   C1722     1.0  0.87819  0.65557  0.03263  1.0000
  H   H2060     1.0  0.87207  0.65509  0.05427  1.0000
  C   C1723     1.0  0.79842  0.50432  0.26227  1.0000
  H   H2061     1.0  0.99666  0.67083  0.23982  1.0000
  H   H2062     1.0  0.85639  0.63328  0.05435  1.0000
  H   H2063     1.0  0.93786  0.72145  0.18326  1.0000
  C   C1724     1.0  0.93373  0.73177  0.09435  1.0000
  H   H2064     1.0  0.98790  0.58829  0.31956  1.0000
  H   H2065     1.0  0.98032  0.63068  0.28698  1.0000
  H   H2066     1.0  0.89669  0.62919  0.99238  1.0000
  C   C1725     1.0  0.99520  0.69834  0.10220  1.0000
  H   H2067     1.0  0.90649  0.72358  0.44622  1.0000
  C   C1726     1.0  0.88401  0.73101  0.27871  1.0000
  H   H2068     1.0  0.88778  0.65021  0.47677  1.0000
  H   H2069     1.0  0.87857  0.73654  0.29574  1.0000
  H   H2070     1.0  0.95483  0.72979  0.98366  1.0000
  H   H2071     1.0  0.87965  0.64793  0.98552  1.0000
  H   H2072     1.0  0.99822  0.66809  0.13684  1.0000
  H   H2073     1.0  0.99878  0.69490  0.12186  1.0000
  C   C1727     1.0  0.76669  0.48757  0.28045  1.0000
  H   H2074     1.0  0.76820  0.59454  0.69036  1.0000
  C   C1728     1.0  0.80541  0.70816  0.88747  1.0000
  C   C1729     1.0  0.73151  0.59414  0.74590  1.0000
  H   H2075     1.0  0.88826  0.61433  0.60237  1.0000
  H   H2076     1.0  0.87531  0.62937  0.63390  1.0000
  H   H2077     1.0  0.88033  0.69042  0.48798  1.0000
  H   H2078     1.0  0.79601  0.71959  0.89167  1.0000
  C   C1730     1.0  0.77502  0.68894  0.80687  1.0000
  H   H2079     1.0  0.89655  0.55490  0.72450  1.0000
  H   H2080     1.0  0.94304  0.65225  0.77203  1.0000
  Fe  Fe233     1.0  0.87524  0.65071  0.80838  1.0000
  S   S461      1.0  0.89775  0.66684  0.79155  1.0000
  S   S462      1.0  0.88261  0.62438  0.81096  1.0000
  Fe  Fe234     1.0  0.88184  0.67858  0.82605  1.0000
  H   H2081     1.0  0.81956  0.70185  0.78108  1.0000
  Fe  Fe235     1.0  0.87391  0.68269  0.76967  1.0000
  H   H2082     1.0  0.70701  0.61334  0.75359  1.0000
  S   S463      1.0  0.86127  0.66100  0.84464  1.0000
  S   S464      1.0  0.85242  0.66581  0.78415  1.0000
  Fe  Fe236     1.0  0.85646  0.68308  0.57723  1.0000
  S   S465      1.0  0.88845  0.68521  0.57501  1.0000
  H   H2083     1.0  0.88027  0.62412  0.66632  1.0000
  Fe  Fe237     1.0  0.86804  0.64907  0.57105  1.0000
  S   S466      1.0  0.90071  0.64811  0.56928  1.0000
  S   S467      1.0  0.85970  0.62858  0.56173  1.0000
  Fe  Fe238     1.0  0.88999  0.66122  0.60269  1.0000
  S   S468      1.0  0.90315  0.65246  0.64013  1.0000
  Fe  Fe239     1.0  0.89606  0.67200  0.54166  1.0000
  S   S469      1.0  0.97750  0.70234  0.96294  1.0000
  S   S470      1.0  0.85756  0.65992  0.60701  1.0000
  S   S471      1.0  0.86383  0.67217  0.54156  1.0000
  Fe  Fe240     1.0  0.83758  0.56220  0.73117  1.0000
  S   S472      1.0  0.84613  0.58010  0.69371  1.0000
  S   S473      1.0  0.85857  0.53890  0.74251  1.0000
  Fe  Fe241     1.0  0.79811  0.58403  0.74954  1.0000
  S   S474      1.0  0.80362  0.60343  0.71359  1.0000
  S   S475      1.0  0.77112  0.58676  0.78295  1.0000
  Fe  Fe242     1.0  0.81363  0.58407  0.69105  1.0000
  S   S476      1.0  0.80451  0.58709  0.65211  1.0000
  Fe  Fe243     1.0  0.83531  0.59764  0.72013  1.0000
  S   S477      1.0  0.84932  0.61872  0.71437  1.0000
  S   S478      1.0  0.80563  0.56475  0.72649  1.0000
  S   S479      1.0  0.82921  0.57956  0.75805  1.0000
  Fe  Fe244     1.0  0.73998  0.68208  0.69258  1.0000
  C   C1731     1.0  0.82198  0.62542  0.82033  1.0000
  Fe  Fe245     1.0  0.71996  0.67378  0.75052  1.0000
  S   S480      1.0  0.71352  0.65363  0.78517  1.0000
  S   S481      1.0  0.75182  0.67586  0.73044  1.0000
  Fe  Fe246     1.0  0.84043  0.67755  0.81867  1.0000
  S   S482      1.0  0.87933  0.69539  0.72603  1.0000
  C   C1732     1.0  0.75514  0.60548  0.78228  1.0000
  C   C1733     1.0  0.75701  0.61810  0.76000  1.0000
  C   C1734     1.0  0.74416  0.63293  0.76046  1.0000
  C   C1735     1.0  0.72935  0.63515  0.78324  1.0000
  C   C1736     1.0  0.72728  0.62247  0.80528  1.0000
  C   C1737     1.0  0.74011  0.60771  0.80479  1.0000
  H   H2084     1.0  0.76801  0.61642  0.74222  1.0000
  H   H2085     1.0  0.74556  0.64256  0.74313  1.0000
  H   H2086     1.0  0.87661  0.59812  0.62227  1.0000
  H   H2087     1.0  0.73844  0.59802  0.82202  1.0000
  H   H2088     1.0  0.86539  0.71511  0.87148  1.0000
  C   C1738     1.0  0.98513  0.71748  0.97135  1.0000
  C   C1739     1.0  0.92785  0.62235  0.75885  1.0000
  H   H2089     1.0  0.89454  0.66206  0.72945  1.0000
  H   H2090     1.0  0.79496  0.71431  0.62177  1.0000
  C   C1740     1.0  0.77835  0.69521  0.63813  1.0000
  H   H2091     1.0  0.79966  0.66761  0.70790  1.0000
  H   H2092     1.0  0.83005  0.65853  0.73060  1.0000
  H   H2093     1.0  0.97075  0.66265  0.74265  1.0000
  H   H2094     1.0  0.79601  0.68778  0.71155  1.0000
  C   C1741     1.0  0.84325  0.61808  0.58697  1.0000
  C   C1742     1.0  0.83889  0.62013  0.61327  1.0000
  C   C1743     1.0  0.82701  0.61059  0.63348  1.0000
  C   C1744     1.0  0.81891  0.59941  0.62713  1.0000
  C   C1745     1.0  0.82264  0.59783  0.60066  1.0000
  C   C1746     1.0  0.83505  0.60697  0.58069  1.0000
  H   H2095     1.0  0.84492  0.62887  0.61810  1.0000
  H   H2096     1.0  0.82404  0.61194  0.65391  1.0000
  H   H2097     1.0  0.81641  0.58918  0.59574  1.0000
  H   H2098     1.0  0.83837  0.60536  0.56037  1.0000
  C   C1747     1.0  0.74874  0.58904  0.72801  1.0000
  C   C1748     1.0  0.80795  0.67882  0.60338  1.0000
  C   C1749     1.0  0.93977  0.64549  0.75990  1.0000
  C   C1750     1.0  0.87738  0.61907  0.65081  1.0000
  H   H2099     1.0  0.90255  0.64524  0.69602  1.0000
  H   H2100     1.0  0.79277  0.60615  0.80125  1.0000
  H   H2101     1.0  0.92048  0.69765  0.87896  1.0000
  C   C1751     1.0  0.89698  0.68482  0.88258  1.0000
  C   C1752     1.0  0.90624  0.69060  0.92032  1.0000
  H   H2102     1.0  0.81725  0.65289  0.78022  1.0000
  C   C1753     1.0  0.87926  0.67619  0.92814  1.0000
  C   C1754     1.0  0.88240  0.67679  0.90054  1.0000
  H   H2103     1.0  0.91546  0.69599  0.92776  1.0000
  H   H2104     1.0  0.82229  0.67773  0.73788  1.0000
  H   H2105     1.0  0.87347  0.67115  0.89317  1.0000
  C   C1755     1.0  0.88586  0.68360  0.70193  1.0000
  C   C1756     1.0  0.89763  0.65790  0.69011  1.0000
  C   C1757     1.0  0.89603  0.66473  0.66348  1.0000
  C   C1758     1.0  0.88933  0.68110  0.65602  1.0000
  C   C1759     1.0  0.88451  0.69052  0.67517  1.0000
  H   H2106     1.0  0.83832  0.71919  0.62231  1.0000
  H   H2107     1.0  0.87960  0.70319  0.66922  1.0000
  C   C1760     1.0  0.87598  0.62132  0.78308  1.0000
  C   C1761     1.0  0.87017  0.60725  0.78359  1.0000
  C   C1762     1.0  0.86236  0.60607  0.76222  1.0000
  C   C1763     1.0  0.86063  0.61889  0.74037  1.0000
  C   C1764     1.0  0.86764  0.63248  0.73929  1.0000
  C   C1765     1.0  0.87541  0.63359  0.76053  1.0000
  H   H2108     1.0  0.87094  0.59755  0.80086  1.0000
  H   H2109     1.0  0.85748  0.59537  0.76292  1.0000
  H   H2110     1.0  0.86674  0.64225  0.72219  1.0000
  H   H2111     1.0  0.88090  0.64399  0.75976  1.0000
  H   H2112     1.0  0.76741  0.68181  0.82469  1.0000
  H   H2113     1.0  0.75011  0.69434  0.78634  1.0000
  C   C1766     1.0  0.89415  0.51317  0.67603  1.0000
  C   C1767     1.0  0.90020  0.50959  0.70057  1.0000
  C   C1768     1.0  0.88952  0.51794  0.72045  1.0000
  C   C1769     1.0  0.87251  0.52973  0.71615  1.0000
  C   C1770     1.0  0.86661  0.53355  0.69142  1.0000
  C   C1771     1.0  0.87749  0.52531  0.67133  1.0000
  C   C1772     1.0  0.86483  0.71962  0.90913  1.0000
  H   H2114     1.0  0.89455  0.51529  0.73920  1.0000
  H   H2115     1.0  0.85356  0.54273  0.68788  1.0000
  H   H2116     1.0  0.87283  0.52824  0.65228  1.0000
  C   C1773     1.0  0.94207  0.65082  0.73173  1.0000
  C   C1774     1.0  0.89667  0.56511  0.70791  1.0000
  H   H2117     1.0  0.83784  0.58684  0.84899  1.0000
  H   H2118     1.0  0.72762  0.58666  0.76550  1.0000
  H   H2119     1.0  0.92985  0.62812  0.79489  1.0000
  S   S483      1.0  0.71018  0.69918  0.75467  1.0000
  C   C1775     1.0  0.83842  0.69354  0.87355  1.0000
  H   H2120     1.0  0.88809  0.68653  0.63548  1.0000
  H   H2121     1.0  0.91336  0.62263  0.61918  1.0000
  S   S484      1.0  0.85982  0.69602  0.80251  1.0000
  H   H2122     1.0  0.79141  0.65976  0.61956  1.0000
  C   C1776     1.0  0.85041  0.62872  0.49889  1.0000
  C   C1777     1.0  0.83849  0.71869  0.68669  1.0000
  C   C1778     1.0  0.79902  0.63519  0.76345  1.0000
  C   C1779     1.0  0.93249  0.63158  0.77321  1.0000
  H   H2123     1.0  0.71582  0.62411  0.82290  1.0000
  H   H2124     1.0  0.87039  0.50370  0.77547  1.0000
  H   H2125     1.0  0.82798  0.48962  0.76730  1.0000
  H   H2126     1.0  0.76425  0.64904  0.79132  1.0000
  H   H2127     1.0  0.86207  0.49952  0.65111  1.0000
  S   S485      1.0  0.70868  0.67792  0.71256  1.0000
  H   H2128     1.0  0.80161  0.71538  0.74370  1.0000
  C   C1780     1.0  0.80908  0.69416  0.60405  1.0000
  H   H2129     1.0  0.93828  0.69095  0.71983  1.0000
  H   H2130     1.0  0.86281  0.61478  0.65863  1.0000
  C   C1781     1.0  0.82506  0.71461  0.92401  1.0000
  H   H2131     1.0  0.84824  0.49054  0.62161  1.0000
  C   C1782     1.0  0.83576  0.71367  0.89760  1.0000
  H   H2132     1.0  0.76704  0.70159  0.65153  1.0000
  C   C1783     1.0  0.83201  0.67105  0.72275  1.0000
  N   N117      1.0  0.79551  0.63755  0.79111  1.0000
  C   C1784     1.0  0.83201  0.69339  0.68345  1.0000
  H   H2133     1.0  0.86756  0.67036  0.94179  1.0000
  H   H2134     1.0  0.82184  0.71827  0.83791  1.0000
  H   H2135     1.0  0.81207  0.58340  0.82697  1.0000
  N   N118      1.0  0.74954  0.62458  0.66929  1.0000
  C   C1785     1.0  0.73513  0.63978  0.66361  1.0000
  C   C1786     1.0  0.76932  0.62836  0.66856  1.0000
  C   C1787     1.0  0.75188  0.61631  0.64741  1.0000
  C   C1788     1.0  0.74293  0.61426  0.69552  1.0000
  C   C1789     1.0  0.72549  0.61917  0.71437  1.0000
  C   C1790     1.0  0.71994  0.60918  0.73913  1.0000
  H   H2136     1.0  0.73351  0.64708  0.67845  1.0000
  H   H2137     1.0  0.74046  0.64730  0.64377  1.0000
  H   H2138     1.0  0.71996  0.63781  0.66353  1.0000
  H   H2139     1.0  0.76850  0.63394  0.68544  1.0000
  H   H2140     1.0  0.77436  0.63680  0.64971  1.0000
  H   H2141     1.0  0.73767  0.61244  0.64815  1.0000
  H   H2142     1.0  0.75605  0.62406  0.62738  1.0000
  H   H2143     1.0  0.71608  0.63078  0.71084  1.0000
  C   C1791     1.0  0.79212  0.67165  0.62014  1.0000
  C   C1792     1.0  0.90906  0.69151  0.89266  1.0000
  S   S486      1.0  0.90001  0.68748  0.84743  1.0000
  H   H2144     1.0  0.81919  0.67251  0.58974  1.0000
  Fe  Fe247     1.0  0.74124  0.70158  0.73077  1.0000
  C   C1793     1.0  0.89265  0.66730  0.70920  1.0000
  H   H2145     1.0  0.95893  0.66221  0.67803  1.0000
  Fe  Fe248     1.0  0.70143  0.70366  0.71476  1.0000
  C   C1794     1.0  0.75444  0.59891  0.70323  1.0000
  H   H2146     1.0  0.78151  0.61766  0.66964  1.0000
  H   H2147     1.0  0.76414  0.60564  0.64831  1.0000
  H   H2148     1.0  0.83117  0.66806  0.66055  1.0000
  C   C1795     1.0  0.83724  0.66587  0.67904  1.0000
  C   C1796     1.0  0.91336  0.61200  0.63597  1.0000
  C   C1797     1.0  0.89050  0.60323  0.61800  1.0000
  H   H2149     1.0  0.91611  0.61564  0.65317  1.0000
  H   H2150     1.0  0.89375  0.58159  0.73250  1.0000
  C   C1798     1.0  0.80382  0.60831  0.81044  1.0000
  H   H2151     1.0  0.83550  0.65353  0.68952  1.0000
  S   S487      1.0  0.75831  0.67019  0.65937  1.0000
  H   H2152     1.0  0.79205  0.66298  0.77703  1.0000
  H   H2153     1.0  0.80974  0.71267  0.93120  1.0000
  C   C1799     1.0  0.82920  0.59707  0.83772  1.0000
  N   N119      1.0  0.89406  0.60624  0.64268  1.0000
  H   H2154     1.0  0.92640  0.60270  0.63012  1.0000
  H   H2155     1.0  0.90355  0.59519  0.60855  1.0000
  H   H2156     1.0  0.75808  0.57754  0.73380  1.0000
  C   C1800     1.0  0.76525  0.69598  0.78517  1.0000
  H   H2157     1.0  0.77039  0.64054  0.82385  1.0000
  H   H2158     1.0  0.79807  0.65575  0.80949  1.0000
  N   N120      1.0  0.82669  0.67759  0.69591  1.0000
  C   C1801     1.0  0.77741  0.67976  0.63775  1.0000
  H   H2159     1.0  0.84810  0.67127  0.72193  1.0000
  H   H2160     1.0  0.95248  0.68256  0.67994  1.0000
  C   C1802     1.0  0.80461  0.67915  0.69889  1.0000
  H   H2161     1.0  0.85372  0.66597  0.67313  1.0000
  C   C1803     1.0  0.80104  0.65293  0.78938  1.0000
  C   C1804     1.0  0.89511  0.59201  0.66478  1.0000
  H   H2162     1.0  0.89833  0.57411  0.64144  1.0000
  S   S488      1.0  0.80678  0.68206  0.83258  1.0000
  C   C1805     1.0  0.79462  0.69102  0.80545  1.0000
  H   H2163     1.0  0.79377  0.62452  0.76273  1.0000
  C   C1806     1.0  0.89743  0.57643  0.66076  1.0000
  H   H2164     1.0  0.89346  0.60472  0.69568  1.0000
  H   H2165     1.0  0.81543  0.63353  0.75426  1.0000
  H   H2166     1.0  0.84693  0.48830  0.67853  1.0000
  H   H2167     1.0  0.82602  0.71812  0.96256  1.0000
  C   C1807     1.0  0.89460  0.59337  0.69112  1.0000
  S   S489      1.0  0.76223  0.71552  0.73604  1.0000
  H   H2168     1.0  0.76791  0.62814  0.80366  1.0000
  H   H2169     1.0  0.72054  0.73238  0.72768  1.0000
  S   S490      1.0  0.73193  0.70809  0.69113  1.0000
  H   H2170     1.0  0.85459  0.69374  0.86421  1.0000
  H   H2171     1.0  0.88042  0.72120  0.90361  1.0000
  C   C1808     1.0  0.80442  0.70020  0.78234  1.0000
  C   C1809     1.0  0.77474  0.70569  0.76253  1.0000
  C   C1810     1.0  0.79431  0.70780  0.76115  1.0000
  C   C1811     1.0  0.89818  0.56324  0.68211  1.0000
  H   H2172     1.0  0.89949  0.55150  0.67875  1.0000
  H   H2173     1.0  0.83799  0.68445  0.89261  1.0000
  C   C1812     1.0  0.77363  0.63887  0.80296  1.0000
  H   H2174     1.0  0.79078  0.64535  0.75043  1.0000
  C   C1813     1.0  0.89502  0.58014  0.71238  1.0000
  C   C1814     1.0  0.89105  0.68319  0.93814  1.0000
  C   C1815     1.0  0.79411  0.70244  0.62117  1.0000
  S   S491      1.0  0.82998  0.70253  0.58512  1.0000
  H   H2175     1.0  0.85355  0.50287  0.75599  1.0000
  H   H2176     1.0  0.82581  0.63668  0.81904  1.0000
  H   H2177     1.0  0.93660  0.67785  0.75178  1.0000
  C   C1816     1.0  0.93514  0.67903  0.73086  1.0000
  H   H2178     1.0  0.97515  0.67626  0.71118  1.0000
  C   C1817     1.0  0.96955  0.66504  0.72130  1.0000
  H   H2179     1.0  0.93271  0.67180  0.68572  1.0000
  H   H2180     1.0  0.84022  0.62486  0.48966  1.0000
  H   H2181     1.0  0.84651  0.49847  0.79215  1.0000
  C   C1818     1.0  0.94816  0.67078  0.68928  1.0000
  N   N121      1.0  0.94859  0.66612  0.71832  1.0000
  C   C1819     1.0  0.93794  0.64079  0.71757  1.0000
  C   C1820     1.0  0.93077  0.62685  0.73109  1.0000
  C   C1821     1.0  0.80714  0.62386  0.80735  1.0000
  S   S492      1.0  0.91887  0.67510  0.50272  1.0000
  H   H2182     1.0  0.98006  0.65528  0.71255  1.0000
  H   H2183     1.0  0.84076  0.72600  0.69876  1.0000
  N   N122      1.0  0.82713  0.70924  0.87825  1.0000
  C   C1822     1.0  0.81477  0.59515  0.82529  1.0000
  H   H2184     1.0  0.85979  0.61795  0.50909  1.0000
  C   C1823     1.0  0.83332  0.69963  0.65560  1.0000
  C   C1824     1.0  0.83997  0.72432  0.65921  1.0000
  H   H2185     1.0  0.83199  0.68938  0.85997  1.0000
  H   H2186     1.0  0.91902  0.67922  0.73131  1.0000
  C   C1825     1.0  0.83273  0.61216  0.83533  1.0000
  H   H2187     1.0  0.84427  0.61360  0.84459  1.0000
  C   C1826     1.0  0.83422  0.71778  0.94232  1.0000
  H   H2188     1.0  0.83107  0.69294  0.64266  1.0000
  S   S493      1.0  0.88582  0.68293  0.97279  1.0000
  H   H2189     1.0  0.91322  0.50048  0.70419  1.0000
  H   H2190     1.0  0.92694  0.61968  0.72006  1.0000
  C   C1827     1.0  0.83446  0.70351  0.69876  1.0000
  H   H2191     1.0  0.92165  0.61183  0.76938  1.0000
  H   H2192     1.0  0.93953  0.64366  0.69609  1.0000
  H   H2193     1.0  0.83366  0.69991  0.72007  1.0000
  H   H2194     1.0  0.79988  0.68362  0.67920  1.0000
  H   H2195     1.0  0.84087  0.63462  0.51518  1.0000
  S   S494      1.0  0.90692  0.50220  0.65151  1.0000
  H   H2196     1.0  0.86925  0.65003  0.50720  1.0000
  H   H2197     1.0  0.84093  0.66024  0.48690  1.0000
  C   C1828     1.0  0.85913  0.49686  0.77484  1.0000
  C   C1829     1.0  0.83735  0.71481  0.64371  1.0000
  H   H2198     1.0  0.84508  0.72115  0.84222  1.0000
  H   H2199     1.0  0.86134  0.72220  0.94940  1.0000
  S   S495      1.0  0.67515  0.72142  0.69949  1.0000
  H   H2200     1.0  0.80296  0.69856  0.90563  1.0000
  H   H2201     1.0  0.69378  0.73352  0.73454  1.0000
  C   C1830     1.0  0.85408  0.72019  0.93494  1.0000
  C   C1831     1.0  0.82907  0.72099  0.85240  1.0000
  C   C1832     1.0  0.85596  0.71625  0.89077  1.0000
  H   H2202     1.0  0.79937  0.70515  0.87209  1.0000
  H   H2203     1.0  0.88643  0.63235  0.50202  1.0000
  H   H2204     1.0  0.88623  0.48792  0.61874  1.0000
  C   C1833     1.0  0.87721  0.64313  0.49164  1.0000
  S   S496      1.0  0.91713  0.71392  0.98110  1.0000
  C   C1834     1.0  0.97078  0.72957  0.98142  1.0000
  H   H2205     1.0  0.82186  0.73317  0.85532  1.0000
  H   H2206     1.0  0.84316  0.73606  0.64989  1.0000
  C   C1835     1.0  0.86193  0.48763  0.66478  1.0000
  C   C1836     1.0  0.87099  0.86625  0.19026  1.0000
  Fe  Fe249     1.0  0.91788  0.76790  0.15239  1.0000
  S   S497      1.0  0.92103  0.79355  0.13906  1.0000
  H   H2207     1.0  0.84422  0.86832  0.13299  1.0000
  Fe  Fe250     1.0  0.89292  0.77217  0.20667  1.0000
  S   S498      1.0  0.89376  0.79790  0.19804  1.0000
  S   S499      1.0  0.87871  0.76102  0.24792  1.0000
  Fe  Fe251     1.0  0.88785  0.79844  0.15806  1.0000
  S   S500      1.0  0.86541  0.81767  0.13731  1.0000
  Fe  Fe252     1.0  0.92656  0.79090  0.18022  1.0000
  S   S501      1.0  0.94895  0.79930  0.19537  1.0000
  S   S502      1.0  0.88440  0.77294  0.16805  1.0000
  S   S503      1.0  0.92602  0.76495  0.19215  1.0000
  Fe  Fe253     1.0  0.76259  0.87394  0.19418  1.0000
  S   S504      1.0  0.74266  0.88209  0.23059  1.0000
  S   S505      1.0  0.79321  0.85999  0.20292  1.0000
  N   N123      1.0  0.77508  0.81562  0.23586  1.0000
  S   S506      1.0  0.93518  0.74900  0.12942  1.0000
  S   S507      1.0  0.75675  0.89802  0.16713  1.0000
  S   S508      1.0  0.73784  0.86530  0.18469  1.0000
  H   H2208     1.0  0.73237  0.95556  0.23223  1.0000
  C   C1837     1.0  0.84467  0.82861  0.15615  1.0000
  C   C1838     1.0  0.82858  0.83793  0.14402  1.0000
  C   C1839     1.0  0.81238  0.84736  0.15819  1.0000
  C   C1840     1.0  0.81238  0.84772  0.18448  1.0000
  C   C1841     1.0  0.82833  0.83825  0.19668  1.0000
  C   C1842     1.0  0.84430  0.82866  0.18269  1.0000
  H   H2209     1.0  0.82874  0.83798  0.12348  1.0000
  H   H2210     1.0  0.80019  0.85462  0.14857  1.0000
  H   H2211     1.0  0.82842  0.83844  0.21702  1.0000
  H   H2212     1.0  0.85646  0.82152  0.19235  1.0000
  C   C1843     1.0  0.97141  0.80546  0.17606  1.0000
  C   C1844     1.0  0.97464  0.81007  0.14815  1.0000
  H   H2213     1.0  0.82744  0.88382  0.16753  1.0000
  H   H2214     1.0  0.68523  0.94431  0.27471  1.0000
  C   C1845     1.0  0.98823  0.75098  0.12628  1.0000
  H   H2215     1.0  0.93725  0.76479  0.02238  1.0000
  H   H2216     1.0  0.96338  0.80952  0.13769  1.0000
  H   H2217     1.0  0.89349  0.74043  0.21066  1.0000
  H   H2218     1.0  0.83098  0.77786  0.25991  1.0000
  C   C1846     1.0  0.68489  0.96020  0.20280  1.0000
  H   H2219     1.0  0.69798  0.93674  0.19507  1.0000
  H   H2220     1.0  0.87715  0.78565  0.05423  1.0000
  C   C1847     1.0  0.68039  0.87011  0.27476  1.0000
  C   C1848     1.0  0.92750  0.77193  0.03589  1.0000
  C   C1849     1.0  0.90324  0.75054  0.10587  1.0000
  H   H2221     1.0  0.97992  0.77973  0.06865  1.0000
  H   H2222     1.0  0.98357  0.78221  0.02126  1.0000
  H   H2223     1.0  0.89477  0.75939  0.11708  1.0000
  C   C1850     1.0  0.96700  0.78318  0.02334  1.0000
  C   C1851     1.0  0.97301  0.74346  0.29015  1.0000
  H   H2224     1.0  0.77932  0.81976  0.27257  1.0000
  C   C1852     1.0  0.79513  0.80551  0.22908  1.0000
  C   C1853     1.0  0.68425  0.90071  0.10617  1.0000
  H   H2225     1.0  0.76397  0.79853  0.27071  1.0000
  H   H2226     1.0  0.76242  0.83532  0.25552  1.0000
  C   C1854     1.0  0.70951  0.95695  0.12769  1.0000
  C   C1855     1.0  0.70004  0.97285  0.12912  1.0000
  C   C1856     1.0  0.72715  0.95064  0.13882  1.0000
  C   C1857     1.0  0.94506  0.74845  0.26752  1.0000
  C   C1858     1.0  0.73481  0.95966  0.15060  1.0000
  H   H2227     1.0  0.68651  0.97871  0.12142  1.0000
  H   H2228     1.0  0.76510  0.81844  0.19898  1.0000
  C   C1859     1.0  0.82467  0.79589  0.19676  1.0000
  N   N124      1.0  0.95754  0.77559  0.05060  1.0000
  H   H2229     1.0  0.70598  0.87600  0.28346  1.0000
  H   H2230     1.0  0.68419  0.93801  0.15541  1.0000
  C   C1860     1.0  0.68327  0.95538  0.10456  1.0000
  C   C1861     1.0  0.68863  0.92299  0.26238  1.0000
  C   C1862     1.0  0.80574  0.80563  0.20230  1.0000
  H   H2231     1.0  0.68583  0.88758  0.32208  1.0000
  H   H2232     1.0  0.97906  0.77503  0.30839  1.0000
  H   H2233     1.0  0.73480  0.93848  0.13936  1.0000
  C   C1863     1.0  0.96325  0.78225  0.07008  1.0000
  H   H2234     1.0  0.74787  0.95435  0.15985  1.0000
  C   C1864     1.0  0.98343  0.76526  0.16099  1.0000
  S   S509      1.0  0.72013  0.89791  0.12129  1.0000
  C   C1865     1.0  0.76011  0.80554  0.25130  1.0000
  H   H2235     1.0  0.87950  0.75260  0.08479  1.0000
  C   C1866     1.0  0.71912  0.95676  0.22407  1.0000
  C   C1867     1.0  0.93541  0.77815  0.05245  1.0000
  C   C1868     1.0  0.92118  0.78741  0.06950  1.0000
  H   H2236     1.0  0.98307  0.75621  0.05338  1.0000
  C   C1869     1.0  0.95124  0.76225  0.25152  1.0000
  H   H2237     1.0  0.96001  0.75236  0.07611  1.0000
  H   H2238     1.0  0.68765  0.91158  0.09264  1.0000
  H   H2239     1.0  0.75908  0.79703  0.23979  1.0000
  C   C1870     1.0  0.85190  0.86789  0.14877  1.0000
  H   H2240     1.0  0.95841  0.79536  0.06645  1.0000
  Fe  Fe254     1.0  0.73025  0.89011  0.16077  1.0000
  H   H2241     1.0  0.97199  0.77768  0.24162  1.0000
  H   H2242     1.0  0.95649  0.77696  0.09104  1.0000
  H   H2243     1.0  0.92563  0.79266  0.08278  1.0000
  H   H2244     1.0  0.90106  0.76937  0.02428  1.0000
  C   C1871     1.0  0.95598  0.73904  0.28678  1.0000
  C   C1872     1.0  0.92297  0.74329  0.10894  1.0000
  C   C1873     1.0  0.90044  0.79012  0.06997  1.0000
  N   N125      1.0  0.90025  0.84574  0.17438  1.0000
  C   C1874     1.0  0.91617  0.85514  0.16980  1.0000
  C   C1875     1.0  0.89867  0.83564  0.20183  1.0000
  C   C1876     1.0  0.90695  0.83500  0.15529  1.0000
  C   C1877     1.0  0.88069  0.85659  0.17147  1.0000
  C   C1878     1.0  0.87073  0.85796  0.15025  1.0000
  H   H2245     1.0  0.96351  0.75230  0.04148  1.0000
  C   C1879     1.0  0.69975  0.94621  0.20299  1.0000
  C   C1880     1.0  0.68988  0.87625  0.28919  1.0000
  C   C1881     1.0  0.82373  0.78559  0.24392  1.0000
  H   H2246     1.0  0.91280  0.86285  0.18443  1.0000
  H   H2247     1.0  0.93118  0.84734  0.17164  1.0000
  H   H2248     1.0  0.91772  0.86299  0.14945  1.0000
  H   H2249     1.0  0.89726  0.84240  0.21729  1.0000
  H   H2250     1.0  0.91230  0.82609  0.20391  1.0000
  H   H2251     1.0  0.88523  0.82988  0.20724  1.0000
  H   H2252     1.0  0.91016  0.84166  0.13419  1.0000
  H   H2253     1.0  0.92116  0.82643  0.15879  1.0000
  H   H2254     1.0  0.89528  0.82791  0.15723  1.0000
  H   H2255     1.0  0.87675  0.85111  0.13498  1.0000
  H   H2256     1.0  0.77708  0.83409  0.20002  1.0000
  H   H2257     1.0  0.98267  0.74370  0.11722  1.0000
  H   H2258     1.0  0.70383  0.87016  0.15229  1.0000
  H   H2259     1.0  0.84833  0.77847  0.21319  1.0000
  H   H2260     1.0  0.78911  0.83281  0.24268  1.0000
  H   H2261     1.0  0.79779  0.79462  0.27053  1.0000
  H   H2262     1.0  0.88982  0.79701  0.08346  1.0000
  H   H2263     1.0  0.70487  0.92036  0.26107  1.0000
  S   S510      1.0  0.70815  0.89948  0.19433  1.0000
  H   H2264     1.0  0.87784  0.86618  0.20654  1.0000
  C   C1882     1.0  0.83362  0.78592  0.21750  1.0000
  C   C1883     1.0  0.90676  0.77472  0.03648  1.0000
  C   C1884     1.0  0.68723  0.97238  0.21345  1.0000
  S   S511      1.0  0.69418  0.86205  0.24706  1.0000
  C   C1885     1.0  0.77651  0.82627  0.25242  1.0000
  H   H2265     1.0  0.84454  0.88284  0.20381  1.0000
  H   H2266     1.0  0.96012  0.79597  0.01818  1.0000
  H   H2267     1.0  0.74471  0.81279  0.25610  1.0000
  C   C1886     1.0  0.98613  0.80624  0.18940  1.0000
  H   H2268     1.0  0.71061  0.93296  0.08623  1.0000
  C   C1887     1.0  0.96634  0.75840  0.05560  1.0000
  H   H2269     1.0  0.70610  0.97976  0.23274  1.0000
  C   C1888     1.0  0.71701  0.94460  0.21343  1.0000
  H   H2270     1.0  0.96532  0.77752  0.00778  1.0000
  H   H2271     1.0  0.98956  0.75490  0.32206  1.0000
  H   H2272     1.0  0.72262  0.94981  0.07941  1.0000
  C   C1889     1.0  0.70774  0.98171  0.14119  1.0000
  C   C1890     1.0  0.71672  0.94021  0.09552  1.0000
  H   H2273     1.0  0.68761  0.92600  0.13129  1.0000
  H   H2274     1.0  0.97415  0.76912  0.17877  1.0000
  C   C1891     1.0  0.80478  0.79522  0.24972  1.0000
  C   C1892     1.0  0.96832  0.76674  0.25461  1.0000
  C   C1893     1.0  0.69341  0.87735  0.13969  1.0000
  C   C1894     1.0  0.67559  0.87233  0.14035  1.0000
  H   H2275     1.0  0.96266  0.75152  0.15884  1.0000
  C   C1895     1.0  0.97679  0.75550  0.14963  1.0000
  C   C1896     1.0  0.69486  0.93357  0.13836  1.0000
  H   H2276     1.0  0.73060  0.98187  0.16200  1.0000
  C   C1897     1.0  0.97974  0.75745  0.27419  1.0000
  N   N126      1.0  0.70113  0.94684  0.11662  1.0000
  C   C1898     1.0  0.88546  0.74038  0.25276  1.0000
  H   H2277     1.0  0.75197  0.83310  0.21787  1.0000
  H   H2278     1.0  0.94250  0.76973  0.23688  1.0000
  S   S512      1.0  0.73661  0.92784  0.21364  1.0000
  C   C1899     1.0  0.89463  0.74671  0.08750  1.0000
  H   H2279     1.0  0.72975  0.93204  0.10346  1.0000
  C   C1900     1.0  0.69783  0.89150  0.12249  1.0000
  C   C1901     1.0  0.67703  0.93673  0.27042  1.0000
  H   H2280     1.0  0.93158  0.74523  0.26524  1.0000
  H   H2281     1.0  0.79999  0.81333  0.18522  1.0000
  Fe  Fe255     1.0  0.71763  0.87536  0.21906  1.0000
  C   C1902     1.0  0.89325  0.78380  0.05346  1.0000
  N   N127      1.0  0.99742  0.76209  0.27892  1.0000
  C   C1903     1.0  0.72505  0.97512  0.15195  1.0000
  Fe  Fe256     1.0  0.73502  0.90547  0.20271  1.0000
  C   C1904     1.0  0.76705  0.82568  0.21207  1.0000
  C   C1905     1.0  0.70425  0.97048  0.22433  1.0000
  H   H2282     1.0  0.83265  0.79633  0.17620  1.0000
  C   C1906     1.0  0.84243  0.87667  0.16819  1.0000
  C   C1907     1.0  0.85204  0.87598  0.18875  1.0000
  H   H2283     1.0  0.68699  0.96560  0.08804  1.0000
  H   H2284     1.0  0.70798  0.92557  0.14633  1.0000
  H   H2285     1.0  0.96596  0.75086  0.99591  1.0000
  H   H2286     1.0  0.98365  0.80287  0.21098  1.0000
  C   C1908     1.0  0.97709  0.74149  0.98842  1.0000
  C   C1909     1.0  0.99228  0.81589  0.13382  1.0000
  H   H2287     1.0  0.67088  0.88863  0.18389  1.0000
  H   H2288     1.0  0.99117  0.78709  0.26078  1.0000
  H   H2289     1.0  0.67039  0.95991  0.11960  1.0000
  C   C1910     1.0  0.67847  0.88278  0.31106  1.0000
  H   H2290     1.0  0.99456  0.81980  0.11230  1.0000
  C   C1911     1.0  0.99265  0.76548  0.30604  1.0000
  C   C1912     1.0  0.99770  0.74114  0.98594  1.0000
  H   H2291     1.0  0.68867  0.90228  0.24893  1.0000
  H   H2292     1.0  0.67757  0.94762  0.09580  1.0000
  H   H2293     1.0  0.67167  0.96147  0.19468  1.0000
  C   C1913     1.0  0.67955  0.91277  0.25545  1.0000
  H   H2294     1.0  0.67231  0.86132  0.15355  1.0000
  C   C1914     1.0  0.66617  0.89592  0.10737  1.0000
  H   H2295     1.0  0.66553  0.96940  0.26857  1.0000
  H   H2296     1.0  0.71888  0.74476  0.68311  1.0000
  H   H2297     1.0  0.70617  0.76462  0.67336  1.0000
  C   C1915     1.0  0.68362  0.76625  0.72418  1.0000
  H   H2298     1.0  0.69185  0.74911  0.68744  1.0000
  C   C1916     1.0  0.72004  0.76332  0.71654  1.0000
  H   H2299     1.0  0.71883  0.76559  0.73667  1.0000
  H   H2300     1.0  0.73504  0.75555  0.71154  1.0000
  N   N128      1.0  0.70322  0.75587  0.71628  1.0000
  H   H2301     1.0  0.72029  0.77481  0.70185  1.0000
  C   C1917     1.0  0.70511  0.75356  0.68889  1.0000
  C   C1918     1.0  0.67841  0.78156  0.70810  1.0000
  H   H2302     1.0  0.68861  0.78593  0.69007  1.0000
  H   H2303     1.0  0.67172  0.75025  0.76122  1.0000
  H   H2304     1.0  0.70557  0.74057  0.75507  1.0000
  C   C1919     1.0  0.70576  0.73993  0.73427  1.0000
  C   C1920     1.0  0.66930  0.76167  0.74776  1.0000
