data_image0
_chemical_formula_structural       HCH2NCHCHC3HC2H5CHC3HC3HCNHC2HCH2C2HCHCHC2HCH3CHCH4C2S2CSC2FeSCFeS2FeSFeS3FeS2FeS2Fe2HS2H2C6HCH4NH2C4H4C6H4CHNH7C3H5C2HCHSH3NHC3H3CHC2H2C2H2CH3C2HSH3CH2CH4CH3FeS2FeS2FeSFeS3H2CHFe2S2FeHFeHS2CFeCHC2HC5HCHCHSC7H4C2SCHC7H4C2HC2H2CNC9H11CH2C4HSC3H2C3H2SNH2CH3CHCH5SHC3HC2H2CHSCHSH3CHCH4CH3CHCHCHCSFeSFeSC3H2C6H3CSH3SH2CHS2HCHC2Fe2H2C2H5CSHSNH3FeCHCHCH3Fe2SHNHCH5CHC2H3CHSHC2H2CNHC2H3CH2C2H3SC2H2SN2CSH2C3HCH3NH3FeCSCHCHC2H2C2NH3C2H4CHC2HFeSCFeSCFeSFeS3HS2CH2SHSH2C3HNHCHCH2CH2CHC5HC5HCHFeCH4FeCH4C3HCHCH2C2H2C2H4C2HSFeHSHCHCHFeS2FeS2FeSFeS3HFeHSCHCHC2HC3H4C6H5C4H2C2H3C2HCH4C3HCNC2HCSH3CNH2NH5SHCH2CHC2H2CHC2H2CNH3C3H2CHCH3CHCHCHC3H2CFeS2FeS2FeSFeS3FeS2FeS2FeSFeS2FeSC6H4C6H6C4HCHC6H2NC4H3CH7CFeHC2HCHCNC7HCH9CH5NCHCH2CHC2SH6S2HC2H3SHCH6C2FeHC2H3SHC2HCHCH2CH3C6NH2CH2CH3C4H2CH4CFeS2FeS2FeSFeS3CHC2HC6HCH2C6H4C4H4SC4H2CH4C2H3CH2SH2C3H3CHNH4CH5C2HC2HNC2NHCH2C3HCNHFeHCH2CH3CH2CHC2SCH2C3H4FeS2FeSCFeSFeCS2FeS2FeS2FeSFeS2FeSC6H4C6H6CH4C4H5CHNC9H14C4H2C2HC3HC2H2CNH2SHSHC2HCH6CH4CNHNFeH2C2SH5CH3CH2C2NC2SCH2CFeHS2C5HCH3CHC2H2CH5CHC2H2CH2CSHC
_chemical_formula_sum              "H576 C480 N32 S128 Fe64"
_cell_length_a       45.9131
_cell_length_b       60.3971
_cell_length_c       30.6138
_cell_angle_alpha    90.2064
_cell_angle_beta     109.175
_cell_angle_gamma    89.9101

_space_group_name_H-M_alt    "P 1"
_space_group_IT_number       1

loop_
  _space_group_symop_operation_xyz
  'x, y, z'

loop_
  _atom_site_type_symbol
  _atom_site_label
  _atom_site_symmetry_multiplicity
  _atom_site_fract_x
  _atom_site_fract_y
  _atom_site_fract_z
  _atom_site_occupancy
  H   H1        1.0  0.26029  0.24224  0.35118  1.0000
  C   C1        1.0  0.21678  0.26711  0.25127  1.0000
  H   H2        1.0  0.10401  0.11914  0.02288  1.0000
  H   H3        1.0  0.12704  0.30441  0.22051  1.0000
  N   N1        1.0  0.12773  0.16275  0.02988  1.0000
  C   C2        1.0  0.15875  0.26272  0.02032  1.0000
  H   H4        1.0  0.15651  0.15976  0.10087  1.0000
  C   C3        1.0  0.14756  0.30142  0.03077  1.0000
  H   H5        1.0  0.22982  0.26727  0.38306  1.0000
  C   C4        1.0  0.05461  0.16157  0.06274  1.0000
  C   C5        1.0  0.10016  0.15431  0.03947  1.0000
  C   C6        1.0  0.27484  0.29865  0.45226  1.0000
  H   H6        1.0  0.15356  0.30605  0.16657  1.0000
  C   C7        1.0  0.29524  0.28195  0.44921  1.0000
  C   C8        1.0  0.30360  0.28067  0.40890  1.0000
  H   H7        1.0  0.13757  0.27621  0.23754  1.0000
  H   H8        1.0  0.13983  0.18675  0.08549  1.0000
  H   H9        1.0  0.31907  0.26769  0.40579  1.0000
  H   H10       1.0  0.19218  0.29254  0.33285  1.0000
  H   H11       1.0  0.19270  0.29821  0.18068  1.0000
  C   C9        1.0  0.14012  0.28141  0.00560  1.0000
  H   H12       1.0  0.02571  0.13349  0.06280  1.0000
  C   C10       1.0  0.18529  0.26447  0.05964  1.0000
  C   C11       1.0  0.19307  0.28458  0.08422  1.0000
  C   C12       1.0  0.14513  0.29376  0.24444  1.0000
  H   H13       1.0  0.21502  0.26659  0.21523  1.0000
  C   C13       1.0  0.14973  0.17228  0.07272  1.0000
  C   C14       1.0  0.24293  0.25285  0.32811  1.0000
  C   C15       1.0  0.20401  0.28128  0.31688  1.0000
  H   H14       1.0  0.29920  0.29502  0.34213  1.0000
  C   C16       1.0  0.17121  0.29440  0.18839  1.0000
  N   N2        1.0  0.17561  0.29710  0.23843  1.0000
  H   H15       1.0  0.25265  0.24235  0.26729  1.0000
  C   C17       1.0  0.19860  0.28164  0.26846  1.0000
  C   C18       1.0  0.17397  0.30311  0.07030  1.0000
  H   H16       1.0  0.17106  0.17837  0.06691  1.0000
  C   C19       1.0  0.26627  0.31048  0.04681  1.0000
  H   H17       1.0  0.21365  0.28567  0.11421  1.0000
  H   H18       1.0  0.19995  0.25015  0.07125  1.0000
  C   C20       1.0  0.28066  0.29444  0.02830  1.0000
  C   C21       1.0  0.11854  0.18035  0.99435  1.0000
  H   H19       1.0  0.36493  0.30162  0.10598  1.0000
  C   C22       1.0  0.04670  0.13924  0.05758  1.0000
  H   H20       1.0  0.03986  0.17317  0.07267  1.0000
  C   C23       1.0  0.22562  0.26693  0.34603  1.0000
  H   H21       1.0  0.08610  0.18653  0.05838  1.0000
  C   C24       1.0  0.23861  0.25300  0.28090  1.0000
  C   C25       1.0  0.08103  0.16904  0.05415  1.0000
  H   H22       1.0  0.26725  0.29941  0.48213  1.0000
  C   C26       1.0  0.29239  0.29618  0.37270  1.0000
  H   H23       1.0  0.16355  0.27737  0.17590  1.0000
  H   H24       1.0  0.14539  0.29803  0.27989  1.0000
  H   H25       1.0  0.10882  0.19524  0.00593  1.0000
  C   C27       1.0  0.09149  0.13159  0.03483  1.0000
  H   H26       1.0  0.35752  0.31214  0.41621  1.0000
  C   C28       1.0  0.06524  0.12429  0.04409  1.0000
  H   H27       1.0  0.30517  0.29143  0.04459  1.0000
  H   H28       1.0  0.05833  0.10703  0.03878  1.0000
  H   H29       1.0  0.16429  0.15244  0.00420  1.0000
  H   H30       1.0  0.15339  0.13213  0.03837  1.0000
  C   C29       1.0  0.14428  0.14547  0.01248  1.0000
  C   C30       1.0  0.21727  0.30166  0.98880  1.0000
  S   S1        1.0  0.25846  0.31328  0.20684  1.0000
  S   S2        1.0  0.14921  0.23654  0.99260  1.0000
  C   C31       1.0  0.26351  0.28197  0.98986  1.0000
  S   S3        1.0  0.32966  0.31276  0.16462  1.0000
  C   C32       1.0  0.23470  0.31411  0.02709  1.0000
  C   C33       1.0  0.27274  0.31329  0.37648  1.0000
  Fe  Fe1       1.0  0.11990  0.22742  0.91848  1.0000
  S   S4        1.0  0.14481  0.20012  0.89559  1.0000
  C   C34       1.0  0.18059  0.27789  0.90872  1.0000
  Fe  Fe2       1.0  0.06596  0.22352  0.82598  1.0000
  S   S5        1.0  0.08968  0.19702  0.79785  1.0000
  S   S6        1.0  0.31079  0.26231  0.49443  1.0000
  Fe  Fe3       1.0  0.09944  0.18249  0.86900  1.0000
  S   S7        1.0  0.09418  0.14592  0.88357  1.0000
  Fe  Fe4       1.0  0.13312  0.21780  0.82744  1.0000
  S   S8        1.0  0.17851  0.22636  0.81406  1.0000
  S   S9        1.0  0.07519  0.20848  0.89627  1.0000
  S   S10       1.0  0.10853  0.24552  0.85083  1.0000
  Fe  Fe5       1.0  0.34806  0.24204  0.66599  1.0000
  S   S11       1.0  0.35562  0.27108  0.62557  1.0000
  S   S12       1.0  0.38388  0.22084  0.71909  1.0000
  Fe  Fe6       1.0  0.27843  0.25196  0.64167  1.0000
  S   S13       1.0  0.28082  0.28211  0.59913  1.0000
  S   S14       1.0  0.23272  0.23879  0.64703  1.0000
  Fe  Fe7       1.0  0.31116  0.26182  0.56981  1.0000
  Fe  Fe8       1.0  0.32488  0.28946  0.65674  1.0000
  H   H31       1.0  0.19576  0.17859  0.78174  1.0000
  S   S15       1.0  0.30583  0.23076  0.60797  1.0000
  S   S16       1.0  0.32020  0.26135  0.70137  1.0000
  H   H32       1.0  0.29302  0.18794  0.82646  1.0000
  H   H33       1.0  0.32702  0.16733  0.70556  1.0000
  C   C35       1.0  0.42318  0.21648  0.72404  1.0000
  C   C36       1.0  0.44349  0.20780  0.76552  1.0000
  C   C37       1.0  0.47476  0.20379  0.77089  1.0000
  C   C38       1.0  0.30558  0.16612  0.71498  1.0000
  C   C39       1.0  0.46564  0.21654  0.69282  1.0000
  C   C40       1.0  0.43456  0.22115  0.68791  1.0000
  H   H34       1.0  0.43500  0.20409  0.79371  1.0000
  C   C41       1.0  0.21597  0.17836  0.72753  1.0000
  H   H35       1.0  0.22846  0.29128  0.88121  1.0000
  H   H36       1.0  0.41925  0.22777  0.65575  1.0000
  H   H37       1.0  0.49000  0.19697  0.80288  1.0000
  H   H38       1.0  0.39683  0.26149  0.83057  1.0000
  N   N3        1.0  0.42721  0.28322  0.80995  1.0000
  H   H39       1.0  0.19395  0.17648  0.70030  1.0000
  H   H40       1.0  0.00530  0.15659  0.93793  1.0000
  C   C42       1.0  0.06438  0.13697  0.90461  1.0000
  C   C43       1.0  0.06118  0.11431  0.91270  1.0000
  C   C44       1.0  0.03753  0.10684  0.92912  1.0000
  C   C45       1.0  0.04382  0.15203  0.91342  1.0000
  H   H41       1.0  0.07687  0.10247  0.90589  1.0000
  H   H42       1.0  0.42273  0.24751  0.80754  1.0000
  H   H43       1.0  0.04546  0.16939  0.90676  1.0000
  H   H44       1.0  0.34923  0.19296  0.76706  1.0000
  C   C46       1.0  0.21760  0.23678  0.69381  1.0000
  C   C47       1.0  0.18690  0.22971  0.68456  1.0000
  C   C48       1.0  0.17422  0.22696  0.72053  1.0000
  C   C49       1.0  0.19224  0.23099  0.76651  1.0000
  C   C50       1.0  0.22291  0.23816  0.77574  1.0000
  C   C51       1.0  0.23543  0.24124  0.73973  1.0000
  H   H45       1.0  0.17283  0.22622  0.64925  1.0000
  H   H46       1.0  0.15067  0.22138  0.71269  1.0000
  H   H47       1.0  0.23726  0.24114  0.81107  1.0000
  H   H48       1.0  0.25893  0.24687  0.74761  1.0000
  C   C52       1.0  0.29637  0.20534  0.70580  1.0000
  H   H49       1.0  0.31791  0.20872  0.69779  1.0000
  N   N4        1.0  0.30024  0.18657  0.73822  1.0000
  H   H50       1.0  0.27804  0.20238  0.67205  1.0000
  H   H51       1.0  0.24082  0.18017  0.68016  1.0000
  H   H52       1.0  0.16843  0.26779  0.87751  1.0000
  H   H53       1.0  0.21334  0.26463  0.85902  1.0000
  H   H54       1.0  0.30776  0.15144  0.73773  1.0000
  H   H55       1.0  0.10093  0.17404  0.96244  1.0000
  H   H56       1.0  0.45508  0.25457  0.76616  1.0000
  C   C53       1.0  0.24300  0.18059  0.71640  1.0000
  C   C54       1.0  0.32854  0.19095  0.77820  1.0000
  C   C55       1.0  0.02069  0.14466  0.93060  1.0000
  H   H57       1.0  0.32645  0.20664  0.79617  1.0000
  H   H58       1.0  0.33378  0.17706  0.80337  1.0000
  H   H59       1.0  0.28997  0.22073  0.72054  1.0000
  H   H60       1.0  0.19278  0.30492  0.97627  1.0000
  H   H61       1.0  0.25083  0.26654  0.90037  1.0000
  C   C56       1.0  0.23126  0.28524  0.96876  1.0000
  C   C57       1.0  0.01730  0.12208  0.93843  1.0000
  H   H62       1.0  0.39528  0.30066  0.83639  1.0000
  C   C58       1.0  0.42071  0.26194  0.82899  1.0000
  H   H63       1.0  0.43703  0.25933  0.86469  1.0000
  S   S17       1.0  0.01608  0.23441  0.79035  1.0000
  H   H64       1.0  0.38153  0.28621  0.75993  1.0000
  H   H65       1.0  0.23861  0.24125  0.95370  1.0000
  H   H66       1.0  0.47593  0.31230  0.85658  1.0000
  N   N5        1.0  0.21362  0.27157  0.92846  1.0000
  H   H67       1.0  0.47396  0.21967  0.66422  1.0000
  C   C59       1.0  0.40612  0.28544  0.76163  1.0000
  C   C60       1.0  0.48592  0.20779  0.73426  1.0000
  C   C61       1.0  0.22726  0.27364  0.89088  1.0000
  H   H68       1.0  0.01561  0.19050  0.74954  1.0000
  H   H69       1.0  0.28646  0.16275  0.68225  1.0000
  H   H70       1.0  0.17779  0.29551  0.89769  1.0000
  C   C62       1.0  0.47043  0.26703  0.78652  1.0000
  H   H71       1.0  0.01718  0.15469  0.80351  1.0000
  C   C63       1.0  0.27201  0.18406  0.75112  1.0000
  C   C64       1.0  0.27224  0.18510  0.79770  1.0000
  H   H72       1.0  0.03532  0.08941  0.93539  1.0000
  H   H73       1.0  0.20571  0.24596  0.97184  1.0000
  C   C65       1.0  0.21483  0.24803  0.94256  1.0000
  C   C66       1.0  0.45969  0.28345  0.81086  1.0000
  H   H74       1.0  0.12894  0.13790  0.97973  1.0000
  H   H75       1.0  0.27563  0.26945  0.97726  1.0000
  C   C67       1.0  0.24498  0.18291  0.80837  1.0000
  H   H76       1.0  0.03754  0.11681  0.80529  1.0000
  H   H77       1.0  0.20067  0.23729  0.91367  1.0000
  H   H78       1.0  0.16803  0.27496  0.93371  1.0000
  C   C68       1.0  0.21695  0.17953  0.77340  1.0000
  C   C69       1.0  0.01405  0.11928  0.80488  1.0000
  H   H79       1.0  0.24532  0.18435  0.84384  1.0000
  S   S18       1.0  0.48356  0.29612  0.96569  1.0000
  H   H80       1.0  0.49595  0.25532  0.92841  1.0000
  H   H81       1.0  0.40788  0.27123  0.73941  1.0000
  H   H82       1.0  0.00508  0.08461  0.80881  1.0000
  C   C70       1.0  0.00253  0.14066  0.80395  1.0000
  H   H83       1.0  0.41099  0.30088  0.74548  1.0000
  H   H84       1.0  0.11949  0.28029  0.97567  1.0000
  C   C71       1.0  0.48162  0.29934  0.83631  1.0000
  H   H85       1.0  0.37811  0.31167  0.57168  1.0000
  H   H86       1.0  0.30772  0.30335  0.73658  1.0000
  H   H87       1.0  0.32328  0.30611  0.53978  1.0000
  H   H88       1.0  0.35961  0.30783  0.49615  1.0000
  C   C72       1.0  0.41976  0.30129  0.83759  1.0000
  H   H89       1.0  0.31164  0.30757  0.81885  1.0000
  H   H90       1.0  0.43402  0.30014  0.87482  1.0000
  H   H91       1.0  0.13846  0.18641  0.98466  1.0000
  Fe  Fe9       1.0  0.25527  0.58844  0.17136  1.0000
  S   S19       1.0  0.30499  0.59451  0.21426  1.0000
  S   S20       1.0  0.23809  0.62002  0.12937  1.0000
  Fe  Fe10      1.0  0.25789  0.54133  0.21006  1.0000
  S   S21       1.0  0.30720  0.54505  0.25471  1.0000
  S   S22       1.0  0.23486  0.50895  0.21877  1.0000
  Fe  Fe11      1.0  0.29385  0.57881  0.27342  1.0000
  S   S23       1.0  0.31679  0.59122  0.34818  1.0000
  Fe  Fe12      1.0  0.31363  0.56053  0.19189  1.0000
  S   S24       1.0  0.35543  0.55047  0.17242  1.0000
  S   S25       1.0  0.24364  0.57442  0.23231  1.0000
  S   S26       1.0  0.26497  0.55498  0.14564  1.0000
  H   H92       1.0  0.30758  0.39066  0.12175  1.0000
  H   H93       1.0  0.13258  0.61014  0.01850  1.0000
  C   C73       1.0  0.29211  0.63071  0.46148  1.0000
  H   H94       1.0  0.41616  0.49814  0.08527  1.0000
  Fe  Fe13      1.0  0.22666  0.33734  0.15837  1.0000
  Fe  Fe14      1.0  0.26967  0.37756  0.19805  1.0000
  S   S27       1.0  0.30489  0.35595  0.24906  1.0000
  S   S28       1.0  0.28147  0.41301  0.18296  1.0000
  Fe  Fe15      1.0  0.29601  0.33178  0.19000  1.0000
  H   H95       1.0  0.41546  0.41637  0.18153  1.0000
  Fe  Fe16      1.0  0.26433  0.33936  0.26195  1.0000
  H   H96       1.0  0.42474  0.44655  0.03878  1.0000
  S   S29       1.0  0.26377  0.35411  0.13838  1.0000
  S   S30       1.0  0.22946  0.36268  0.21410  1.0000
  C   C74       1.0  0.25770  0.60544  0.01607  1.0000
  Fe  Fe17      1.0  0.43481  0.35791  0.03477  1.0000
  C   C75       1.0  0.47499  0.44014  0.99973  1.0000
  H   H97       1.0  0.41496  0.41147  0.06978  1.0000
  C   C76       1.0  0.15251  0.62087  0.03048  1.0000
  C   C77       1.0  0.37053  0.31849  0.11768  1.0000
  H   H98       1.0  0.37215  0.41032  0.21162  1.0000
  C   C78       1.0  0.15186  0.64162  0.00935  1.0000
  C   C79       1.0  0.27389  0.39258  0.98802  1.0000
  C   C80       1.0  0.36408  0.34995  0.16281  1.0000
  C   C81       1.0  0.38615  0.36169  0.14933  1.0000
  C   C82       1.0  0.26006  0.40472  0.01492  1.0000
  H   H99       1.0  0.35344  0.35751  0.18591  1.0000
  C   C83       1.0  0.33222  0.36088  0.47828  1.0000
  H   H100      1.0  0.39240  0.37831  0.16206  1.0000
  C   C84       1.0  0.35641  0.32824  0.14726  1.0000
  H   H101      1.0  0.25824  0.61060  0.35134  1.0000
  S   S31       1.0  0.47950  0.36124  0.01926  1.0000
  C   C85       1.0  0.39997  0.35203  0.11922  1.0000
  C   C86       1.0  0.24657  0.48212  0.20697  1.0000
  C   C87       1.0  0.26075  0.47870  0.17345  1.0000
  C   C88       1.0  0.26998  0.45722  0.16521  1.0000
  C   C89       1.0  0.26541  0.43895  0.19058  1.0000
  C   C90       1.0  0.25044  0.44224  0.22318  1.0000
  C   C91       1.0  0.24093  0.46371  0.23109  1.0000
  H   H102      1.0  0.26429  0.49261  0.15363  1.0000
  H   H103      1.0  0.28102  0.45473  0.13936  1.0000
  H   H104      1.0  0.24670  0.42835  0.24292  1.0000
  H   H105      1.0  0.22954  0.46611  0.25658  1.0000
  C   C92       1.0  0.30586  0.60557  0.39166  1.0000
  C   C93       1.0  0.32838  0.60938  0.43512  1.0000
  S   S32       1.0  0.48265  0.50689  0.02020  1.0000
  C   C94       1.0  0.27603  0.61370  0.38402  1.0000
  H   H106      1.0  0.35151  0.60313  0.44160  1.0000
  C   C95       1.0  0.35654  0.45964  0.05525  1.0000
  C   C96       1.0  0.35657  0.55640  0.11650  1.0000
  C   C97       1.0  0.38339  0.55151  0.10583  1.0000
  C   C98       1.0  0.38516  0.55627  0.06180  1.0000
  C   C99       1.0  0.35999  0.56583  0.02797  1.0000
  C   C100      1.0  0.33294  0.57030  0.03831  1.0000
  C   C101      1.0  0.33125  0.56568  0.08247  1.0000
  H   H107      1.0  0.40312  0.54442  0.13202  1.0000
  H   H108      1.0  0.40614  0.55279  0.05427  1.0000
  H   H109      1.0  0.31332  0.57752  0.01221  1.0000
  H   H110      1.0  0.31044  0.56936  0.09031  1.0000
  C   C102      1.0  0.17865  0.61386  0.06707  1.0000
  C   C103      1.0  0.20447  0.62764  0.08313  1.0000
  H   H111      1.0  0.17872  0.59789  0.08299  1.0000
  C   C104      1.0  0.40393  0.44514  0.04782  1.0000
  C   C105      1.0  0.25502  0.63116  0.25919  1.0000
  H   H112      1.0  0.20916  0.32290  0.24926  1.0000
  H   H113      1.0  0.43793  0.48339  0.05549  1.0000
  C   C106      1.0  0.35144  0.43927  0.07332  1.0000
  N   N6        1.0  0.35704  0.48676  0.22471  1.0000
  C   C107      1.0  0.33615  0.49616  0.18105  1.0000
  C   C108      1.0  0.33851  0.48128  0.25499  1.0000
  C   C109      1.0  0.37952  0.50411  0.24914  1.0000
  C   C110      1.0  0.37293  0.46728  0.21339  1.0000
  C   C111      1.0  0.36398  0.44513  0.21844  1.0000
  C   C112      1.0  0.39667  0.47008  0.19357  1.0000
  C   C113      1.0  0.35262  0.32375  0.48007  1.0000
  C   C114      1.0  0.41191  0.45188  0.18263  1.0000
  C   C115      1.0  0.29833  0.39134  0.08428  1.0000
  H   H114      1.0  0.32235  0.51022  0.18756  1.0000
  H   H115      1.0  0.34910  0.50264  0.15881  1.0000
  H   H116      1.0  0.31983  0.48349  0.16055  1.0000
  H   H117      1.0  0.31872  0.47033  0.23755  1.0000
  H   H118      1.0  0.32792  0.49628  0.26486  1.0000
  H   H119      1.0  0.35290  0.47310  0.28743  1.0000
  H   H120      1.0  0.39102  0.51217  0.22659  1.0000
  H   H121      1.0  0.36806  0.51810  0.26099  1.0000
  H   H122      1.0  0.39760  0.49721  0.27991  1.0000
  H   H123      1.0  0.34506  0.44121  0.23075  1.0000
  H   H124      1.0  0.40352  0.48633  0.18603  1.0000
  C   C116      1.0  0.47563  0.48054  0.99316  1.0000
  H   H125      1.0  0.43025  0.45438  0.16807  1.0000
  H   H126      1.0  0.40288  0.32272  0.08070  1.0000
  C   C117      1.0  0.28799  0.55549  0.41713  1.0000
  C   C118      1.0  0.34242  0.35393  0.00638  1.0000
  C   C119      1.0  0.30042  0.37933  0.00867  1.0000
  C   C120      1.0  0.40352  0.43043  0.19000  1.0000
  H   H127      1.0  0.25183  0.54789  0.35366  1.0000
  S   S33       1.0  0.45426  0.56906  0.00953  1.0000
  C   C121      1.0  0.29545  0.56172  0.46357  1.0000
  C   C122      1.0  0.37227  0.42189  0.07808  1.0000
  C   C123      1.0  0.32153  0.62166  0.46994  1.0000
  H   H128      1.0  0.24606  0.62317  0.22458  1.0000
  H   H129      1.0  0.33953  0.47240  0.05240  1.0000
  C   C124      1.0  0.41752  0.49422  0.05046  1.0000
  C   C125      1.0  0.38287  0.46305  0.04130  1.0000
  C   C126      1.0  0.48108  0.46130  0.02042  1.0000
  H   H130      1.0  0.33129  0.43692  0.08389  1.0000
  H   H131      1.0  0.27578  0.60066  0.04755  1.0000
  S   S34       1.0  0.18153  0.32837  0.10202  1.0000
  N   N7        1.0  0.38860  0.48392  0.02020  1.0000
  H   H132      1.0  0.22231  0.56270  0.46912  1.0000
  H   H133      1.0  0.36107  0.50619  0.04608  1.0000
  C   C127      1.0  0.36364  0.50064  0.01280  1.0000
  H   H134      1.0  0.24850  0.32729  0.41955  1.0000
  H   H135      1.0  0.49024  0.46273  0.05769  1.0000
  H   H136      1.0  0.17005  0.33251  0.22856  1.0000
  C   C128      1.0  0.27228  0.40410  0.06297  1.0000
  H   H137      1.0  0.33678  0.34132  0.02879  1.0000
  C   C129      1.0  0.37928  0.42706  0.20715  1.0000
  H   H138      1.0  0.47962  0.42543  0.02099  1.0000
  H   H139      1.0  0.30606  0.55368  0.40174  1.0000
  H   H140      1.0  0.22284  0.58711  0.03273  1.0000
  H   H141      1.0  0.13259  0.31563  0.01975  1.0000
  H   H142      1.0  0.36097  0.36496  0.02820  1.0000
  S   S35       1.0  0.42654  0.36754  0.10142  1.0000
  H   H143      1.0  0.36846  0.40615  0.09222  1.0000
  C   C130      1.0  0.39202  0.33042  0.10332  1.0000
  C   C131      1.0  0.39853  0.42490  0.06563  1.0000
  C   C132      1.0  0.31212  0.37895  0.05777  1.0000
  H   H144      1.0  0.31579  0.64318  0.32962  1.0000
  C   C133      1.0  0.25739  0.55231  0.38988  1.0000
  C   C134      1.0  0.23403  0.55501  0.40914  1.0000
  H   H145      1.0  0.33178  0.36911  0.07663  1.0000
  H   H146      1.0  0.33717  0.34646  0.37333  1.0000
  C   C135      1.0  0.26938  0.62645  0.41844  1.0000
  H   H147      1.0  0.22347  0.32628  0.04239  1.0000
  S   S36       1.0  0.42245  0.32574  0.99696  1.0000
  C   C136      1.0  0.35113  0.32593  0.43396  1.0000
  H   H148      1.0  0.26131  0.41330  0.08381  1.0000
  S   S37       1.0  0.25851  0.33386  0.33292  1.0000
  H   H149      1.0  0.23644  0.63039  0.27507  1.0000
  H   H150      1.0  0.21022  0.55252  0.38775  1.0000
  H   H151      1.0  0.32043  0.37739  0.41226  1.0000
  C   C137      1.0  0.33968  0.34526  0.40974  1.0000
  H   H152      1.0  0.24654  0.63336  0.41138  1.0000
  C   C138      1.0  0.33017  0.36265  0.43179  1.0000
  H   H153      1.0  0.30948  0.64305  0.25505  1.0000
  H   H154      1.0  0.42276  0.50993  0.03550  1.0000
  H   H155      1.0  0.28741  0.62583  0.99207  1.0000
  H   H156      1.0  0.36867  0.51594  0.99617  1.0000
  C   C139      1.0  0.18579  0.32017  0.25153  1.0000
  H   H157      1.0  0.18743  0.32424  0.28772  1.0000
  H   H158      1.0  0.27956  0.31982  0.07711  1.0000
  H   H159      1.0  0.23958  0.41452  0.99855  1.0000
  C   C140      1.0  0.22779  0.59776  0.00757  1.0000
  H   H160      1.0  0.27445  0.62077  0.28065  1.0000
  C   C141      1.0  0.24122  0.56096  0.45572  1.0000
  H   H161      1.0  0.34117  0.49420  0.98962  1.0000
  C   C142      1.0  0.26394  0.31430  0.41640  1.0000
  H   H162      1.0  0.31959  0.56447  0.48204  1.0000
  C   C143      1.0  0.27217  0.56465  0.48437  1.0000
  S   S38       1.0  0.29485  0.58553  0.67555  1.0000
  Fe  Fe18      1.0  0.43098  0.55351  0.88030  1.0000
  S   S39       1.0  0.41770  0.54289  0.80623  1.0000
  Fe  Fe19      1.0  0.39809  0.34618  0.93525  1.0000
  S   S40       1.0  0.35113  0.33412  0.89204  1.0000
  C   C144      1.0  0.34727  0.33237  0.83334  1.0000
  C   C145      1.0  0.36570  0.34527  0.81503  1.0000
  C   C146      1.0  0.36356  0.34280  0.76852  1.0000
  H   H163      1.0  0.38149  0.35725  0.83656  1.0000
  H   H164      1.0  0.37805  0.35267  0.75454  1.0000
  C   C147      1.0  0.32869  0.57364  0.71258  1.0000
  C   C148      1.0  0.33359  0.55086  0.71076  1.0000
  C   C149      1.0  0.36106  0.54143  0.73963  1.0000
  C   C150      1.0  0.38296  0.55461  0.77172  1.0000
  C   C151      1.0  0.37759  0.57727  0.77447  1.0000
  C   C152      1.0  0.35085  0.58686  0.74408  1.0000
  H   H165      1.0  0.36528  0.52389  0.73740  1.0000
  H   H166      1.0  0.39447  0.58754  0.79902  1.0000
  H   H167      1.0  0.34733  0.60444  0.74555  1.0000
  C   C153      1.0  0.20397  0.60458  0.96815  1.0000
  S   S41       1.0  0.48059  0.55473  0.92515  1.0000
  H   H168      1.0  0.32760  0.61600  0.92703  1.0000
  H   H169      1.0  0.43375  0.58120  0.75983  1.0000
  H   H170      1.0  0.18119  0.59861  0.96484  1.0000
  S   S42       1.0  0.41801  0.58589  0.90401  1.0000
  H   H171      1.0  0.45993  0.49310  0.92358  1.0000
  H   H172      1.0  0.29657  0.60780  0.76754  1.0000
  C   C154      1.0  0.46409  0.47846  0.94501  1.0000
  H   H173      1.0  0.21257  0.63582  0.85183  1.0000
  S   S43       1.0  0.41465  0.53388  0.92944  1.0000
  S   S44       1.0  0.26706  0.64189  0.61593  1.0000
  H   H174      1.0  0.19887  0.60761  0.84749  1.0000
  C   C155      1.0  0.19299  0.62512  0.85217  1.0000
  H   H175      1.0  0.45062  0.45587  0.88703  1.0000
  C   C156      1.0  0.48992  0.62042  0.76948  1.0000
  C   C157      1.0  0.24047  0.62670  0.94529  1.0000
  Fe  Fe20      1.0  0.46456  0.33020  0.97530  1.0000
  Fe  Fe21      1.0  0.45013  0.37986  0.95622  1.0000
  H   H176      1.0  0.28338  0.33942  0.97187  1.0000
  H   H177      1.0  0.33620  0.37348  0.92786  1.0000
  C   C158      1.0  0.45876  0.45732  0.92435  1.0000
  C   C159      1.0  0.34314  0.32734  0.74045  1.0000
  H   H178      1.0  0.32686  0.56029  0.55871  1.0000
  H   H179      1.0  0.32076  0.58921  0.54207  1.0000
  H   H180      1.0  0.29474  0.56524  0.85161  1.0000
  H   H181      1.0  0.30444  0.39094  0.92430  1.0000
  H   H182      1.0  0.44247  0.62917  0.80086  1.0000
  C   C160      1.0  0.33712  0.59535  0.84851  1.0000
  S   S45       1.0  0.34242  0.32322  0.68348  1.0000
  H   H183      1.0  0.26699  0.60479  0.51771  1.0000
  S   S46       1.0  0.43890  0.34922  0.91130  1.0000
  N   N8        1.0  0.27916  0.57067  0.53373  1.0000
  H   H184      1.0  0.42320  0.31789  0.82436  1.0000
  H   H185      1.0  0.34166  0.57884  0.83565  1.0000
  H   H186      1.0  0.29685  0.32894  0.53040  1.0000
  Fe  Fe22      1.0  0.30464  0.62049  0.66094  1.0000
  C   C161      1.0  0.29879  0.62162  0.85526  1.0000
  H   H187      1.0  0.24453  0.54914  0.54450  1.0000
  C   C162      1.0  0.26186  0.59091  0.53784  1.0000
  H   H188      1.0  0.34051  0.39496  0.97009  1.0000
  C   C163      1.0  0.32426  0.38223  0.94919  1.0000
  H   H189      1.0  0.26679  0.58490  0.85801  1.0000
  H   H190      1.0  0.31855  0.32059  0.58796  1.0000
  H   H191      1.0  0.31652  0.54057  0.68642  1.0000
  Fe  Fe23      1.0  0.40652  0.56640  0.95852  1.0000
  Fe  Fe24      1.0  0.46687  0.58631  0.95268  1.0000
  S   S47       1.0  0.36146  0.57217  0.97240  1.0000
  H   H192      1.0  0.26791  0.59654  0.57442  1.0000
  N   N9        1.0  0.34457  0.33837  0.55241  1.0000
  H   H193      1.0  0.35274  0.34466  0.98356  1.0000
  C   C164      1.0  0.33981  0.35929  0.57494  1.0000
  H   H194      1.0  0.24628  0.63846  0.92302  1.0000
  H   H195      1.0  0.26817  0.63511  0.78932  1.0000
  H   H196      1.0  0.31610  0.36596  0.55879  1.0000
  H   H197      1.0  0.47703  0.57215  0.81880  1.0000
  H   H198      1.0  0.23651  0.58846  0.52529  1.0000
  C   C165      1.0  0.34377  0.34133  0.50402  1.0000
  H   H199      1.0  0.39492  0.49424  0.95641  1.0000
  C   C166      1.0  0.26975  0.55230  0.55823  1.0000
  C   C167      1.0  0.15456  0.61672  0.88687  1.0000
  H   H200      1.0  0.27538  0.55598  0.59582  1.0000
  H   H201      1.0  0.28173  0.53664  0.55506  1.0000
  H   H202      1.0  0.44561  0.60392  0.83312  1.0000
  C   C168      1.0  0.28814  0.59587  0.78835  1.0000
  H   H203      1.0  0.26265  0.59743  0.77847  1.0000
  S   S48       1.0  0.48697  0.62110  0.95771  1.0000
  H   H204      1.0  0.14535  0.61980  0.91575  1.0000
  C   C169      1.0  0.45852  0.61563  0.81832  1.0000
  C   C170      1.0  0.29172  0.58230  0.86346  1.0000
  H   H205      1.0  0.26352  0.39352  0.95089  1.0000
  H   H206      1.0  0.35695  0.37209  0.57381  1.0000
  C   C171      1.0  0.29202  0.35072  0.95019  1.0000
  N   N10       1.0  0.31469  0.36671  0.97943  1.0000
  H   H207      1.0  0.31678  0.57973  0.59510  1.0000
  C   C172      1.0  0.31977  0.32282  0.55264  1.0000
  C   C173      1.0  0.32616  0.31741  0.80488  1.0000
  H   H208      1.0  0.30242  0.34025  0.92912  1.0000
  H   H209      1.0  0.45703  0.62599  0.69975  1.0000
  H   H210      1.0  0.29275  0.57905  0.77693  1.0000
  C   C174      1.0  0.27992  0.63794  0.82576  1.0000
  H   H211      1.0  0.30404  0.58253  0.90141  1.0000
  H   H212      1.0  0.35032  0.59547  0.88610  1.0000
  C   C175      1.0  0.47940  0.62976  0.72436  1.0000
  C   C176      1.0  0.37469  0.32901  0.58127  1.0000
  H   H213      1.0  0.17359  0.63012  0.82079  1.0000
  H   H214      1.0  0.34228  0.35670  0.61208  1.0000
  H   H215      1.0  0.13651  0.62319  0.85542  1.0000
  S   S49       1.0  0.33863  0.62701  0.62429  1.0000
  C   C177      1.0  0.20963  0.61929  0.93564  1.0000
  C   C178      1.0  0.49100  0.58556  0.81036  1.0000
  H   H216      1.0  0.33941  0.62494  0.50254  1.0000
  H   H217      1.0  0.42723  0.60728  0.73166  1.0000
  S   S50       1.0  0.45843  0.41191  0.92361  1.0000
  N   N11       1.0  0.30368  0.59926  0.83879  1.0000
  N   N12       1.0  0.18474  0.62788  0.89494  1.0000
  C   C179      1.0  0.31305  0.62759  0.90243  1.0000
  S   S51       1.0  0.40678  0.37814  0.97435  1.0000
  H   H218      1.0  0.27182  0.35904  0.92524  1.0000
  H   H219      1.0  0.34737  0.60818  0.83197  1.0000
  C   C180      1.0  0.46417  0.43807  0.95150  1.0000
  C   C181      1.0  0.44545  0.59474  0.74755  1.0000
  C   C182      1.0  0.31238  0.57514  0.55818  1.0000
  H   H220      1.0  0.15627  0.59856  0.88224  1.0000
  C   C183      1.0  0.32419  0.31482  0.75849  1.0000
  H   H221      1.0  0.47684  0.62317  0.84801  1.0000
  H   H222      1.0  0.37127  0.47010  0.95143  1.0000
  H   H223      1.0  0.32394  0.37484  0.49287  1.0000
  N   N13       1.0  0.47146  0.60432  0.78579  1.0000
  H   H224      1.0  0.45363  0.58741  0.72027  1.0000
  H   H225      1.0  0.39420  0.33918  0.57852  1.0000
  H   H226      1.0  0.37663  0.32824  0.61851  1.0000
  Fe  Fe25      1.0  0.46322  0.53724  0.97688  1.0000
  C   C184      1.0  0.39183  0.47898  0.97445  1.0000
  S   S52       1.0  0.32322  0.64648  0.71472  1.0000
  C   C185      1.0  0.26411  0.61974  0.98484  1.0000
  H   H227      1.0  0.41235  0.46860  0.97712  1.0000
  C   C186      1.0  0.31135  0.66453  0.38222  1.0000
  H   H228      1.0  0.25294  0.70051  0.37293  1.0000
  C   C187      1.0  0.25757  0.68058  0.31684  1.0000
  C   C188      1.0  0.23822  0.66605  0.22242  1.0000
  H   H229      1.0  0.23195  0.65868  0.18702  1.0000
  H   H230      1.0  0.30016  0.68583  0.43082  1.0000
  C   C189      1.0  0.30213  0.65639  0.33693  1.0000
  C   C190      1.0  0.27499  0.66421  0.30271  1.0000
  N   N14       1.0  0.26467  0.65428  0.25580  1.0000
  H   H231      1.0  0.33169  0.65782  0.40802  1.0000
  H   H232      1.0  0.22358  0.65924  0.07432  1.0000
  H   H233      1.0  0.23639  0.68731  0.29361  1.0000
  C   C191      1.0  0.29358  0.68031  0.39512  1.0000
  C   C192      1.0  0.26685  0.68840  0.36247  1.0000
  H   H234      1.0  0.21698  0.66480  0.23221  1.0000
  H   H235      1.0  0.29979  0.67112  0.23623  1.0000
  H   H236      1.0  0.24369  0.68379  0.21932  1.0000
  H   H237      1.0  0.17743  0.67153  0.01016  1.0000
  C   C193      1.0  0.17769  0.65539  0.02550  1.0000
  H   H238      1.0  0.28247  0.64799  0.19966  1.0000
  C   C194      1.0  0.29024  0.65419  0.23605  1.0000
  C   C195      1.0  0.20379  0.64842  0.06213  1.0000
  H   H239      1.0  0.02678  0.75607  0.98802  1.0000
  Fe  Fe26      1.0  0.05679  0.69216  0.82117  1.0000
  S   S53       1.0  0.08699  0.71728  0.80332  1.0000
  C   C196      1.0  0.05225  0.79790  0.79266  1.0000
  Fe  Fe27      1.0  0.10936  0.67758  0.91030  1.0000
  S   S54       1.0  0.14229  0.70292  0.89958  1.0000
  C   C197      1.0  0.48348  0.70741  0.73424  1.0000
  Fe  Fe28      1.0  0.10069  0.72587  0.87941  1.0000
  S   S55       1.0  0.09779  0.76226  0.89766  1.0000
  Fe  Fe29      1.0  0.12574  0.69203  0.82457  1.0000
  S   S56       1.0  0.15601  0.67545  0.78624  1.0000
  S   S57       1.0  0.06937  0.70136  0.89618  1.0000
  S   S58       1.0  0.09374  0.66610  0.83637  1.0000
  H   H240      1.0  0.07532  0.79541  0.79125  1.0000
  S   S59       1.0  0.40418  0.65861  0.72392  1.0000
  S   S60       1.0  0.26614  0.69343  0.70455  1.0000
  C   C198      1.0  0.45195  0.70729  0.84976  1.0000
  H   H241      1.0  0.48843  0.65252  0.67622  1.0000
  H   H242      1.0  0.48934  0.72859  0.84906  1.0000
  S   S61       1.0  0.00609  0.68525  0.78061  1.0000
  H   H243      1.0  0.03116  0.81984  0.92965  1.0000
  S   S62       1.0  0.32045  0.67957  0.62882  1.0000
  H   H244      1.0  0.06461  0.74124  0.95306  1.0000
  H   H245      1.0  0.32061  0.65287  0.95488  1.0000
  C   C199      1.0  0.03787  0.80261  0.93406  1.0000
  C   C200      1.0  0.43378  0.67815  0.72715  1.0000
  C   C201      1.0  0.46120  0.67721  0.76508  1.0000
  H   H246      1.0  0.01245  0.73162  0.75846  1.0000
  N   N15       1.0  0.36674  0.71336  0.77671  1.0000
  H   H247      1.0  0.07039  0.80541  0.89686  1.0000
  C   C202      1.0  0.43110  0.69410  0.69299  1.0000
  H   H248      1.0  0.46361  0.66510  0.79193  1.0000
  C   C203      1.0  0.29048  0.66423  0.88904  1.0000
  H   H249      1.0  0.41023  0.69502  0.66348  1.0000
  H   H250      1.0  0.37063  0.69988  0.71381  1.0000
  C   C204      1.0  0.06954  0.77206  0.92131  1.0000
  H   H251      1.0  0.00452  0.71515  0.85812  1.0000
  H   H252      1.0  0.19324  0.71524  0.78504  1.0000
  C   C205      1.0  0.06025  0.79440  0.91566  1.0000
  H   H253      1.0  0.35450  0.74791  0.77718  1.0000
  C   C206      1.0  0.35641  0.69222  0.79156  1.0000
  C   C207      1.0  0.44588  0.73987  0.80238  1.0000
  C   C208      1.0  0.41419  0.73589  0.78375  1.0000
  C   C209      1.0  0.18672  0.68109  0.76401  1.0000
  C   C210      1.0  0.20099  0.70182  0.76809  1.0000
  H   H254      1.0  0.23569  0.72148  0.75264  1.0000
  C   C211      1.0  0.23533  0.68818  0.72677  1.0000
  C   C212      1.0  0.22128  0.66739  0.72314  1.0000
  C   C213      1.0  0.19723  0.66389  0.74169  1.0000
  C   C214      1.0  0.40042  0.71717  0.79703  1.0000
  C   C215      1.0  0.42034  0.70294  0.83082  1.0000
  H   H255      1.0  0.46686  0.69597  0.87465  1.0000
  C   C216      1.0  0.48591  0.69165  0.76858  1.0000
  H   H256      1.0  0.45372  0.72082  0.66984  1.0000
  Fe  Fe30      1.0  0.35462  0.65546  0.67449  1.0000
  C   C217      1.0  0.35745  0.71277  0.72549  1.0000
  H   H257      1.0  0.36126  0.72875  0.71046  1.0000
  H   H258      1.0  0.35664  0.73297  0.82870  1.0000
  H   H259      1.0  0.40062  0.74752  0.75847  1.0000
  H   H260      1.0  0.33239  0.70906  0.70943  1.0000
  Fe  Fe31      1.0  0.28821  0.66887  0.66736  1.0000
  C   C218      1.0  0.03637  0.78016  0.80298  1.0000
  H   H261      1.0  0.41228  0.68808  0.84264  1.0000
  H   H262      1.0  0.28736  0.68054  0.90181  1.0000
  H   H263      1.0  0.36824  0.67779  0.78195  1.0000
  H   H264      1.0  0.04725  0.76398  0.80940  1.0000
  C   C219      1.0  0.22510  0.70531  0.74960  1.0000
  C   C220      1.0  0.27587  0.65886  0.84272  1.0000
  C   C221      1.0  0.45586  0.70866  0.69659  1.0000
  H   H265      1.0  0.32440  0.72903  0.77641  1.0000
  C   C222      1.0  0.34988  0.73162  0.79038  1.0000
  H   H266      1.0  0.26144  0.67110  0.81964  1.0000
  C   C223      1.0  0.05687  0.75820  0.94686  1.0000
  H   H267      1.0  0.33113  0.68956  0.77467  1.0000
  H   H268      1.0  0.36069  0.69194  0.82947  1.0000
  C   C224      1.0  0.02512  0.78864  0.95937  1.0000
  C   C225      1.0  0.46469  0.72566  0.83544  1.0000
  H   H269      1.0  0.05130  0.83264  0.77774  1.0000
  H   H270      1.0  0.45611  0.75385  0.79062  1.0000
  C   C226      1.0  0.18044  0.65175  0.90200  1.0000
  C   C227      1.0  0.03874  0.81882  0.78536  1.0000
  H   H271      1.0  0.20123  0.66172  0.90441  1.0000
  H   H272      1.0  0.00262  0.69694  0.93244  1.0000
  H   H273      1.0  0.22871  0.65405  0.70559  1.0000
  H   H274      1.0  0.16119  0.65872  0.87305  1.0000
  C   C228      1.0  0.03524  0.76658  0.96638  1.0000
  C   C229      1.0  0.00933  0.82206  0.78855  1.0000
  H   H275      1.0  0.17470  0.65464  0.93409  1.0000
  S   S63       1.0  0.11829  0.64941  0.96306  1.0000
  Fe  Fe32      1.0  0.30216  0.65011  0.58113  1.0000
  H   H276      1.0  0.99979  0.83859  0.78269  1.0000
  S   S64       1.0  0.28343  0.64899  0.50161  1.0000
  H   H277      1.0  0.00037  0.74198  0.88099  1.0000
  C   C230      1.0  0.00724  0.78330  0.80714  1.0000
  H   H278      1.0  0.18633  0.64782  0.73803  1.0000
  C   C231      1.0  0.30909  0.64864  0.91883  1.0000
  H   H279      1.0  0.00306  0.72436  0.95177  1.0000
  Fe  Fe33      1.0  0.72365  0.09395  0.17735  1.0000
  S   S65       1.0  0.77360  0.10393  0.20402  1.0000
  S   S66       1.0  0.69305  0.12368  0.14599  1.0000
  Fe  Fe34      1.0  0.73985  0.04515  0.20811  1.0000
  S   S67       1.0  0.79054  0.05249  0.23450  1.0000
  S   S68       1.0  0.72324  0.01109  0.22273  1.0000
  Fe  Fe35      1.0  0.77729  0.08314  0.26663  1.0000
  S   S69       1.0  0.80456  0.08972  0.34328  1.0000
  Fe  Fe36      1.0  0.78155  0.07268  0.16970  1.0000
  S   S70       1.0  0.80083  0.07418  0.11054  1.0000
  S   S71       1.0  0.72681  0.07511  0.24257  1.0000
  S   S72       1.0  0.73137  0.06331  0.14093  1.0000
  H   H280      1.0  0.69219  0.07373  0.03787  1.0000
  Fe  Fe37      1.0  0.93901  0.05668  0.03495  1.0000
  H   H281      1.0  0.75432  0.11367  0.03998  1.0000
  S   S73       1.0  0.93598  0.05619  0.10720  1.0000
  C   C232      1.0  0.79259  0.05397  0.47819  1.0000
  H   H282      1.0  0.81261  0.20909  0.47848  1.0000
  C   C233      1.0  0.86588  0.14579  0.04279  1.0000
  H   H283      1.0  0.59150  0.23720  0.06487  1.0000
  C   C234      1.0  0.79604  0.10689  0.38507  1.0000
  C   C235      1.0  0.81407  0.10481  0.43202  1.0000
  H   H284      1.0  0.81448  0.10664  0.04908  1.0000
  C   C236      1.0  0.78602  0.13483  0.45389  1.0000
  C   C237      1.0  0.76798  0.13690  0.40697  1.0000
  C   C238      1.0  0.77268  0.12287  0.37283  1.0000
  H   H285      1.0  0.83240  0.09266  0.44187  1.0000
  H   H286      1.0  0.91162  0.11839  0.41306  1.0000
  H   H287      1.0  0.75028  0.14950  0.39683  1.0000
  H   H288      1.0  0.75868  0.12476  0.33692  1.0000
  C   C239      1.0  0.83815  0.06640  0.11204  1.0000
  C   C240      1.0  0.86311  0.06548  0.15322  1.0000
  C   C241      1.0  0.89312  0.06188  0.15173  1.0000
  C   C242      1.0  0.89820  0.05926  0.10916  1.0000
  C   C243      1.0  0.87307  0.05974  0.06827  1.0000
  C   C244      1.0  0.84321  0.06320  0.06972  1.0000
  H   H289      1.0  0.85944  0.06809  0.18600  1.0000
  H   H290      1.0  0.91251  0.06149  0.18351  1.0000
  H   H291      1.0  0.87665  0.05773  0.03535  1.0000
  H   H292      1.0  0.82404  0.06381  0.03773  1.0000
  H   H293      1.0  0.79367  0.04255  0.34816  1.0000
  C   C245      1.0  0.64683  0.11415  0.06357  1.0000
  C   C246      1.0  0.67065  0.12853  0.08735  1.0000
  C   C247      1.0  0.67353  0.14885  0.06672  1.0000
  C   C248      1.0  0.60314  0.21256  0.00060  1.0000
  H   H294      1.0  0.64372  0.09879  0.07956  1.0000
  H   H295      1.0  0.69130  0.16038  0.08539  1.0000
  C   C249      1.0  0.73236  0.10644  0.04133  1.0000
  C   C250      1.0  0.62577  0.12025  0.02025  1.0000
  H   H296      1.0  0.55720  0.22301  0.06548  1.0000
  H   H297      1.0  0.61145  0.19753  0.98714  1.0000
  H   H298      1.0  0.74308  0.06303  0.04184  1.0000
  C   C251      1.0  0.59789  0.19145  0.06424  1.0000
  C   C252      1.0  0.74423  0.98157  0.16910  1.0000
  H   H299      1.0  0.80432  0.01424  0.36260  1.0000
  C   C253      1.0  0.58972  0.16878  0.06526  1.0000
  H   H300      1.0  0.60000  0.13759  0.10121  1.0000
  H   H301      1.0  0.63191  0.21592  0.10206  1.0000
  H   H302      1.0  0.71654  0.12030  0.04184  1.0000
  H   H303      1.0  0.85693  0.15934  0.05953  1.0000
  C   C254      1.0  0.84859  0.14941  0.40546  1.0000
  C   C255      1.0  0.65288  0.15473  0.02286  1.0000
  C   C256      1.0  0.89644  0.12930  0.42382  1.0000
  H   H304      1.0  0.87319  0.15332  0.01485  1.0000
  C   C257      1.0  0.74644  0.00011  0.35277  1.0000
  N   N16       1.0  0.84263  0.12819  0.02398  1.0000
  C   C258      1.0  0.83341  0.11891  0.06234  1.0000
  C   C259      1.0  0.77035  0.01157  0.44857  1.0000
  H   H305      1.0  0.65995  0.19114  0.16477  1.0000
  C   C260      1.0  0.63107  0.16308  0.13756  1.0000
  S   S74       1.0  0.92785  0.08832  0.99591  1.0000
  H   H306      1.0  0.67227  0.09587  0.00238  1.0000
  H   H307      1.0  0.76100  0.20018  0.47835  1.0000
  H   H308      1.0  0.78364  0.06170  0.40725  1.0000
  C   C261      1.0  0.85658  0.15680  0.45125  1.0000
  N   N17       1.0  0.58174  0.20647  0.02572  1.0000
  H   H309      1.0  0.74289  0.05602  0.34249  1.0000
  H   H310      1.0  0.62372  0.22172  0.02270  1.0000
  N   N18       1.0  0.75918  0.02282  0.36432  1.0000
  H   H311      1.0  0.83959  0.16685  0.45945  1.0000
  H   H312      1.0  0.76432  0.98722  0.36725  1.0000
  H   H313      1.0  0.64425  0.15206  0.16484  1.0000
  H   H314      1.0  0.72365  0.03479  0.30340  1.0000
  H   H315      1.0  0.88697  0.13913  0.06934  1.0000
  S   S75       1.0  0.98151  0.05101  0.01469  1.0000
  H   H316      1.0  0.72649  0.99726  0.36506  1.0000
  C   C262      1.0  0.78241  0.04882  0.43101  1.0000
  H   H317      1.0  0.74951  0.99593  0.15209  1.0000
  H   H318      1.0  0.73766  0.09802  0.07538  1.0000
  C   C263      1.0  0.80885  0.11845  0.46630  1.0000
  H   H319      1.0  0.96436  0.99110  0.02047  1.0000
  C   C264      1.0  0.57178  0.22697  0.04380  1.0000
  C   C265      1.0  0.86823  0.13545  0.39193  1.0000
  H   H320      1.0  0.55813  0.23805  0.01533  1.0000
  H   H321      1.0  0.82639  0.15378  0.38064  1.0000
  C   C266      1.0  0.78464  0.02533  0.34490  1.0000
  H   H322      1.0  0.76208  0.99489  0.43964  1.0000
  C   C267      1.0  0.90483  0.13674  0.46962  1.0000
  C   C268      1.0  0.63994  0.18510  0.13732  1.0000
  H   H323      1.0  0.77695  0.02126  0.30725  1.0000
  H   H324      1.0  0.71560  0.03848  0.35651  1.0000
  C   C269      1.0  0.60605  0.15496  0.10165  1.0000
  N   N19       1.0  0.71888  0.09095  0.00217  1.0000
  H   H325      1.0  0.86125  0.12906  0.35682  1.0000
  H   H326      1.0  0.85295  0.11025  0.08835  1.0000
  H   H327      1.0  0.53703  0.19103  0.00857  1.0000
  C   C270      1.0  0.85784  0.11011  0.00645  1.0000
  C   C271      1.0  0.62368  0.19912  0.10128  1.0000
  C   C272      1.0  0.77068  0.02754  0.41463  1.0000
  H   H328      1.0  0.71132  0.20939  0.46256  1.0000
  H   H329      1.0  0.82557  0.13169  0.08210  1.0000
  C   C273      1.0  0.73431  0.03872  0.34087  1.0000
  H   H330      1.0  0.87750  0.10274  0.03448  1.0000
  C   C274      1.0  0.74007  0.07171  0.00853  1.0000
  H   H331      1.0  0.76360  0.07690  0.00982  1.0000
  H   H332      1.0  0.60685  0.10928  0.00291  1.0000
  H   H333      1.0  0.65525  0.17049  0.00779  1.0000
  C   C275      1.0  0.73188  0.98438  0.20491  1.0000
  H   H334      1.0  0.80163  0.15903  0.03572  1.0000
  C   C276      1.0  0.62847  0.14061  0.99978  1.0000
  H   H335      1.0  0.57142  0.16108  0.03773  1.0000
  C   C277      1.0  0.55388  0.19645  0.99169  1.0000
  H   H336      1.0  0.73778  0.99720  0.31472  1.0000
  C   C278      1.0  0.79668  0.15371  0.00030  1.0000
  C   C279      1.0  0.68917  0.08245  0.00463  1.0000
  C   C280      1.0  0.81548  0.13776  0.98808  1.0000
  H   H337      1.0  0.84157  0.09631  0.99113  1.0000
  H   H338      1.0  0.70974  0.23777  0.47953  1.0000
  C   C281      1.0  0.88488  0.15038  0.48503  1.0000
  Fe  Fe38      1.0  0.56480  0.19853  0.80532  1.0000
  S   S76       1.0  0.60272  0.22344  0.81313  1.0000
  S   S77       1.0  0.52440  0.20099  0.73781  1.0000
  Fe  Fe39      1.0  0.60061  0.17672  0.89901  1.0000
  S   S78       1.0  0.63959  0.20079  0.91267  1.0000
  S   S79       1.0  0.59981  0.14802  0.94682  1.0000
  Fe  Fe40      1.0  0.60191  0.22642  0.88613  1.0000
  S   S80       1.0  0.60126  0.26000  0.92000  1.0000
  Fe  Fe41      1.0  0.63628  0.19511  0.83808  1.0000
  S   S81       1.0  0.67871  0.18126  0.82244  1.0000
  S   S82       1.0  0.56300  0.20254  0.87716  1.0000
  S   S83       1.0  0.59822  0.16998  0.82558  1.0000
  Fe  Fe42      1.0  0.85488  0.16496  0.66190  1.0000
  S   S84       1.0  0.84181  0.13450  0.61708  1.0000
  S   S85       1.0  0.90707  0.16900  0.67910  1.0000
  Fe  Fe43      1.0  0.78744  0.17073  0.66088  1.0000
  S   S86       1.0  0.77079  0.14059  0.61621  1.0000
  S   S87       1.0  0.75084  0.19265  0.67602  1.0000
  Fe  Fe44      1.0  0.81450  0.12522  0.66243  1.0000
  S   S88       1.0  0.82107  0.09001  0.68597  1.0000
  Fe  Fe45      1.0  0.79971  0.15240  0.57413  1.0000
  S   S89       1.0  0.82968  0.15431  0.71038  1.0000
  S   S90       1.0  0.81405  0.18387  0.61553  1.0000
  Fe  Fe46      1.0  0.89894  0.06781  0.93718  1.0000
  S   S91       1.0  0.85295  0.08374  0.90203  1.0000
  C   C282      1.0  0.82936  0.08804  0.74583  1.0000
  C   C283      1.0  0.84908  0.07134  0.77046  1.0000
  C   C284      1.0  0.85680  0.07013  0.81867  1.0000
  C   C285      1.0  0.84412  0.08527  0.84203  1.0000
  C   C286      1.0  0.82420  0.10187  0.81737  1.0000
  C   C287      1.0  0.81712  0.10343  0.76933  1.0000
  H   H339      1.0  0.85862  0.05947  0.75230  1.0000
  H   H340      1.0  0.87198  0.05718  0.83760  1.0000
  H   H341      1.0  0.81441  0.11360  0.83542  1.0000
  H   H342      1.0  0.80174  0.11627  0.75033  1.0000
  C   C288      1.0  0.69831  0.18494  0.78122  1.0000
  C   C289      1.0  0.72264  0.17044  0.78234  1.0000
  C   C290      1.0  0.73875  0.17240  0.75033  1.0000
  C   C291      1.0  0.73088  0.18903  0.71676  1.0000
  C   C292      1.0  0.70651  0.20352  0.71556  1.0000
  C   C293      1.0  0.69027  0.20148  0.74743  1.0000
  H   H343      1.0  0.72912  0.15754  0.80807  1.0000
  H   H344      1.0  0.75744  0.16115  0.75191  1.0000
  H   H345      1.0  0.70029  0.21654  0.69002  1.0000
  H   H346      1.0  0.67188  0.21290  0.74623  1.0000
  H   H347      1.0  0.80107  0.07045  0.48976  1.0000
  H   H348      1.0  0.59181  0.22353  0.97076  1.0000
  C   C294      1.0  0.51615  0.26560  0.93429  1.0000
  C   C295      1.0  0.54166  0.25734  0.92351  1.0000
  C   C296      1.0  0.56811  0.27031  0.93130  1.0000
  C   C297      1.0  0.56841  0.29184  0.94919  1.0000
  H   H349      1.0  0.54070  0.24098  0.90904  1.0000
  C   C298      1.0  0.66196  0.15019  0.63137  1.0000
  H   H350      1.0  0.58873  0.30205  0.95536  1.0000
  C   C299      1.0  0.51632  0.28715  0.95185  1.0000
  C   C300      1.0  0.96754  0.18138  0.71922  1.0000
  C   C301      1.0  0.93665  0.18731  0.71182  1.0000
  C   C302      1.0  0.93044  0.20745  0.72972  1.0000
  C   C303      1.0  0.95495  0.22163  0.75397  1.0000
  C   C304      1.0  0.96578  0.10446  0.80773  1.0000
  H   H351      1.0  0.97269  0.16584  0.70565  1.0000
  H   H352      1.0  0.90683  0.21233  0.72424  1.0000
  N   N20       1.0  0.92118  0.12898  0.80661  1.0000
  C   C305      1.0  0.91703  0.11764  0.84712  1.0000
  C   C306      1.0  0.91226  0.15254  0.80849  1.0000
  C   C307      1.0  0.89965  0.11913  0.76372  1.0000
  C   C308      1.0  0.95326  0.12605  0.80676  1.0000
  H   H353      1.0  0.92757  0.16088  0.84022  1.0000
  H   H354      1.0  0.79962  0.04214  0.54708  1.0000
  H   H355      1.0  0.87637  0.17463  0.58245  1.0000
  C   C309      1.0  0.76440  0.15788  0.92044  1.0000
  H   H356      1.0  0.92888  0.17546  0.58514  1.0000
  H   H357      1.0  0.74651  0.18769  0.58065  1.0000
  H   H358      1.0  0.89390  0.12089  0.85022  1.0000
  H   H359      1.0  0.82642  0.25200  0.59546  1.0000
  H   H360      1.0  0.94223  0.16042  0.54517  1.0000
  H   H361      1.0  0.88819  0.15416  0.80889  1.0000
  H   H362      1.0  0.91862  0.09938  0.84483  1.0000
  C   C310      1.0  0.98590  0.21564  0.76155  1.0000
  Fe  Fe47      1.0  0.94846  0.03251  0.95433  1.0000
  H   H363      1.0  0.77515  0.24395  0.59688  1.0000
  C   C311      1.0  0.92230  0.16998  0.54825  1.0000
  C   C312      1.0  0.89863  0.13660  0.56348  1.0000
  H   H364      1.0  0.96546  0.16118  0.80457  1.0000
  C   C313      1.0  0.52228  0.28172  0.81444  1.0000
  H   H365      1.0  0.91310  0.16185  0.77758  1.0000
  C   C314      1.0  0.97265  0.14414  0.80499  1.0000
  N   N21       1.0  0.58927  0.17483  0.67923  1.0000
  C   C315      1.0  0.60195  0.19342  0.71167  1.0000
  C   C316      1.0  0.56162  0.18326  0.64226  1.0000
  C   C317      1.0  0.57877  0.15715  0.70410  1.0000
  C   C318      1.0  0.61361  0.16608  0.66190  1.0000
  C   C319      1.0  0.61090  0.16607  0.61423  1.0000
  C   C320      1.0  0.64141  0.15754  0.69332  1.0000
  C   C321      1.0  0.63483  0.15820  0.59944  1.0000
  H   H366      1.0  0.68065  0.14435  0.61999  1.0000
  C   C322      1.0  0.72953  0.19181  0.54637  1.0000
  H   H367      1.0  0.61188  0.20648  0.69523  1.0000
  H   H368      1.0  0.58384  0.20132  0.72333  1.0000
  H   H369      1.0  0.62049  0.18802  0.74348  1.0000
  H   H370      1.0  0.56749  0.19737  0.62340  1.0000
  H   H371      1.0  0.67830  0.07068  0.97584  1.0000
  H   H372      1.0  0.59757  0.15107  0.73486  1.0000
  H   H373      1.0  0.56967  0.14265  0.68116  1.0000
  H   H374      1.0  0.59062  0.17212  0.58771  1.0000
  H   H375      1.0  0.64529  0.15718  0.73014  1.0000
  C   C323      1.0  0.71354  0.10274  0.95785  1.0000
  H   H376      1.0  0.92683  0.13135  0.49314  1.0000
  H   H377      1.0  0.90333  0.10104  0.76113  1.0000
  H   H378      1.0  0.74375  0.08267  0.93050  1.0000
  H   H379      1.0  0.87802  0.12561  0.55258  1.0000
  H   H380      1.0  0.86775  0.11610  0.97997  1.0000
  N   N22       1.0  0.89344  0.15680  0.53442  1.0000
  C   C324      1.0  0.76217  0.22151  0.53670  1.0000
  H   H381      1.0  0.69565  0.13375  0.83950  1.0000
  C   C325      1.0  0.70076  0.12521  0.87225  1.0000
  H   H382      1.0  0.73195  0.10207  0.85764  1.0000
  H   H383      1.0  0.73591  0.22476  0.60669  1.0000
  C   C326      1.0  0.78078  0.01687  0.49575  1.0000
  H   H384      1.0  0.84729  0.16107  0.53665  1.0000
  C   C327      1.0  0.54254  0.30034  0.95902  1.0000
  C   C328      1.0  0.69336  0.12127  0.94648  1.0000
  S   S92       1.0  0.90719  0.03627  0.97777  1.0000
  H   H385      1.0  0.82298  0.11665  0.50211  1.0000
  H   H386      1.0  0.56009  0.16313  0.71710  1.0000
  H   H387      1.0  0.54383  0.18961  0.65679  1.0000
  H   H388      1.0  0.68634  0.14361  0.70294  1.0000
  H   H389      1.0  0.52885  0.31044  0.85813  1.0000
  H   H390      1.0  0.91864  0.12671  0.56178  1.0000
  S   S93       1.0  0.93702  0.06248  0.90766  1.0000
  S   S94       1.0  0.78050  0.15400  0.49497  1.0000
  H   H391      1.0  0.55022  0.16997  0.61724  1.0000
  C   C329      1.0  0.72111  0.10735  0.88254  1.0000
  C   C330      1.0  0.66513  0.14974  0.67814  1.0000
  H   H392      1.0  0.90228  0.12706  0.73241  1.0000
  H   H393      1.0  0.90358  0.14072  0.60075  1.0000
  H   H394      1.0  0.93484  0.12303  0.87995  1.0000
  S   S95       1.0  0.95720  0.99993  0.92364  1.0000
  H   H395      1.0  0.54640  0.28069  0.81712  1.0000
  C   C331      1.0  0.81165  0.24096  0.56955  1.0000
  H   H396      1.0  0.91971  0.18505  0.52648  1.0000
  H   H397      1.0  0.95248  0.08992  0.80931  1.0000
  H   H398      1.0  0.68196  0.12730  0.96998  1.0000
  H   H399      1.0  0.94994  0.23737  0.76691  1.0000
  H   H400      1.0  0.75732  0.17556  0.97699  1.0000
  H   H401      1.0  0.86530  0.18618  0.52591  1.0000
  C   C332      1.0  0.78249  0.14245  0.90715  1.0000
  C   C333      1.0  0.68712  0.13227  0.90431  1.0000
  Fe  Fe48      1.0  0.96702  0.08129  0.96933  1.0000
  H   H402      1.0  0.87524  0.12114  0.76202  1.0000
  C   C334      1.0  0.86947  0.17026  0.54506  1.0000
  C   C335      1.0  0.72766  0.09628  0.92477  1.0000
  H   H403      1.0  0.78024  0.00450  0.52108  1.0000
  H   H404      1.0  0.63240  0.15836  0.56301  1.0000
  H   H405      1.0  0.67147  0.14633  0.89628  1.0000
  S   S96       1.0  0.98903  0.11441  0.96342  1.0000
  H   H406      1.0  0.50910  0.25298  0.77082  1.0000
  C   C336      1.0  0.79175  0.03804  0.51051  1.0000
  C   C337      1.0  0.77426  0.21195  0.50383  1.0000
  H   H407      1.0  0.73113  0.05909  0.98078  1.0000
  C   C338      1.0  0.50131  0.26609  0.78871  1.0000
  H   H408      1.0  0.82058  0.12061  0.92743  1.0000
  C   C339      1.0  0.51235  0.29846  0.83762  1.0000
  H   H409      1.0  0.74496  0.16567  0.89464  1.0000
  H   H410      1.0  0.77711  0.13827  0.87086  1.0000
  C   C340      1.0  0.80759  0.13240  0.94028  1.0000
  H   H411      1.0  0.84581  0.23501  0.53681  1.0000
  H   H412      1.0  0.69709  0.22357  0.56968  1.0000
  H   H413      1.0  0.72072  0.24644  0.56474  1.0000
  C   C341      1.0  0.72075  0.22827  0.57072  1.0000
  C   C342      1.0  0.82267  0.23134  0.53662  1.0000
  C   C343      1.0  0.77140  0.16342  0.96693  1.0000
  C   C344      1.0  0.78189  0.23619  0.56984  1.0000
  C   C345      1.0  0.99577  0.10121  0.80701  1.0000
  C   C346      1.0  0.80400  0.21683  0.50383  1.0000
  N   N23       1.0  0.73070  0.21572  0.53621  1.0000
  H   H414      1.0  0.73490  0.18106  0.52041  1.0000
  H   H415      1.0  0.70647  0.18675  0.54735  1.0000
  C   C347      1.0  0.99201  0.19528  0.74437  1.0000
  H   H416      1.0  0.54167  0.20840  0.96408  1.0000
  H   H417      1.0  0.55994  0.18201  0.97350  1.0000
  C   C348      1.0  0.70799  0.22029  0.48990  1.0000
  H   H418      1.0  0.68389  0.21742  0.48919  1.0000
  H   H419      1.0  0.57811  0.63572  0.02432  1.0000
  H   H420      1.0  0.53725  0.64284  0.05846  1.0000
  C   C349      1.0  0.51724  0.63070  0.93876  1.0000
  C   C350      1.0  0.51866  0.62813  0.79977  1.0000
  C   C351      1.0  0.56620  0.62588  0.92506  1.0000
  C   C352      1.0  0.54111  0.61689  0.93611  1.0000
  H   H421      1.0  0.58505  0.61524  0.92446  1.0000
  H   H422      1.0  0.52748  0.62264  0.83514  1.0000
  C   C353      1.0  0.53631  0.64353  0.78542  1.0000
  H   H423      1.0  0.50787  0.59054  0.84422  1.0000
  H   H424      1.0  0.50392  0.57807  0.78895  1.0000
  H   H425      1.0  0.54088  0.59950  0.94438  1.0000
  H   H426      1.0  0.54307  0.31691  0.97280  1.0000
  C   C354      1.0  0.49724  0.64518  0.71032  1.0000
  Fe  Fe49      1.0  0.75119  0.87940  0.18222  1.0000
  S   S97       1.0  0.79401  0.87207  0.24166  1.0000
  S   S98       1.0  0.74505  0.91447  0.15174  1.0000
  Fe  Fe50      1.0  0.73765  0.82912  0.16119  1.0000
  S   S99       1.0  0.77994  0.81942  0.22058  1.0000
  S   S100      1.0  0.71898  0.79822  0.11693  1.0000
  Fe  Fe51      1.0  0.76614  0.84566  0.26196  1.0000
  S   S101      1.0  0.77198  0.84475  0.33953  1.0000
  Fe  Fe52      1.0  0.80399  0.84641  0.19555  1.0000
  S   S102      1.0  0.85225  0.84152  0.19200  1.0000
  S   S103      1.0  0.72192  0.85426  0.20426  1.0000
  S   S104      1.0  0.76291  0.85479  0.13477  1.0000
  C   C355      1.0  0.87448  0.90186  0.13742  1.0000
  H   H427      1.0  0.82642  0.82535  0.32640  1.0000
  C   C356      1.0  0.77290  0.78685  0.04573  1.0000
  C   C357      1.0  0.90300  0.93375  0.05234  1.0000
  H   H428      1.0  0.91751  0.85034  0.34982  1.0000
  C   C358      1.0  0.77758  0.82327  0.38155  1.0000
  C   C359      1.0  0.77880  0.82897  0.42680  1.0000
  C   C360      1.0  0.91075  0.82256  0.42042  1.0000
  C   C361      1.0  0.78979  0.79078  0.45265  1.0000
  C   C362      1.0  0.78876  0.78508  0.40747  1.0000
  C   C363      1.0  0.78271  0.80117  0.37214  1.0000
  H   H429      1.0  0.77505  0.84601  0.43467  1.0000
  C   C364      1.0  0.85918  0.83153  0.41958  1.0000
  H   H430      1.0  0.79242  0.76804  0.39959  1.0000
  H   H431      1.0  0.78195  0.79647  0.33766  1.0000
  C   C365      1.0  0.85632  0.84371  0.13664  1.0000
  C   C366      1.0  0.83308  0.85320  0.09976  1.0000
  C   C367      1.0  0.83607  0.85424  0.05566  1.0000
  C   C368      1.0  0.86254  0.84605  0.04800  1.0000
  C   C369      1.0  0.88643  0.83726  0.08511  1.0000
  C   C370      1.0  0.88329  0.83610  0.12935  1.0000
  H   H432      1.0  0.81296  0.86014  0.10526  1.0000
  H   H433      1.0  0.81775  0.86146  0.02737  1.0000
  H   H434      1.0  0.90699  0.83091  0.07954  1.0000
  H   H435      1.0  0.90158  0.82893  0.15775  1.0000
  C   C371      1.0  0.87793  0.91800  0.10584  1.0000
  C   C372      1.0  0.73011  0.94389  0.21193  1.0000
  C   C373      1.0  0.74150  0.94107  0.17511  1.0000
  C   C374      1.0  0.74862  0.96006  0.15398  1.0000
  H   H436      1.0  0.70646  0.76041  0.05717  1.0000
  H   H437      1.0  0.72413  0.92951  0.22816  1.0000
  H   H438      1.0  0.75720  0.95813  0.12525  1.0000
  H   H439      1.0  0.93418  0.93551  0.14418  1.0000
  S   S105      1.0  0.98085  0.91077  0.03974  1.0000
  C   C375      1.0  0.68662  0.79153  0.06778  1.0000
  C   C376      1.0  0.66090  0.80537  0.05153  1.0000
  C   C377      1.0  0.59064  0.69140  0.04574  1.0000
  C   C378      1.0  0.78614  0.80863  0.98900  1.0000
  H   H440      1.0  0.66041  0.82095  0.06885  1.0000
  H   H441      1.0  0.92892  0.82160  0.40534  1.0000
  C   C379      1.0  0.72499  0.96540  0.22630  1.0000
  H   H442      1.0  0.95374  0.91892  0.11348  1.0000
  H   H443      1.0  0.92281  0.89354  0.04966  1.0000
  H   H444      1.0  0.84163  0.82989  0.28048  1.0000
  H   H445      1.0  0.61051  0.66565  0.01362  1.0000
  C   C380      1.0  0.54838  0.67748  0.07080  1.0000
  C   C381      1.0  0.90427  0.89472  0.06561  1.0000
  H   H446      1.0  0.84743  0.88999  0.17837  1.0000
  H   H447      1.0  0.88189  0.89136  0.03803  1.0000
  H   H448      1.0  0.73837  0.82158  0.04932  1.0000
  C   C382      1.0  0.64309  0.70389  0.05752  1.0000
  H   H449      1.0  0.93726  0.90604  0.15226  1.0000
  H   H450      1.0  0.64956  0.68958  0.03969  1.0000
  S   S106      1.0  0.95756  0.84771  0.03023  1.0000
  H   H451      1.0  0.89101  0.84600  0.29270  1.0000
  H   H452      1.0  0.64935  0.69977  0.09489  1.0000
  C   C383      1.0  0.55235  0.65622  0.05583  1.0000
  C   C384      1.0  0.84799  0.82483  0.31736  1.0000
  C   C385      1.0  0.68670  0.77127  0.04493  1.0000
  H   H453      1.0  0.56267  0.71095  0.07798  1.0000
  H   H454      1.0  0.90729  0.82256  0.32679  1.0000
  H   H455      1.0  0.92215  0.93160  0.03792  1.0000
  C   C386      1.0  0.83105  0.93589  0.11134  1.0000
  H   H456      1.0  0.89062  0.88832  0.14866  1.0000
  N   N24       1.0  0.90407  0.91664  0.08759  1.0000
  H   H457      1.0  0.85626  0.86963  0.31002  1.0000
  H   H458      1.0  0.90561  0.95076  0.06731  1.0000
  H   H459      1.0  0.87642  0.87328  0.37079  1.0000
  H   H460      1.0  0.85654  0.94861  0.07083  1.0000
  C   C387      1.0  0.85561  0.93530  0.09375  1.0000
  H   H461      1.0  0.90876  0.88090  0.09073  1.0000
  H   H462      1.0  0.85562  0.80725  0.31965  1.0000
  H   H463      1.0  0.83618  0.83786  0.40313  1.0000
  H   H464      1.0  0.83744  0.86309  0.35047  1.0000
  H   H465      1.0  0.85167  0.75561  0.47499  1.0000
  C   C388      1.0  0.93353  0.91939  0.12610  1.0000
  C   C389      1.0  0.88105  0.83124  0.39592  1.0000
  H   H466      1.0  0.66226  0.74947  0.98869  1.0000
  C   C390      1.0  0.96705  0.97570  0.00398  1.0000
  C   C391      1.0  0.82811  0.91956  0.14161  1.0000
  H   H467      1.0  0.78046  0.77141  0.03282  1.0000
  N   N25       1.0  0.87237  0.83932  0.34769  1.0000
  C   C392      1.0  0.86019  0.86228  0.34480  1.0000
  C   C393      1.0  0.89837  0.83954  0.32884  1.0000
  N   N26       1.0  0.60986  0.70959  0.03763  1.0000
  H   H468      1.0  0.65809  0.71787  0.05428  1.0000
  C   C394      1.0  0.78479  0.81288  0.46208  1.0000
  H   H469      1.0  0.74702  0.83789  0.00556  1.0000
  H   H470      1.0  0.80889  0.92000  0.15487  1.0000
  C   C395      1.0  0.66151  0.76491  0.00621  1.0000
  C   C396      1.0  0.75545  0.82433  0.03112  1.0000
  C   C397      1.0  0.97261  0.95582  0.02932  1.0000
  H   H471      1.0  0.77670  0.83048  0.05794  1.0000
  C   C398      1.0  0.97551  0.93568  0.00797  1.0000
  N   N27       1.0  0.76141  0.80369  0.00891  1.0000
  H   H472      1.0  0.88121  0.93271  0.02263  1.0000
  Fe  Fe53      1.0  0.96564  0.87951  0.99753  1.0000
  H   H473      1.0  0.71506  0.96726  0.25359  1.0000
  C   C399      1.0  0.60522  0.73117  0.05796  1.0000
  H   H474      1.0  0.61531  0.80941  0.00172  1.0000
  H   H475      1.0  0.97439  0.95604  0.06544  1.0000
  C   C400      1.0  0.63534  0.79876  0.01346  1.0000
  H   H476      1.0  0.58131  0.73752  0.04175  1.0000
  H   H477      1.0  0.62051  0.74433  0.05196  1.0000
  H   H478      1.0  0.75462  0.78228  0.06061  1.0000
  C   C401      1.0  0.59403  0.66951  0.03097  1.0000
  H   H479      1.0  0.79295  0.79309  0.07484  1.0000
  H   H480      1.0  0.81407  0.94907  0.10154  1.0000
  C   C402      1.0  0.56722  0.69489  0.06606  1.0000
  H   H481      1.0  0.61047  0.72996  0.09605  1.0000
  C   C403      1.0  0.84989  0.90269  0.15485  1.0000
  C   C404      1.0  0.63548  0.77853  0.99055  1.0000
  S   S107      1.0  0.86417  0.84650  0.99124  1.0000
  C   C405      1.0  0.57536  0.65222  0.03648  1.0000
  H   H482      1.0  0.89155  0.75985  0.48294  1.0000
  H   H483      1.0  0.53031  0.68048  0.08568  1.0000
  C   C406      1.0  0.91785  0.81488  0.46587  1.0000
  C   C407      1.0  0.86640  0.82368  0.46478  1.0000
  C   C408      1.0  0.60210  0.71278  0.98720  1.0000
  H   H484      1.0  0.80708  0.81550  0.01547  1.0000
  H   H485      1.0  0.87311  0.73344  0.46221  1.0000
  H   H486      1.0  0.94073  0.80856  0.48415  1.0000
  H   H487      1.0  0.84907  0.82408  0.48185  1.0000
  Fe  Fe54      1.0  0.55948  0.72330  0.79768  1.0000
  S   S108      1.0  0.59557  0.69816  0.79725  1.0000
  S   S109      1.0  0.51456  0.72557  0.73728  1.0000
  Fe  Fe55      1.0  0.60010  0.74301  0.89163  1.0000
  S   S110      1.0  0.63791  0.71854  0.89778  1.0000
  C   C409      1.0  0.95305  0.69718  0.86171  1.0000
  Fe  Fe56      1.0  0.63052  0.72574  0.82249  1.0000
  S   S111      1.0  0.66961  0.74107  0.80109  1.0000
  Fe  Fe57      1.0  0.59918  0.69364  0.87209  1.0000
  C   C410      1.0  0.96538  0.97564  0.95752  1.0000
  S   S112      1.0  0.59375  0.75125  0.81765  1.0000
  S   S113      1.0  0.56177  0.71774  0.87095  1.0000
  Fe  Fe58      1.0  0.78701  0.75270  0.65597  1.0000
  S   S114      1.0  0.76864  0.78133  0.60766  1.0000
  S   S115      1.0  0.75426  0.72789  0.67252  1.0000
  Fe  Fe59      1.0  0.85494  0.76357  0.66758  1.0000
  S   S116      1.0  0.84103  0.79331  0.62124  1.0000
  S   S117      1.0  0.90763  0.76144  0.69647  1.0000
  Fe  Fe60      1.0  0.80754  0.79996  0.65868  1.0000
  S   S118      1.0  0.80229  0.83482  0.68014  1.0000
  Fe  Fe61      1.0  0.80374  0.77243  0.57344  1.0000
  S   S119      1.0  0.82401  0.77217  0.70918  1.0000
  S   S120      1.0  0.81946  0.74186  0.61761  1.0000
  Fe  Fe62      1.0  0.93417  0.86228  0.90036  1.0000
  S   S121      1.0  0.92246  0.87375  0.82686  1.0000
  C   C411      1.0  0.83636  0.84468  0.72077  1.0000
  C   C412      1.0  0.84975  0.86409  0.71142  1.0000
  C   C413      1.0  0.87660  0.87251  0.74387  1.0000
  C   C414      1.0  0.88953  0.86207  0.78658  1.0000
  C   C415      1.0  0.87596  0.84276  0.79632  1.0000
  C   C416      1.0  0.84968  0.83384  0.76304  1.0000
  H   H488      1.0  0.83944  0.87248  0.67879  1.0000
  H   H489      1.0  0.88703  0.88739  0.73612  1.0000
  H   H490      1.0  0.88555  0.83471  0.82931  1.0000
  H   H491      1.0  0.83912  0.81896  0.77051  1.0000
  C   C417      1.0  0.69322  0.73659  0.76567  1.0000
  C   C418      1.0  0.71471  0.75302  0.76455  1.0000
  C   C419      1.0  0.73366  0.75059  0.73662  1.0000
  C   C420      1.0  0.73144  0.73160  0.70937  1.0000
  C   C421      1.0  0.71012  0.71507  0.71079  1.0000
  C   C422      1.0  0.69107  0.71754  0.73860  1.0000
  H   H492      1.0  0.71664  0.76783  0.78528  1.0000
  H   H493      1.0  0.74987  0.76346  0.73598  1.0000
  H   H494      1.0  0.70822  0.70029  0.68997  1.0000
  H   H495      1.0  0.67490  0.70465  0.73920  1.0000
  H   H496      1.0  0.87012  0.96281  0.90240  1.0000
  H   H497      1.0  0.96878  0.95555  0.90115  1.0000
  C   C423      1.0  0.67850  0.79611  0.92741  1.0000
  H   H498      1.0  0.90126  0.80966  0.52325  1.0000
  H   H499      1.0  0.88382  0.78127  0.88462  1.0000
  H   H500      1.0  0.71260  0.75290  0.89231  1.0000
  H   H501      1.0  0.85610  0.90182  0.80304  1.0000
  C   C424      1.0  0.96586  0.74413  0.72931  1.0000
  C   C425      1.0  0.93420  0.73943  0.71680  1.0000
  C   C426      1.0  0.92491  0.71779  0.72148  1.0000
  C   C427      1.0  0.94723  0.70114  0.73930  1.0000
  H   H502      1.0  0.97323  0.76070  0.72465  1.0000
  H   H503      1.0  0.90060  0.71387  0.71154  1.0000
  H   H504      1.0  0.91191  0.72336  0.62240  1.0000
  H   H505      1.0  0.97053  0.68400  0.86388  1.0000
  H   H506      1.0  0.54307  0.67956  0.90915  1.0000
  C   C428      1.0  0.98711  0.71102  0.93344  1.0000
  H   H507      1.0  0.60665  0.69771  0.96942  1.0000
  N   N28       1.0  0.59852  0.74801  0.67109  1.0000
  C   C429      1.0  0.59731  0.76550  0.70472  1.0000
  C   C430      1.0  0.56950  0.74940  0.63127  1.0000
  C   C431      1.0  0.59945  0.72632  0.69412  1.0000
  C   C432      1.0  0.62534  0.75006  0.65457  1.0000
  C   C433      1.0  0.62991  0.73442  0.62264  1.0000
  C   C434      1.0  0.64742  0.76740  0.66906  1.0000
  C   C435      1.0  0.65500  0.73598  0.60647  1.0000
  C   C436      1.0  0.67221  0.76894  0.65218  1.0000
  C   C437      1.0  0.67607  0.75324  0.62115  1.0000
  H   H508      1.0  0.59555  0.78232  0.68936  1.0000
  H   H509      1.0  0.57691  0.76348  0.71647  1.0000
  H   H510      1.0  0.61806  0.76489  0.73642  1.0000
  H   H511      1.0  0.56834  0.76521  0.61216  1.0000
  H   H512      1.0  0.54880  0.74853  0.64266  1.0000
  H   H513      1.0  0.56723  0.73562  0.60623  1.0000
  H   H514      1.0  0.62144  0.72432  0.72328  1.0000
  H   H515      1.0  0.58012  0.72458  0.70836  1.0000
  H   H516      1.0  0.59764  0.71210  0.67032  1.0000
  H   H517      1.0  0.61433  0.72066  0.61038  1.0000
  H   H518      1.0  0.64662  0.77971  0.69428  1.0000
  H   H519      1.0  0.49991  0.66412  0.93090  1.0000
  H   H520      1.0  0.68928  0.78193  0.66452  1.0000
  H   H521      1.0  0.50693  0.69045  0.79779  1.0000
  C   C438      1.0  0.94870  0.74976  0.92408  1.0000
  C   C439      1.0  0.92712  0.76627  0.92317  1.0000
  C   C440      1.0  0.94392  0.73454  0.88685  1.0000
  C   C441      1.0  0.91699  0.73775  0.84777  1.0000
  H   H522      1.0  0.91241  0.72798  0.81663  1.0000
  H   H523      1.0  0.96248  0.70584  0.65273  1.0000
  C   C442      1.0  0.71035  0.76744  0.91191  1.0000
  C   C443      1.0  0.88226  0.75899  0.56458  1.0000
  H   H524      1.0  0.61574  0.72645  0.97928  1.0000
  C   C444      1.0  0.94058  0.81662  0.75882  1.0000
  C   C445      1.0  0.89541  0.75420  0.84740  1.0000
  C   C446      1.0  0.90040  0.76837  0.88515  1.0000
  H   H525      1.0  0.87148  0.96454  0.80708  1.0000
  C   C447      1.0  0.85964  0.94982  0.81537  1.0000
  C   C448      1.0  0.52568  0.65197  0.74071  1.0000
  H   H526      1.0  0.97287  0.70593  0.95492  1.0000
  H   H527      1.0  0.83789  0.95564  0.82025  1.0000
  C   C449      1.0  0.85207  0.90175  0.83588  1.0000
  N   N29       1.0  0.87953  0.93824  0.85720  1.0000
  H   H528      1.0  0.69603  0.75405  0.60965  1.0000
  H   H529      1.0  0.83000  0.86984  0.82110  1.0000
  S   S122      1.0  0.60229  0.77059  0.94380  1.0000
  H   H530      1.0  0.93966  0.80496  0.73009  1.0000
  S   S123      1.0  0.92237  0.82962  0.92467  1.0000
  H   H531      1.0  0.90564  0.94734  0.92742  1.0000
  C   C450      1.0  0.93262  0.72517  0.52493  1.0000
  C   C451      1.0  0.94757  0.78826  0.81593  1.0000
  H   H532      1.0  0.96163  0.78174  0.85043  1.0000
  C   C452      1.0  0.85884  0.72359  0.53720  1.0000
  H   H533      1.0  0.83665  0.89787  0.95265  1.0000
  H   H534      1.0  0.86078  0.76885  0.55004  1.0000
  H   H535      1.0  0.94121  0.82838  0.84365  1.0000
  H   H536      1.0  0.90216  0.77018  0.56849  1.0000
  H   H537      1.0  0.91655  0.81849  0.75933  1.0000
  H   H538      1.0  0.94739  0.83320  0.74987  1.0000
  C   C453      1.0  0.91358  0.72872  0.55278  1.0000
  H   H539      1.0  0.97581  0.71250  0.52137  1.0000
  H   H540      1.0  0.85896  0.70850  0.51631  1.0000
  H   H541      1.0  0.86191  0.71813  0.57309  1.0000
  H   H542      1.0  0.90318  0.96861  0.88619  1.0000
  C   C454      1.0  0.92517  0.72133  0.59928  1.0000
  N   N30       1.0  0.88295  0.73951  0.53522  1.0000
  H   H543      1.0  0.65861  0.72355  0.58314  1.0000
  N   N31       1.0  0.96739  0.71775  0.88630  1.0000
  Fe  Fe63      1.0  0.90996  0.84921  0.97857  1.0000
  H   H544      1.0  0.79407  0.79371  0.97487  1.0000
  H   H545      1.0  0.97639  0.92026  0.94496  1.0000
  C   C455      1.0  0.85572  0.91782  0.91009  1.0000
  C   C456      1.0  0.98738  0.72738  0.86207  1.0000
  S   S124      1.0  0.79792  0.76976  0.49596  1.0000
  H   H546      1.0  0.87491  0.75619  0.81729  1.0000
  H   H547      1.0  0.83532  0.73100  0.52375  1.0000
  H   H548      1.0  0.97978  0.81951  0.87421  1.0000
  H   H549      1.0  0.82087  0.86733  0.89627  1.0000
  H   H550      1.0  0.53903  0.66438  0.73015  1.0000
  C   C457      1.0  0.96407  0.82511  0.83997  1.0000
  H   H551      1.0  0.90174  0.91928  0.81665  1.0000
  H   H552      1.0  0.96927  0.74957  0.95407  1.0000
  H   H553      1.0  0.77824  0.82095  0.96054  1.0000
  C   C458      1.0  0.51813  0.65330  0.92856  1.0000
  H   H554      1.0  0.66174  0.77072  0.87584  1.0000
  H   H555      1.0  0.57728  0.71702  0.97104  1.0000
  C   C459      1.0  0.84072  0.89924  0.91983  1.0000
  C   C460      1.0  0.70403  0.80479  0.96214  1.0000
  N   N32       1.0  0.96180  0.80833  0.80360  1.0000
  C   C461      1.0  0.83705  0.88331  0.84590  1.0000
  C   C462      1.0  0.95409  0.71127  0.61700  1.0000
  S   S125      1.0  0.91738  0.88180  0.94927  1.0000
  C   C463      1.0  0.68165  0.77750  0.90240  1.0000
  H   H556      1.0  0.86239  0.93047  0.93640  1.0000
  H   H557      1.0  0.88292  0.75418  0.59985  1.0000
  C   C464      1.0  0.97228  0.70817  0.58900  1.0000
  Fe  Fe64      1.0  0.97121  0.83067  0.97365  1.0000
  H   H558      1.0  0.93990  0.68442  0.74292  1.0000
  S   S126      1.0  0.98372  0.86247  0.94600  1.0000
  S   S127      1.0  0.59971  0.65947  0.90348  1.0000
  C   C465      1.0  0.97894  0.70611  0.75389  1.0000
  C   C466      1.0  0.86241  0.91940  0.86798  1.0000
  C   C467      1.0  0.88990  0.95487  0.89508  1.0000
  C   C468      1.0  0.90741  0.92992  0.84801  1.0000
  C   C469      1.0  0.83170  0.88195  0.88801  1.0000
  H   H559      1.0  0.94429  0.77502  0.78941  1.0000
  C   C470      1.0  0.97367  0.93563  0.96148  1.0000
  H   H560      1.0  0.93559  0.69047  0.87618  1.0000
  H   H561      1.0  0.78543  0.81761  0.49651  1.0000
  H   H562      1.0  0.94192  0.69968  0.82410  1.0000
  C   C471      1.0  0.96156  0.71506  0.54305  1.0000
  H   H563      1.0  0.92424  0.79189  0.81790  1.0000
  C   C472      1.0  0.54269  0.66212  0.91626  1.0000
  C   C473      1.0  0.96925  0.95560  0.93669  1.0000
  H   H564      1.0  0.85319  0.93897  0.78422  1.0000
  H   H565      1.0  0.92204  0.91980  0.87745  1.0000
  C   C474      1.0  0.98815  0.72765  0.74815  1.0000
  H   H566      1.0  0.97254  0.84138  0.83235  1.0000
  H   H567      1.0  0.65589  0.80352  0.92061  1.0000
  H   H568      1.0  0.92188  0.94366  0.84232  1.0000
  H   H569      1.0  0.97354  0.73301  0.82689  1.0000
  H   H570      1.0  0.93152  0.77775  0.95203  1.0000
  C   C475      1.0  0.73605  0.77597  0.94647  1.0000
  H   H571      1.0  0.99472  0.70037  0.60303  1.0000
  C   C476      1.0  0.73377  0.79504  0.97245  1.0000
  C   C477      1.0  0.99272  0.80439  0.79982  1.0000
  H   H572      1.0  0.69962  0.81887  0.98090  1.0000
  H   H573      1.0  0.75769  0.76739  0.95282  1.0000
  C   C478      1.0  0.56714  0.64855  0.91513  1.0000
  H   H574      1.0  0.55812  0.64923  0.80945  1.0000
  H   H575      1.0  0.99674  0.76896  0.81642  1.0000
  C   C479      1.0  0.89572  0.81545  0.48798  1.0000
  S   S128      1.0  0.99662  0.79761  0.98323  1.0000
  H   H576      1.0  0.92574  0.73003  0.48909  1.0000
  C   C480      1.0  0.87474  0.74739  0.48672  1.0000
