data_image0
_chemical_formula_structural       FeS2FeS2FeSFeS3FeSFeSHSFeS2FeS2FeSFeS3C4H2C5H3C6H4C6H4C6H5CH2FeC3H3C4HCH3CNC5H9NC2HC3HCH4SHCHCNHC2HCH2C2H3C2H2C2H2CH2C3H6CH2CHC3NHC2H4CH5CSHSHC2H2CHFeC2SHCH2C3HCHCHNH2C4H4NCHC2H3CH5C2HC5NH2CHCNHC2HC2H2CSCFeS2FeS2FeSFeS3CHSHNH2CH3SC2HCSFeSC2HC4FeH4C6H2C2HC2H2C6H4CHCH2C2H10NH2C2H2C2HCH2CHC2H2C4HCH2C2H3SH5C2HC2HCH2CHC3H2CH5C2H2C2HCH2SC2NCHCHCH4CSFeS2FeS2FeSFeCS3HC3HFeCH5CH2C5SC6H5CH3C3HFeNH4SHNSH3CH5CH2C2H2CHN2HCHC2H3CHC2H3C3HCHCHC2HCHSH2CHSCFeSNFeSFeS3C2HSCHC6H8CH2CHC2H4FeCHCNFeH2C2H5CH2CHC2HCH4CHC4HCHCH2CHSH3CH8C2HC2SNH3C3HCHFeS3H2SCHSCH8FeS2FeS2FeSFeS3FeS2FeSHFeSFeS3HC6H2CH4C6H4CFeCFeHC2HCNH4C2HCSHC2HCHC3HC3H2C6H4C4H7CH3C2HC9H2FeSHC3H5C2H2NC2NCHCH2C5H5CHC5FeH2C2H3CHCNCHC3SFeH2CH3NH6CH3CH2CHC2SCHC2H2C2NH2CHCHNH4SHCHC3HC2HCHFeS2FeSFeHFeHS3FeHSFeCSCHCHSC6H5CH5C2HC7H6CHCH2C4H3CH2CH2SN2HSHCHCH5C2HC2H3NC3HC2H2CSFeCH4CH3FeSHC3H2CSCHSHC2H3CSC2HSHC2HC2H2SFeS2FeS2FeSFeS3H2NHNHC2HC3HSC4HSH2C2HCHC2H2C3HC2H3C6H4CHC2H2CH2C2HCH6NHCHC2HCH8C3H4CH3CHC2H2FeHCHNC10H5CH4C3H4CHC4H2NHFeSHSC2SFeC2SFeSCSFeS2FeSCFeSH2C5H3SCH4C2SC2SH4C3H4CHNC9H14FeSH2CH2NH3FeCFeCHSHC3SH2FeHSHCH2C3FeHC4SHCSC2HCH2SCNHCH2CHCHC2H2FeH4C2FeHCH4CH2CH3CH2SCSFeCHCNFeHCHC2HCHC2H3C2FeSHFeC2HCSCHC2SH2S2HNSHCNCSH5CHSCSHC5H7C2H2SHFeH6S2CH3CFeHC2SCH3CFeHCSHSH3FeSH4NSNH7FeH3CHCH6CH2SH2CNC9HCHC3HCH4C2HC2HC3H6FeS2FeS2FeCFeS3CFeSHSFeHSNHCSFeS2FeSFeSFeS3FeS2FeS2FeSFeSCHC2HC4H2CH3C7H4C2SHC7H4C6H5C6H4CH2CHNC7H7FeSC3NC4HCH3CHCH2C2HC2H3NH2S2HSNC5H2C2H9C3HC2HSCHCH2C2HCH2FeS2HCH7CH2CFe2H3SHC3HCHCH2SCSCH2CH2CH2FeSCHSC3H4CHSCH3CHCH2SCFeHNH2C4HCH3NH3SH2C4H2C2FeH3C2H2C2H2CH3FeCH4CH2C2FeC3H4FeS2FeSFeSFeS2FeS2FeSFeS3FeS2FeS2FeSFeS4C7H4C3SHC6H4C6H4C2NC6H4C6H4SNCHCH8CSHCH8CH8CH2NC6H12C2H3CHCHC2H5CH5CH2C2H2CHCHCHCHCHCHC2H2CSC2H4CH3C2HCHC2HCFeNCH5C2HC2H5SCHCH5CH2C4NC6FeSC2SNH2C2NHCHC7SH4C6H4CHNHCH4CH4CFeH3CHSH3SFeHSH2C7SH3SHSC2FeSHC5FeHCHCH2CHCHSHCHC2H3C2HCHC3FeS2FeSFeSFeHS2HC2HNFeS2FeS2FeSFeS3C7SH2CH2C5H6C7H5CH2C6H3CH6C4H2NC10HCHCH12FeCH3SCHNCSCH4C4HCH5CH2C2H2CSH2C2HCHFeCH2NCHCH4CHSHSH9CH3C2H2C3HFeS2H2Fe2SNHSCHCH2CNCHCSHSFeCHC5H2C3H2C4H2FeHNHFeCH2CH2C3HC3H3SH3CH11C2HCHCHSH2S2HCHCHC2H6SCHCSCNHCSC2H2SFeS2FeS2FeSFeS3HC3NHC2HCH2C3H2CH2C6H6C4HCHCHC2HCH3C2HCHC2H2C3H2CH2CH2NH5C2H2SCH4CHC2NHC2H3C2H2CFeH3SHC3SH2CHCH3SHSHC2HCFeCS2H6S2HC3H3CFeC2HC2NHCNCH2C2HCHSCH2C2HC2H5CHNCSH3CHC4HCHSCH5SHC2H2CH3CSHC4HCH3C2HC2H3CH3NC2HC2HSFe2SHC4FeCH3CH2C
_chemical_formula_sum              "Fe144 S288 H1296 C1080 N72"
_cell_length_a       53.5442
_cell_length_b       53.8032
_cell_length_c       55.9359
_cell_angle_alpha    88.6986
_cell_angle_beta     91.1942
_cell_angle_gamma    117.162

_space_group_name_H-M_alt    "P 1"
_space_group_IT_number       1

loop_
  _space_group_symop_operation_xyz
  'x, y, z'

loop_
  _atom_site_type_symbol
  _atom_site_label
  _atom_site_symmetry_multiplicity
  _atom_site_fract_x
  _atom_site_fract_y
  _atom_site_fract_z
  _atom_site_occupancy
  Fe  Fe1       1.0  0.36876  0.35438  0.13985  1.0000
  S   S1        1.0  0.34179  0.32731  0.16995  1.0000
  S   S2        1.0  0.37143  0.39697  0.13134  1.0000
  Fe  Fe2       1.0  0.39399  0.31541  0.13125  1.0000
  S   S3        1.0  0.36969  0.28567  0.16045  1.0000
  S   S4        1.0  0.42670  0.30988  0.11110  1.0000
  Fe  Fe3       1.0  0.33320  0.29142  0.14569  1.0000
  S   S5        1.0  0.29477  0.25025  0.13822  1.0000
  Fe  Fe4       1.0  0.38064  0.32391  0.18221  1.0000
  S   S6        1.0  0.39134  0.32441  0.22206  1.0000
  S   S7        1.0  0.35723  0.31875  0.11468  1.0000
  S   S8        1.0  0.40793  0.35338  0.15391  1.0000
  Fe  Fe5       1.0  0.34863  0.20026  0.01648  1.0000
  S   S9        1.0  0.39247  0.21855  0.03125  1.0000
  Fe  Fe6       1.0  0.29609  0.14792  0.00215  1.0000
  S   S10       1.0  0.27280  0.10029  0.00246  1.0000
  H   H1        1.0  0.27820  0.29295  0.11078  1.0000
  S   S11       1.0  0.31054  0.17092  0.03655  1.0000
  Fe  Fe7       1.0  0.10779  0.10179  0.15458  1.0000
  S   S12       1.0  0.09175  0.13307  0.14717  1.0000
  S   S13       1.0  0.09963  0.07456  0.18755  1.0000
  Fe  Fe8       1.0  0.13708  0.11306  0.10680  1.0000
  S   S14       1.0  0.12310  0.14497  0.09503  1.0000
  S   S15       1.0  0.16372  0.10004  0.08511  1.0000
  Fe  Fe9       1.0  0.13533  0.16037  0.13289  1.0000
  S   S16       1.0  0.16250  0.20569  0.14355  1.0000
  Fe  Fe10      1.0  0.08105  0.11467  0.11014  1.0000
  S   S17       1.0  0.03640  0.09262  0.09498  1.0000
  S   S18       1.0  0.15172  0.13001  0.14335  1.0000
  S   S19       1.0  0.09473  0.08172  0.11894  1.0000
  C   C1        1.0  0.37327  0.42970  0.05417  1.0000
  C   C2        1.0  0.02371  0.09809  0.06675  1.0000
  C   C3        1.0  0.02907  0.12479  0.05847  1.0000
  C   C4        1.0  0.16184  0.05437  0.19296  1.0000
  H   H2        1.0  0.06843  0.02329  0.07008  1.0000
  H   H3        1.0  0.04391  0.14300  0.06798  1.0000
  C   C5        1.0  0.16175  0.02240  0.22418  1.0000
  C   C6        1.0  0.25768  0.07992  0.02863  1.0000
  C   C7        1.0  0.24341  0.05062  0.02711  1.0000
  C   C8        1.0  0.24727  0.07538  0.07119  1.0000
  C   C9        1.0  0.25938  0.09220  0.05080  1.0000
  H   H4        1.0  0.24203  0.04089  0.01007  1.0000
  H   H5        1.0  0.24859  0.08512  0.08817  1.0000
  H   H6        1.0  0.26992  0.11465  0.05220  1.0000
  C   C10       1.0  0.23758  0.17854  0.05624  1.0000
  C   C11       1.0  0.21931  0.18059  0.07264  1.0000
  C   C12       1.0  0.19645  0.15642  0.08118  1.0000
  C   C13       1.0  0.19227  0.13010  0.07401  1.0000
  C   C14       1.0  0.21097  0.12793  0.05808  1.0000
  C   C15       1.0  0.23342  0.15217  0.04896  1.0000
  H   H7        1.0  0.22270  0.20084  0.07868  1.0000
  H   H8        1.0  0.18194  0.15817  0.09324  1.0000
  H   H9        1.0  0.20798  0.10765  0.05252  1.0000
  H   H10       1.0  0.24745  0.15034  0.03630  1.0000
  C   C16       1.0  0.25826  0.23950  0.13961  1.0000
  C   C17       1.0  0.24701  0.25638  0.14844  1.0000
  C   C18       1.0  0.21758  0.24603  0.14957  1.0000
  C   C19       1.0  0.19937  0.21873  0.14216  1.0000
  C   C20       1.0  0.21083  0.20206  0.13369  1.0000
  C   C21       1.0  0.23997  0.21238  0.13226  1.0000
  H   H11       1.0  0.26086  0.27724  0.15446  1.0000
  H   H12       1.0  0.20887  0.25911  0.15624  1.0000
  H   H13       1.0  0.19718  0.18114  0.12804  1.0000
  H   H14       1.0  0.24817  0.19913  0.12522  1.0000
  C   C22       1.0  0.41571  0.28403  0.08922  1.0000
  C   C23       1.0  0.43598  0.27812  0.07905  1.0000
  C   C24       1.0  0.42844  0.25789  0.06141  1.0000
  C   C25       1.0  0.40058  0.24354  0.05358  1.0000
  C   C26       1.0  0.38012  0.24959  0.06344  1.0000
  C   C27       1.0  0.38767  0.26978  0.08145  1.0000
  H   H15       1.0  0.45766  0.28918  0.08493  1.0000
  H   H16       1.0  0.44430  0.25335  0.05378  1.0000
  H   H17       1.0  0.35854  0.23852  0.05738  1.0000
  H   H18       1.0  0.37196  0.27443  0.08916  1.0000
  H   H19       1.0  0.40120  0.39130  0.01824  1.0000
  C   C28       1.0  0.44955  0.35622  0.22171  1.0000
  H   H20       1.0  0.44768  0.35801  0.20253  1.0000
  H   H21       1.0  0.23513  0.16738  0.21684  1.0000
  Fe  Fe11      1.0  0.29158  0.19733  0.02148  1.0000
  C   C29       1.0  0.36586  0.40135  0.05860  1.0000
  C   C30       1.0  0.36561  0.39115  0.08206  1.0000
  C   C31       1.0  0.37231  0.40916  0.10145  1.0000
  H   H22       1.0  0.38569  0.46956  0.07039  1.0000
  H   H23       1.0  0.16167  0.05077  0.07060  1.0000
  H   H24       1.0  0.35997  0.36935  0.08514  1.0000
  C   C32       1.0  0.37939  0.43744  0.09708  1.0000
  C   C33       1.0  0.15846  0.00944  0.18262  1.0000
  C   C34       1.0  0.12828  0.12361  0.21126  1.0000
  C   C35       1.0  0.11776  0.09463  0.21221  1.0000
  H   H25       1.0  0.15234  0.07518  0.03545  1.0000
  C   C36       1.0  0.46864  0.43208  0.21885  1.0000
  H   H26       1.0  0.16479  0.06287  0.23070  1.0000
  H   H27       1.0  0.12469  0.13367  0.19553  1.0000
  H   H28       1.0  0.15587  0.02687  0.11369  1.0000
  C   C37       1.0  0.37761  0.17501  0.08924  1.0000
  N   N1        1.0  0.27492  0.29113  0.07233  1.0000
  C   C38       1.0  0.28261  0.31169  0.05224  1.0000
  C   C39       1.0  0.28191  0.30704  0.09494  1.0000
  C   C40       1.0  0.29262  0.27652  0.07147  1.0000
  C   C41       1.0  0.24493  0.27044  0.07010  1.0000
  C   C42       1.0  0.23504  0.25360  0.04947  1.0000
  H   H29       1.0  0.26898  0.32233  0.05180  1.0000
  H   H30       1.0  0.30482  0.32814  0.05375  1.0000
  H   H31       1.0  0.28045  0.30179  0.03459  1.0000
  H   H32       1.0  0.26955  0.31883  0.09672  1.0000
  H   H33       1.0  0.30444  0.32278  0.09585  1.0000
  H   H34       1.0  0.29146  0.26705  0.05378  1.0000
  H   H35       1.0  0.31517  0.29087  0.07484  1.0000
  H   H36       1.0  0.28581  0.25926  0.08507  1.0000
  H   H37       1.0  0.24910  0.25522  0.03525  1.0000
  N   N2        1.0  0.15884  0.04283  0.14928  1.0000
  C   C43       1.0  0.40408  0.37303  0.02286  1.0000
  C   C44       1.0  0.18493  0.06831  0.14307  1.0000
  H   H38       1.0  0.31563  0.26664  0.19270  1.0000
  C   C45       1.0  0.15971  0.03537  0.17486  1.0000
  C   C46       1.0  0.21585  0.20425  0.20133  1.0000
  C   C47       1.0  0.41480  0.34585  0.05240  1.0000
  H   H39       1.0  0.00032  0.05407  0.06027  1.0000
  C   C48       1.0  0.02831  0.06002  0.18800  1.0000
  H   H40       1.0  0.17693  0.07316  0.01603  1.0000
  H   H41       1.0  0.22443  0.19703  0.18654  1.0000
  H   H42       1.0  0.13631  0.06696  0.15437  1.0000
  H   H43       1.0  0.13238  0.05277  0.12534  1.0000
  S   S20       1.0  0.33116  0.22921  0.00492  1.0000
  H   H44       1.0  0.18732  0.08680  0.15321  1.0000
  C   C49       1.0  0.40923  0.44108  0.20296  1.0000
  H   H45       1.0  0.40507  0.37655  0.19931  1.0000
  C   C50       1.0  0.13448  0.04843  0.14466  1.0000
  N   N3        1.0  0.15136  0.03437  0.03490  1.0000
  H   H46       1.0  0.44428  0.41233  0.17369  1.0000
  C   C51       1.0  0.40086  0.35353  0.00540  1.0000
  C   C52       1.0  0.20703  0.23344  0.04714  1.0000
  H   H47       1.0  0.42032  0.34297  0.07069  1.0000
  C   C53       1.0  0.30412  0.25460  0.20813  1.0000
  H   H48       1.0  0.45233  0.44885  0.17574  1.0000
  H   H49       1.0  0.05949  0.07489  0.22995  1.0000
  C   C54       1.0  0.22490  0.26601  0.08812  1.0000
  C   C55       1.0  0.35643  0.20109  0.10739  1.0000
  H   H50       1.0  0.11789  0.05053  0.06036  1.0000
  H   H51       1.0  0.11452  0.03037  0.15041  1.0000
  H   H52       1.0  0.41521  0.30888  0.04108  1.0000
  C   C56       1.0  0.16902  0.04125  0.05683  1.0000
  C   C57       1.0  0.99320  0.10441  0.02696  1.0000
  H   H53       1.0  0.26574  0.23694  0.18896  1.0000
  H   H54       1.0  0.36022  0.38720  0.04375  1.0000
  C   C58       1.0  0.23101  0.03376  0.04744  1.0000
  C   C59       1.0  0.32900  0.17966  0.10235  1.0000
  H   H55       1.0  0.42637  0.46286  0.20423  1.0000
  H   H56       1.0  0.18521  0.07406  0.12374  1.0000
  C   C60       1.0  0.40354  0.28424  0.00119  1.0000
  H   H57       1.0  0.16649  0.21330  0.06369  1.0000
  H   H58       1.0  0.38262  0.38716  0.21450  1.0000
  C   C61       1.0  0.30614  0.20897  0.09525  1.0000
  C   C62       1.0  0.32699  0.15519  0.09139  1.0000
  C   C63       1.0  0.35103  0.15316  0.08477  1.0000
  H   H59       1.0  0.32359  0.22854  0.10211  1.0000
  H   H60       1.0  0.30948  0.20809  0.07579  1.0000
  H   H61       1.0  0.28669  0.21137  0.09707  1.0000
  H   H62       1.0  0.30713  0.13765  0.08694  1.0000
  H   H63       1.0  0.34901  0.13483  0.07549  1.0000
  H   H64       1.0  0.30339  0.16937  0.14428  1.0000
  C   C64       1.0  0.31822  0.25649  0.22974  1.0000
  H   H65       1.0  0.35965  0.22030  0.11567  1.0000
  H   H66       1.0  0.28434  0.18929  0.13911  1.0000
  C   C65       1.0  0.38007  0.44774  0.07354  1.0000
  H   H67       1.0  0.38396  0.38935  0.18277  1.0000
  C   C66       1.0  0.40441  0.32942  0.01098  1.0000
  C   C67       1.0  0.38030  0.19873  0.10086  1.0000
  C   C68       1.0  0.01405  0.12789  0.03852  1.0000
  N   N4        1.0  0.30415  0.18361  0.10796  1.0000
  H   H68       1.0  0.16226  0.00136  0.02689  1.0000
  C   C69       1.0  0.43930  0.42302  0.22104  1.0000
  C   C70       1.0  0.27705  0.15979  0.10077  1.0000
  H   H69       1.0  0.25878  0.16362  0.10470  1.0000
  H   H70       1.0  0.38446  0.45152  0.11193  1.0000
  H   H71       1.0  0.41342  0.38429  0.05984  1.0000
  H   H72       1.0  0.23029  0.27755  0.10453  1.0000
  C   C71       1.0  0.23301  0.04608  0.06964  1.0000
  H   H73       1.0  0.27610  0.15634  0.08116  1.0000
  H   H74       1.0  0.27348  0.14010  0.11031  1.0000
  H   H75       1.0  0.39614  0.17377  0.08329  1.0000
  H   H76       1.0  0.13649  0.00098  0.13585  1.0000
  H   H77       1.0  0.32152  0.20675  0.14040  1.0000
  C   C72       1.0  0.30335  0.18734  0.13407  1.0000
  S   S21       1.0  0.37364  0.44130  0.02415  1.0000
  H   H78       1.0  0.21892  0.22575  0.19703  1.0000
  S   S22       1.0  0.26583  0.20899  0.04538  1.0000
  H   H79       1.0  0.40101  0.21591  0.10394  1.0000
  C   C73       1.0  0.00607  0.06347  0.23603  1.0000
  C   C74       1.0  0.22314  0.17364  0.22928  1.0000
  H   H80       1.0  0.01905  0.08424  0.22760  1.0000
  H   H81       1.0  0.16915  0.02233  0.06509  1.0000
  C   C75       1.0  0.16206  0.02021  0.01840  1.0000
  H   H82       1.0  0.16228  0.07424  0.18849  1.0000
  Fe  Fe12      1.0  0.38560  0.48574  0.01052  1.0000
  C   C76       1.0  0.99735  0.00641  0.16989  1.0000
  C   C77       1.0  0.15525  0.06089  0.02301  1.0000
  S   S23       1.0  0.21656  0.02599  0.09553  1.0000
  H   H83       1.0  0.20028  0.22020  0.03157  1.0000
  C   C78       1.0  0.15624  0.02057  0.13274  1.0000
  H   H84       1.0  0.18207  0.24229  0.09977  1.0000
  H   H85       1.0  0.47920  0.43790  0.20190  1.0000
  C   C79       1.0  0.02716  0.05561  0.16336  1.0000
  C   C80       1.0  0.45655  0.29016  0.23523  1.0000
  C   C81       1.0  0.41171  0.32627  0.03507  1.0000
  H   H86       1.0  0.17444  0.01589  0.13461  1.0000
  C   C82       1.0  0.18804  0.22943  0.06524  1.0000
  H   H87       1.0  0.42495  0.29004  0.00853  1.0000
  C   C83       1.0  0.16306  0.04798  0.21721  1.0000
  H   H88       1.0  0.39550  0.44032  0.18740  1.0000
  N   N5        1.0  0.42079  0.42098  0.20030  1.0000
  H   H89       1.0  0.19109  0.05650  0.05294  1.0000
  H   H90       1.0  0.39623  0.43666  0.21923  1.0000
  C   C84       1.0  0.27521  0.23734  0.20622  1.0000
  C   C85       1.0  0.10729  0.02905  0.05461  1.0000
  C   C86       1.0  0.12158  0.01720  0.04149  1.0000
  C   C87       1.0  0.00403  0.07472  0.05433  1.0000
  H   H91       1.0  0.20378  0.06506  0.14668  1.0000
  H   H92       1.0  0.20051  0.15889  0.22682  1.0000
  H   H93       1.0  0.42213  0.28701  0.21266  1.0000
  H   H94       1.0  0.18422  0.03406  0.01323  1.0000
  N   N6        1.0  0.01621  0.04279  0.23052  1.0000
  C   C88       1.0  0.15934  0.00313  0.20693  1.0000
  H   H95       1.0  0.04127  0.08104  0.19412  1.0000
  C   C89       1.0  0.39712  0.39236  0.19920  1.0000
  C   C90       1.0  0.14326  0.13970  0.23080  1.0000
  H   H96       1.0  0.22007  0.01126  0.04596  1.0000
  H   H97       1.0  0.03872  0.07297  0.15119  1.0000
  H   H98       1.0  0.14931  0.01398  0.00162  1.0000
  C   C91       1.0  0.47623  0.36886  0.23294  1.0000
  H   H99       1.0  0.14028  0.05677  0.00774  1.0000
  H   H100      1.0  0.01797  0.14859  0.03250  1.0000
  H   H101      1.0  0.38803  0.27283  0.01536  1.0000
  H   H102      1.0  0.19271  0.19053  0.20103  1.0000
  H   H103      1.0  0.15078  0.16203  0.23002  1.0000
  C   C92       1.0  0.43533  0.42699  0.17694  1.0000
  C   C93       1.0  0.12203  0.08172  0.23283  1.0000
  H   H104      1.0  0.42070  0.42457  0.16166  1.0000
  C   C94       1.0  0.01391  0.03765  0.20443  1.0000
  C   C95       1.0  0.19692  0.24577  0.08560  1.0000
  C   C96       1.0  0.01191  0.02884  0.15434  1.0000
  C   C97       1.0  0.41097  0.36914  0.04633  1.0000
  C   C98       1.0  0.42545  0.34122  0.23532  1.0000
  N   N7        1.0  0.22880  0.20302  0.22483  1.0000
  H   H105      1.0  0.01170  0.02553  0.13527  1.0000
  H   H106      1.0  0.41222  0.24066  0.19711  1.0000
  C   C99       1.0  0.25946  0.22135  0.22609  1.0000
  H   H107      1.0  0.11377  0.05924  0.23361  1.0000
  C   C100      1.0  0.42906  0.25079  0.21005  1.0000
  N   N8        1.0  0.40061  0.30900  0.99216  1.0000
  H   H108      1.0  0.35568  0.29062  0.99512  1.0000
  C   C101      1.0  0.07901  0.01352  0.06054  1.0000
  C   C102      1.0  0.43467  0.27687  0.21877  1.0000
  H   H109      1.0  0.05505  0.04004  0.23317  1.0000
  C   C103      1.0  0.46716  0.25100  0.23444  1.0000
  C   C104      1.0  0.99808  0.01065  0.19455  1.0000
  H   H110      1.0  0.34062  0.27016  0.23113  1.0000
  H   H111      1.0  0.44077  0.21755  0.21101  1.0000
  C   C105      1.0  0.44522  0.23785  0.21790  1.0000
  S   S24       1.0  0.27497  0.17318  0.98790  1.0000
  C   C106      1.0  0.47923  0.36666  0.25786  1.0000
  Fe  Fe13      1.0  0.18773  0.08236  0.33075  1.0000
  S   S25       1.0  0.18666  0.09602  0.36813  1.0000
  S   S26       1.0  0.19771  0.04734  0.32209  1.0000
  Fe  Fe14      1.0  0.17465  0.12689  0.30781  1.0000
  S   S27       1.0  0.17272  0.14459  0.34330  1.0000
  S   S28       1.0  0.17050  0.14836  0.27394  1.0000
  Fe  Fe15      1.0  0.21118  0.13964  0.35334  1.0000
  S   S29       1.0  0.25164  0.17530  0.36716  1.0000
  Fe  Fe16      1.0  0.14848  0.09957  0.35461  1.0000
  S   S30       1.0  0.10824  0.08118  0.37513  1.0000
  S   S31       1.0  0.21495  0.12555  0.31667  1.0000
  S   S32       1.0  0.14765  0.08217  0.31845  1.0000
  C   C107      1.0  0.28121  0.10187  0.41746  1.0000
  H   H112      1.0  0.00669  0.06710  0.25567  1.0000
  S   S33       1.0  0.33995  0.26196  0.47905  1.0000
  H   H113      1.0  0.34285  0.15333  0.43846  1.0000
  N   N9        1.0  0.28537  0.26998  0.42028  1.0000
  H   H114      1.0  0.19140  0.19929  0.24198  1.0000
  H   H115      1.0  0.35191  0.16099  0.39507  1.0000
  C   C108      1.0  0.48532  0.43327  0.23882  1.0000
  H   H116      1.0  0.29812  0.11583  0.45283  1.0000
  H   H117      1.0  0.26404  0.21148  0.26351  1.0000
  H   H118      1.0  0.31455  0.24227  0.26628  1.0000
  S   S34       1.0  0.38869  0.24631  0.45832  1.0000
  C   C109      1.0  0.17145  0.01468  0.33173  1.0000
  C   C110      1.0  0.42842  0.33909  0.26024  1.0000
  H   H119      1.0  0.45489  0.26729  0.44785  1.0000
  C   C111      1.0  0.47345  0.42551  0.26138  1.0000
  S   S35       1.0  0.31263  0.18274  0.46755  1.0000
  Fe  Fe17      1.0  0.38189  0.28424  0.46137  1.0000
  S   S36       1.0  0.38632  0.30856  0.42717  1.0000
  C   C112      1.0  0.07992  0.00704  0.32181  1.0000
  C   C113      1.0  0.15420  0.01271  0.35088  1.0000
  H   H120      1.0  0.20596  0.16488  0.44007  1.0000
  C   C114      1.0  0.45678  0.35049  0.38828  1.0000
  C   C115      1.0  0.42857  0.33501  0.39494  1.0000
  C   C116      1.0  0.42152  0.32918  0.41913  1.0000
  C   C117      1.0  0.44267  0.33924  0.43664  1.0000
  Fe  Fe18      1.0  0.34811  0.22473  0.47814  1.0000
  H   H121      1.0  0.46211  0.35491  0.36961  1.0000
  H   H122      1.0  0.41228  0.32723  0.38132  1.0000
  H   H123      1.0  0.43736  0.33507  0.45532  1.0000
  H   H124      1.0  0.31907  0.25995  0.42980  1.0000
  C   C118      1.0  0.30200  0.11855  0.43376  1.0000
  C   C119      1.0  0.13780  0.09795  0.25214  1.0000
  C   C120      1.0  0.45799  0.20182  0.46740  1.0000
  C   C121      1.0  0.43635  0.25312  0.35900  1.0000
  C   C122      1.0  0.32732  0.13982  0.42568  1.0000
  C   C123      1.0  0.31197  0.26925  0.41486  1.0000
  H   H125      1.0  0.46022  0.31043  0.24129  1.0000
  H   H126      1.0  0.44413  0.18358  0.45737  1.0000
  C   C124      1.0  0.07613  0.01049  0.39736  1.0000
  C   C125      1.0  0.26335  0.24117  0.42536  1.0000
  H   H127      1.0  0.42943  0.28056  0.42055  1.0000
  C   C126      1.0  0.07858  0.07316  0.35661  1.0000
  C   C127      1.0  0.08159  0.08423  0.33336  1.0000
  H   H128      1.0  0.24046  0.09650  0.34538  1.0000
  H   H129      1.0  0.10218  0.09848  0.32683  1.0000
  C   C128      1.0  0.26851  0.17576  0.39481  1.0000
  C   C129      1.0  0.29514  0.19804  0.39926  1.0000
  C   C130      1.0  0.30875  0.20042  0.42149  1.0000
  C   C131      1.0  0.29597  0.18022  0.43940  1.0000
  C   C132      1.0  0.26970  0.15739  0.43471  1.0000
  C   C133      1.0  0.25597  0.15513  0.41248  1.0000
  H   H130      1.0  0.30524  0.21356  0.38539  1.0000
  H   H131      1.0  0.32922  0.21775  0.42472  1.0000
  H   H132      1.0  0.25974  0.14164  0.44847  1.0000
  H   H133      1.0  0.23545  0.13789  0.40928  1.0000
  C   C134      1.0  0.47784  0.36101  0.40585  1.0000
  H   H134      1.0  0.43821  0.24592  0.34150  1.0000
  C   C135      1.0  0.33225  0.14421  0.40124  1.0000
  H   H135      1.0  0.47735  0.31421  0.27908  1.0000
  H   H136      1.0  0.25760  0.06038  0.34640  1.0000
  C   C136      1.0  0.28537  0.10609  0.39236  1.0000
  C   C137      1.0  0.45796  0.25961  0.37589  1.0000
  H   H137      1.0  0.15657  0.03141  0.35960  1.0000
  H   H138      1.0  0.04916  0.04671  0.38302  1.0000
  H   H139      1.0  0.23843  0.23466  0.39217  1.0000
  H   H140      1.0  0.07921  0.00483  0.30205  1.0000
  H   H141      1.0  0.30511  0.31019  0.43750  1.0000
  H   H142      1.0  0.25038  0.12137  0.36910  1.0000
  H   H143      1.0  0.47600  0.25714  0.37072  1.0000
  H   H144      1.0  0.22745  0.07978  0.39634  1.0000
  H   H145      1.0  0.46912  0.27991  0.29072  1.0000
  H   H146      1.0  0.29272  0.08755  0.34930  1.0000
  N   N10       1.0  0.26359  0.08948  0.37450  1.0000
  H   H147      1.0  0.14193  0.08799  0.26762  1.0000
  H   H148      1.0  0.32934  0.29058  0.41145  1.0000
  C   C138      1.0  0.47420  0.28443  0.44005  1.0000
  C   C139      1.0  0.45511  0.35169  0.27147  1.0000
  H   H149      1.0  0.40598  0.40879  0.24751  1.0000
  H   H150      1.0  0.39600  0.25137  0.35137  1.0000
  C   C140      1.0  0.14863  0.12705  0.25109  1.0000
  C   C141      1.0  0.22162  0.18608  0.43615  1.0000
  H   H151      1.0  0.43569  0.41041  0.28174  1.0000
  C   C142      1.0  0.05783  0.07754  0.31868  1.0000
  H   H152      1.0  0.22054  0.05739  0.37137  1.0000
  H   H153      1.0  0.26188  0.08630  0.42506  1.0000
  C   C143      1.0  0.02793  0.04823  0.35023  1.0000
  H   H154      1.0  0.20334  0.18786  0.40204  1.0000
  C   C144      1.0  0.41267  0.25621  0.36450  1.0000
  C   C145      1.0  0.44488  0.41682  0.26418  1.0000
  H   H155      1.0  0.29941  0.28181  0.45687  1.0000
  H   H156      1.0  0.31651  0.13186  0.36602  1.0000
  C   C146      1.0  0.45658  0.26952  0.39887  1.0000
  C   C147      1.0  0.43222  0.27260  0.40383  1.0000
  C   C148      1.0  0.27833  0.28358  0.39960  1.0000
  C   C149      1.0  0.29004  0.28798  0.44137  1.0000
  H   H157      1.0  0.06032  0.08655  0.30087  1.0000
  C   C150      1.0  0.31174  0.12752  0.38478  1.0000
  H   H158      1.0  0.45699  0.35004  0.29067  1.0000
  H   H159      1.0  0.40994  0.32761  0.27097  1.0000
  C   C151      1.0  0.25733  0.10840  0.35858  1.0000
  C   C152      1.0  0.03095  0.05950  0.32705  1.0000
  H   H160      1.0  0.21989  0.20703  0.26185  1.0000
  H   H161      1.0  0.22022  0.23384  0.24175  1.0000
  H   H162      1.0  0.47168  0.30385  0.43918  1.0000
  S   S37       1.0  0.00349  0.49465  0.31738  1.0000
  H   H163      1.0  0.23930  0.05310  0.39650  1.0000
  H   H164      1.0  0.09336  0.02730  0.40662  1.0000
  H   H165      1.0  0.00175  0.02197  0.26470  1.0000
  H   H166      1.0  0.27946  0.05956  0.37103  1.0000
  H   H167      1.0  0.25789  0.28383  0.40223  1.0000
  C   C153      1.0  0.44722  0.21839  0.47792  1.0000
  C   C154      1.0  0.05167  0.05524  0.36503  1.0000
  H   H168      1.0  0.39236  0.26867  0.39116  1.0000
  C   C155      1.0  0.23664  0.06909  0.38530  1.0000
  C   C156      1.0  0.24397  0.19983  0.45195  1.0000
  H   H169      1.0  0.27562  0.12297  0.34794  1.0000
  C   C157      1.0  0.27386  0.07360  0.35970  1.0000
  H   H170      1.0  0.46746  0.23368  0.42487  1.0000
  H   H171      1.0  0.48637  0.42560  0.27663  1.0000
  C   C158      1.0  0.22012  0.19912  0.41477  1.0000
  H   H172      1.0  0.04856  0.05714  0.25800  1.0000
  C   C159      1.0  0.47072  0.35556  0.43003  1.0000
  C   C160      1.0  0.26470  0.22680  0.44658  1.0000
  C   C161      1.0  0.41060  0.26586  0.38690  1.0000
  H   H173      1.0  0.16251  0.01744  0.24301  1.0000
  H   H174      1.0  0.27739  0.27290  0.38254  1.0000
  C   C162      1.0  0.24064  0.22622  0.40931  1.0000
  H   H175      1.0  0.26999  0.28724  0.44732  1.0000
  H   H176      1.0  0.28212  0.23597  0.45899  1.0000
  H   H177      1.0  0.09654  0.02292  0.36417  1.0000
  H   H178      1.0  0.29456  0.30564  0.39694  1.0000
  H   H179      1.0  0.30966  0.25661  0.39878  1.0000
  C   C163      1.0  0.48660  0.20879  0.46967  1.0000
  C   C164      1.0  0.21464  0.21125  0.24336  1.0000
  H   H180      1.0  0.08093  0.02777  0.32546  1.0000
  H   H181      1.0  0.00729  0.03443  0.35691  1.0000
  C   C165      1.0  0.47353  0.27774  0.24356  1.0000
  C   C166      1.0  0.48593  0.29918  0.28252  1.0000
  H   H182      1.0  0.02745  0.00250  0.32715  1.0000
  C   C167      1.0  0.30349  0.24082  0.24950  1.0000
  H   H183      1.0  0.48692  0.36392  0.44368  1.0000
  H   H184      1.0  0.22856  0.17002  0.24791  1.0000
  S   S38       1.0  0.00162  0.05136  0.30811  1.0000
  C   C168      1.0  0.07758  0.00785  0.37268  1.0000
  C   C169      1.0  0.27457  0.22338  0.24775  1.0000
  N   N11       1.0  0.48013  0.27692  0.41618  1.0000
  C   C170      1.0  0.42803  0.41577  0.24440  1.0000
  H   H185      1.0  0.42514  0.21281  0.47607  1.0000
  C   C171      1.0  0.48659  0.25301  0.41975  1.0000
  H   H186      1.0  0.09995  0.00729  0.32798  1.0000
  C   C172      1.0  0.99969  0.01729  0.24522  1.0000
  H   H187      1.0  0.00692  0.00114  0.24284  1.0000
  H   H188      1.0  0.24582  0.18919  0.46810  1.0000
  H   H189      1.0  0.47885  0.23986  0.23970  1.0000
  H   H190      1.0  0.49147  0.28832  0.45312  1.0000
  C   C173      1.0  0.04604  0.05415  0.23827  1.0000
  S   S39       1.0  0.34811  0.28092  0.54846  1.0000
  Fe  Fe19      1.0  0.38719  0.42914  0.68124  1.0000
  S   S40       1.0  0.34712  0.41283  0.70155  1.0000
  S   S41       1.0  0.42734  0.45613  0.70034  1.0000
  Fe  Fe20      1.0  0.35930  0.40073  0.63486  1.0000
  S   S42       1.0  0.31623  0.38307  0.65089  1.0000
  S   S43       1.0  0.37128  0.39591  0.59698  1.0000
  Fe  Fe21      1.0  0.33046  0.42479  0.66853  1.0000
  S   S44       1.0  0.30168  0.44521  0.67200  1.0000
  Fe  Fe22      1.0  0.33651  0.37307  0.68265  1.0000
  C   C174      1.0  0.45550  0.19202  0.57049  1.0000
  S   S45       1.0  0.37161  0.44382  0.64920  1.0000
  S   S46       1.0  0.37845  0.38792  0.66575  1.0000
  S   S47       1.0  0.36956  0.23345  0.51433  1.0000
  H   H191      1.0  0.42555  0.33201  0.61303  1.0000
  C   C175      1.0  0.30282  0.46417  0.69786  1.0000
  C   C176      1.0  0.32312  0.46954  0.71582  1.0000
  C   C177      1.0  0.39152  0.30686  0.69705  1.0000
  H   H192      1.0  0.44485  0.32833  0.54990  1.0000
  Fe  Fe23      1.0  0.40950  0.25865  0.49437  1.0000
  C   C178      1.0  0.28294  0.47419  0.70039  1.0000
  H   H193      1.0  0.47388  0.30802  0.55827  1.0000
  H   H194      1.0  0.25399  0.39459  0.69486  1.0000
  H   H195      1.0  0.46939  0.24721  0.56786  1.0000
  H   H196      1.0  0.26713  0.47009  0.68659  1.0000
  H   H197      1.0  0.21880  0.33369  0.71261  1.0000
  C   C179      1.0  0.48923  0.22295  0.59850  1.0000
  H   H198      1.0  0.33867  0.46222  0.71402  1.0000
  H   H199      1.0  0.38532  0.47567  0.69425  1.0000
  C   C180      1.0  0.33231  0.32406  0.72407  1.0000
  C   C181      1.0  0.42706  0.30923  0.55730  1.0000
  C   C182      1.0  0.41856  0.35431  0.68237  1.0000
  C   C183      1.0  0.43903  0.40307  0.72735  1.0000
  C   C184      1.0  0.45432  0.30667  0.59288  1.0000
  S   S48       1.0  0.45213  0.26248  0.50542  1.0000
  C   C185      1.0  0.35490  0.31324  0.56146  1.0000
  C   C186      1.0  0.37029  0.33887  0.54971  1.0000
  C   C187      1.0  0.37524  0.36398  0.56088  1.0000
  C   C188      1.0  0.36503  0.36378  0.58392  1.0000
  C   C189      1.0  0.35011  0.33816  0.59583  1.0000
  C   C190      1.0  0.34501  0.31306  0.58460  1.0000
  H   H200      1.0  0.37803  0.33936  0.53190  1.0000
  H   H201      1.0  0.38677  0.38370  0.55153  1.0000
  H   H202      1.0  0.34204  0.33768  0.61350  1.0000
  H   H203      1.0  0.33304  0.29334  0.59383  1.0000
  H   H204      1.0  0.40334  0.26310  0.58496  1.0000
  C   C191      1.0  0.35645  0.34501  0.73482  1.0000
  H   H205      1.0  0.44652  0.35225  0.58834  1.0000
  H   H206      1.0  0.47773  0.23600  0.54085  1.0000
  H   H207      1.0  0.30314  0.28028  0.72402  1.0000
  C   C192      1.0  0.39812  0.32677  0.67875  1.0000
  C   C193      1.0  0.40347  0.28238  0.59192  1.0000
  C   C194      1.0  0.42744  0.33275  0.59327  1.0000
  H   H208      1.0  0.48428  0.19851  0.52688  1.0000
  Fe  Fe24      1.0  0.36441  0.27277  0.51368  1.0000
  N   N12       1.0  0.48396  0.21600  0.57272  1.0000
  H   H209      1.0  0.47281  0.22757  0.60619  1.0000
  H   H210      1.0  0.38373  0.28257  0.58555  1.0000
  H   H211      1.0  0.36459  0.36638  0.72848  1.0000
  H   H212      1.0  0.48958  0.20543  0.60921  1.0000
  S   S49       1.0  0.40586  0.29865  0.49597  1.0000
  H   H213      1.0  0.29307  0.36199  0.72734  1.0000
  N   N13       1.0  0.42863  0.30775  0.58382  1.0000
  S   S50       1.0  0.31418  0.33132  0.70068  1.0000
  H   H214      1.0  0.48785  0.38372  0.70953  1.0000
  H   H215      1.0  0.48615  0.30337  0.64614  1.0000
  H   H216      1.0  0.45273  0.42548  0.73145  1.0000
  C   C195      1.0  0.40544  0.31434  0.71900  1.0000
  H   H217      1.0  0.44395  0.30504  0.63068  1.0000
  H   H218      1.0  0.42659  0.29045  0.54886  1.0000
  H   H219      1.0  0.43939  0.19598  0.57958  1.0000
  H   H220      1.0  0.25956  0.36568  0.68635  1.0000
  H   H221      1.0  0.46956  0.40389  0.67470  1.0000
  C   C196      1.0  0.48298  0.30430  0.62695  1.0000
  H   H222      1.0  0.44830  0.18758  0.55156  1.0000
  H   H223      1.0  0.28752  0.39579  0.69952  1.0000
  C   C197      1.0  0.26461  0.38175  0.70034  1.0000
  C   C198      1.0  0.45988  0.41103  0.68865  1.0000
  H   H224      1.0  0.45506  0.17266  0.57846  1.0000
  H   H225      1.0  0.37521  0.28570  0.69440  1.0000
  C   C199      1.0  0.45891  0.30527  0.61789  1.0000
  H   H226      1.0  0.40761  0.31017  0.55112  1.0000
  N   N14       1.0  0.45229  0.39233  0.71011  1.0000
  N   N15       1.0  0.25662  0.36916  0.72457  1.0000
  H   H227      1.0  0.47826  0.32396  0.71310  1.0000
  C   C200      1.0  0.46494  0.24173  0.49119  1.0000
  H   H228      1.0  0.42242  0.36864  0.66748  1.0000
  C   C201      1.0  0.42540  0.34193  0.72300  1.0000
  C   C202      1.0  0.32178  0.29646  0.73226  1.0000
  H   H229      1.0  0.44133  0.41258  0.68080  1.0000
  H   H230      1.0  0.26302  0.33375  0.71495  1.0000
  H   H231      1.0  0.38676  0.32101  0.66184  1.0000
  C   C203      1.0  0.43255  0.36285  0.70485  1.0000
  H   H232      1.0  0.39996  0.29892  0.73339  1.0000
  C   C204      1.0  0.48414  0.24048  0.55989  1.0000
  C   C205      1.0  0.42641  0.48677  0.70926  1.0000
  H   H233      1.0  0.40193  0.28040  0.61169  1.0000
  H   H234      1.0  0.41882  0.40142  0.72002  1.0000
  H   H235      1.0  0.40893  0.33486  0.58603  1.0000
  C   C206      1.0  0.28332  0.48942  0.72069  1.0000
  C   C207      1.0  0.47540  0.30707  0.57754  1.0000
  C   C208      1.0  0.26980  0.35038  0.72867  1.0000
  H   H236      1.0  0.23895  0.40961  0.72742  1.0000
  C   C209      1.0  0.40264  0.49069  0.70462  1.0000
  H   H237      1.0  0.47506  0.43295  0.69310  1.0000
  C   C210      1.0  0.22573  0.35159  0.72505  1.0000
  H   H238      1.0  0.21411  0.36342  0.71943  1.0000
  C   C211      1.0  0.47878  0.39433  0.72082  1.0000
  C   C212      1.0  0.32355  0.48481  0.73607  1.0000
  H   H239      1.0  0.26761  0.49660  0.72260  1.0000
  C   C213      1.0  0.37859  0.45927  0.76060  1.0000
  H   H240      1.0  0.30807  0.41971  0.79151  1.0000
  S   S51       1.0  0.37630  0.29952  0.78388  1.0000
  H   H241      1.0  0.38808  0.20431  0.90839  1.0000
  H   H242      1.0  0.39437  0.26937  0.85008  1.0000
  C   C214      1.0  0.46404  0.45960  0.82412  1.0000
  H   H243      1.0  0.40078  0.24449  0.83331  1.0000
  S   S52       1.0  0.47630  0.37635  0.84440  1.0000
  C   C215      1.0  0.35954  0.31014  0.76156  1.0000
  Fe  Fe25      1.0  0.41352  0.33127  0.80386  1.0000
  S   S53       1.0  0.40758  0.34668  0.83906  1.0000
  N   N16       1.0  0.35694  0.23307  0.83878  1.0000
  Fe  Fe26      1.0  0.44402  0.38725  0.82768  1.0000
  S   S54       1.0  0.44032  0.42650  0.83565  1.0000
  Fe  Fe27      1.0  0.43989  0.33438  0.85302  1.0000
  S   S55       1.0  0.43624  0.31105  0.88842  1.0000
  S   S56       1.0  0.44686  0.37274  0.79091  1.0000
  S   S57       1.0  0.44355  0.31607  0.81836  1.0000
  C   C216      1.0  0.32070  0.18145  0.88960  1.0000
  C   C217      1.0  0.32524  0.19727  0.86849  1.0000
  H   H244      1.0  0.36218  0.40889  0.78176  1.0000
  S   S58       1.0  0.32087  0.22619  0.93682  1.0000
  C   C218      1.0  0.33960  0.24815  0.83856  1.0000
  H   H245      1.0  0.32581  0.19853  0.81880  1.0000
  C   C219      1.0  0.40406  0.28808  0.90209  1.0000
  C   C220      1.0  0.37848  0.28657  0.89420  1.0000
  C   C221      1.0  0.35325  0.26768  0.90516  1.0000
  C   C222      1.0  0.35332  0.25033  0.92430  1.0000
  C   C223      1.0  0.37899  0.25233  0.93263  1.0000
  C   C224      1.0  0.40420  0.27098  0.92145  1.0000
  H   H246      1.0  0.37815  0.29997  0.87963  1.0000
  H   H247      1.0  0.33351  0.26646  0.89880  1.0000
  H   H248      1.0  0.37932  0.23893  0.94723  1.0000
  H   H249      1.0  0.42390  0.27193  0.92765  1.0000
  H   H250      1.0  0.43763  0.45902  0.78345  1.0000
  H   H251      1.0  0.31674  0.23388  0.83801  1.0000
  H   H252      1.0  0.30697  0.19444  0.85806  1.0000
  H   H253      1.0  0.42013  0.30779  0.95914  1.0000
  C   C225      1.0  0.38654  0.25424  0.83512  1.0000
  H   H254      1.0  0.39734  0.41342  0.78819  1.0000
  H   H255      1.0  0.39702  0.23272  0.87244  1.0000
  C   C226      1.0  0.35272  0.21657  0.86125  1.0000
  H   H256      1.0  0.44329  0.48038  0.84135  1.0000
  C   C227      1.0  0.37058  0.20209  0.89698  1.0000
  C   C228      1.0  0.28061  0.43501  0.77616  1.0000
  H   H257      1.0  0.33941  0.48895  0.74981  1.0000
  H   H258      1.0  0.29951  0.16766  0.89533  1.0000
  H   H259      1.0  0.43442  0.34684  0.74076  1.0000
  H   H260      1.0  0.34390  0.26228  0.82263  1.0000
  Fe  Fe28      1.0  0.31690  0.20292  0.97220  1.0000
  C   C229      1.0  0.37538  0.21840  0.87613  1.0000
  H   H261      1.0  0.32738  0.26795  0.75664  1.0000
  C   C230      1.0  0.28523  0.39550  0.76099  1.0000
  N   N17       1.0  0.39490  0.45128  0.77820  1.0000
  Fe  Fe29      1.0  0.47672  0.35874  0.80821  1.0000
  H   H262      1.0  0.38865  0.48763  0.86617  1.0000
  H   H263      1.0  0.44355  0.33135  0.98098  1.0000
  C   C231      1.0  0.48598  0.46318  0.80900  1.0000
  C   C232      1.0  0.34332  0.18388  0.90383  1.0000
  H   H264      1.0  0.35167  0.22573  0.80084  1.0000
  H   H265      1.0  0.47582  0.38476  0.73901  1.0000
  H   H266      1.0  0.43275  0.44197  0.90767  1.0000
  H   H267      1.0  0.37574  0.43770  0.86051  1.0000
  H   H268      1.0  0.36955  0.31509  0.97066  1.0000
  C   C233      1.0  0.29273  0.41696  0.77754  1.0000
  H   H269      1.0  0.35632  0.45105  0.76602  1.0000
  H   H270      1.0  0.42751  0.45880  0.75288  1.0000
  C   C234      1.0  0.38460  0.42059  0.77660  1.0000
  H   H271      1.0  0.36075  0.20206  0.81777  1.0000
  C   C235      1.0  0.44747  0.46100  0.89766  1.0000
  C   C236      1.0  0.38361  0.44225  0.82262  1.0000
  H   H272      1.0  0.47535  0.34067  0.75357  1.0000
  C   C237      1.0  0.26093  0.43170  0.75827  1.0000
  H   H273      1.0  0.44269  0.45701  0.87828  1.0000
  H   H274      1.0  0.34397  0.26125  0.85466  1.0000
  H   H275      1.0  0.37864  0.42047  0.82165  1.0000
  H   H276      1.0  0.36743  0.28133  0.96857  1.0000
  C   C238      1.0  0.39247  0.46060  0.80238  1.0000
  H   H277      1.0  0.38888  0.26665  0.81839  1.0000
  C   C239      1.0  0.34838  0.21399  0.81815  1.0000
  C   C240      1.0  0.26522  0.39162  0.74242  1.0000
  C   C241      1.0  0.38201  0.45197  0.84527  1.0000
  C   C242      1.0  0.36995  0.33806  0.75383  1.0000
  H   H278      1.0  0.33965  0.17212  0.92051  1.0000
  C   C243      1.0  0.42475  0.46495  0.77110  1.0000
  H   H279      1.0  0.47557  0.48899  0.93542  1.0000
  C   C244      1.0  0.30365  0.49476  0.73864  1.0000
  H   H280      1.0  0.41967  0.34012  0.96413  1.0000
  H   H281      1.0  0.25198  0.44618  0.75704  1.0000
  C   C245      1.0  0.45989  0.48276  0.82950  1.0000
  H   H282      1.0  0.44229  0.47800  0.90249  1.0000
  S   S59       1.0  0.33659  0.17518  0.98282  1.0000
  H   H283      1.0  0.28678  0.45199  0.78868  1.0000
  H   H284      1.0  0.38855  0.35403  0.76220  1.0000
  H   H285      1.0  0.26422  0.33955  0.74638  1.0000
  C   C246      1.0  0.42190  0.32271  0.97333  1.0000
  H   H286      1.0  0.29546  0.38233  0.76307  1.0000
  H   H287      1.0  0.38619  0.41431  0.75806  1.0000
  H   H288      1.0  0.43412  0.48815  0.77111  1.0000
  H   H289      1.0  0.21869  0.34293  0.74334  1.0000
  H   H290      1.0  0.46758  0.42485  0.90885  1.0000
  H   H291      1.0  0.38737  0.48230  0.75825  1.0000
  H   H292      1.0  0.39983  0.26882  0.98686  1.0000
  H   H293      1.0  0.47553  0.43679  0.87881  1.0000
  C   C247      1.0  0.33546  0.28950  0.75076  1.0000
  C   C248      1.0  0.37218  0.29869  0.98120  1.0000
  H   H294      1.0  0.43429  0.39125  0.74456  1.0000
  C   C249      1.0  0.39983  0.48911  0.80637  1.0000
  C   C250      1.0  0.38934  0.48007  0.84850  1.0000
  S   S60       1.0  0.37022  0.48744  0.97297  1.0000
  N   N18       1.0  0.47719  0.46821  0.90309  1.0000
  H   H295      1.0  0.48943  0.44547  0.80477  1.0000
  H   H296      1.0  0.37880  0.45128  0.74246  1.0000
  H   H297      1.0  0.47040  0.45433  0.94007  1.0000
  C   C251      1.0  0.99418  0.48655  0.73809  1.0000
  C   C252      1.0  0.48237  0.47356  0.92912  1.0000
  C   C253      1.0  0.48125  0.44336  0.89773  1.0000
  H   H298      1.0  0.39556  0.35749  0.98745  1.0000
  C   C254      1.0  0.25356  0.41061  0.74145  1.0000
  H   H299      1.0  0.07697  0.92709  0.07990  1.0000
  Fe  Fe30      1.0  0.24046  0.66254  0.00021  1.0000
  S   S61       1.0  0.20291  0.66328  0.01819  1.0000
  S   S62       1.0  0.44190  0.58740  0.03474  1.0000
  S   S63       1.0  0.28495  0.60270  0.02598  1.0000
  H   H300      1.0  0.11908  0.66917  0.04671  1.0000
  H   H301      1.0  0.08572  0.76115  0.03062  1.0000
  S   S64       1.0  0.28338  0.67304  0.01529  1.0000
  C   C255      1.0  0.12527  0.82938  0.19382  1.0000
  H   H302      1.0  0.18694  0.61383  0.05280  1.0000
  S   S65       1.0  0.37387  0.51852  0.02338  1.0000
  C   C256      1.0  0.01525  0.68428  0.07673  1.0000
  H   H303      1.0  0.19172  0.64235  0.12872  1.0000
  H   H304      1.0  0.04842  0.74062  0.08919  1.0000
  H   H305      1.0  0.05208  0.74039  0.04381  1.0000
  H   H306      1.0  0.15065  0.80406  0.99765  1.0000
  H   H307      1.0  0.07860  0.80037  0.04824  1.0000
  H   H308      1.0  0.04219  0.97387  0.05826  1.0000
  H   H309      1.0  0.07835  0.73466  0.09304  1.0000
  H   H310      1.0  0.31906  0.57618  0.04033  1.0000
  Fe  Fe31      1.0  0.09985  0.66767  0.17104  1.0000
  S   S66       1.0  0.11220  0.64989  0.13969  1.0000
  S   S67       1.0  0.08561  0.65194  0.20938  1.0000
  Fe  Fe32      1.0  0.11366  0.72311  0.14441  1.0000
  S   S68       1.0  0.12688  0.71007  0.11117  1.0000
  S   S69       1.0  0.10647  0.76138  0.14811  1.0000
  Fe  Fe33      1.0  0.08968  0.66856  0.11692  1.0000
  S   S70       1.0  0.06817  0.64952  0.08220  1.0000
  Fe  Fe34      1.0  0.14886  0.69248  0.13535  1.0000
  S   S71       1.0  0.19189  0.69887  0.12387  1.0000
  S   S72       1.0  0.07410  0.68265  0.14821  1.0000
  S   S73       1.0  0.13898  0.70922  0.16867  1.0000
  Fe  Fe35      1.0  0.17139  0.91771  0.10675  1.0000
  S   S74       1.0  0.12507  0.90369  0.10445  1.0000
  S   S75       1.0  0.18785  0.88628  0.11555  1.0000
  Fe  Fe36      1.0  0.18605  0.97941  0.09586  1.0000
  S   S76       1.0  0.14044  0.96903  0.09301  1.0000
  H   H311      1.0  0.07736  0.80250  0.08041  1.0000
  Fe  Fe37      1.0  0.13452  0.94190  0.12546  1.0000
  S   S77       1.0  0.10672  0.94168  0.15530  1.0000
  Fe  Fe38      1.0  0.13566  0.93207  0.07235  1.0000
  S   S78       1.0  0.10622  0.91935  0.04081  1.0000
  S   S79       1.0  0.18035  0.95453  0.13013  1.0000
  S   S80       1.0  0.18168  0.94387  0.07266  1.0000
  H   H312      1.0  0.10126  0.65440  0.00771  1.0000
  C   C257      1.0  0.10404  0.88874  0.02844  1.0000
  C   C258      1.0  0.12518  0.88079  0.03302  1.0000
  C   C259      1.0  0.12327  0.85625  0.02314  1.0000
  C   C260      1.0  0.09964  0.83898  0.00959  1.0000
  C   C261      1.0  0.07823  0.84666  0.00535  1.0000
  C   C262      1.0  0.08074  0.87184  0.01435  1.0000
  H   H313      1.0  0.14331  0.89380  0.04377  1.0000
  H   H314      1.0  0.14000  0.85052  0.02622  1.0000
  C   C263      1.0  0.10500  0.67606  0.00299  1.0000
  H   H315      1.0  0.06456  0.87813  0.01044  1.0000
  H   H316      1.0  0.17172  0.57696  0.05893  1.0000
  H   H317      1.0  0.01805  0.85820  0.23370  1.0000
  H   H318      1.0  0.33644  0.54794  0.01786  1.0000
  C   C264      1.0  0.12940  0.79539  0.13775  1.0000
  C   C265      1.0  0.15818  0.80440  0.13516  1.0000
  C   C266      1.0  0.17595  0.83243  0.12875  1.0000
  C   C267      1.0  0.16502  0.85144  0.12436  1.0000
  C   C268      1.0  0.13620  0.84224  0.12687  1.0000
  C   C269      1.0  0.11854  0.81444  0.13365  1.0000
  H   H319      1.0  0.16680  0.78994  0.13843  1.0000
  H   H320      1.0  0.19823  0.83936  0.12685  1.0000
  H   H321      1.0  0.12751  0.85658  0.12386  1.0000
  H   H322      1.0  0.09635  0.80773  0.13590  1.0000
  C   C270      1.0  0.04620  0.66329  0.07084  1.0000
  Fe  Fe39      1.0  0.00336  0.72520  0.00802  1.0000
  C   C271      1.0  0.03350  0.67424  0.08611  1.0000
  Fe  Fe40      1.0  0.41759  0.54932  0.01214  1.0000
  H   H323      1.0  0.03692  0.67406  0.10521  1.0000
  C   C272      1.0  0.06126  0.61884  0.22112  1.0000
  C   C273      1.0  0.05445  0.59383  0.20938  1.0000
  H   H324      1.0  0.05017  0.65368  0.03446  1.0000
  C   C274      1.0  0.99643  0.90106  0.02509  1.0000
  N   N19       1.0  0.21568  0.59932  0.06797  1.0000
  H   H325      1.0  0.06301  0.59443  0.19189  1.0000
  H   H326      1.0  0.13954  0.84201  0.17918  1.0000
  H   H327      1.0  0.24588  0.62373  0.04144  1.0000
  H   H328      1.0  0.01023  0.89548  0.11310  1.0000
  C   C275      1.0  0.13130  0.81196  0.06851  1.0000
  C   C276      1.0  0.02160  0.91141  0.19786  1.0000
  H   H329      1.0  0.10797  0.81087  0.18529  1.0000
  C   C277      1.0  0.32396  0.55647  0.00880  1.0000
  S   S81       1.0  0.44452  0.74495  0.03260  1.0000
  H   H330      1.0  0.03253  0.54877  0.21149  1.0000
  C   C278      1.0  0.31401  0.57233  0.02151  1.0000
  C   C279      1.0  0.19920  0.60835  0.14174  1.0000
  H   H331      1.0  0.25909  0.62955  0.07154  1.0000
  C   C280      1.0  0.06202  0.91821  0.09496  1.0000
  H   H332      1.0  0.12204  0.82593  0.06601  1.0000
  C   C281      1.0  0.11757  0.73309  0.99511  1.0000
  C   C282      1.0  0.10406  0.91529  0.22423  1.0000
  C   C283      1.0  0.39880  0.62007  0.02017  1.0000
  H   H333      1.0  0.00384  0.80921  0.16274  1.0000
  C   C284      1.0  0.41575  0.73965  0.01398  1.0000
  C   C285      1.0  0.38857  0.72218  0.02190  1.0000
  C   C286      1.0  0.36526  0.71683  0.00708  1.0000
  H   H334      1.0  0.38561  0.71277  0.03957  1.0000
  H   H335      1.0  0.34440  0.70321  0.01334  1.0000
  C   C287      1.0  0.20088  0.67348  0.04772  1.0000
  C   C288      1.0  0.17423  0.66468  0.05767  1.0000
  C   C289      1.0  0.17130  0.67280  0.08075  1.0000
  C   C290      1.0  0.19509  0.68942  0.09438  1.0000
  C   C291      1.0  0.22182  0.69786  0.08465  1.0000
  C   C292      1.0  0.22474  0.69009  0.06133  1.0000
  H   H336      1.0  0.15566  0.65116  0.04764  1.0000
  H   H337      1.0  0.15062  0.66577  0.08819  1.0000
  H   H338      1.0  0.24033  0.71066  0.09513  1.0000
  H   H339      1.0  0.24541  0.69713  0.05388  1.0000
  C   C293      1.0  0.13577  0.90312  0.20308  1.0000
  C   C294      1.0  0.13109  0.91499  0.18197  1.0000
  C   C295      1.0  0.11303  0.92723  0.18190  1.0000
  C   C296      1.0  0.09982  0.92774  0.20315  1.0000
  H   H340      1.0  0.11877  0.74401  0.07437  1.0000
  H   H341      1.0  0.15011  0.89411  0.20291  1.0000
  H   H342      1.0  0.14145  0.91453  0.16572  1.0000
  H   H343      1.0  0.08642  0.93785  0.20334  1.0000
  H   H344      1.0  0.23645  0.64387  0.06070  1.0000
  H   H345      1.0  0.16981  0.76672  0.07978  1.0000
  H   H346      1.0  0.21772  0.56792  0.10850  1.0000
  C   C297      1.0  0.15904  0.77931  0.07621  1.0000
  H   H347      1.0  0.22574  0.57416  0.04409  1.0000
  H   H348      1.0  0.07820  0.76462  0.10608  1.0000
  H   H349      1.0  0.09298  0.77050  0.21073  1.0000
  C   C298      1.0  0.12983  0.76651  0.07346  1.0000
  C   C299      1.0  0.07511  0.74956  0.04716  1.0000
  H   H350      1.0  0.05478  0.93384  0.09949  1.0000
  C   C300      1.0  0.15838  0.74909  0.02135  1.0000
  C   C301      1.0  0.00635  0.84268  0.18482  1.0000
  C   C302      1.0  0.38256  0.65191  0.03501  1.0000
  C   C303      1.0  0.35554  0.65084  0.03378  1.0000
  C   C304      1.0  0.39698  0.65917  0.05736  1.0000
  C   C305      1.0  0.34400  0.65700  0.05362  1.0000
  C   C306      1.0  0.38536  0.66555  0.07702  1.0000
  C   C307      1.0  0.35891  0.66448  0.07515  1.0000
  C   C308      1.0  0.47314  0.64411  0.03038  1.0000
  H   H351      1.0  0.02036  0.67436  0.01755  1.0000
  H   H352      1.0  0.17325  0.70580  0.02077  1.0000
  Fe  Fe41      1.0  0.48527  0.76160  0.01308  1.0000
  S   S82       1.0  0.43033  0.51639  0.00205  1.0000
  H   H353      1.0  0.34998  0.66952  0.09038  1.0000
  C   C309      1.0  0.01159  0.91220  0.06622  1.0000
  C   C310      1.0  0.20249  0.62280  0.10021  1.0000
  C   C311      1.0  0.10611  0.98846  0.03570  1.0000
  H   H354      1.0  0.34281  0.64534  0.01769  1.0000
  H   H355      1.0  0.41743  0.66003  0.05979  1.0000
  H   H356      1.0  0.32335  0.65601  0.05216  1.0000
  H   H357      1.0  0.39701  0.67147  0.09376  1.0000
  H   H358      1.0  0.43357  0.66535  0.99383  1.0000
  C   C312      1.0  0.16056  0.82453  0.07058  1.0000
  C   C313      1.0  0.17439  0.80828  0.07468  1.0000
  H   H359      1.0  0.17252  0.84715  0.06992  1.0000
  H   H360      1.0  0.19698  0.81829  0.07716  1.0000
  N   N20       1.0  0.12971  0.69731  0.01606  1.0000
  C   C314      1.0  0.99774  0.91546  0.04583  1.0000
  C   C315      1.0  0.15071  0.80274  0.20162  1.0000
  N   N21       1.0  0.03850  0.89079  0.08854  1.0000
  C   C316      1.0  0.20654  0.58756  0.13570  1.0000
  H   H361      1.0  0.00759  0.87188  0.00858  1.0000
  C   C317      1.0  0.02414  0.67451  0.03664  1.0000
  H   H362      1.0  0.04663  0.88174  0.21488  1.0000
  H   H363      1.0  0.13375  0.78428  0.19283  1.0000
  C   C318      1.0  0.06424  0.98564  0.05397  1.0000
  C   C319      1.0  0.01844  0.88061  0.10862  1.0000
  C   C320      1.0  0.07784  0.97305  0.04183  1.0000
  C   C321      1.0  0.15455  0.69378  0.00924  1.0000
  C   C322      1.0  0.09706  0.78016  0.22810  1.0000
  H   H364      1.0  0.00005  0.86044  0.10413  1.0000
  H   H365      1.0  0.15947  0.86279  0.22694  1.0000
  H   H366      1.0  0.10701  0.69509  0.04806  1.0000
  H   H367      1.0  0.43850  0.67301  0.02471  1.0000
  H   H368      1.0  0.06001  0.83349  0.99474  1.0000
  C   C323      1.0  0.04118  0.66308  0.04615  1.0000
  H   H369      1.0  0.41260  0.62284  0.03605  1.0000
  C   C324      1.0  0.19722  0.62597  0.12402  1.0000
  C   C325      1.0  0.42348  0.66914  0.00961  1.0000
  C   C326      1.0  0.37857  0.64012  0.99198  1.0000
  C   C327      1.0  0.46410  0.61828  0.01922  1.0000
  C   C328      1.0  0.07162  0.78794  0.06512  1.0000
  Fe  Fe42      1.0  0.27485  0.63085  0.00184  1.0000
  H   H370      1.0  0.19514  0.61096  0.16019  1.0000
  H   H371      1.0  0.17250  0.74557  0.03345  1.0000
  C   C329      1.0  0.19109  0.59539  0.05278  1.0000
  C   C330      1.0  0.22192  0.57561  0.06343  1.0000
  H   H372      1.0  0.11591  0.84209  0.20157  1.0000
  H   H373      1.0  0.04828  0.77670  0.06424  1.0000
  H   H374      1.0  0.20820  0.57399  0.14960  1.0000
  C   C331      1.0  0.07176  0.75130  0.08997  1.0000
  H   H375      1.0  0.24149  0.57823  0.07287  1.0000
  C   C332      1.0  0.02244  0.87962  0.04509  1.0000
  N   N22       1.0  0.08395  0.76828  0.06806  1.0000
  C   C333      1.0  0.24030  0.62528  0.06016  1.0000
  H   H376      1.0  0.19434  0.59234  0.03368  1.0000
  C   C334      1.0  0.11499  0.78244  0.07001  1.0000
  C   C335      1.0  0.02419  0.89400  0.06658  1.0000
  C   C336      1.0  0.02774  0.87912  0.22469  1.0000
  S   S83       1.0  0.01982  0.77018  0.01721  1.0000
  Fe  Fe43      1.0  0.05210  0.77767  0.98967  1.0000
  H   H377      1.0  0.16083  0.79488  0.21533  1.0000
  H   H378      1.0  0.15056  0.67161  0.01076  1.0000
  C   C337      1.0  0.12189  0.90271  0.22417  1.0000
  H   H379      1.0  0.03339  0.84943  0.08165  1.0000
  H   H380      1.0  0.42195  0.68891  0.00646  1.0000
  H   H381      1.0  0.03854  0.91329  0.18560  1.0000
  N   N23       1.0  0.39545  0.64543  0.01444  1.0000
  H   H382      1.0  0.06635  0.87761  0.07182  1.0000
  H   H383      1.0  0.20419  0.55525  0.06876  1.0000
  H   H384      1.0  0.16627  0.81377  0.18730  1.0000
  H   H385      1.0  0.37824  0.60183  0.02418  1.0000
  H   H386      1.0  0.46669  0.64477  0.04846  1.0000
  H   H387      1.0  0.18195  0.79383  0.02477  1.0000
  C   C338      1.0  0.29749  0.58309  0.00992  1.0000
  H   H388      1.0  0.14340  0.70434  0.05319  1.0000
  H   H389      1.0  0.06069  0.86865  0.10279  1.0000
  H   H390      1.0  0.07997  0.73167  0.04960  1.0000
  C   C339      1.0  0.12469  0.69133  0.04204  1.0000
  H   H391      1.0  0.08547  0.67724  0.00754  1.0000
  H   H392      1.0  0.20092  0.63714  0.08721  1.0000
  C   C340      1.0  0.21191  0.58426  0.11189  1.0000
  H   H393      1.0  0.07406  0.91649  0.11084  1.0000
  C   C341      1.0  0.03722  0.56795  0.22060  1.0000
  C   C342      1.0  0.20988  0.60182  0.09334  1.0000
  S   S84       1.0  0.23115  0.61924  0.98898  1.0000
  C   C343      1.0  0.05017  0.87068  0.08602  1.0000
  H   H394      1.0  0.03117  0.86520  0.04351  1.0000
  C   C344      1.0  0.99598  0.86222  0.18934  1.0000
  C   C345      1.0  0.01081  0.68472  0.05200  1.0000
  H   H395      1.0  0.03124  0.92772  0.21173  1.0000
  H   H396      1.0  0.40834  0.61419  0.00518  1.0000
  C   C346      1.0  0.99573  0.82399  0.16583  1.0000
  C   C347      1.0  0.47262  0.61753  0.99590  1.0000
  N   N24       1.0  0.14035  0.82122  0.21243  1.0000
  H   H397      1.0  0.16066  0.70071  0.99042  1.0000
  H   H398      1.0  0.11529  0.97729  0.02639  1.0000
  C   C348      1.0  0.13500  0.72637  0.01076  1.0000
  H   H399      1.0  0.17994  0.85735  0.20500  1.0000
  C   C349      1.0  0.16540  0.84696  0.22013  1.0000
  H   H400      1.0  0.02832  0.87732  0.12531  1.0000
  N   N25       1.0  0.00724  0.88299  0.20868  1.0000
  H   H401      1.0  0.00469  0.69185  0.08868  1.0000
  H   H402      1.0  0.01227  0.92402  0.08177  1.0000
  H   H403      1.0  0.02261  0.84135  0.19569  1.0000
  H   H404      1.0  0.06646  0.95122  0.03694  1.0000
  S   S85       1.0  0.09663  0.80727  0.99907  1.0000
  H   H405      1.0  0.00687  0.91679  0.18725  1.0000
  C   C350      1.0  0.00891  0.88334  0.02468  1.0000
  H   H406      1.0  0.35779  0.62135  0.99381  1.0000
  C   C351      1.0  0.12078  0.80636  0.23215  1.0000
  C   C352      1.0  0.41961  0.75221  0.99126  1.0000
  C   C353      1.0  0.14649  0.78260  0.00118  1.0000
  H   H407      1.0  0.17753  0.84226  0.23435  1.0000
  C   C354      1.0  0.16400  0.77676  0.01651  1.0000
  C   C355      1.0  0.12345  0.76083  0.99043  1.0000
  H   H408      1.0  0.15660  0.99347  0.17032  1.0000
  C   C356      1.0  0.49028  0.66910  0.01818  1.0000
  H   H409      1.0  0.15804  0.98307  0.21237  1.0000
  Fe  Fe44      1.0  0.07047  0.83445  0.32118  1.0000
  S   S86       1.0  0.05793  0.83868  0.28312  1.0000
  S   S87       1.0  0.07116  0.79440  0.33462  1.0000
  Fe  Fe45      1.0  0.09034  0.89626  0.33045  1.0000
  S   S88       1.0  0.08027  0.90578  0.29340  1.0000
  Fe  Fe46      1.0  0.04051  0.86598  0.29804  1.0000
  H   H410      1.0  0.09372  0.91558  0.24053  1.0000
  Fe  Fe47      1.0  0.09851  0.87811  0.28139  1.0000
  H   H411      1.0  0.03194  0.71754  0.33513  1.0000
  S   S89       1.0  0.04909  0.85810  0.33620  1.0000
  S   S90       1.0  0.11257  0.87225  0.31833  1.0000
  S   S91       1.0  0.05204  0.53939  0.36802  1.0000
  Fe  Fe48      1.0  0.04208  0.70126  0.45034  1.0000
  H   H412      1.0  0.05484  0.63682  0.25299  1.0000
  S   S92       1.0  0.03739  0.73963  0.43869  1.0000
  Fe  Fe49      1.0  0.06919  0.66433  0.44096  1.0000
  C   C357      1.0  0.09564  0.63872  0.29022  1.0000
  S   S93       1.0  0.09951  0.65576  0.41978  1.0000
  C   C358      1.0  0.10363  0.59308  0.27351  1.0000
  H   H413      1.0  0.12612  0.82803  0.37969  1.0000
  C   C359      1.0  0.13920  0.88314  0.38587  1.0000
  H   H414      1.0  0.00616  0.87464  0.33501  1.0000
  S   S94       1.0  0.08303  0.70296  0.46307  1.0000
  C   C360      1.0  0.06377  0.57096  0.38344  1.0000
  C   C361      1.0  0.04563  0.58216  0.38924  1.0000
  C   C362      1.0  0.05621  0.60795  0.40102  1.0000
  C   C363      1.0  0.08502  0.62288  0.40619  1.0000
  C   C364      1.0  0.10300  0.61174  0.40007  1.0000
  C   C365      1.0  0.09236  0.58571  0.38910  1.0000
  H   H415      1.0  0.02350  0.57085  0.38487  1.0000
  H   H416      1.0  0.04219  0.61646  0.40574  1.0000
  H   H417      1.0  0.12524  0.62321  0.40394  1.0000
  H   H418      1.0  0.06640  0.76721  0.28282  1.0000
  H   H419      1.0  0.02442  0.59131  0.27265  1.0000
  C   C366      1.0  0.10630  0.83395  0.43613  1.0000
  H   H420      1.0  0.13997  0.90301  0.37874  1.0000
  H   H421      1.0  0.03708  0.93905  0.33554  1.0000
  H   H422      1.0  0.07975  0.67927  0.32665  1.0000
  H   H423      1.0  0.08646  0.87509  0.37678  1.0000
  H   H424      1.0  0.10906  0.58527  0.33353  1.0000
  C   C367      1.0  0.02964  0.98366  0.32224  1.0000
  C   C368      1.0  0.10697  0.62311  0.48414  1.0000
  H   H425      1.0  0.12132  0.98488  0.37430  1.0000
  C   C369      1.0  0.03123  0.96842  0.37316  1.0000
  C   C370      1.0  0.06141  0.77936  0.36358  1.0000
  C   C371      1.0  0.06897  0.75861  0.37125  1.0000
  C   C372      1.0  0.06150  0.74604  0.39410  1.0000
  C   C373      1.0  0.04662  0.75435  0.40960  1.0000
  C   C374      1.0  0.03900  0.77503  0.40190  1.0000
  C   C375      1.0  0.04604  0.78723  0.37889  1.0000
  H   H426      1.0  0.08070  0.75224  0.35947  1.0000
  H   H427      1.0  0.06743  0.73009  0.39979  1.0000
  H   H428      1.0  0.12048  0.57207  0.30942  1.0000
  H   H429      1.0  0.03924  0.80244  0.37289  1.0000
  H   H430      1.0  0.01340  0.95163  0.36470  1.0000
  H   H431      1.0  0.08943  0.84403  0.37042  1.0000
  C   C376      1.0  0.12162  0.82435  0.39855  1.0000
  H   H432      1.0  0.12995  0.89347  0.43146  1.0000
  C   C377      1.0  0.11244  0.88681  0.41816  1.0000
  H   H433      1.0  0.09207  0.87765  0.42768  1.0000
  H   H434      1.0  0.13583  0.60924  0.31400  1.0000
  C   C378      1.0  0.14756  0.96406  0.32829  1.0000
  C   C379      1.0  0.06776  0.56495  0.30116  1.0000
  C   C380      1.0  0.12128  0.80022  0.40870  1.0000
  C   C381      1.0  0.11475  0.84234  0.41211  1.0000
  H   H435      1.0  0.11375  0.90608  0.40909  1.0000
  H   H436      1.0  0.05991  0.74613  0.24269  1.0000
  H   H437      1.0  0.12603  0.78651  0.39784  1.0000
  C   C382      1.0  0.13091  0.96205  0.34789  1.0000
  H   H438      1.0  0.06961  0.54655  0.29443  1.0000
  H   H439      1.0  0.10296  0.64004  0.27214  1.0000
  C   C383      1.0  0.03275  0.59177  0.25510  1.0000
  H   H440      1.0  0.15879  0.88849  0.39641  1.0000
  H   H441      1.0  0.18136  0.99179  0.30561  1.0000
  S   S95       1.0  0.04707  0.63502  0.47098  1.0000
  N   N26       1.0  0.05522  0.98404  0.33347  1.0000
  N   N27       1.0  0.09425  0.59124  0.29860  1.0000
  H   H442      1.0  0.10674  0.81287  0.29077  1.0000
  S   S96       1.0  0.10609  0.92928  0.35868  1.0000
  H   H443      1.0  0.13961  0.87172  0.36971  1.0000
  C   C384      1.0  0.08871  0.85729  0.38513  1.0000
  H   H444      1.0  0.14501  0.94536  0.31944  1.0000
  C   C385      1.0  0.05002  0.61760  0.24390  1.0000
  H   H445      1.0  0.14354  0.64705  0.45090  1.0000
  H   H446      1.0  0.02726  0.78137  0.41370  1.0000
  H   H447      1.0  0.08794  0.59402  0.26059  1.0000
  H   H448      1.0  0.05034  0.56628  0.29108  1.0000
  H   H449      1.0  0.03001  0.98307  0.30240  1.0000
  C   C386      1.0  0.07647  0.63898  0.33626  1.0000
  C   C387      1.0  0.11303  0.79267  0.43229  1.0000
  H   H450      1.0  0.01005  0.96510  0.32772  1.0000
  C   C388      1.0  0.02656  0.56675  0.24363  1.0000
  C   C389      1.0  0.11587  0.58942  0.31454  1.0000
  H   H451      1.0  0.12421  0.61171  0.27049  1.0000
  H   H452      1.0  0.11136  0.77318  0.43972  1.0000
  H   H453      1.0  0.06937  0.63921  0.35426  1.0000
  N   N28       1.0  0.11392  0.86708  0.40071  1.0000
  C   C390      1.0  0.10542  0.80940  0.44592  1.0000
  C   C391      1.0  0.00394  0.70050  0.36478  1.0000
  C   C392      1.0  0.08980  0.61533  0.30561  1.0000
  H   H454      1.0  0.09851  0.62203  0.46557  1.0000
  C   C393      1.0  0.05575  0.95738  0.32834  1.0000
  C   C394      1.0  0.08145  0.77784  0.26879  1.0000
  H   H455      1.0  0.10632  0.57450  0.26864  1.0000
  H   H456      1.0  0.06114  0.55991  0.32006  1.0000
  C   C395      1.0  0.16813  0.99034  0.32049  1.0000
  S   S97       1.0  0.00163  0.86763  0.28364  1.0000
  Fe  Fe50      1.0  0.01154  0.52467  0.34731  1.0000
  C   C396      1.0  0.09179  0.66135  0.29777  1.0000
  H   H457      1.0  0.03545  0.89470  0.23932  1.0000
  H   H458      1.0  0.10645  0.57719  0.38460  1.0000
  H   H459      1.0  0.11901  0.67331  0.46572  1.0000
  H   H460      1.0  0.09790  0.80274  0.46395  1.0000
  C   C397      1.0  0.07999  0.61618  0.32879  1.0000
  H   H461      1.0  0.09945  0.84550  0.44752  1.0000
  H   H462      1.0  0.06927  0.84465  0.39544  1.0000
  H   H463      1.0  0.14049  0.83795  0.26003  1.0000
  Fe  Fe51      1.0  0.00879  0.63821  0.45765  1.0000
  S   S98       1.0  0.03059  0.66511  0.42580  1.0000
  H   H464      1.0  0.07453  0.95677  0.33666  1.0000
  C   C398      1.0  0.10431  0.80361  0.27329  1.0000
  C   C399      1.0  0.02996  0.97122  0.39781  1.0000
  C   C400      1.0  0.05481  0.98703  0.35970  1.0000
  H   H465      1.0  0.07519  0.59922  0.34142  1.0000
  H   H466      1.0  0.09621  0.67885  0.28562  1.0000
  C   C401      1.0  0.13427  0.98638  0.35920  1.0000
  S   S99       1.0  0.12715  0.88611  0.24993  1.0000
  C   C402      1.0  0.01757  0.69863  0.34448  1.0000
  H   H467      1.0  0.02321  0.67109  0.32042  1.0000
  S   S100      1.0  0.01734  0.67436  0.48158  1.0000
  H   H468      1.0  0.00778  0.72087  0.37109  1.0000
  C   C403      1.0  0.01266  0.67251  0.33628  1.0000
  C   C404      1.0  0.08236  0.66155  0.32077  1.0000
  H   H469      1.0  0.17231  0.67084  0.46814  1.0000
  H   H470      1.0  0.05611  0.95412  0.30880  1.0000
  H   H471      1.0  0.16027  0.63386  0.47238  1.0000
  C   C405      1.0  0.12372  0.81779  0.25535  1.0000
  S   S101      1.0  0.00626  0.53353  0.25744  1.0000
  C   C406      1.0  0.15334  0.65027  0.46913  1.0000
  C   C407      1.0  0.99341  0.88386  0.32789  1.0000
  H   H472      1.0  0.01132  0.95707  0.40746  1.0000
  S   S102      1.0  0.00199  0.55487  0.32557  1.0000
  H   H473      1.0  0.05110  0.99482  0.42892  1.0000
  C   C408      1.0  0.12727  0.67307  0.48405  1.0000
  C   C409      1.0  0.07784  0.76610  0.24624  1.0000
  H   H474      1.0  0.14610  0.69352  0.48649  1.0000
  C   C410      1.0  0.99383  0.64819  0.34820  1.0000
  C   C411      1.0  0.05231  0.99235  0.40988  1.0000
  H   H475      1.0  0.11012  0.60421  0.48711  1.0000
  H   H476      1.0  0.99215  0.89571  0.23930  1.0000
  S   S103      1.0  0.07071  0.67137  0.53166  1.0000
  Fe  Fe52      1.0  0.20152  0.71380  0.62475  1.0000
  S   S104      1.0  0.22327  0.74916  0.65066  1.0000
  S   S105      1.0  0.18889  0.72383  0.58771  1.0000
  Fe  Fe53      1.0  0.20598  0.67208  0.65987  1.0000
  S   S106      1.0  0.22630  0.70323  0.68875  1.0000
  S   S107      1.0  0.19777  0.62825  0.66851  1.0000
  Fe  Fe54      1.0  0.19517  0.71849  0.67795  1.0000
  S   S108      1.0  0.17648  0.73273  0.70695  1.0000
  Fe  Fe55      1.0  0.25294  0.73103  0.65950  1.0000
  S   S109      1.0  0.30041  0.75436  0.66464  1.0000
  S   S110      1.0  0.17166  0.68418  0.65191  1.0000
  S   S111      1.0  0.23422  0.69864  0.63075  1.0000
  H   H477      1.0  0.45671  0.68894  0.73463  1.0000
  H   H478      1.0  0.40380  0.58543  0.69397  1.0000
  N   N29       1.0  0.13898  0.62072  0.72557  1.0000
  H   H479      1.0  0.11097  0.61517  0.52887  1.0000
  N   N30       1.0  0.38119  0.70861  0.71755  1.0000
  H   H480      1.0  0.17987  0.65942  0.57616  1.0000
  C   C412      1.0  0.36415  0.60725  0.69776  1.0000
  C   C413      1.0  0.08883  0.60927  0.71320  1.0000
  H   H481      1.0  0.14041  0.61002  0.67789  1.0000
  C   C414      1.0  0.18511  0.67582  0.54024  1.0000
  C   C415      1.0  0.08902  0.73454  0.56995  1.0000
  C   C416      1.0  0.14266  0.70911  0.71632  1.0000
  H   H482      1.0  0.11276  0.75222  0.65742  1.0000
  S   S112      1.0  0.30018  0.62975  0.72780  1.0000
  C   C417      1.0  0.37443  0.52944  0.65802  1.0000
  C   C418      1.0  0.30186  0.75627  0.71427  1.0000
  C   C419      1.0  0.31718  0.76169  0.69317  1.0000
  C   C420      1.0  0.34664  0.77342  0.69472  1.0000
  H   H483      1.0  0.13276  0.62063  0.56809  1.0000
  S   S113      1.0  0.47761  0.76807  0.73679  1.0000
  H   H484      1.0  0.27930  0.74789  0.71331  1.0000
  H   H485      1.0  0.35870  0.77808  0.67848  1.0000
  C   C421      1.0  0.42314  0.53341  0.72751  1.0000
  C   C422      1.0  0.16228  0.64810  0.71858  1.0000
  H   H486      1.0  0.41690  0.55832  0.66727  1.0000
  C   C423      1.0  0.31586  0.76243  0.73661  1.0000
  H   H487      1.0  0.34913  0.67222  0.70039  1.0000
  C   C424      1.0  0.12301  0.69053  0.70028  1.0000
  C   C425      1.0  0.39489  0.55279  0.66946  1.0000
  H   H488      1.0  0.08374  0.61359  0.73062  1.0000
  H   H489      1.0  0.12857  0.69023  0.68192  1.0000
  C   C426      1.0  0.22697  0.62826  0.68333  1.0000
  C   C427      1.0  0.25330  0.65179  0.68257  1.0000
  C   C428      1.0  0.27613  0.65183  0.69547  1.0000
  H   H490      1.0  0.38052  0.69096  0.68329  1.0000
  C   C429      1.0  0.13186  0.63208  0.53096  1.0000
  C   C430      1.0  0.22355  0.60484  0.69691  1.0000
  H   H491      1.0  0.25617  0.66993  0.67192  1.0000
  H   H492      1.0  0.29635  0.67016  0.69492  1.0000
  H   H493      1.0  0.20325  0.58661  0.69759  1.0000
  C   C431      1.0  0.10402  0.68582  0.54660  1.0000
  C   C432      1.0  0.10604  0.67593  0.56972  1.0000
  C   C433      1.0  0.13175  0.68716  0.58255  1.0000
  C   C434      1.0  0.15582  0.70868  0.57245  1.0000
  C   C435      1.0  0.15379  0.71866  0.54937  1.0000
  C   C436      1.0  0.12810  0.70736  0.53652  1.0000
  H   H494      1.0  0.08754  0.65944  0.57779  1.0000
  H   H495      1.0  0.13292  0.67905  0.60017  1.0000
  H   H496      1.0  0.17222  0.73536  0.54142  1.0000
  H   H497      1.0  0.12682  0.71579  0.51908  1.0000
  C   C437      1.0  0.39427  0.69254  0.72965  1.0000
  H   H498      1.0  0.35584  0.70480  0.68607  1.0000
  C   C438      1.0  0.36116  0.57510  0.72974  1.0000
  C   C439      1.0  0.09578  0.67258  0.70797  1.0000
  H   H499      1.0  0.38444  0.58542  0.73093  1.0000
  H   H500      1.0  0.04715  0.59956  0.70067  1.0000
  C   C440      1.0  0.17073  0.65672  0.55833  1.0000
  H   H501      1.0  0.38330  0.78878  0.71805  1.0000
  H   H502      1.0  0.35381  0.55279  0.73518  1.0000
  C   C441      1.0  0.06747  0.60132  0.69590  1.0000
  C   C442      1.0  0.34615  0.52166  0.66157  1.0000
  H   H503      1.0  0.24287  0.58724  0.72106  1.0000
  C   C443      1.0  0.24617  0.60511  0.71012  1.0000
  H   H504      1.0  0.41570  0.74893  0.72548  1.0000
  H   H505      1.0  0.38745  0.61708  0.69891  1.0000
  H   H506      1.0  0.39188  0.74986  0.70288  1.0000
  H   H507      1.0  0.17528  0.79709  0.62023  1.0000
  H   H508      1.0  0.41584  0.73718  0.69554  1.0000
  H   H509      1.0  0.38048  0.51698  0.64676  1.0000
  N   N31       1.0  0.35088  0.57740  0.70538  1.0000
  H   H510      1.0  0.18006  0.65507  0.73158  1.0000
  C   C444      1.0  0.42295  0.69919  0.72647  1.0000
  H   H511      1.0  0.15197  0.72095  0.62694  1.0000
  C   C445      1.0  0.35848  0.56098  0.68870  1.0000
  C   C446      1.0  0.44688  0.52945  0.73207  1.0000
  H   H512      1.0  0.13209  0.57823  0.72999  1.0000
  C   C447      1.0  0.14615  0.65103  0.51198  1.0000
  H   H513      1.0  0.31585  0.52947  0.67889  1.0000
  H   H514      1.0  0.05690  0.70761  0.59398  1.0000
  H   H515      1.0  0.10287  0.59648  0.64808  1.0000
  H   H516      1.0  0.18717  0.78147  0.64344  1.0000
  H   H517      1.0  0.33030  0.50312  0.65296  1.0000
  H   H518      1.0  0.20529  0.69338  0.54427  1.0000
  H   H519      1.0  0.14789  0.77345  0.66695  1.0000
  H   H520      1.0  0.18361  0.76883  0.61379  1.0000
  C   C448      1.0  0.33813  0.53708  0.67666  1.0000
  C   C449      1.0  0.32016  0.56795  0.70678  1.0000
  C   C450      1.0  0.12028  0.60764  0.68359  1.0000
  H   H521      1.0  0.15518  0.66454  0.71757  1.0000
  H   H522      1.0  0.12353  0.71422  0.64661  1.0000
  H   H523      1.0  0.21953  0.63881  0.73752  1.0000
  H   H524      1.0  0.17085  0.64758  0.70082  1.0000
  C   C451      1.0  0.40209  0.73727  0.71014  1.0000
  H   H525      1.0  0.38232  0.51656  0.71062  1.0000
  H   H526      1.0  0.15876  0.73447  0.65682  1.0000
  H   H527      1.0  0.07528  0.72806  0.55434  1.0000
  C   C452      1.0  0.14954  0.59953  0.72669  1.0000
  H   H528      1.0  0.08768  0.72048  0.62921  1.0000
  C   C453      1.0  0.27249  0.62857  0.70953  1.0000
  C   C454      1.0  0.43465  0.68313  0.73725  1.0000
  H   H529      1.0  0.15714  0.77507  0.58392  1.0000
  H   H530      1.0  0.13210  0.78653  0.64443  1.0000
  Fe  Fe56      1.0  0.05790  0.67342  0.49249  1.0000
  H   H531      1.0  0.43694  0.71680  0.71568  1.0000
  C   C455      1.0  0.38712  0.56827  0.68470  1.0000
  H   H532      1.0  0.12522  0.76205  0.54994  1.0000
  N   N32       1.0  0.14424  0.75619  0.63179  1.0000
  C   C456      1.0  0.14458  0.73032  0.64095  1.0000
  C   C457      1.0  0.17379  0.77686  0.62698  1.0000
  C   C458      1.0  0.13374  0.76760  0.65089  1.0000
  C   C459      1.0  0.12555  0.74958  0.61046  1.0000
  C   C460      1.0  0.09661  0.73038  0.61233  1.0000
  C   C461      1.0  0.13537  0.76102  0.58734  1.0000
  C   C462      1.0  0.07874  0.72293  0.59231  1.0000
  C   C463      1.0  0.11719  0.75368  0.56751  1.0000
  C   C464      1.0  0.36063  0.77948  0.71710  1.0000
  C   C465      1.0  0.40097  0.51392  0.71383  1.0000
  H   H533      1.0  0.18467  0.68915  0.50432  1.0000
  H   H534      1.0  0.35252  0.72554  0.72507  1.0000
  H   H535      1.0  0.05591  0.59084  0.65910  1.0000
  H   H536      1.0  0.25697  0.68547  0.72724  1.0000
  H   H537      1.0  0.08030  0.65894  0.69533  1.0000
  C   C466      1.0  0.44867  0.50638  0.72274  1.0000
  H   H538      1.0  0.16002  0.59891  0.70990  1.0000
  H   H539      1.0  0.35756  0.61987  0.70917  1.0000
  H   H540      1.0  0.30903  0.54636  0.71424  1.0000
  H   H541      1.0  0.09011  0.62194  0.49615  1.0000
  C   C467      1.0  0.11592  0.61248  0.70763  1.0000
  C   C468      1.0  0.14415  0.63496  0.55373  1.0000
  C   C469      1.0  0.36073  0.71166  0.73331  1.0000
  H   H542      1.0  0.31094  0.56881  0.68894  1.0000
  H   H543      1.0  0.11111  0.67198  0.49679  1.0000
  H   H544      1.0  0.31520  0.58130  0.71879  1.0000
  H   H545      1.0  0.35824  0.60952  0.67893  1.0000
  C   C470      1.0  0.08866  0.67179  0.73204  1.0000
  H   H546      1.0  0.99549  0.51874  0.71405  1.0000
  C   C471      1.0  0.07245  0.59665  0.67250  1.0000
  C   C472      1.0  0.09885  0.59986  0.66634  1.0000
  C   C473      1.0  0.36602  0.69347  0.69588  1.0000
  C   C474      1.0  0.17305  0.67318  0.51743  1.0000
  H   H547      1.0  0.46706  0.50344  0.72651  1.0000
  H   H548      1.0  0.34167  0.69163  0.73664  1.0000
  N   N33       1.0  0.13354  0.64916  0.48782  1.0000
  H   H549      1.0  0.30057  0.51450  0.89382  1.0000
  Fe  Fe57      1.0  0.25115  0.63875  0.95404  1.0000
  S   S114      1.0  0.23153  0.62186  0.91792  1.0000
  H   H550      1.0  0.11313  0.60346  0.75660  1.0000
  S   S115      1.0  0.40526  0.55562  0.97490  1.0000
  C   C475      1.0  0.31473  0.53561  0.90077  1.0000
  C   C476      1.0  0.16423  0.61603  0.87908  1.0000
  S   S116      1.0  0.48352  0.74446  0.97668  1.0000
  Fe  Fe58      1.0  0.40789  0.79359  0.77491  1.0000
  C   C477      1.0  0.44198  0.68614  0.81358  1.0000
  C   C478      1.0  0.27499  0.61067  0.90553  1.0000
  S   S117      1.0  0.41947  0.75880  0.78036  1.0000
  Fe  Fe59      1.0  0.44120  0.78026  0.81399  1.0000
  S   S118      1.0  0.43423  0.75245  0.84669  1.0000
  C   C479      1.0  0.39623  0.74747  0.97667  1.0000
  S   S119      1.0  0.42726  0.81363  0.81015  1.0000
  Fe  Fe60      1.0  0.28404  0.59467  0.75501  1.0000
  S   S120      1.0  0.31273  0.58409  0.77785  1.0000
  S   S121      1.0  0.25915  0.59647  0.78599  1.0000
  Fe  Fe61      1.0  0.05236  0.62660  0.77654  1.0000
  S   S122      1.0  0.08082  0.64179  0.80871  1.0000
  C   C480      1.0  0.02755  0.65765  0.90631  1.0000
  Fe  Fe62      1.0  0.08195  0.60058  0.80685  1.0000
  S   S123      1.0  0.12573  0.60491  0.81468  1.0000
  H   H551      1.0  0.20565  0.72975  0.75123  1.0000
  H   H552      1.0  0.35582  0.66094  0.74609  1.0000
  C   C481      1.0  0.42240  0.84249  0.92144  1.0000
  C   C482      1.0  0.16897  0.55566  0.78500  1.0000
  C   C483      1.0  0.18313  0.57787  0.80057  1.0000
  C   C484      1.0  0.16952  0.59273  0.80932  1.0000
  C   C485      1.0  0.14182  0.58589  0.80236  1.0000
  H   H553      1.0  0.09819  0.56411  0.88704  1.0000
  H   H554      1.0  0.20407  0.58274  0.80679  1.0000
  H   H555      1.0  0.18028  0.60903  0.82218  1.0000
  S   S124      1.0  0.03415  0.62927  0.86851  1.0000
  C   C486      1.0  0.45277  0.82671  0.94141  1.0000
  H   H556      1.0  0.12069  0.51895  0.82758  1.0000
  H   H557      1.0  0.40171  0.56536  0.82709  1.0000
  H   H558      1.0  0.36181  0.55273  0.79854  1.0000
  H   H559      1.0  0.47299  0.72672  0.84373  1.0000
  C   C487      1.0  0.45651  0.75313  0.89135  1.0000
  C   C488      1.0  0.45898  0.76789  0.86980  1.0000
  S   S125      1.0  0.48273  0.80540  0.79635  1.0000
  C   C489      1.0  0.13512  0.53130  0.84153  1.0000
  C   C490      1.0  0.17927  0.54625  0.86253  1.0000
  S   S126      1.0  0.44669  0.82056  0.75399  1.0000
  H   H560      1.0  0.21563  0.62536  0.76772  1.0000
  H   H561      1.0  0.44522  0.60734  0.90092  1.0000
  H   H562      1.0  0.24810  0.65445  0.79941  1.0000
  H   H563      1.0  0.37707  0.63398  0.76507  1.0000
  C   C491      1.0  0.25212  0.61471  0.89765  1.0000
  C   C492      1.0  0.24521  0.61261  0.87319  1.0000
  C   C493      1.0  0.26107  0.60659  0.85673  1.0000
  H   H564      1.0  0.22767  0.61582  0.86687  1.0000
  H   H565      1.0  0.25554  0.60503  0.83795  1.0000
  H   H566      1.0  0.16883  0.58897  0.91755  1.0000
  H   H567      1.0  0.29496  0.55754  0.95434  1.0000
  C   C494      1.0  0.45593  0.85068  0.87641  1.0000
  H   H568      1.0  0.27996  0.61139  0.92439  1.0000
  N   N34       1.0  0.36242  0.68544  0.89754  1.0000
  C   C495      1.0  0.33674  0.67225  0.91232  1.0000
  C   C496      1.0  0.36899  0.71500  0.89269  1.0000
  C   C497      1.0  0.35590  0.67086  0.87426  1.0000
  C   C498      1.0  0.38631  0.68446  0.91063  1.0000
  C   C499      1.0  0.40300  0.67290  0.90083  1.0000
  C   C500      1.0  0.39405  0.69615  0.93374  1.0000
  C   C501      1.0  0.42600  0.67328  0.91352  1.0000
  C   C502      1.0  0.41714  0.69655  0.94617  1.0000
  C   C503      1.0  0.43314  0.68519  0.93608  1.0000
  H   H569      1.0  0.31774  0.67039  0.90234  1.0000
  H   H570      1.0  0.33265  0.65093  0.91845  1.0000
  H   H571      1.0  0.33815  0.68448  0.92850  1.0000
  H   H572      1.0  0.37177  0.72681  0.90945  1.0000
  H   H573      1.0  0.35189  0.71671  0.88225  1.0000
  H   H574      1.0  0.38871  0.72599  0.88227  1.0000
  H   H575      1.0  0.35079  0.64843  0.87659  1.0000
  H   H576      1.0  0.33727  0.67112  0.86523  1.0000
  H   H577      1.0  0.37365  0.68108  0.86157  1.0000
  H   H578      1.0  0.39910  0.66392  0.88324  1.0000
  H   H579      1.0  0.38249  0.70550  0.94221  1.0000
  H   H580      1.0  0.43875  0.66473  0.90563  1.0000
  H   H581      1.0  0.42288  0.70621  0.96357  1.0000
  H   H582      1.0  0.45137  0.68596  0.94561  1.0000
  Fe  Fe63      1.0  0.23186  0.55126  0.77812  1.0000
  S   S127      1.0  0.02692  0.78329  0.95954  1.0000
  H   H583      1.0  0.35668  0.58853  0.89736  1.0000
  H   H584      1.0  0.19897  0.54535  0.86518  1.0000
  C   C504      1.0  0.34867  0.54717  0.86775  1.0000
  H   H585      1.0  0.30389  0.75866  0.75281  1.0000
  H   H586      1.0  0.30503  0.53453  0.85607  1.0000
  N   N35       1.0  0.47088  0.70853  0.80944  1.0000
  H   H587      1.0  0.20345  0.64820  0.79572  1.0000
  H   H588      1.0  0.47651  0.68776  0.77901  1.0000
  H   H589      1.0  0.41314  0.80101  0.89135  1.0000
  Fe  Fe64      1.0  0.28478  0.58106  0.80819  1.0000
  C   C505      1.0  0.28425  0.60312  0.86457  1.0000
  Fe  Fe65      1.0  0.04155  0.61911  0.83044  1.0000
  C   C506      1.0  0.41761  0.68970  0.80870  1.0000
  H   H590      1.0  0.14795  0.62892  0.76327  1.0000
  S   S128      1.0  0.25558  0.55019  0.74554  1.0000
  H   H591      1.0  0.43586  0.57111  0.93235  1.0000
  C   C507      1.0  0.12918  0.54965  0.85482  1.0000
  C   C508      1.0  0.20545  0.71190  0.76088  1.0000
  C   C509      1.0  0.29118  0.60515  0.88900  1.0000
  S   S129      1.0  0.34003  0.72350  0.96579  1.0000
  H   H592      1.0  0.24577  0.63109  0.75122  1.0000
  H   H593      1.0  0.38459  0.57927  0.90313  1.0000
  Fe  Fe66      1.0  0.46748  0.83747  0.78968  1.0000
  H   H594      1.0  0.31215  0.53406  0.92055  1.0000
  S   S130      1.0  0.30536  0.59710  0.84413  1.0000
  H   H595      1.0  0.16118  0.63231  0.88871  1.0000
  C   C510      1.0  0.39833  0.49859  0.82910  1.0000
  H   H596      1.0  0.39923  0.75743  0.95925  1.0000
  H   H597      1.0  0.30884  0.60207  0.89521  1.0000
  C   C511      1.0  0.36900  0.72966  0.98453  1.0000
  C   C512      1.0  0.41055  0.63880  0.82832  1.0000
  C   C513      1.0  0.22561  0.67950  0.76817  1.0000
  Fe  Fe67      1.0  0.47170  0.60227  0.81584  1.0000
  H   H598      1.0  0.46246  0.74400  0.80582  1.0000
  C   C514      1.0  0.42463  0.80123  0.90816  1.0000
  C   C515      1.0  0.38710  0.64274  0.82286  1.0000
  C   C516      1.0  0.01607  0.69658  0.90331  1.0000
  C   C517      1.0  0.02160  0.67771  0.91731  1.0000
  S   S131      1.0  0.29420  0.64626  0.96601  1.0000
  H   H599      1.0  0.48260  0.80672  0.85076  1.0000
  C   C518      1.0  0.36171  0.57214  0.90525  1.0000
  S   S132      1.0  0.01279  0.60767  0.79804  1.0000
  C   C519      1.0  0.38988  0.65225  0.75427  1.0000
  C   C520      1.0  0.13047  0.62344  0.75010  1.0000
  H   H600      1.0  0.42735  0.64735  0.75948  1.0000
  C   C521      1.0  0.37586  0.55591  0.85837  1.0000
  H   H601      1.0  0.47009  0.86940  0.84154  1.0000
  H   H602      1.0  0.02068  0.67820  0.93658  1.0000
  S   S133      1.0  0.05599  0.58691  0.77320  1.0000
  C   C522      1.0  0.02857  0.65645  0.88124  1.0000
  N   N36       1.0  0.24609  0.66891  0.76324  1.0000
  H   H603      1.0  0.40744  0.50443  0.79198  1.0000
  C   C523      1.0  0.39065  0.66822  0.81319  1.0000
  H   H604      1.0  0.46436  0.84715  0.95043  1.0000
  H   H605      1.0  0.10993  0.55059  0.85025  1.0000
  C   C524      1.0  0.16018  0.52975  0.84523  1.0000
  H   H606      1.0  0.40593  0.83039  0.93482  1.0000
  C   C525      1.0  0.10855  0.68984  0.74824  1.0000
  H   H607      1.0  0.27801  0.58602  0.97662  1.0000
  C   C526      1.0  0.26181  0.66915  0.78549  1.0000
  C   C527      1.0  0.47710  0.50919  0.81961  1.0000
  H   H608      1.0  0.45378  0.55401  0.84925  1.0000
  H   H609      1.0  0.48342  0.52154  0.90753  1.0000
  Fe  Fe68      1.0  0.01805  0.56872  0.79653  1.0000
  H   H610      1.0  0.03119  0.64283  0.91735  1.0000
  H   H611      1.0  0.41127  0.84344  0.90469  1.0000
  H   H612      1.0  0.44275  0.51722  0.88022  1.0000
  H   H613      1.0  0.37053  0.72088  0.75076  1.0000
  C   C528      1.0  0.47484  0.76599  0.91065  1.0000
  C   C529      1.0  0.44473  0.58767  0.89642  1.0000
  Fe  Fe69      1.0  0.41392  0.52008  0.96547  1.0000
  H   H614      1.0  0.38916  0.63589  0.97681  1.0000
  C   C530      1.0  0.43907  0.56702  0.91419  1.0000
  H   H615      1.0  0.39368  0.56103  0.87011  1.0000
  H   H616      1.0  0.00963  0.50117  0.75032  1.0000
  H   H617      1.0  0.02440  0.67518  0.84797  1.0000
  H   H618      1.0  0.16253  0.61962  0.85955  1.0000
  C   C531      1.0  0.35828  0.55138  0.81767  1.0000
  H   H619      1.0  0.18615  0.61984  0.88296  1.0000
  H   H620      1.0  0.16889  0.66452  0.80402  1.0000
  C   C532      1.0  0.18479  0.67525  0.79058  1.0000
  H   H621      1.0  0.35811  0.57110  0.92493  1.0000
  H   H622      1.0  0.10993  0.76560  0.97845  1.0000
  H   H623      1.0  0.10628  0.55834  0.78117  1.0000
  C   C533      1.0  0.44344  0.53688  0.88493  1.0000
  H   H624      1.0  0.11153  0.60049  0.89350  1.0000
  H   H625      1.0  0.34126  0.50338  0.89569  1.0000
  S   S134      1.0  0.45509  0.60835  0.85073  1.0000
  C   C534      1.0  0.45013  0.58307  0.87297  1.0000
  S   S135      1.0  0.45820  0.56161  0.79746  1.0000
  Fe  Fe70      1.0  0.45750  0.58464  0.76403  1.0000
  C   C535      1.0  0.20463  0.66602  0.78566  1.0000
  H   H626      1.0  0.40476  0.52056  0.83176  1.0000
  C   C536      1.0  0.41818  0.65975  0.75118  1.0000
  N   N37       1.0  0.14338  0.58745  0.88633  1.0000
  Fe  Fe71      1.0  0.01088  0.73682  0.95445  1.0000
  H   H627      1.0  0.43585  0.81299  0.95386  1.0000
  C   C537      1.0  0.01711  0.69537  0.87823  1.0000
  H   H628      1.0  0.43434  0.86426  0.92799  1.0000
  C   C538      1.0  0.18518  0.69814  0.77818  1.0000
  C   C539      1.0  0.43840  0.54155  0.90851  1.0000
  H   H629      1.0  0.37583  0.53077  0.90211  1.0000
  C   C540      1.0  0.23099  0.63983  0.75461  1.0000
  H   H630      1.0  0.27215  0.69046  0.79327  1.0000
  C   C541      1.0  0.33130  0.54275  0.82624  1.0000
  C   C542      1.0  0.12775  0.56402  0.78644  1.0000
  H   H631      1.0  0.11167  0.59046  0.86358  1.0000
  H   H632      1.0  0.18901  0.57694  0.88911  1.0000
  H   H633      1.0  0.36618  0.62607  0.82628  1.0000
  C   C543      1.0  0.14127  0.54888  0.77790  1.0000
  C   C544      1.0  0.11493  0.58537  0.88244  1.0000
  Fe  Fe72      1.0  0.45961  0.78705  0.76227  1.0000
  S   S136      1.0  0.04431  0.57848  0.83036  1.0000
  H   H634      1.0  0.44004  0.73201  0.89333  1.0000
  Fe  Fe73      1.0  0.28226  0.53932  0.77079  1.0000
  C   C545      1.0  0.30059  0.56189  0.97301  1.0000
  C   C546      1.0  0.17338  0.56439  0.87612  1.0000
  H   H635      1.0  0.16979  0.70528  0.78211  1.0000
  C   C547      1.0  0.44962  0.55771  0.86727  1.0000
  S   S137      1.0  0.25705  0.68129  0.96387  1.0000
  C   C548      1.0  0.02361  0.67567  0.86724  1.0000
  H   H636      1.0  0.14130  0.59747  0.92324  1.0000
  C   C549      1.0  0.48493  0.71875  0.83285  1.0000
  C   C550      1.0  0.14825  0.56684  0.87261  1.0000
  S   S138      1.0  0.36145  0.77929  0.76688  1.0000
  H   H637      1.0  0.41885  0.70901  0.80161  1.0000
  H   H638      1.0  0.34911  0.52093  0.92385  1.0000
  S   S139      1.0  0.30406  0.51221  0.76525  1.0000
  S   S140      1.0  0.46593  0.62382  0.78306  1.0000
  H   H639      1.0  0.46712  0.81701  0.93980  1.0000
  N   N38       1.0  0.34438  0.54473  0.89397  1.0000
  S   S141      1.0  0.18466  0.53504  0.77529  1.0000
  H   H640      1.0  0.10298  0.68974  0.76673  1.0000
  C   C551      1.0  0.14679  0.58362  0.91238  1.0000
  N   N39       1.0  0.44138  0.82977  0.91765  1.0000
  C   C552      1.0  0.43756  0.66016  0.82391  1.0000
  S   S142      1.0  0.05468  0.64851  0.74133  1.0000
  H   H641      1.0  0.37242  0.67142  0.80918  1.0000
  H   H642      1.0  0.13327  0.56162  0.91815  1.0000
  H   H643      1.0  0.13011  0.53155  0.76601  1.0000
  H   H644      1.0  0.46389  0.54400  0.74295  1.0000
  H   H645      1.0  0.15014  0.72398  0.75245  1.0000
  C   C553      1.0  0.26707  0.68558  0.74487  1.0000
  H   H646      1.0  0.40792  0.61914  0.83615  1.0000
  S   S143      1.0  0.43176  0.51541  0.93047  1.0000
  C   C554      1.0  0.48049  0.79512  0.86728  1.0000
  S   S144      1.0  0.25569  0.53556  0.80279  1.0000
  H   H647      1.0  0.46061  0.72637  0.77809  1.0000
  C   C555      1.0  0.38058  0.55822  0.83373  1.0000
  C   C556      1.0  0.32642  0.54084  0.85085  1.0000
  C   C557      1.0  0.46336  0.84725  0.90036  1.0000
  C   C558      1.0  0.47619  0.86730  0.85983  1.0000
  C   C559      1.0  0.35302  0.52409  0.90424  1.0000
  H   H648      1.0  0.31399  0.53752  0.81367  1.0000
  H   H649      1.0  0.12380  0.64024  0.75101  1.0000
  H   H650      1.0  0.47420  0.52690  0.82467  1.0000
  H   H651      1.0  0.47230  0.75477  0.92739  1.0000
  H   H652      1.0  0.43845  0.79154  0.90427  1.0000
  H   H653      1.0  0.45508  0.65628  0.82890  1.0000
  H   H654      1.0  0.27849  0.66275  0.78214  1.0000
  C   C560      1.0  0.22552  0.70291  0.75590  1.0000
  C   C561      1.0  0.47175  0.73283  0.79563  1.0000
  H   H655      1.0  0.24069  0.71474  0.74240  1.0000
  H   H656      1.0  0.16510  0.51625  0.83422  1.0000
  S   S145      1.0  0.32775  0.52998  0.96846  1.0000
  H   H657      1.0  0.40857  0.78729  0.92111  1.0000
  Fe  Fe74      1.0  0.29923  0.68770  0.97800  1.0000
  H   H658      1.0  0.27979  0.70757  0.75050  1.0000
  H   H659      1.0  0.30712  0.55070  0.89423  1.0000
  H   H660      1.0  0.43437  0.84054  0.87021  1.0000
  H   H661      1.0  0.16530  0.60371  0.74131  1.0000
  H   H662      1.0  0.48682  0.70198  0.84356  1.0000
  H   H663      1.0  0.01290  0.70986  0.86722  1.0000
  S   S146      1.0  0.03858  0.73218  0.98330  1.0000
  S   S147      1.0  0.00620  0.72087  0.91608  1.0000
  C   C562      1.0  0.48737  0.69770  0.79593  1.0000
  H   H664      1.0  0.35387  0.58493  0.74335  1.0000
  H   H665      1.0  0.28217  0.67710  0.74166  1.0000
  H   H666      1.0  0.44056  0.76595  0.98515  1.0000
  C   C563      1.0  0.49050  0.64248  0.98398  1.0000
  Fe  Fe75      1.0  0.36265  0.52276  0.98507  1.0000
  H   H667      1.0  0.10791  0.67864  0.98327  1.0000
  C   C564      1.0  0.13524  0.70907  0.74019  1.0000
  C   C565      1.0  0.31694  0.55093  0.98460  1.0000
  S   S148      1.0  0.42081  0.56216  0.73943  1.0000
  C   C566      1.0  0.29107  0.57812  0.98560  1.0000
  H   H668      1.0  0.09929  0.71744  0.98612  1.0000
  H   H669      1.0  0.46600  0.59768  0.98726  1.0000
  H   H670      1.0  0.37516  0.65845  0.98673  1.0000
  C   C567      1.0  0.37798  0.66818  0.74356  1.0000
  Fe  Fe76      1.0  0.99310  0.77236  0.98704  1.0000
  H   H671      1.0  0.49166  0.68218  0.80631  1.0000
  C   C568      1.0  0.34524  0.77373  0.73818  1.0000
  S   S149      1.0  0.97351  0.10906  0.00281  1.0000
  H   H672      1.0  0.94166  0.01089  0.99707  1.0000
  S   S150      1.0  0.90964  0.03800  0.01729  1.0000
  H   H673      1.0  0.96993  0.00665  0.03107  1.0000
  H   H674      1.0  0.92210  0.46968  0.19076  1.0000
  H   H675      1.0  0.76265  0.09706  0.12420  1.0000
  Fe  Fe77      1.0  0.87241  0.04616  0.01780  1.0000
  S   S151      1.0  0.85810  0.04215  0.05569  1.0000
  H   H676      1.0  0.97433  0.46273  0.20382  1.0000
  H   H677      1.0  0.89818  0.44306  0.21016  1.0000
  H   H678      1.0  0.97340  0.05958  0.02547  1.0000
  H   H679      1.0  0.89854  0.02661  0.07475  1.0000
  N   N40       1.0  0.94079  0.46380  0.22364  1.0000
  S   S152      1.0  0.70360  0.00136  0.17935  1.0000
  N   N41       1.0  0.93501  0.03356  0.09617  1.0000
  H   H680      1.0  0.63444  0.01819  0.22200  1.0000
  H   H681      1.0  0.92898  0.05823  0.06765  1.0000
  H   H682      1.0  0.97709  0.05287  0.11158  1.0000
  H   H683      1.0  0.75216  0.04588  0.15652  1.0000
  H   H684      1.0  0.91064  0.05642  0.09430  1.0000
  H   H685      1.0  0.92341  0.43710  0.19320  1.0000
  H   H686      1.0  0.84992  0.08506  0.09052  1.0000
  Fe  Fe78      1.0  0.92907  0.07607  0.99403  1.0000
  H   H687      1.0  0.71970  0.01880  0.12677  1.0000
  H   H688      1.0  0.72415  0.02813  0.09572  1.0000
  H   H689      1.0  0.78563  0.07390  0.14922  1.0000
  C   C569      1.0  0.82209  0.02190  0.05965  1.0000
  H   H690      1.0  0.81018  0.03035  0.02454  1.0000
  C   C570      1.0  0.70123  0.03390  0.21560  1.0000
  H   H691      1.0  0.90377  0.40583  0.22509  1.0000
  H   H692      1.0  0.95543  0.06894  0.11929  1.0000
  H   H693      1.0  0.70648  0.04994  0.20190  1.0000
  H   H694      1.0  0.52556  0.31552  0.23243  1.0000
  H   H695      1.0  0.95052  0.02943  0.06187  1.0000
  H   H696      1.0  0.49470  0.38045  0.22222  1.0000
  C   C571      1.0  0.98863  0.07778  0.03473  1.0000
  H   H697      1.0  0.83610  0.08991  0.04913  1.0000
  H   H698      1.0  0.73015  0.06914  0.13473  1.0000
  S   S153      1.0  0.89245  0.08582  0.99607  1.0000
  H   H699      1.0  0.73521  0.07665  0.10346  1.0000
  H   H700      1.0  0.96074  0.01391  0.08609  1.0000
  C   C572      1.0  0.92064  0.01509  0.11674  1.0000
  N   N42       1.0  0.75831  0.05586  0.11871  1.0000
  C   C573      1.0  0.76907  0.05341  0.14290  1.0000
  C   C574      1.0  0.74607  0.07555  0.12030  1.0000
  C   C575      1.0  0.73565  0.02791  0.11242  1.0000
  C   C576      1.0  0.78010  0.06567  0.10001  1.0000
  C   C577      1.0  0.77295  0.06869  0.07589  1.0000
  C   C578      1.0  0.80859  0.07211  0.10489  1.0000
  C   C579      1.0  0.79302  0.07763  0.05785  1.0000
  C   C580      1.0  0.82847  0.08105  0.08668  1.0000
  C   C581      1.0  0.82072  0.08382  0.06325  1.0000
  H   H701      1.0  0.87988  0.01559  0.11294  1.0000
  C   C582      1.0  0.77394  0.00505  0.04597  1.0000
  H   H702      1.0  0.77758  0.03800  0.14322  1.0000
  C   C583      1.0  0.94329  0.01795  0.07913  1.0000
  C   C584      1.0  0.96049  0.05827  0.10474  1.0000
  C   C585      1.0  0.69899  0.00766  0.20966  1.0000
  H   H703      1.0  0.97044  0.07407  0.09022  1.0000
  C   C586      1.0  0.91738  0.04403  0.08279  1.0000
  H   H704      1.0  0.74452  0.01321  0.10944  1.0000
  H   H705      1.0  0.75164  0.06364  0.07069  1.0000
  H   H706      1.0  0.81604  0.06997  0.12251  1.0000
  H   H707      1.0  0.78698  0.07912  0.03945  1.0000
  C   C587      1.0  0.80284  0.01984  0.04157  1.0000
  C   C588      1.0  0.96917  0.47793  0.21298  1.0000
  H   H708      1.0  0.82749  0.01026  0.09574  1.0000
  C   C589      1.0  0.89243  0.00778  0.12286  1.0000
  C   C590      1.0  0.93491  0.00347  0.13116  1.0000
  H   H709      1.0  0.92544  0.99731  0.07487  1.0000
  C   C591      1.0  0.92015  0.45277  0.20361  1.0000
  C   C592      1.0  0.81262  0.00855  0.08172  1.0000
  C   C593      1.0  0.93520  0.48478  0.23609  1.0000
  H   H710      1.0  0.98595  0.48857  0.22653  1.0000
  H   H711      1.0  0.95623  0.00782  0.12727  1.0000
  H   H712      1.0  0.75894  0.00395  0.03225  1.0000
  H   H713      1.0  0.98398  0.05616  0.22979  1.0000
  H   H714      1.0  0.97107  0.49452  0.19979  1.0000
  H   H715      1.0  0.50749  0.43939  0.23678  1.0000
  Fe  Fe79      1.0  0.68588  0.06303  0.30581  1.0000
  S   S154      1.0  0.66815  0.05485  0.34328  1.0000
  S   S155      1.0  0.57548  0.24781  0.45896  1.0000
  Fe  Fe80      1.0  0.71432  0.12633  0.31324  1.0000
  S   S156      1.0  0.69990  0.12248  0.35081  1.0000
  S   S157      1.0  0.73806  0.17034  0.29906  1.0000
  Fe  Fe81      1.0  0.71107  0.08732  0.35378  1.0000
  C   C594      1.0  0.53667  0.34509  0.46449  1.0000
  Fe  Fe82      1.0  0.65845  0.09110  0.33684  1.0000
  S   S158      1.0  0.62038  0.09706  0.34635  1.0000
  S   S159      1.0  0.72953  0.09389  0.31730  1.0000
  S   S160      1.0  0.67204  0.09643  0.29836  1.0000
  C   C595      1.0  0.88995  0.47060  0.46134  1.0000
  Fe  Fe83      1.0  0.59751  0.24215  0.42756  1.0000
  S   S161      1.0  0.61488  0.27526  0.39892  1.0000
  H   H716      1.0  0.83845  0.40544  0.37347  1.0000
  S   S162      1.0  0.62645  0.23157  0.44999  1.0000
  Fe  Fe84      1.0  0.95904  0.47292  0.33085  1.0000
  H   H717      1.0  0.51790  0.23980  0.36940  1.0000
  S   S163      1.0  0.92891  0.42613  0.33248  1.0000
  N   N43       1.0  0.49693  0.29276  0.26063  1.0000
  H   H718      1.0  0.62344  0.14977  0.33091  1.0000
  C   C596      1.0  0.69631  0.03950  0.23910  1.0000
  S   S164      1.0  0.49937  0.18763  0.45604  1.0000
  Fe  Fe85      1.0  0.79826  0.26121  0.40983  1.0000
  S   S165      1.0  0.84085  0.26545  0.40200  1.0000
  S   S166      1.0  0.76815  0.25943  0.38046  1.0000
  Fe  Fe86      1.0  0.80964  0.26812  0.46359  1.0000
  S   S167      1.0  0.85329  0.27281  0.45992  1.0000
  Fe  Fe87      1.0  0.85704  0.30088  0.42795  1.0000
  S   S168      1.0  0.89391  0.34474  0.42418  1.0000
  Fe  Fe88      1.0  0.83285  0.23699  0.43435  1.0000
  S   S169      1.0  0.84105  0.19941  0.43144  1.0000
  S   S170      1.0  0.81467  0.29834  0.43364  1.0000
  S   S171      1.0  0.78891  0.23050  0.44024  1.0000
  Fe  Fe89      1.0  0.53056  0.32773  0.33597  1.0000
  S   S172      1.0  0.55526  0.35442  0.36629  1.0000
  S   S173      1.0  0.51863  0.28215  0.33660  1.0000
  Fe  Fe90      1.0  0.52751  0.37487  0.30803  1.0000
  S   S174      1.0  0.55318  0.40684  0.33596  1.0000
  S   S175      1.0  0.51342  0.38318  0.27102  1.0000
  Fe  Fe91      1.0  0.58095  0.38552  0.33848  1.0000
  S   S176      1.0  0.62864  0.40340  0.34115  1.0000
  Fe  Fe92      1.0  0.52603  0.37356  0.36233  1.0000
  S   S177      1.0  0.55820  0.35691  0.30800  1.0000
  C   C597      1.0  0.63618  0.16577  0.31740  1.0000
  H   H719      1.0  0.74017  0.03808  0.45763  1.0000
  C   C598      1.0  0.64829  0.41530  0.36804  1.0000
  C   C599      1.0  0.67434  0.41498  0.37048  1.0000
  H   H720      1.0  0.68123  0.40599  0.35652  1.0000
  C   C600      1.0  0.51750  0.31935  0.24941  1.0000
  C   C601      1.0  0.82470  0.16971  0.45034  1.0000
  C   C602      1.0  0.82751  0.14560  0.44549  1.0000
  C   C603      1.0  0.81621  0.12218  0.46101  1.0000
  H   H721      1.0  0.72708  0.49412  0.39684  1.0000
  H   H722      1.0  0.62149  0.32460  0.45803  1.0000
  C   C604      1.0  0.80992  0.17003  0.47052  1.0000
  H   H723      1.0  0.83888  0.14523  0.42985  1.0000
  H   H724      1.0  0.81890  0.10391  0.45730  1.0000
  H   H725      1.0  0.68179  0.15946  0.32271  1.0000
  C   C605      1.0  0.77661  0.46505  0.34216  1.0000
  C   C606      1.0  0.92016  0.40348  0.35796  1.0000
  C   C607      1.0  0.93465  0.41187  0.37973  1.0000
  C   C608      1.0  0.92676  0.39331  0.39959  1.0000
  C   C609      1.0  0.90413  0.36633  0.39804  1.0000
  C   C610      1.0  0.88994  0.35775  0.37614  1.0000
  C   C611      1.0  0.89800  0.37621  0.35621  1.0000
  H   H726      1.0  0.95228  0.43244  0.38112  1.0000
  H   H727      1.0  0.93840  0.39974  0.41623  1.0000
  H   H728      1.0  0.87293  0.33682  0.37451  1.0000
  H   H729      1.0  0.88695  0.36932  0.33934  1.0000
  C   C612      1.0  0.65946  0.20293  0.34755  1.0000
  C   C613      1.0  0.86392  0.46816  0.36021  1.0000
  S   S178      1.0  0.78533  0.49088  0.41573  1.0000
  H   H730      1.0  0.85714  0.44774  0.35269  1.0000
  C   C614      1.0  0.87751  0.46260  0.48380  1.0000
  C   C615      1.0  0.58821  0.27590  0.38054  1.0000
  C   C616      1.0  0.59465  0.29803  0.36424  1.0000
  C   C617      1.0  0.57326  0.29985  0.35060  1.0000
  C   C618      1.0  0.54557  0.27886  0.35245  1.0000
  C   C619      1.0  0.53925  0.25617  0.36807  1.0000
  C   C620      1.0  0.56045  0.25502  0.38251  1.0000
  H   H731      1.0  0.61609  0.31414  0.36251  1.0000
  H   H732      1.0  0.57831  0.31744  0.33851  1.0000
  H   H733      1.0  0.89967  0.01718  0.44017  1.0000
  H   H734      1.0  0.55525  0.23791  0.39508  1.0000
  C   C621      1.0  0.61919  0.11444  0.37262  1.0000
  C   C622      1.0  0.59897  0.12417  0.37431  1.0000
  C   C623      1.0  0.59763  0.13834  0.39477  1.0000
  C   C624      1.0  0.61592  0.14205  0.41410  1.0000
  C   C625      1.0  0.63601  0.13214  0.41249  1.0000
  C   C626      1.0  0.63797  0.11883  0.39171  1.0000
  H   H735      1.0  0.58411  0.12058  0.35979  1.0000
  H   H736      1.0  0.58184  0.14552  0.39592  1.0000
  H   H737      1.0  0.64981  0.13442  0.42756  1.0000
  H   H738      1.0  0.65336  0.11112  0.39074  1.0000
  H   H739      1.0  0.70030  0.22183  0.31408  1.0000
  C   C627      1.0  0.75020  0.19580  0.32150  1.0000
  C   C628      1.0  0.75646  0.18987  0.34477  1.0000
  C   C629      1.0  0.76350  0.20990  0.36284  1.0000
  C   C630      1.0  0.76351  0.23552  0.35775  1.0000
  C   C631      1.0  0.75790  0.24160  0.33440  1.0000
  C   C632      1.0  0.75187  0.22206  0.31625  1.0000
  H   H740      1.0  0.75616  0.16998  0.34877  1.0000
  H   H741      1.0  0.76843  0.20531  0.38072  1.0000
  H   H742      1.0  0.75814  0.26146  0.33033  1.0000
  H   H743      1.0  0.74750  0.22690  0.29825  1.0000
  C   C633      1.0  0.78504  0.02771  0.39015  1.0000
  H   H744      1.0  0.68264  0.19468  0.29331  1.0000
  H   H745      1.0  0.81605  0.09425  0.36812  1.0000
  C   C634      1.0  0.69933  0.49417  0.35538  1.0000
  H   H746      1.0  0.71810  0.22414  0.40839  1.0000
  N   N44       1.0  0.81013  0.36352  0.38394  1.0000
  C   C635      1.0  0.78519  0.36507  0.37334  1.0000
  C   C636      1.0  0.81424  0.36994  0.40977  1.0000
  C   C637      1.0  0.83534  0.36645  0.42301  1.0000
  C   C638      1.0  0.79814  0.38018  0.42240  1.0000
  C   C639      1.0  0.83883  0.37100  0.44760  1.0000
  C   C640      1.0  0.80211  0.38509  0.44698  1.0000
  C   C641      1.0  0.82215  0.38022  0.45959  1.0000
  H   H747      1.0  0.78212  0.35918  0.35416  1.0000
  H   H748      1.0  0.76565  0.35065  0.38281  1.0000
  H   H749      1.0  0.84899  0.35957  0.41452  1.0000
  H   H750      1.0  0.78244  0.38472  0.41374  1.0000
  H   H751      1.0  0.85438  0.36695  0.45734  1.0000
  H   H752      1.0  0.66797  0.21778  0.30082  1.0000
  H   H753      1.0  0.87195  0.43693  0.40836  1.0000
  Fe  Fe93      1.0  0.60116  0.23246  0.48109  1.0000
  S   S179      1.0  0.79148  0.03642  0.45985  1.0000
  C   C642      1.0  0.68867  0.01873  0.25689  1.0000
  C   C643      1.0  0.65711  0.43874  0.40626  1.0000
  C   C644      1.0  0.84738  0.47257  0.37696  1.0000
  N   N45       1.0  0.80202  0.05001  0.37274  1.0000
  C   C645      1.0  0.80490  0.07711  0.38135  1.0000
  C   C646      1.0  0.55070  0.36494  0.44678  1.0000
  C   C647      1.0  0.83060  0.05187  0.37258  1.0000
  C   C648      1.0  0.78773  0.04375  0.34904  1.0000
  H   H754      1.0  0.79565  0.03101  0.40795  1.0000
  C   C649      1.0  0.79989  0.03909  0.32829  1.0000
  H   H755      1.0  0.78907  0.31918  0.39104  1.0000
  H   H756      1.0  0.82558  0.33247  0.38438  1.0000
  H   H757      1.0  0.90530  0.41616  0.45371  1.0000
  C   C650      1.0  0.94066  0.46272  0.42508  1.0000
  H   H758      1.0  0.73371  0.10852  0.46290  1.0000
  C   C651      1.0  0.73155  0.12580  0.47038  1.0000
  H   H759      1.0  0.90145  0.44343  0.38978  1.0000
  H   H760      1.0  0.97407  0.47069  0.26358  1.0000
  C   C652      1.0  0.70356  0.00729  0.40723  1.0000
  C   C653      1.0  0.88948  0.49023  0.35305  1.0000
  H   H761      1.0  0.49817  0.25687  0.27755  1.0000
  C   C654      1.0  0.76047  0.04175  0.34629  1.0000
  C   C655      1.0  0.50533  0.30118  0.40665  1.0000
  H   H762      1.0  0.82060  0.04034  0.32848  1.0000
  H   H763      1.0  0.68520  0.11162  0.42984  1.0000
  H   H764      1.0  0.71054  0.09848  0.42831  1.0000
  N   N46       1.0  0.91222  0.46107  0.42508  1.0000
  H   H765      1.0  0.66741  0.15736  0.35185  1.0000
  H   H766      1.0  0.89201  0.41813  0.41355  1.0000
  S   S180      1.0  0.81609  0.44448  0.38662  1.0000
  S   S181      1.0  0.51318  0.38135  0.39824  1.0000
  H   H767      1.0  0.51215  0.29648  0.38939  1.0000
  S   S182      1.0  0.85301  0.01599  0.46560  1.0000
  N   N47       1.0  0.61098  0.34895  0.43208  1.0000
  C   C656      1.0  0.63526  0.37502  0.44003  1.0000
  C   C657      1.0  0.61692  0.32524  0.43860  1.0000
  C   C658      1.0  0.60870  0.34969  0.40558  1.0000
  C   C659      1.0  0.58510  0.34684  0.44303  1.0000
  C   C660      1.0  0.57464  0.36600  0.43628  1.0000
  H   H768      1.0  0.63839  0.37494  0.45977  1.0000
  H   H769      1.0  0.75005  0.04536  0.36112  1.0000
  C   C661      1.0  0.80242  0.12293  0.48172  1.0000
  C   C662      1.0  0.68137  0.21191  0.45993  1.0000
  H   H770      1.0  0.66120  0.19670  0.46644  1.0000
  H   H771      1.0  0.65512  0.37819  0.43144  1.0000
  H   H772      1.0  0.63238  0.39377  0.43557  1.0000
  H   H773      1.0  0.70183  0.16353  0.42172  1.0000
  H   H774      1.0  0.63567  0.32664  0.42916  1.0000
  H   H775      1.0  0.59906  0.30494  0.43344  1.0000
  H   H776      1.0  0.60850  0.36906  0.39860  1.0000
  H   H777      1.0  0.62681  0.34895  0.39675  1.0000
  H   H778      1.0  0.58924  0.33161  0.39909  1.0000
  C   C663      1.0  0.88190  0.00989  0.42795  1.0000
  C   C664      1.0  0.91913  0.41348  0.23938  1.0000
  C   C665      1.0  0.68332  0.22441  0.35888  1.0000
  H   H779      1.0  0.65191  0.24729  0.39905  1.0000
  C   C666      1.0  0.80642  0.33480  0.37996  1.0000
  C   C667      1.0  0.79024  0.49156  0.35195  1.0000
  H   H780      1.0  0.79511  0.02957  0.29066  1.0000
  S   S183      1.0  0.73692  0.08842  0.38596  1.0000
  C   C668      1.0  0.91496  0.48814  0.41544  1.0000
  H   H781      1.0  0.81665  0.08311  0.39867  1.0000
  C   C669      1.0  0.83521  0.38375  0.37088  1.0000
  H   H782      1.0  0.78742  0.38667  0.37385  1.0000
  H   H783      1.0  0.75622  0.14566  0.40104  1.0000
  C   C670      1.0  0.69178  0.42658  0.39064  1.0000
  C   C671      1.0  0.63958  0.42694  0.38620  1.0000
  H   H784      1.0  0.61971  0.42759  0.38445  1.0000
  C   C672      1.0  0.70828  0.03152  0.39393  1.0000
  H   H785      1.0  0.80133  0.32843  0.36097  1.0000
  H   H786      1.0  0.85464  0.38302  0.37723  1.0000
  Fe  Fe94      1.0  0.59413  0.18697  0.44540  1.0000
  S   S184      1.0  0.61357  0.15749  0.44110  1.0000
  S   S185      1.0  0.76225  0.42681  0.43874  1.0000
  H   H787      1.0  0.52351  0.30780  0.41924  1.0000
  C   C673      1.0  0.72601  0.05786  0.40320  1.0000
  H   H788      1.0  0.71188  0.42640  0.39217  1.0000
  H   H789      1.0  0.97683  0.00811  0.24087  1.0000
  H   H790      1.0  0.70000  0.18635  0.34376  1.0000
  H   H791      1.0  0.83332  0.37972  0.35132  1.0000
  H   H792      1.0  0.68941  0.47378  0.36512  1.0000
  H   H793      1.0  0.80774  0.18852  0.47451  1.0000
  H   H794      1.0  0.63974  0.15392  0.30288  1.0000
  C   C674      1.0  0.68328  0.43867  0.40859  1.0000
  H   H795      1.0  0.70316  0.11353  0.40256  1.0000
  H   H796      1.0  0.54315  0.37982  0.44124  1.0000
  C   C675      1.0  0.73228  0.24945  0.43977  1.0000
  Fe  Fe95      1.0  0.79922  0.45735  0.41783  1.0000
  Fe  Fe96      1.0  0.78885  0.44724  0.47113  1.0000
  H   H797      1.0  0.75089  0.08033  0.43354  1.0000
  H   H798      1.0  0.67253  0.19127  0.42600  1.0000
  H   H799      1.0  0.69769  0.05963  0.24330  1.0000
  S   S186      1.0  0.56661  0.19759  0.42072  1.0000
  H   H800      1.0  0.57673  0.31158  0.46779  1.0000
  C   C676      1.0  0.73166  0.03602  0.43974  1.0000
  C   C677      1.0  0.72842  0.16926  0.46699  1.0000
  C   C678      1.0  0.75857  0.03086  0.30438  1.0000
  H   H801      1.0  0.49517  0.24837  0.40351  1.0000
  C   C679      1.0  0.89363  0.43891  0.40850  1.0000
  H   H802      1.0  0.75198  0.26405  0.43182  1.0000
  C   C680      1.0  0.78541  0.03279  0.30632  1.0000
  H   H803      1.0  0.65040  0.44815  0.42002  1.0000
  H   H804      1.0  0.76081  0.13048  0.42839  1.0000
  S   S187      1.0  0.91900  0.00764  0.30583  1.0000
  C   C681      1.0  0.67914  0.20616  0.30819  1.0000
  S   S188      1.0  0.82688  0.47455  0.44991  1.0000
  C   C682      1.0  0.72212  0.16471  0.41606  1.0000
  H   H805      1.0  0.72059  0.16138  0.39638  1.0000
  H   H806      1.0  0.72525  0.03383  0.32276  1.0000
  C   C683      1.0  0.65405  0.23493  0.38495  1.0000
  H   H807      1.0  0.69495  0.49031  0.33591  1.0000
  H   H808      1.0  0.77314  0.16745  0.42620  1.0000
  C   C684      1.0  0.70029  0.23473  0.47393  1.0000
  H   H809      1.0  0.97129  0.43555  0.29315  1.0000
  H   H810      1.0  0.60963  0.20963  0.38083  1.0000
  Fe  Fe97      1.0  0.74994  0.46151  0.43906  1.0000
  S   S189      1.0  0.70466  0.45414  0.43403  1.0000
  C   C685      1.0  0.68056  0.24024  0.37715  1.0000
  H   H811      1.0  0.89424  0.48815  0.41387  1.0000
  S   S190      1.0  0.57061  0.18705  0.47844  1.0000
  C   C686      1.0  0.89835  0.42999  0.46179  1.0000
  C   C687      1.0  0.67876  0.17196  0.33695  1.0000
  C   C688      1.0  0.74612  0.03525  0.32435  1.0000
  H   H812      1.0  0.94046  0.44248  0.42971  1.0000
  H   H813      1.0  0.84488  0.06905  0.36055  1.0000
  H   H814      1.0  0.50116  0.31948  0.40334  1.0000
  H   H815      1.0  0.78428  0.07661  0.38463  1.0000
  C   C689      1.0  0.85613  0.00762  0.43569  1.0000
  H   H816      1.0  0.70438  0.22916  0.35371  1.0000
  S   S191      1.0  0.49843  0.34350  0.33457  1.0000
  C   C690      1.0  0.68774  0.20837  0.43653  1.0000
  H   H817      1.0  0.78950  0.39263  0.45643  1.0000
  H   H818      1.0  0.95048  0.46877  0.40717  1.0000
  H   H819      1.0  0.52946  0.28865  0.28136  1.0000
  C   C691      1.0  0.73253  0.46745  0.34272  1.0000
  H   H820      1.0  0.72744  0.18629  0.45718  1.0000
  C   C692      1.0  0.72917  0.14634  0.45544  1.0000
  H   H821      1.0  0.58503  0.38224  0.42298  1.0000
  H   H822      1.0  0.52618  0.23749  0.48523  1.0000
  S   S192      1.0  0.77393  0.47993  0.47334  1.0000
  C   C693      1.0  0.63021  0.21372  0.37457  1.0000
  Fe  Fe98      1.0  0.54626  0.20235  0.45415  1.0000
  H   H823      1.0  0.69945  0.02978  0.37611  1.0000
  N   N48       1.0  0.72819  0.14367  0.42911  1.0000
  H   H824      1.0  0.83008  0.03193  0.36693  1.0000
  H   H825      1.0  0.84061  0.05619  0.39071  1.0000
  C   C694      1.0  0.63270  0.19782  0.35616  1.0000
  C   C695      1.0  0.75569  0.14695  0.42086  1.0000
  C   C696      1.0  0.73727  0.06004  0.42623  1.0000
  C   C697      1.0  0.70582  0.11570  0.42229  1.0000
  H   H826      1.0  0.78124  0.00678  0.38387  1.0000
  C   C698      1.0  0.90046  0.45426  0.44947  1.0000
  H   H827      1.0  0.62343  0.17556  0.30965  1.0000
  H   H828      1.0  0.73728  0.43243  0.32977  1.0000
  H   H829      1.0  0.71033  0.45687  0.33861  1.0000
  N   N49       1.0  0.66305  0.18690  0.32788  1.0000
  H   H830      1.0  0.73914  0.18625  0.41867  1.0000
  H   H831      1.0  0.69912  0.25669  0.38532  1.0000
  H   H832      1.0  0.61333  0.18156  0.34915  1.0000
  S   S193      1.0  0.67918  0.02344  0.28611  1.0000
  H   H833      1.0  0.90223  0.48650  0.34034  1.0000
  H   H834      1.0  0.82472  0.38374  0.47869  1.0000
  C   C699      1.0  0.57027  0.32681  0.46120  1.0000
  C   C700      1.0  0.50431  0.23229  0.48281  1.0000
  C   C701      1.0  0.88506  0.00326  0.40431  1.0000
  C   C702      1.0  0.71321  0.22697  0.42653  1.0000
  H   H835      1.0  0.50832  0.33378  0.24514  1.0000
  H   H836      1.0  0.78839  0.45367  0.33851  1.0000
  C   C703      1.0  0.91796  0.39374  0.25665  1.0000
  C   C704      1.0  0.72599  0.25342  0.46308  1.0000
  Fe  Fe99      1.0  0.96148  0.01371  0.31865  1.0000
  H   H837      1.0  0.95490  0.47845  0.43805  1.0000
  H   H838      1.0  0.90514  0.00557  0.39843  1.0000
  H   H839      1.0  0.89058  0.48939  0.45352  1.0000
  C   C705      1.0  0.93678  0.40173  0.27590  1.0000
  C   C706      1.0  0.95834  0.44935  0.26084  1.0000
  H   H840      1.0  0.50271  0.25700  0.43405  1.0000
  H   H841      1.0  0.74135  0.27145  0.47243  1.0000
  C   C707      1.0  0.95705  0.42941  0.27786  1.0000
  C   C708      1.0  0.74787  0.45311  0.33738  1.0000
  H   H842      1.0  0.74735  0.02616  0.28736  1.0000
  H   H843      1.0  0.93541  0.38660  0.28963  1.0000
  C   C709      1.0  0.71600  0.00965  0.42990  1.0000
  H   H844      1.0  0.53581  0.33112  0.26142  1.0000
  H   H845      1.0  0.90215  0.37213  0.25533  1.0000
  H   H846      1.0  0.91411  0.47494  0.24447  1.0000
  Fe  Fe100     1.0  0.81283  0.01461  0.47952  1.0000
  C   C710      1.0  0.88655  0.42264  0.48453  1.0000
  H   H847      1.0  0.50269  0.30892  0.29630  1.0000
  H   H848      1.0  0.52236  0.27228  0.25290  1.0000
  H   H849      1.0  0.76422  0.02689  0.39330  1.0000
  H   H850      1.0  0.92380  0.49267  0.39710  1.0000
  C   C711      1.0  0.79927  0.14692  0.48633  1.0000
  H   H851      1.0  0.51824  0.34453  0.47271  1.0000
  H   H852      1.0  0.67393  0.26478  0.48447  1.0000
  C   C712      1.0  0.54648  0.32614  0.47173  1.0000
  C   C713      1.0  0.51228  0.27679  0.26826  1.0000
  Fe  Fe101     1.0  0.75192  0.99857  0.47058  1.0000
  C   C714      1.0  0.83329  0.99812  0.41975  1.0000
  C   C715      1.0  0.74566  0.49422  0.35343  1.0000
  C   C716      1.0  0.93938  0.44205  0.24106  1.0000
  H   H853      1.0  0.95063  0.49517  0.25066  1.0000
  H   H854      1.0  0.53571  0.31098  0.48577  1.0000
  H   H855      1.0  0.85402  0.13010  0.56391  1.0000
  H   H856      1.0  0.68706  0.06344  0.70229  1.0000
  Fe  Fe102     1.0  0.80746  0.42905  0.68233  1.0000
  S   S194      1.0  0.80387  0.41367  0.64492  1.0000
  S   S195      1.0  0.76960  0.40790  0.70580  1.0000
  Fe  Fe103     1.0  0.84536  0.41452  0.65298  1.0000
  S   S196      1.0  0.85360  0.37992  0.63926  1.0000
  Fe  Fe104     1.0  0.82916  0.45886  0.63503  1.0000
  S   S197      1.0  0.84724  0.42621  0.69147  1.0000
  Fe  Fe105     1.0  0.62042  0.34829  0.65647  1.0000
  S   S198      1.0  0.60187  0.32622  0.69103  1.0000
  S   S199      1.0  0.65724  0.39102  0.65324  1.0000
  Fe  Fe106     1.0  0.57712  0.30209  0.62566  1.0000
  S   S200      1.0  0.55490  0.27598  0.65766  1.0000
  S   S201      1.0  0.55897  0.28941  0.58843  1.0000
  Fe  Fe107     1.0  0.56009  0.31609  0.67376  1.0000
  S   S202      1.0  0.52257  0.31969  0.68845  1.0000
  Fe  Fe108     1.0  0.59844  0.28828  0.67198  1.0000
  S   S203      1.0  0.61203  0.25881  0.69056  1.0000
  S   S204      1.0  0.57901  0.34126  0.64047  1.0000
  S   S205      1.0  0.62032  0.31136  0.63876  1.0000
  Fe  Fe109     1.0  0.75579  0.22511  0.66445  1.0000
  S   S206      1.0  0.74356  0.23040  0.62692  1.0000
  S   S207      1.0  0.77780  0.26253  0.68793  1.0000
  Fe  Fe110     1.0  0.72345  0.16156  0.66434  1.0000
  S   S208      1.0  0.70863  0.16201  0.62641  1.0000
  S   S209      1.0  0.70700  0.11768  0.68059  1.0000
  Fe  Fe111     1.0  0.75247  0.19462  0.61874  1.0000
  S   S210      1.0  0.77253  0.19043  0.58467  1.0000
  Fe  Fe112     1.0  0.70090  0.19759  0.63737  1.0000
  S   S211      1.0  0.66317  0.20143  0.62305  1.0000
  S   S212      1.0  0.76837  0.19163  0.65586  1.0000
  S   S213      1.0  0.71217  0.19485  0.67578  1.0000
  S   S214      1.0  0.62330  0.25042  0.51611  1.0000
  C   C717      1.0  0.81596  0.42996  0.54777  1.0000
  C   C718      1.0  0.77647  0.21349  0.56038  1.0000
  C   C719      1.0  0.78303  0.20754  0.53771  1.0000
  C   C720      1.0  0.78802  0.22633  0.51841  1.0000
  C   C721      1.0  0.78599  0.25102  0.52157  1.0000
  C   C722      1.0  0.77867  0.25667  0.54402  1.0000
  C   C723      1.0  0.77401  0.23802  0.56338  1.0000
  H   H857      1.0  0.78435  0.18840  0.53493  1.0000
  H   H858      1.0  0.73408  0.28095  0.69043  1.0000
  H   H859      1.0  0.77694  0.27568  0.54652  1.0000
  H   H860      1.0  0.76911  0.24292  0.58071  1.0000
  C   C724      1.0  0.70549  0.10712  0.71106  1.0000
  C   C725      1.0  0.78962  0.45466  0.53560  1.0000
  C   C726      1.0  0.50177  0.20007  0.53788  1.0000
  S   S215      1.0  0.74704  0.01637  0.50483  1.0000
  H   H861      1.0  0.91255  0.45645  0.67923  1.0000
  C   C727      1.0  0.57765  0.27959  0.56830  1.0000
  C   C728      1.0  0.56819  0.27385  0.54452  1.0000
  C   C729      1.0  0.58205  0.26490  0.52836  1.0000
  C   C730      1.0  0.60559  0.26185  0.53586  1.0000
  C   C731      1.0  0.61519  0.26785  0.55958  1.0000
  C   C732      1.0  0.60120  0.27656  0.57579  1.0000
  H   H862      1.0  0.72113  0.22566  0.51479  1.0000
  H   H863      1.0  0.57437  0.26017  0.51019  1.0000
  H   H864      1.0  0.63315  0.26526  0.56559  1.0000
  H   H865      1.0  0.60843  0.28057  0.59413  1.0000
  C   C733      1.0  0.62564  0.24253  0.67158  1.0000
  C   C734      1.0  0.64219  0.23075  0.68136  1.0000
  C   C735      1.0  0.65426  0.21863  0.66650  1.0000
  C   C736      1.0  0.64911  0.21745  0.64185  1.0000
  C   C737      1.0  0.63206  0.22868  0.63208  1.0000
  C   C738      1.0  0.62060  0.24152  0.64689  1.0000
  H   H866      1.0  0.64585  0.23122  0.70049  1.0000
  H   H867      1.0  0.66693  0.20961  0.67424  1.0000
  H   H868      1.0  0.62788  0.22768  0.61301  1.0000
  H   H869      1.0  0.60760  0.25031  0.63925  1.0000
  C   C739      1.0  0.52097  0.33068  0.71774  1.0000
  C   C740      1.0  0.83959  0.16831  0.54319  1.0000
  N   N50       1.0  0.77550  0.07989  0.72889  1.0000
  C   C741      1.0  0.68826  0.39554  0.66812  1.0000
  C   C742      1.0  0.68746  0.37877  0.68787  1.0000
  C   C743      1.0  0.71245  0.38353  0.70003  1.0000
  C   C744      1.0  0.73838  0.40422  0.69186  1.0000
  C   C745      1.0  0.73918  0.42066  0.67188  1.0000
  C   C746      1.0  0.71411  0.41670  0.66036  1.0000
  H   H870      1.0  0.66762  0.36238  0.69396  1.0000
  H   H871      1.0  0.71176  0.37085  0.71552  1.0000
  H   H872      1.0  0.75911  0.43665  0.66545  1.0000
  H   H873      1.0  0.71483  0.42977  0.64513  1.0000
  C   C747      1.0  0.83257  0.34725  0.65270  1.0000
  C   C748      1.0  0.82697  0.32262  0.64067  1.0000
  C   C749      1.0  0.80957  0.29641  0.65103  1.0000
  C   C750      1.0  0.79870  0.29482  0.67387  1.0000
  C   C751      1.0  0.80467  0.31946  0.68597  1.0000
  C   C752      1.0  0.82105  0.34561  0.67522  1.0000
  H   H874      1.0  0.83601  0.32380  0.62331  1.0000
  H   H875      1.0  0.80532  0.27744  0.64172  1.0000
  H   H876      1.0  0.79660  0.31829  0.70375  1.0000
  H   H877      1.0  0.82526  0.36446  0.68464  1.0000
  S   S216      1.0  0.82960  0.47453  0.67208  1.0000
  N   N51       1.0  0.72026  0.31124  0.67827  1.0000
  C   C753      1.0  0.69720  0.30299  0.69562  1.0000
  H   H878      1.0  0.71959  0.37977  0.62509  1.0000
  C   C754      1.0  0.74615  0.33325  0.68939  1.0000
  H   H879      1.0  0.70213  0.29534  0.71286  1.0000
  H   H880      1.0  0.69285  0.32085  0.69953  1.0000
  H   H881      1.0  0.67721  0.28617  0.68863  1.0000
  H   H882      1.0  0.74111  0.29140  0.65967  1.0000
  H   H883      1.0  0.74270  0.35060  0.69632  1.0000
  H   H884      1.0  0.75331  0.32520  0.70522  1.0000
  H   H885      1.0  0.76377  0.34206  0.67652  1.0000
  H   H886      1.0  0.61282  0.37633  0.72499  1.0000
  C   C755      1.0  0.62859  0.39648  0.71714  1.0000
  S   S217      1.0  0.81291  0.03402  0.51492  1.0000
  H   H887      1.0  0.81467  0.09219  0.71109  1.0000
  C   C756      1.0  0.79423  0.13689  0.55919  1.0000
  H   H888      1.0  0.51575  0.30734  0.57497  1.0000
  H   H889      1.0  0.72540  0.07476  0.65758  1.0000
  H   H890      1.0  0.52202  0.30437  0.61858  1.0000
  H   H891      1.0  0.68470  0.27088  0.51517  1.0000
  H   H892      1.0  0.85289  0.14261  0.52192  1.0000
  H   H893      1.0  0.94238  0.39640  0.69502  1.0000
  H   H894      1.0  0.68346  0.34446  0.59908  1.0000
  H   H895      1.0  0.58619  0.44254  0.69522  1.0000
  C   C757      1.0  0.72938  0.17096  0.49194  1.0000
  H   H896      1.0  0.57836  0.37549  0.69404  1.0000
  H   H897      1.0  0.66248  0.22192  0.52604  1.0000
  H   H898      1.0  0.82255  0.11040  0.54637  1.0000
  H   H899      1.0  0.85111  0.23378  0.52383  1.0000
  H   H900      1.0  0.71072  0.24534  0.53413  1.0000
  H   H901      1.0  0.78224  0.12120  0.57324  1.0000
  H   H902      1.0  0.64489  0.13568  0.72442  1.0000
  H   H903      1.0  0.95701  0.42065  0.67054  1.0000
  C   C758      1.0  0.71207  0.35768  0.62911  1.0000
  H   H904      1.0  0.66489  0.29412  0.60906  1.0000
  H   H905      1.0  0.73740  0.36581  0.66025  1.0000
  N   N52       1.0  0.77468  0.33839  0.58797  1.0000
  C   C759      1.0  0.77736  0.34241  0.61420  1.0000
  C   C760      1.0  0.79676  0.33104  0.58009  1.0000
  C   C761      1.0  0.78046  0.36572  0.57665  1.0000
  C   C762      1.0  0.74651  0.31560  0.58208  1.0000
  C   C763      1.0  0.73812  0.28822  0.59143  1.0000
  C   C764      1.0  0.72654  0.31973  0.56753  1.0000
  H   H906      1.0  0.77588  0.32371  0.62419  1.0000
  H   H907      1.0  0.79794  0.36003  0.61929  1.0000
  H   H908      1.0  0.76079  0.34731  0.62089  1.0000
  H   H909      1.0  0.81824  0.34802  0.58404  1.0000
  H   H910      1.0  0.79516  0.32721  0.56049  1.0000
  H   H911      1.0  0.79558  0.31203  0.58932  1.0000
  H   H912      1.0  0.76555  0.37340  0.58272  1.0000
  H   H913      1.0  0.80182  0.38225  0.58150  1.0000
  H   H914      1.0  0.77955  0.36463  0.55676  1.0000
  H   H915      1.0  0.75208  0.28354  0.60274  1.0000
  H   H916      1.0  0.73086  0.33982  0.55972  1.0000
  H   H917      1.0  0.86574  0.43247  0.51262  1.0000
  C   C765      1.0  0.71626  0.24362  0.51538  1.0000
  C   C766      1.0  0.64264  0.13230  0.66397  1.0000
  H   H918      1.0  0.89702  0.42601  0.71641  1.0000
  H   H919      1.0  0.59601  0.08818  0.67991  1.0000
  H   H920      1.0  0.65775  0.12334  0.66388  1.0000
  C   C767      1.0  0.52927  0.21126  0.57460  1.0000
  H   H921      1.0  0.82928  0.20041  0.55641  1.0000
  C   C768      1.0  0.66689  0.21748  0.50767  1.0000
  H   H922      1.0  0.54996  0.27607  0.53858  1.0000
  C   C769      1.0  0.86502  0.20778  0.50550  1.0000
  C   C770      1.0  0.73089  0.15002  0.50607  1.0000
  H   H923      1.0  0.56380  0.18061  0.69415  1.0000
  H   H924      1.0  0.92112  0.39388  0.66923  1.0000
  H   H925      1.0  0.84213  0.49367  0.51901  1.0000
  H   H926      1.0  0.66755  0.19709  0.50851  1.0000
  H   H927      1.0  0.62686  0.12136  0.64969  1.0000
  C   C771      1.0  0.92008  0.44186  0.67226  1.0000
  H   H928      1.0  0.82095  0.10872  0.57794  1.0000
  H   H929      1.0  0.86857  0.47470  0.49204  1.0000
  H   H930      1.0  0.58203  0.17712  0.65485  1.0000
  H   H931      1.0  0.95910  0.48733  0.68760  1.0000
  H   H932      1.0  0.95190  0.41730  0.73266  1.0000
  C   C772      1.0  0.69103  0.30102  0.64048  1.0000
  H   H933      1.0  0.56027  0.19119  0.53177  1.0000
  H   H934      1.0  0.78790  0.15384  0.55997  1.0000
  C   C773      1.0  0.49347  0.24855  0.49366  1.0000
  C   C774      1.0  0.83315  0.16084  0.58630  1.0000
  H   H935      1.0  0.90256  0.42621  0.66132  1.0000
  H   H936      1.0  0.72337  0.14839  0.72580  1.0000
  C   C775      1.0  0.63751  0.43780  0.69430  1.0000
  H   H937      1.0  0.79333  0.22163  0.50109  1.0000
  C   C776      1.0  0.77926  0.10886  0.73119  1.0000
  H   H938      1.0  0.50947  0.24203  0.60140  1.0000
  C   C777      1.0  0.69062  0.26632  0.49745  1.0000
  H   H939      1.0  0.82480  0.17602  0.58939  1.0000
  C   C778      1.0  0.96093  0.43924  0.72794  1.0000
  H   H940      1.0  0.70549  0.24568  0.59410  1.0000
  C   C779      1.0  0.85289  0.16253  0.52384  1.0000
  H   H941      1.0  0.78559  0.48078  0.56236  1.0000
  C   C780      1.0  0.93771  0.40900  0.68130  1.0000
  H   H942      1.0  0.93758  0.45360  0.65971  1.0000
  C   C781      1.0  0.90338  0.41195  0.70675  1.0000
  C   C782      1.0  0.83963  0.19474  0.54273  1.0000
  H   H943      1.0  0.78708  0.12675  0.54155  1.0000
  H   H944      1.0  0.62738  0.08815  0.69224  1.0000
  C   C783      1.0  0.83105  0.12328  0.56266  1.0000
  S   S218      1.0  0.79154  0.27476  0.49768  1.0000
  C   C784      1.0  0.87582  0.43872  0.49538  1.0000
  C   C785      1.0  0.80090  0.43667  0.53014  1.0000
  H   H945      1.0  0.53425  0.21894  0.59263  1.0000
  H   H946      1.0  0.88516  0.39771  0.69554  1.0000
  H   H947      1.0  0.57357  0.15847  0.72995  1.0000
  H   H948      1.0  0.72936  0.18883  0.50039  1.0000
  C   C786      1.0  0.86554  0.18214  0.50544  1.0000
  H   H949      1.0  0.85640  0.17201  0.58841  1.0000
  H   H950      1.0  0.71039  0.28476  0.49210  1.0000
  H   H951      1.0  0.58660  0.40567  0.67534  1.0000
  C   C787      1.0  0.72647  0.03629  0.66715  1.0000
  C   C788      1.0  0.52135  0.19347  0.52725  1.0000
  H   H952      1.0  0.55819  0.45475  0.72208  1.0000
  C   C789      1.0  0.75880  0.06539  0.70753  1.0000
  H   H953      1.0  0.73400  0.11153  0.50621  1.0000
  C   C790      1.0  0.74923  0.07876  0.69001  1.0000
  C   C791      1.0  0.54477  0.19570  0.54019  1.0000
  H   H954      1.0  0.60428  0.09426  0.71115  1.0000
  C   C792      1.0  0.61028  0.14191  0.68882  1.0000
  Fe  Fe113     1.0  0.78821  0.05285  0.49553  1.0000
  N   N53       1.0  0.82493  0.14761  0.56245  1.0000
  C   C793      1.0  0.65231  0.14167  0.70578  1.0000
  H   H955      1.0  0.75877  0.02553  0.71593  1.0000
  H   H956      1.0  0.65153  0.45230  0.70813  1.0000
  H   H957      1.0  0.82460  0.14520  0.60114  1.0000
  H   H958      1.0  0.68477  0.30131  0.55198  1.0000
  H   H959      1.0  0.56746  0.20714  0.57350  1.0000
  C   C794      1.0  0.68134  0.30955  0.62007  1.0000
  C   C795      1.0  0.71182  0.32062  0.65580  1.0000
  H   H960      1.0  0.78924  0.14805  0.50251  1.0000
  C   C796      1.0  0.50499  0.20898  0.56197  1.0000
  C   C797      1.0  0.73192  0.12744  0.49529  1.0000
  H   H961      1.0  0.62912  0.44945  0.68284  1.0000
  H   H962      1.0  0.90675  0.39840  0.72034  1.0000
  H   H963      1.0  0.71383  0.02509  0.65191  1.0000
  H   H964      1.0  0.64837  0.21506  0.49665  1.0000
  H   H965      1.0  0.75324  0.10026  0.69134  1.0000
  S   S219      1.0  0.81711  0.47788  0.60320  1.0000
  C   C798      1.0  0.49957  0.30643  0.58686  1.0000
  H   H966      1.0  0.65090  0.43255  0.68243  1.0000
  C   C799      1.0  0.73314  0.06425  0.67027  1.0000
  H   H967      1.0  0.61099  0.15380  0.65079  1.0000
  H   H968      1.0  0.73180  0.15157  0.52540  1.0000
  H   H969      1.0  0.70627  0.26767  0.66944  1.0000
  H   H970      1.0  0.67171  0.25409  0.56894  1.0000
  H   H971      1.0  0.65458  0.15474  0.65874  1.0000
  C   C800      1.0  0.71511  0.12628  0.72971  1.0000
  H   H972      1.0  0.83250  0.43710  0.58400  1.0000
  H   H973      1.0  0.82478  0.41608  0.54360  1.0000
  C   C801      1.0  0.82025  0.44171  0.57063  1.0000
  C   C802      1.0  0.72558  0.28686  0.67412  1.0000
  C   C803      1.0  0.69476  0.07848  0.71654  1.0000
  C   C804      1.0  0.60313  0.15377  0.66843  1.0000
  N   N54       1.0  0.61498  0.41237  0.70548  1.0000
  C   C805      1.0  0.57599  0.16924  0.69260  1.0000
  C   C806      1.0  0.95154  0.44866  0.70735  1.0000
  C   C807      1.0  0.69989  0.29771  0.56286  1.0000
  C   C808      1.0  0.59875  0.42028  0.72215  1.0000
  C   C809      1.0  0.71150  0.26640  0.58660  1.0000
  C   C810      1.0  0.80949  0.46025  0.57586  1.0000
  Fe  Fe114     1.0  0.86951  0.47071  0.67812  1.0000
  S   S220      1.0  0.79720  0.42301  0.50126  1.0000
  C   C811      1.0  0.69241  0.27112  0.57240  1.0000
  C   C812      1.0  0.58629  0.16725  0.67045  1.0000
  S   S221      1.0  0.87068  0.45865  0.63990  1.0000
  N   N55       1.0  0.92863  0.42843  0.69209  1.0000
  H   H974      1.0  0.77755  0.45954  0.52229  1.0000
  H   H975      1.0  0.51851  0.18692  0.50874  1.0000
  C   C813      1.0  0.75194  0.03700  0.70358  1.0000
  C   C814      1.0  0.96504  0.47794  0.70250  1.0000
  N   N56       1.0  0.62938  0.12892  0.68771  1.0000
  H   H976      1.0  0.68128  0.27895  0.64460  1.0000
  C   C815      1.0  0.69174  0.33785  0.61444  1.0000
  H   H977      1.0  0.60736  0.38780  0.67380  1.0000
  C   C816      1.0  0.72200  0.34933  0.64951  1.0000
  C   C817      1.0  0.73596  0.02273  0.68372  1.0000
  C   C818      1.0  0.61354  0.09857  0.69300  1.0000
  C   C819      1.0  0.54871  0.20458  0.56378  1.0000
  C   C820      1.0  0.79406  0.46655  0.55834  1.0000
  C   C821      1.0  0.85208  0.21407  0.52411  1.0000
  C   C822      1.0  0.58175  0.15697  0.71275  1.0000
  S   S222      1.0  0.79031  0.09515  0.50297  1.0000
  H   H978      1.0  0.88506  0.40392  0.49350  1.0000
  H   H979      1.0  0.64381  0.40886  0.73132  1.0000
  H   H980      1.0  0.73604  0.26286  0.51176  1.0000
  H   H981      1.0  0.56275  0.33857  0.72836  1.0000
  C   C823      1.0  0.58482  0.43586  0.71372  1.0000
  C   C824      1.0  0.59598  0.39462  0.68640  1.0000
  C   C825      1.0  0.54386  0.33945  0.73358  1.0000
  C   C826      1.0  0.80374  0.08127  0.72774  1.0000
  C   C827      1.0  0.59841  0.14327  0.71093  1.0000
  C   C828      1.0  0.49622  0.33112  0.72510  1.0000
  H   H982      1.0  0.66241  0.16487  0.70442  1.0000
  H   H983      1.0  0.79106  0.12245  0.71590  1.0000
  H   H984      1.0  0.64071  0.39103  0.70408  1.0000
  H   H985      1.0  0.50718  0.26624  0.50430  1.0000
  C   C829      1.0  0.50327  0.30490  0.61147  1.0000
  H   H986      1.0  0.66897  0.13498  0.70358  1.0000
  N   N57       1.0  0.69345  0.24017  0.49819  1.0000
  H   H987      1.0  0.50551  0.25857  0.56026  1.0000
  C   C830      1.0  0.56862  0.44284  0.72891  1.0000
  H   H988      1.0  0.75864  0.10905  0.73235  1.0000
  H   H989      1.0  0.80268  0.06010  0.72796  1.0000
  H   H990      1.0  0.90209  0.47096  0.73505  1.0000
  H   H991      1.0  0.60232  0.13412  0.72708  1.0000
  C   C831      1.0  0.98613  0.49643  0.71764  1.0000
  H   H992      1.0  0.49493  0.41642  0.72302  1.0000
  H   H993      1.0  0.87390  0.22240  0.49067  1.0000
  H   H994      1.0  0.87468  0.17693  0.49040  1.0000
  H   H995      1.0  0.73078  0.00095  0.68131  1.0000
  C   C832      1.0  0.76152  0.06422  0.75091  1.0000
  Fe  Fe115     1.0  0.70194  0.03466  0.80023  1.0000
  H   H996      1.0  0.77182  0.07581  0.76744  1.0000
  H   H997      1.0  0.80466  0.01636  0.94249  1.0000
  H   H998      1.0  0.85605  0.03187  0.86824  1.0000
  C   C833      1.0  0.70450  0.08816  0.75894  1.0000
  H   H999      1.0  0.57647  0.41241  0.78033  1.0000
  S   S223      1.0  0.91288  0.05212  0.95983  1.0000
  H   H1000     1.0  0.51366  0.47422  0.86502  1.0000
  H   H1001     1.0  0.93057  0.47918  0.77254  1.0000
  H   H1002     1.0  0.72213  0.13172  0.76787  1.0000
  S   S224      1.0  0.74246  0.03219  0.80676  1.0000
  Fe  Fe116     1.0  0.87388  0.05778  0.96406  1.0000
  H   H1003     1.0  0.56002  0.35615  0.76847  1.0000
  S   S225      1.0  0.85537  0.06818  0.93016  1.0000
  H   H1004     1.0  0.88170  0.04076  0.90314  1.0000
  H   H1005     1.0  0.50334  0.44747  0.90116  1.0000
  C   C834      1.0  0.77002  0.01930  0.89103  1.0000
  C   C835      1.0  0.93646  0.49557  0.75909  1.0000
  C   C836      1.0  0.80113  0.02413  0.92542  1.0000
  C   C837      1.0  0.82209  0.04896  0.91574  1.0000
  C   C838      1.0  0.81669  0.05892  0.89372  1.0000
  C   C839      1.0  0.79084  0.04425  0.88144  1.0000
  C   C840      1.0  0.49452  0.34066  0.74796  1.0000
  S   S226      1.0  0.70560  0.07727  0.78901  1.0000
  H   H1006     1.0  0.83262  0.07817  0.88610  1.0000
  H   H1007     1.0  0.78707  0.05225  0.86457  1.0000
  H   H1008     1.0  0.98797  0.45047  0.75920  1.0000
  S   S227      1.0  0.73710  0.99957  0.87627  1.0000
  H   H1009     1.0  0.50507  0.48165  0.93364  1.0000
  S   S228      1.0  0.68261  0.01083  0.83452  1.0000
  C   C841      1.0  0.71443  0.11678  0.75355  1.0000
  C   C842      1.0  0.83831  0.01144  0.86988  1.0000
  Fe  Fe117     1.0  0.89045  0.01484  0.98382  1.0000
  S   S229      1.0  0.51752  0.36549  0.79122  1.0000
  H   H1010     1.0  0.76174  0.04373  0.75257  1.0000
  C   C843      1.0  0.77534  0.00942  0.91312  1.0000
  C   C844      1.0  0.51776  0.35041  0.76345  1.0000
  C   C845      1.0  0.81526  0.00627  0.85489  1.0000
  C   C846      1.0  0.54225  0.34935  0.75630  1.0000
  C   C847      1.0  0.88652  0.02316  0.89929  1.0000
  Fe  Fe118     1.0  0.72171  0.00517  0.83890  1.0000
  H   H1011     1.0  0.89449  0.02567  0.88073  1.0000
  C   C848      1.0  0.69439  0.06904  0.74028  1.0000
  H   H1012     1.0  0.84593  0.01030  0.93159  1.0000
  C   C849      1.0  0.92029  0.49084  0.73784  1.0000
  H   H1013     1.0  0.79118  0.11896  0.74773  1.0000
  H   H1014     1.0  0.68634  0.04695  0.74413  1.0000
  C   C850      1.0  0.98175  0.45800  0.74315  1.0000
  H   H1015     1.0  0.81715  0.09252  0.74330  1.0000
  C   C851      1.0  0.57931  0.41941  0.76176  1.0000
  H   H1016     1.0  0.73920  0.06001  0.75131  1.0000
  S   S230      1.0  0.85079  0.01890  0.98648  1.0000
  H   H1017     1.0  0.60526  0.40044  0.75491  1.0000
  C   C852      1.0  0.50338  0.48981  0.79917  1.0000
  H   H1018     1.0  0.81591  0.02234  0.84250  1.0000
  C   C853      1.0  0.59574  0.41249  0.74679  1.0000
  C   C854      1.0  0.56570  0.43442  0.75285  1.0000
  H   H1019     1.0  0.52037  0.49257  0.78753  1.0000
  H   H1020     1.0  0.90425  0.02581  0.91149  1.0000
  H   H1021     1.0  0.55274  0.43932  0.76459  1.0000
  C   C855      1.0  0.49571  0.49351  0.88913  1.0000
  C   C856      1.0  0.51301  0.49308  0.87033  1.0000
  H   H1022     1.0  0.87049  0.99783  0.94082  1.0000
  C   C857      1.0  0.78662  0.92432  0.06574  1.0000
  H   H1023     1.0  0.96632  0.80971  0.13621  1.0000
  C   C858      1.0  0.62672  0.99573  0.22294  1.0000
  C   C859      1.0  0.93873  0.72610  0.03229  1.0000
  C   C860      1.0  0.89423  0.97893  0.15609  1.0000
  Fe  Fe119     1.0  0.67634  0.90677  0.13873  1.0000
  S   S231      1.0  0.69948  0.92169  0.17409  1.0000
  S   S232      1.0  0.63246  0.87078  0.13454  1.0000
  Fe  Fe120     1.0  0.72015  0.95500  0.11093  1.0000
  S   S233      1.0  0.74650  0.97414  0.14350  1.0000
  Fe  Fe121     1.0  0.73821  0.93031  0.15285  1.0000
  S   S234      1.0  0.77683  0.92727  0.16709  1.0000
  Fe  Fe122     1.0  0.70632  0.96459  0.16201  1.0000
  H   H1024     1.0  0.88050  0.79145  0.06858  1.0000
  S   S235      1.0  0.71446  0.91176  0.11882  1.0000
  S   S236      1.0  0.68063  0.94893  0.12836  1.0000
  H   H1025     1.0  0.89423  0.68813  0.05508  1.0000
  C   C861      1.0  0.62336  0.95202  0.15953  1.0000
  C   C862      1.0  0.82534  0.94720  0.22489  1.0000
  H   H1026     1.0  0.86835  0.68451  0.03257  1.0000
  N   N58       1.0  0.83864  0.94598  0.05854  1.0000
  Fe  Fe123     1.0  0.88138  0.88324  0.10867  1.0000
  S   S237      1.0  0.91189  0.92706  0.11834  1.0000
  S   S238      1.0  0.83492  0.87069  0.10514  1.0000
  Fe  Fe124     1.0  0.92757  0.86547  0.10043  1.0000
  S   S239      1.0  0.96117  0.90802  0.10999  1.0000
  S   S240      1.0  0.94228  0.83267  0.09325  1.0000
  Fe  Fe125     1.0  0.93358  0.90685  0.13993  1.0000
  S   S241      1.0  0.95599  0.92263  0.17522  1.0000
  Fe  Fe126     1.0  0.93654  0.92419  0.08764  1.0000
  S   S242      1.0  0.96002  0.96199  0.06434  1.0000
  S   S243      1.0  0.90138  0.86276  0.13253  1.0000
  S   S244      1.0  0.90454  0.88173  0.07589  1.0000
  C   C863      1.0  0.96330  0.80863  0.02056  1.0000
  C   C864      1.0  0.97310  0.80210  0.04201  1.0000
  C   C865      1.0  0.96712  0.81028  0.06404  1.0000
  C   C866      1.0  0.95202  0.82582  0.06493  1.0000
  C   C867      1.0  0.94352  0.83369  0.04347  1.0000
  C   C868      1.0  0.94882  0.82480  0.02143  1.0000
  C   C869      1.0  0.89467  0.76020  0.07374  1.0000
  S   S245      1.0  0.96729  0.79584  0.99253  1.0000
  H   H1027     1.0  0.93192  0.84568  0.04387  1.0000
  H   H1028     1.0  0.94132  0.83019  0.00498  1.0000
  C   C870      1.0  0.94110  0.96368  0.03890  1.0000
  H   H1029     1.0  0.94759  0.84309  0.14338  1.0000
  H   H1030     1.0  0.83564  0.91217  0.03687  1.0000
  C   C871      1.0  0.49927  0.66831  0.99504  1.0000
  C   C872      1.0  0.90061  0.94277  0.01227  1.0000
  C   C873      1.0  0.91626  0.94060  0.03190  1.0000
  C   C874      1.0  0.89094  0.69026  0.03561  1.0000
  C   C875      1.0  0.61685  0.95166  0.20339  1.0000
  H   H1031     1.0  0.88122  0.92498  0.00710  1.0000
  H   H1032     1.0  0.90901  0.92108  0.04154  1.0000
  H   H1033     1.0  0.63239  0.91023  0.20149  1.0000
  H   H1034     1.0  0.96920  0.88714  0.21408  1.0000
  H   H1035     1.0  0.87832  0.78799  0.02455  1.0000
  H   H1036     1.0  0.84259  0.97376  0.08696  1.0000
  C   C876      1.0  0.61998  0.73702  0.03224  1.0000
  C   C877      1.0  0.79296  0.91201  0.14926  1.0000
  C   C878      1.0  0.82115  0.91834  0.15370  1.0000
  C   C879      1.0  0.83435  0.90593  0.14030  1.0000
  C   C880      1.0  0.81925  0.88666  0.12259  1.0000
  C   C881      1.0  0.79104  0.88021  0.11826  1.0000
  C   C882      1.0  0.77801  0.89305  0.13133  1.0000
  H   H1037     1.0  0.83285  0.93291  0.16751  1.0000
  H   H1038     1.0  0.85605  0.91096  0.14390  1.0000
  H   H1039     1.0  0.77917  0.86520  0.10469  1.0000
  H   H1040     1.0  0.75621  0.88772  0.12792  1.0000
  H   H1041     1.0  0.58242  0.89597  0.19396  1.0000
  C   C883      1.0  0.96409  0.84301  0.15491  1.0000
  H   H1042     1.0  0.62059  0.72279  0.04676  1.0000
  H   H1043     1.0  0.86687  0.95901  0.08906  1.0000
  C   C884      1.0  0.62067  0.85893  0.10507  1.0000
  C   C885      1.0  0.63905  0.86864  0.08578  1.0000
  C   C886      1.0  0.62970  0.85822  0.06270  1.0000
  C   C887      1.0  0.60180  0.83822  0.05848  1.0000
  C   C888      1.0  0.58319  0.82878  0.07768  1.0000
  C   C889      1.0  0.59265  0.83904  0.10090  1.0000
  H   H1044     1.0  0.66060  0.88403  0.08862  1.0000
  H   H1045     1.0  0.56168  0.81331  0.07470  1.0000
  H   H1046     1.0  0.57825  0.83139  0.11568  1.0000
  C   C890      1.0  0.87949  0.98981  0.14222  1.0000
  H   H1047     1.0  0.63328  0.99324  0.18618  1.0000
  H   H1048     1.0  0.59363  0.75345  0.99728  1.0000
  H   H1049     1.0  0.88238  0.97051  0.04940  1.0000
  H   H1050     1.0  0.89651  0.76265  0.09298  1.0000
  H   H1051     1.0  0.77957  0.90070  0.21284  1.0000
  H   H1052     1.0  0.77394  0.96106  0.00988  1.0000
  C   C891      1.0  0.93766  0.92964  0.19763  1.0000
  C   C892      1.0  0.91105  0.92774  0.19320  1.0000
  C   C893      1.0  0.89746  0.93466  0.21119  1.0000
  C   C894      1.0  0.86116  0.96758  0.04376  1.0000
  H   H1053     1.0  0.90100  0.92104  0.17592  1.0000
  H   H1054     1.0  0.82722  0.93664  0.20866  1.0000
  N   N59       1.0  0.59493  0.74177  0.03443  1.0000
  C   C895      1.0  0.97465  0.86185  0.17366  1.0000
  C   C896      1.0  0.84508  0.95467  0.08385  1.0000
  C   C897      1.0  0.56977  0.71478  0.02964  1.0000
  C   C898      1.0  0.59493  0.75327  0.05825  1.0000
  C   C899      1.0  0.57244  0.74014  0.07461  1.0000
  C   C900      1.0  0.61780  0.77877  0.06553  1.0000
  C   C901      1.0  0.57314  0.75185  0.09686  1.0000
  C   C902      1.0  0.61834  0.79016  0.08786  1.0000
  C   C903      1.0  0.59606  0.77675  0.10348  1.0000
  C   C904      1.0  0.77751  0.91228  0.22836  1.0000
  H   H1055     1.0  0.65859  0.94210  0.18866  1.0000
  C   C905      1.0  0.76449  0.99154  0.06808  1.0000
  H   H1056     1.0  0.82424  0.90221  0.06707  1.0000
  C   C906      1.0  0.63718  0.92460  0.18578  1.0000
  H   H1057     1.0  0.63991  0.75675  0.03325  1.0000
  H   H1058     1.0  0.55016  0.71711  0.02965  1.0000
  H   H1059     1.0  0.98570  0.98549  0.16287  1.0000
  H   H1060     1.0  0.92055  0.73882  0.99155  1.0000
  H   H1061     1.0  0.55386  0.72104  0.07053  1.0000
  H   H1062     1.0  0.63514  0.79055  0.05375  1.0000
  H   H1063     1.0  0.55561  0.74178  0.10892  1.0000
  H   H1064     1.0  0.63569  0.81004  0.09278  1.0000
  H   H1065     1.0  0.59632  0.78613  0.12051  1.0000
  H   H1066     1.0  0.94491  0.71075  0.02482  1.0000
  H   H1067     1.0  0.96596  0.87623  0.17572  1.0000
  H   H1068     1.0  0.62212  0.93900  0.14388  1.0000
  Fe  Fe127     1.0  0.51987  0.73823  0.99016  1.0000
  C   C907      1.0  0.95035  0.93792  0.22018  1.0000
  H   H1069     1.0  0.84671  0.95795  0.23305  1.0000
  H   H1070     1.0  0.58701  0.89945  0.16254  1.0000
  H   H1071     1.0  0.63791  0.91264  0.17002  1.0000
  S   S246      1.0  0.72847  0.97334  0.07372  1.0000
  C   C908      1.0  0.81015  0.94203  0.05180  1.0000
  H   H1072     1.0  0.64525  0.96927  0.15993  1.0000
  N   N60       1.0  0.61639  0.93541  0.18219  1.0000
  C   C909      1.0  0.60913  0.93833  0.22617  1.0000
  S   S247      1.0  0.51954  0.75209  0.02756  1.0000
  C   C910      1.0  0.88556  0.77646  0.06000  1.0000
  H   H1073     1.0  0.87689  0.93318  0.20771  1.0000
  H   H1074     1.0  0.57862  0.76771  0.01799  1.0000
  H   H1075     1.0  0.77681  0.98173  0.10242  1.0000
  H   H1076     1.0  0.69038  0.96689  0.22341  1.0000
  C   C911      1.0  0.92189  0.98580  0.15062  1.0000
  C   C912      1.0  0.90133  0.73903  0.03748  1.0000
  C   C913      1.0  0.90235  0.74167  0.06274  1.0000
  C   C914      1.0  0.89235  0.75628  0.02395  1.0000
  H   H1077     1.0  0.57167  0.91854  0.17736  1.0000
  C   C915      1.0  0.88438  0.77449  0.03519  1.0000
  H   H1078     1.0  0.85889  0.96159  0.02463  1.0000
  H   H1079     1.0  0.62008  0.72748  0.01479  1.0000
  H   H1080     1.0  0.94295  0.72647  0.05182  1.0000
  H   H1081     1.0  0.90954  0.72974  0.07417  1.0000
  H   H1082     1.0  0.86114  0.98821  0.04496  1.0000
  C   C916      1.0  0.93451  0.99123  0.00674  1.0000
  H   H1083     1.0  0.60281  0.91629  0.22849  1.0000
  H   H1084     1.0  0.82111  0.96860  0.01937  1.0000
  C   C917      1.0  0.98407  0.88130  0.22388  1.0000
  C   C918      1.0  0.75504  0.93358  0.03981  1.0000
  H   H1085     1.0  0.86084  0.92106  0.06102  1.0000
  H   H1086     1.0  0.74206  0.90745  0.07125  1.0000
  C   C919      1.0  0.80471  0.95482  0.03115  1.0000
  S   S248      1.0  0.59193  0.82519  0.02908  1.0000
  H   H1087     1.0  0.85787  0.98421  0.14650  1.0000
  H   H1088     1.0  0.89541  0.67437  0.02678  1.0000
  C   C920      1.0  0.75958  0.92043  0.05993  1.0000
  C   C921      1.0  0.95051  0.98883  0.02597  1.0000
  H   H1089     1.0  0.98635  0.99233  0.20548  1.0000
  C   C922      1.0  0.69214  0.98713  0.22761  1.0000
  H   H1090     1.0  0.88438  0.71228  0.99392  1.0000
  Fe  Fe128     1.0  0.54883  0.79535  0.01418  1.0000
  C   C923      1.0  0.59588  0.76201  0.01560  1.0000
  H   H1091     1.0  0.95319  0.74697  0.02478  1.0000
  H   H1092     1.0  0.73416  0.93118  0.03577  1.0000
  N   N61       1.0  0.90913  0.71886  0.02632  1.0000
  C   C924      1.0  0.77751  0.95049  0.02532  1.0000
  H   H1093     1.0  0.56783  0.69828  0.04290  1.0000
  C   C925      1.0  0.83989  0.91924  0.05574  1.0000
  H   H1094     1.0  0.64424  0.86573  0.04799  1.0000
  H   H1095     1.0  0.78894  0.91338  0.08132  1.0000
  H   H1096     1.0  0.83129  0.93825  0.09661  1.0000
  H   H1097     1.0  0.57041  0.70661  0.01164  1.0000
  C   C926      1.0  0.58815  0.91138  0.17895  1.0000
  H   H1098     1.0  0.88420  0.96503  0.17107  1.0000
  S   S249      1.0  0.98809  0.69762  0.04074  1.0000
  H   H1099     1.0  0.98472  0.79019  0.04175  1.0000
  S   S250      1.0  0.51429  0.80619  0.00284  1.0000
  H   H1100     1.0  0.89200  0.75672  0.00465  1.0000
  H   H1101     1.0  0.97381  0.80410  0.08051  1.0000
  H   H1102     1.0  0.61568  0.78193  0.01606  1.0000
  H   H1103     1.0  0.98551  0.90344  0.00936  1.0000
  H   H1104     1.0  0.93641  0.50183  0.22375  1.0000
  H   H1105     1.0  0.81437  0.89338  0.23366  1.0000
  H   H1106     1.0  0.60862  0.96101  0.15579  1.0000
  H   H1107     1.0  0.93316  0.97702  0.16132  1.0000
  H   H1108     1.0  0.77027  0.92715  0.22057  1.0000
  C   C927      1.0  0.91037  0.94343  0.23363  1.0000
  H   H1109     1.0  0.97187  0.85984  0.23149  1.0000
  H   H1110     1.0  0.91224  0.70279  0.99200  1.0000
  H   H1111     1.0  0.98782  0.92912  0.04614  1.0000
  C   C928      1.0  0.78387  0.99285  0.08571  1.0000
  C   C929      1.0  0.90631  0.71819  0.99982  1.0000
  H   H1112     1.0  0.97081  0.93915  0.22376  1.0000
  H   H1113     1.0  0.81923  0.96356  0.21886  1.0000
  C   C930      1.0  0.62591  0.98099  0.20241  1.0000
  C   C931      1.0  0.90939  0.96830  0.00005  1.0000
  C   C932      1.0  0.97462  0.82416  0.15092  1.0000
  H   H1114     1.0  0.49694  0.68889  0.02687  1.0000
  Fe  Fe129     1.0  0.93880  0.95439  0.33675  1.0000
  S   S251      1.0  0.95744  0.97475  0.30184  1.0000
  S   S252      1.0  0.95347  0.92525  0.35434  1.0000
  H   H1115     1.0  0.94187  0.60250  0.34657  1.0000
  H   H1116     1.0  0.69125  0.98688  0.39960  1.0000
  Fe  Fe130     1.0  0.81057  0.50607  0.44973  1.0000
  Fe  Fe131     1.0  0.91385  0.96689  0.29171  1.0000
  S   S253      1.0  0.89316  0.95295  0.25541  1.0000
  N   N62       1.0  0.80450  0.92704  0.24169  1.0000
  H   H1117     1.0  0.72906  0.54838  0.35243  1.0000
  S   S254      1.0  0.89446  0.94304  0.32545  1.0000
  C   C933      1.0  0.61017  0.95334  0.24659  1.0000
  H   H1118     1.0  0.94663  0.95105  0.25546  1.0000
  C   C934      1.0  0.77784  0.94409  0.26877  1.0000
  H   H1119     1.0  0.68802  0.50596  0.36114  1.0000
  H   H1120     1.0  0.98921  0.61503  0.39896  1.0000
  C   C935      1.0  0.95963  0.90737  0.30999  1.0000
  N   N63       1.0  0.72994  0.50940  0.36067  1.0000
  C   C936      1.0  0.82622  0.95569  0.27831  1.0000
  H   H1121     1.0  0.75545  0.52819  0.39220  1.0000
  C   C937      1.0  0.89820  0.51701  0.36202  1.0000
  S   S255      1.0  0.83953  0.55174  0.45746  1.0000
  H   H1122     1.0  0.97761  0.59710  0.37107  1.0000
  S   S256      1.0  0.86541  0.98699  0.35796  1.0000
  Fe  Fe132     1.0  0.95786  0.52787  0.33784  1.0000
  C   C938      1.0  0.81464  0.93859  0.46070  1.0000
  H   H1123     1.0  0.96530  0.89350  0.27560  1.0000
  C   C939      1.0  0.98548  0.67638  0.37710  1.0000
  C   C940      1.0  0.93509  0.58486  0.45291  1.0000
  C   C941      1.0  0.97036  0.89449  0.29447  1.0000
  C   C942      1.0  0.96562  0.90832  0.33453  1.0000
  C   C943      1.0  0.80026  0.97073  0.30419  1.0000
  H   H1124     1.0  0.93792  0.62316  0.46657  1.0000
  H   H1125     1.0  0.81259  0.50067  0.35577  1.0000
  C   C944      1.0  0.87628  0.56451  0.45504  1.0000
  C   C945      1.0  0.89459  0.59193  0.46203  1.0000
  C   C946      1.0  0.92396  0.60212  0.46101  1.0000
  H   H1126     1.0  0.86404  0.97202  0.48076  1.0000
  H   H1127     1.0  0.92525  0.62256  0.35702  1.0000
  C   C947      1.0  0.88756  0.54760  0.44658  1.0000
  C   C948      1.0  0.94591  0.62799  0.40214  1.0000
  C   C949      1.0  0.82495  0.96965  0.29864  1.0000
  C   C950      1.0  0.98221  0.89620  0.34345  1.0000
  H   H1128     1.0  0.66354  0.93554  0.46971  1.0000
  H   H1129     1.0  0.86963  0.94994  0.46113  1.0000
  Fe  Fe133     1.0  0.90271  0.98455  0.34078  1.0000
  H   H1130     1.0  0.68080  0.97636  0.26462  1.0000
  N   N64       1.0  0.95819  0.62331  0.38016  1.0000
  H   H1131     1.0  0.96225  0.63800  0.41630  1.0000
  Fe  Fe134     1.0  0.99146  0.52377  0.29619  1.0000
  C   C951      1.0  0.61892  0.98197  0.24496  1.0000
  H   H1132     1.0  0.76333  0.55069  0.35278  1.0000
  H   H1133     1.0  0.91802  0.58937  0.37070  1.0000
  C   C952      1.0  0.98756  0.88297  0.30336  1.0000
  H   H1134     1.0  0.75897  0.93492  0.25793  1.0000
  H   H1135     1.0  0.83692  0.90352  0.45460  1.0000
  C   C953      1.0  0.73341  0.51417  0.38683  1.0000
  C   C954      1.0  0.68685  0.99262  0.25102  1.0000
  C   C955      1.0  0.88148  0.52156  0.37856  1.0000
  H   H1136     1.0  0.99019  0.62838  0.34086  1.0000
  C   C956      1.0  0.97076  0.60452  0.38681  1.0000
  C   C957      1.0  0.93485  0.60890  0.36287  1.0000
  C   C958      1.0  0.86237  0.99420  0.38824  1.0000
  H   H1137     1.0  0.97620  0.67958  0.39295  1.0000
  H   H1138     1.0  0.84597  0.95562  0.27484  1.0000
  H   H1139     1.0  0.72035  0.52371  0.39351  1.0000
  S   S257      1.0  0.97153  0.59583  0.45108  1.0000
  H   H1140     1.0  0.84360  0.50288  0.39920  1.0000
  H   H1141     1.0  0.83519  0.91519  0.25697  1.0000
  H   H1142     1.0  0.75769  0.95929  0.29350  1.0000
  C   C959      1.0  0.81367  0.90576  0.24911  1.0000
  H   H1143     1.0  0.88604  0.60527  0.46841  1.0000
  H   H1144     1.0  0.98668  0.89660  0.36244  1.0000
  H   H1145     1.0  0.83728  0.89439  0.48558  1.0000
  H   H1146     1.0  0.92929  0.50584  0.42674  1.0000
  H   H1147     1.0  0.95548  0.58525  0.39630  1.0000
  H   H1148     1.0  0.92985  0.60793  0.40988  1.0000
  H   H1149     1.0  0.60477  0.94292  0.26391  1.0000
  H   H1150     1.0  0.94624  0.91604  0.30302  1.0000
  H   H1151     1.0  0.79186  0.92370  0.46001  1.0000
  H   H1152     1.0  0.88827  0.54210  0.38588  1.0000
  H   H1153     1.0  0.73983  0.53404  0.32825  1.0000
  C   C960      1.0  0.74105  0.53680  0.34799  1.0000
  C   C961      1.0  0.97950  0.64936  0.36891  1.0000
  H   H1154     1.0  0.62057  0.99373  0.26094  1.0000
  C   C962      1.0  0.83641  0.99136  0.39618  1.0000
  H   H1155     1.0  0.81864  0.98393  0.38397  1.0000
  C   C963      1.0  0.91676  0.55773  0.44558  1.0000
  H   H1156     1.0  0.87384  0.52682  0.44052  1.0000
  S   S258      1.0  0.93026  0.54459  0.35309  1.0000
  H   H1157     1.0  0.84328  0.97952  0.31024  1.0000
  H   H1158     1.0  0.93493  0.64095  0.39848  1.0000
  S   S259      1.0  0.71532  0.98049  0.44505  1.0000
  S   S260      1.0  0.94597  0.99412  0.35484  1.0000
  H   H1159     1.0  0.92528  0.54456  0.43894  1.0000
  C   C964      1.0  0.80261  0.94209  0.26289  1.0000
  H   H1160     1.0  0.79937  0.98128  0.32019  1.0000
  C   C965      1.0  0.77510  0.50601  0.35751  1.0000
  H   H1161     1.0  0.82346  0.94014  0.44252  1.0000
  C   C966      1.0  0.93674  0.94480  0.23815  1.0000
  C   C967      1.0  0.77682  0.95819  0.28920  1.0000
  H   H1162     1.0  0.79934  0.89100  0.26270  1.0000
  H   H1163     1.0  0.78657  0.52620  0.36567  1.0000
  H   H1164     1.0  0.81324  0.99590  0.42560  1.0000
  H   H1165     1.0  0.81618  0.95941  0.46442  1.0000
  H   H1166     1.0  0.65426  0.90324  0.48500  1.0000
  H   H1167     1.0  0.76078  0.89666  0.23990  1.0000
  S   S261      1.0  0.96849  0.50065  0.36250  1.0000
  C   C968      1.0  0.85621  0.49929  0.38620  1.0000
  H   H1168     1.0  0.80453  0.88659  0.46998  1.0000
  C   C969      1.0  0.85999  0.95005  0.47857  1.0000
  S   S262      1.0  0.94605  0.49918  0.30658  1.0000
  C   C970      1.0  0.82690  0.90234  0.47215  1.0000
  N   N65       1.0  0.82960  0.92997  0.47908  1.0000
  H   H1169     1.0  0.63201  0.92041  0.48688  1.0000
  C   C971      1.0  0.65411  0.92376  0.48658  1.0000
  S   S263      1.0  0.77334  0.97498  0.48747  1.0000
  C   C972      1.0  0.65859  0.92492  0.57492  1.0000
  C   C973      1.0  0.89900  0.51749  0.52805  1.0000
  H   H1170     1.0  0.77708  0.88602  0.54773  1.0000
  H   H1171     1.0  0.70890  0.95185  0.48927  1.0000
  S   S264      1.0  0.76043  0.97829  0.55948  1.0000
  Fe  Fe135     1.0  0.66287  0.84859  0.69128  1.0000
  S   S265      1.0  0.65523  0.87674  0.66503  1.0000
  S   S266      1.0  0.68963  0.85911  0.72475  1.0000
  Fe  Fe136     1.0  0.61850  0.79484  0.66942  1.0000
  S   S267      1.0  0.60741  0.81812  0.64056  1.0000
  S   S268      1.0  0.59889  0.74754  0.67424  1.0000
  Fe  Fe137     1.0  0.65403  0.84650  0.63727  1.0000
  S   S269      1.0  0.67315  0.85816  0.59993  1.0000
  Fe  Fe138     1.0  0.60967  0.84661  0.67005  1.0000
  S   S270      1.0  0.57713  0.86071  0.67721  1.0000
  S   S271      1.0  0.66497  0.82024  0.66342  1.0000
  S   S272      1.0  0.61748  0.82158  0.69886  1.0000
  H   H1172     1.0  0.86402  0.56893  0.50659  1.0000
  C   C974      1.0  0.66081  0.75336  0.70720  1.0000
  C   C975      1.0  0.57826  0.72926  0.69926  1.0000
  C   C976      1.0  0.57139  0.74295  0.71701  1.0000
  N   N66       1.0  0.86420  0.53671  0.53018  1.0000
  H   H1173     1.0  0.69865  0.92120  0.50783  1.0000
  C   C977      1.0  0.55605  0.68586  0.72295  1.0000
  C   C978      1.0  0.57008  0.70054  0.70218  1.0000
  H   H1174     1.0  0.57694  0.76486  0.71483  1.0000
  C   C979      1.0  0.63759  0.90037  0.72236  1.0000
  H   H1175     1.0  0.55045  0.66393  0.72519  1.0000
  H   H1176     1.0  0.57511  0.68969  0.68850  1.0000
  C   C980      1.0  0.82155  0.95515  0.51321  1.0000
  C   C981      1.0  0.92802  0.51178  0.72015  1.0000
  C   C982      1.0  0.70921  0.91522  0.71542  1.0000
  H   H1177     1.0  0.83919  0.55889  0.53003  1.0000
  H   H1178     1.0  0.62692  0.77173  0.72556  1.0000
  C   C983      1.0  0.62518  0.88404  0.55432  1.0000
  H   H1179     1.0  0.68598  0.98159  0.52050  1.0000
  H   H1180     1.0  0.70406  0.90974  0.69687  1.0000
  C   C984      1.0  0.73641  0.94457  0.57036  1.0000
  C   C985      1.0  0.72560  0.92102  0.55586  1.0000
  C   C986      1.0  0.70639  0.89476  0.56523  1.0000
  C   C987      1.0  0.69799  0.89162  0.58926  1.0000
  C   C988      1.0  0.70933  0.91505  0.60391  1.0000
  C   C989      1.0  0.72844  0.94134  0.59449  1.0000
  H   H1181     1.0  0.73243  0.92291  0.53758  1.0000
  H   H1182     1.0  0.69796  0.87669  0.55383  1.0000
  H   H1183     1.0  0.70325  0.91294  0.62246  1.0000
  H   H1184     1.0  0.73698  0.95932  0.60599  1.0000
  H   H1185     1.0  0.66681  0.76724  0.69101  1.0000
  H   H1186     1.0  0.71019  0.78007  0.72987  1.0000
  C   C990      1.0  0.52978  0.84131  0.70438  1.0000
  C   C991      1.0  0.54861  0.83450  0.69263  1.0000
  C   C992      1.0  0.54480  0.80696  0.69367  1.0000
  C   C993      1.0  0.52259  0.78646  0.70681  1.0000
  H   H1187     1.0  0.72487  0.95940  0.70873  1.0000
  C   C994      1.0  0.70476  0.89442  0.73264  1.0000
  H   H1188     1.0  0.55882  0.80133  0.68418  1.0000
  C   C995      1.0  0.92535  0.51995  0.52232  1.0000
  H   H1189     1.0  0.65053  0.96619  0.50920  1.0000
  C   C996      1.0  0.95169  0.53757  0.72417  1.0000
  C   C997      1.0  0.80989  0.95548  0.53526  1.0000
  H   H1190     1.0  0.70185  0.80465  0.71408  1.0000
  C   C998      1.0  0.91437  0.56569  0.51579  1.0000
  H   H1191     1.0  0.81272  0.97510  0.54265  1.0000
  H   H1192     1.0  0.87553  0.57993  0.53700  1.0000
  H   H1193     1.0  0.53259  0.86254  0.70361  1.0000
  C   C999      1.0  0.86079  0.56234  0.52576  1.0000
  C   C1000     1.0  0.84320  0.51442  0.51499  1.0000
  H   H1194     1.0  0.82164  0.51206  0.51751  1.0000
  C   C1001     1.0  0.69626  0.79032  0.73000  1.0000
  H   H1195     1.0  0.95784  0.55392  0.71064  1.0000
  C   C1002     1.0  0.66919  0.93824  0.55302  1.0000
  C   C1003     1.0  0.64961  0.78535  0.72853  1.0000
  H   H1196     1.0  0.71285  0.95509  0.52101  1.0000
  H   H1197     1.0  0.84822  0.51914  0.49569  1.0000
  C   C1004     1.0  0.79406  0.93063  0.54766  1.0000
  C   C1005     1.0  0.85785  0.52862  0.55572  1.0000
  C   C1006     1.0  0.50418  0.79347  0.71904  1.0000
  H   H1198     1.0  0.60860  0.86271  0.55505  1.0000
  H   H1199     1.0  0.62097  0.89583  0.70843  1.0000
  C   C1007     1.0  0.63684  0.89778  0.57557  1.0000
  H   H1200     1.0  0.49370  0.82655  0.72701  1.0000
  H   H1201     1.0  0.95698  0.58754  0.50329  1.0000
  C   C1008     1.0  0.89259  0.54023  0.52474  1.0000
  H   H1202     1.0  0.65634  0.80073  0.71350  1.0000
  H   H1203     1.0  0.87178  0.94523  0.49303  1.0000
  N   N67       1.0  0.66611  0.76951  0.72952  1.0000
  H   H1204     1.0  0.83302  0.97502  0.50410  1.0000
  H   H1205     1.0  0.67986  0.97797  0.48921  1.0000
  H   H1206     1.0  0.64474  0.88404  0.72117  1.0000
  H   H1207     1.0  0.83682  0.52626  0.56070  1.0000
  H   H1208     1.0  0.68717  0.95866  0.55360  1.0000
  C   C1009     1.0  0.50770  0.82088  0.71766  1.0000
  C   C1010     1.0  0.94613  0.54515  0.51339  1.0000
  H   H1209     1.0  0.63824  0.73854  0.70457  1.0000
  H   H1210     1.0  0.51999  0.76530  0.70773  1.0000
  S   S273      1.0  0.90995  0.50664  0.69226  1.0000
  C   C1011     1.0  0.78975  0.90531  0.53804  1.0000
  H   H1211     1.0  0.78481  0.93104  0.56464  1.0000
  H   H1212     1.0  0.87369  0.54446  0.56773  1.0000
  H   H1213     1.0  0.85750  0.50826  0.56026  1.0000
  H   H1214     1.0  0.65596  0.92043  0.71737  1.0000
  C   C1012     1.0  0.65770  0.92496  0.53096  1.0000
  H   H1215     1.0  0.67265  0.74093  0.70722  1.0000
  C   C1013     1.0  0.81784  0.92978  0.50290  1.0000
  C   C1014     1.0  0.63527  0.89732  0.53226  1.0000
  N   N68       1.0  0.67011  0.93910  0.50802  1.0000
  H   H1216     1.0  0.66810  0.93522  0.59153  1.0000
  C   C1015     1.0  0.69888  0.94196  0.50648  1.0000
  C   C1016     1.0  0.80139  0.90472  0.51599  1.0000
  H   H1217     1.0  0.62953  0.88708  0.59262  1.0000
  H   H1218     1.0  0.79700  0.88435  0.50958  1.0000
  H   H1219     1.0  0.62549  0.88526  0.51656  1.0000
  C   C1017     1.0  0.67162  0.96736  0.50676  1.0000
  C   C1018     1.0  0.72106  0.94332  0.72214  1.0000
  H   H1220     1.0  0.96652  0.54710  0.50876  1.0000
  H   H1221     1.0  0.60525  0.92439  0.73332  1.0000
  C   C1019     1.0  0.94072  0.56799  0.51035  1.0000
  Fe  Fe139     1.0  0.77156  0.99588  0.52142  1.0000
  H   H1222     1.0  0.92968  0.50224  0.52479  1.0000
  H   H1223     1.0  0.91157  0.58412  0.51253  1.0000
  H   H1224     1.0  0.88354  0.49755  0.53498  1.0000
  S   S274      1.0  0.51742  0.81160  0.93271  1.0000
  H   H1225     1.0  0.60077  0.89376  0.87825  1.0000
  C   C1020     1.0  0.58031  0.93595  0.80106  1.0000
  C   C1021     1.0  0.52949  0.51725  0.85705  1.0000
  C   C1022     1.0  0.92334  0.57314  0.85958  1.0000
  S   S275      1.0  0.51767  0.61712  0.81043  1.0000
  H   H1226     1.0  0.53575  0.80334  0.76467  1.0000
  H   H1227     1.0  0.64221  0.97224  0.86970  1.0000
  C   C1023     1.0  0.67613  0.75115  0.76915  1.0000
  H   H1228     1.0  0.57230  0.89186  0.75888  1.0000
  C   C1024     1.0  0.60316  0.84911  0.75126  1.0000
  H   H1229     1.0  0.97122  0.61877  0.86895  1.0000
  H   H1230     1.0  0.54338  0.93823  0.78726  1.0000
  H   H1231     1.0  0.54074  0.56060  0.85056  1.0000
  S   S276      1.0  0.97426  0.72641  0.97901  1.0000
  H   H1232     1.0  0.70881  0.88570  0.76992  1.0000
  S   S277      1.0  0.62671  0.93140  0.81969  1.0000
  H   H1233     1.0  0.88913  0.97708  0.91097  1.0000
  C   C1025     1.0  0.66064  0.93329  0.87593  1.0000
  C   C1026     1.0  0.51239  0.87869  0.88999  1.0000
  H   H1234     1.0  0.95231  0.62635  0.84572  1.0000
  C   C1027     1.0  0.49880  0.51288  0.80424  1.0000
  Fe  Fe140     1.0  0.51534  0.78805  0.96724  1.0000
  C   C1028     1.0  0.72313  0.92976  0.76341  1.0000
  S   S278      1.0  0.52125  0.54629  0.79227  1.0000
  S   S279      1.0  0.68148  0.99658  0.77728  1.0000
  H   H1235     1.0  0.70140  0.80409  0.74583  1.0000
  H   H1236     1.0  0.83552  0.97354  0.93321  1.0000
  H   H1237     1.0  0.75938  0.99025  0.92079  1.0000
  H   H1238     1.0  0.51576  0.82877  0.88426  1.0000
  H   H1239     1.0  0.87637  0.97335  0.88049  1.0000
  H   H1240     1.0  0.90898  0.58207  0.85397  1.0000
  S   S280      1.0  0.74240  0.98576  0.75424  1.0000
  S   S281      1.0  0.70369  0.96575  0.81752  1.0000
  H   H1241     1.0  0.72856  0.93532  0.78194  1.0000
  C   C1029     1.0  0.53287  0.89676  0.80059  1.0000
  C   C1030     1.0  0.57218  0.89090  0.81729  1.0000
  C   C1031     1.0  0.54342  0.87983  0.81156  1.0000
  H   H1242     1.0  0.58007  0.87754  0.82573  1.0000
  H   H1243     1.0  0.52937  0.85827  0.81590  1.0000
  H   H1244     1.0  0.91838  0.56103  0.75187  1.0000
  C   C1032     1.0  0.78941  0.96074  0.87309  1.0000
  Fe  Fe141     1.0  0.66549  0.97244  0.81173  1.0000
  C   C1033     1.0  0.62726  0.91732  0.90823  1.0000
  C   C1034     1.0  0.51228  0.54346  0.88000  1.0000
  H   H1245     1.0  0.98468  0.62488  0.83942  1.0000
  C   C1035     1.0  0.55037  0.69991  0.74114  1.0000
  C   C1036     1.0  0.59055  0.86980  0.93544  1.0000
  N   N69       1.0  0.62697  0.90145  0.74641  1.0000
  H   H1246     1.0  0.63157  0.69833  0.80538  1.0000
  C   C1037     1.0  0.96027  0.52135  0.76298  1.0000
  N   N70       1.0  0.94884  0.58468  0.84463  1.0000
  C   C1038     1.0  0.59078  0.91893  0.81198  1.0000
  H   H1247     1.0  0.61583  0.89091  0.96584  1.0000
  H   H1248     1.0  0.59794  0.69572  0.77331  1.0000
  C   C1039     1.0  0.49912  0.80773  0.88639  1.0000
  C   C1040     1.0  0.50435  0.88127  0.86659  1.0000
  H   H1249     1.0  0.50656  0.73609  0.83065  1.0000
  C   C1041     1.0  0.71209  0.90175  0.75658  1.0000
  H   H1250     1.0  0.51148  0.56287  0.88337  1.0000
  S   S282      1.0  0.55185  0.78043  0.97751  1.0000
  C   C1042     1.0  0.91782  0.54456  0.78734  1.0000
  H   H1251     1.0  0.61669  0.95921  0.89315  1.0000
  H   H1252     1.0  0.91132  0.55004  0.85833  1.0000
  C   C1043     1.0  0.72776  0.95057  0.74615  1.0000
  C   C1044     1.0  0.55142  0.92491  0.79555  1.0000
  H   H1253     1.0  0.98545  0.57845  0.84067  1.0000
  C   C1045     1.0  0.65732  0.75014  0.75041  1.0000
  C   C1046     1.0  0.66766  0.96501  0.90764  1.0000
  H   H1254     1.0  0.65218  0.79713  0.74527  1.0000
  H   H1255     1.0  0.51992  0.89402  0.85355  1.0000
  H   H1256     1.0  0.66807  0.92620  0.76183  1.0000
  H   H1257     1.0  0.97476  0.57681  0.87089  1.0000
  H   H1258     1.0  0.94347  0.61032  0.76435  1.0000
  C   C1047     1.0  0.63877  0.71264  0.79020  1.0000
  H   H1259     1.0  0.64097  0.94586  0.74216  1.0000
  N   N71       1.0  0.64587  0.94189  0.89355  1.0000
  C   C1048     1.0  0.49615  0.51956  0.89369  1.0000
  S   S283      1.0  0.53629  0.68351  0.76894  1.0000
  H   H1260     1.0  0.61372  0.93835  0.86764  1.0000
  H   H1261     1.0  0.58087  0.80420  0.75449  1.0000
  H   H1262     1.0  0.67498  0.95131  0.86464  1.0000
  C   C1049     1.0  0.62175  0.92629  0.74666  1.0000
  H   H1263     1.0  0.61532  0.92941  0.76469  1.0000
  C   C1050     1.0  0.58650  0.87082  0.91084  1.0000
  C   C1051     1.0  0.57958  0.82364  0.75584  1.0000
  C   C1052     1.0  0.55221  0.84798  0.76270  1.0000
  C   C1053     1.0  0.55416  0.82310  0.76160  1.0000
  H   H1264     1.0  0.95554  0.54821  0.85140  1.0000
  C   C1054     1.0  0.61275  0.89200  0.94666  1.0000
  H   H1265     1.0  0.50847  0.71457  0.79097  1.0000
  S   S284      1.0  0.88733  0.97241  0.97847  1.0000
  C   C1055     1.0  0.60460  0.89411  0.89735  1.0000
  H   H1266     1.0  0.92871  0.57793  0.87885  1.0000
  H   H1267     1.0  0.64772  0.93185  0.94322  1.0000
  H   H1268     1.0  0.77271  0.97765  0.84550  1.0000
  H   H1269     1.0  0.81018  0.94922  0.90068  1.0000
  H   H1270     1.0  0.59436  0.95761  0.79701  1.0000
  S   S285      1.0  0.49658  0.88386  0.79401  1.0000
  H   H1271     1.0  0.68258  0.95858  0.91667  1.0000
  C   C1056     1.0  0.87060  0.97368  0.89944  1.0000
  C   C1057     1.0  0.62896  0.72950  0.75253  1.0000
  H   H1272     1.0  0.53440  0.88928  0.89510  1.0000
  H   H1273     1.0  0.92109  0.53332  0.82344  1.0000
  C   C1058     1.0  0.96766  0.54240  0.74546  1.0000
  H   H1274     1.0  0.77013  0.94140  0.87463  1.0000
  H   H1275     1.0  0.56921  0.85333  0.90226  1.0000
  H   H1276     1.0  0.65816  0.97284  0.92119  1.0000
  C   C1059     1.0  0.57553  0.87352  0.75784  1.0000
  S   S286      1.0  0.52228  0.69920  0.97999  1.0000
  H   H1277     1.0  0.90719  0.52302  0.78163  1.0000
  C   C1060     1.0  0.96673  0.57136  0.85221  1.0000
  C   C1061     1.0  0.52886  0.54228  0.86165  1.0000
  C   C1062     1.0  0.92596  0.55074  0.81126  1.0000
  C   C1063     1.0  0.63094  0.91549  0.93338  1.0000
  H   H1278     1.0  0.65628  0.88935  0.76374  1.0000
  C   C1064     1.0  0.94621  0.60017  0.80156  1.0000
  H   H1279     1.0  0.50023  0.86026  0.92429  1.0000
  H   H1280     1.0  0.95738  0.62210  0.80567  1.0000
  H   H1281     1.0  0.54193  0.51637  0.84233  1.0000
  C   C1065     1.0  0.93825  0.59371  0.77761  1.0000
  C   C1066     1.0  0.62886  0.95335  0.88055  1.0000
  H   H1282     1.0  0.62248  0.84853  0.74702  1.0000
  C   C1067     1.0  0.94054  0.57876  0.81914  1.0000
  C   C1068     1.0  0.96484  0.61498  0.84974  1.0000
  H   H1283     1.0  0.64148  0.90524  0.78288  1.0000
  H   H1284     1.0  0.57648  0.85164  0.94582  1.0000
  H   H1285     1.0  0.67358  0.92445  0.88498  1.0000
  C   C1069     1.0  0.92411  0.56598  0.77052  1.0000
  H   H1286     1.0  0.64591  0.91731  0.86343  1.0000
  H   H1287     1.0  0.55345  0.73948  0.75185  1.0000
  H   H1288     1.0  0.85400  0.95248  0.90427  1.0000
  N   N72       1.0  0.86159  0.99564  0.90301  1.0000
  C   C1070     1.0  0.64917  0.90574  0.76446  1.0000
  C   C1071     1.0  0.61987  0.71114  0.77214  1.0000
  H   H1289     1.0  0.53228  0.84751  0.76675  1.0000
  C   C1072     1.0  0.60176  0.87483  0.75175  1.0000
  C   C1073     1.0  0.49597  0.79352  0.90831  1.0000
  H   H1290     1.0  0.68088  0.98327  0.89599  1.0000
  S   S287      1.0  0.98043  0.52652  0.78972  1.0000
  Fe  Fe142     1.0  0.50377  0.57759  0.78940  1.0000
  Fe  Fe143     1.0  0.51144  0.63668  0.77611  1.0000
  S   S288      1.0  0.50248  0.59876  0.75434  1.0000
  H   H1291     1.0  0.68145  0.73364  0.80283  1.0000
  C   C1074     1.0  0.81244  0.96551  0.88797  1.0000
  C   C1075     1.0  0.66683  0.73256  0.78870  1.0000
  C   C1076     1.0  0.49234  0.86192  0.90671  1.0000
  C   C1077     1.0  0.83764  0.99103  0.88683  1.0000
  Fe  Fe144     1.0  0.72093  0.99308  0.78535  1.0000
  C   C1078     1.0  0.79085  0.98107  0.85656  1.0000
  H   H1292     1.0  0.49753  0.64173  0.96613  1.0000
  H   H1293     1.0  0.69805  0.76614  0.76916  1.0000
  H   H1294     1.0  0.98580  0.56238  0.74824  1.0000
  C   C1079     1.0  0.85291  0.99418  0.92818  1.0000
  H   H1295     1.0  0.61348  0.72745  0.73901  1.0000
  H   H1296     1.0  0.49363  0.74869  0.79158  1.0000
  C   C1080     1.0  0.55789  0.72844  0.73796  1.0000
