data_image0
_chemical_formula_structural       FeS2CFeSHSC3HSFeS2FeSHFeSFeS3CHCSCHCFeSFeSH2FeS2FeS2FeSFeS4CH4FeCH2C6H4CHCSHCH2CHNH3CSFeC2NHC6H4CHC5H4CH3C3H3C6H4C2HCHCH2NH3NH4CHC2HC3NCH2CHCH2SHCH2CH4C2H2CH7C3HC2HCH5CH2SCHCHNCHCH4C2HC8HSC2HCHSC2HCFeCHSHC2HCH7CFeNH2C2H2C5HC2H2C3H2C2HCH2CH2C2H2C2H4CH2SC2HNH7CFeCH2CHC2FeHCH3SCHCH3CH2CHCH2CH2FeS2FeS2FeSFeS3FeCSCH2CSHFeS2FeSFeS3FeS2FeSHFeSFeS3HC3H2C2H2CSFeS2CHFeSFeSHC2H3NSC6H4C3HC2H2CH5C6H5C5SH3C6H4C6H4C6H4CHC3H4NC2HC4H2C3HSC2HCH12CNHCSCHC2H2CHC2HNC9H14SHCH2C5HCH2C2H2C2H2CHC3SC2H3NH3CH3CHSCH2CHCNHC3HCHCH3CHCH3Fe2NCSHC2H4CH3CH4CH2SH5C4H2C2FeS2FeSCFeSFeS3CHSHFeS3H2FeS2FeS2FeS2FeS2FeSFeS3H4SHSH2FeSHSC6H4C2H2C2H2CHC6H3C6H4NHC6H4FeC3H6C6H4C6H7C2H2C4HCH2SH2SH5SC2HC2H7CNHC2HC4HCH2CNC8H9CHFeHCH5C2H4CHCHCHCH3CNHCHCHSHFeC2H4NC4H2CHSC5HC2FeH5C2H2CHCHC4HCNHCNHSCHC2H6CHC3H4C2HC2H2C2H2NHS2HC2H5C2HCS2HC4HCFeHC4HCH2CFe2H3FeSCNHC2HFeC4H2NH2CH3CH2CH4NHCH2FeCH3CHSH2CHSC2H6CNH6CHCHSHFeHSHFeS2FeSCFeSFeS3FeS2FeS2FeSFeHS4FeC2FeHSHFeSCSC6H4C5H3SH4C4NH2CHCHC6H4NC7H4CHCNC6HCH13CHCH5C3HC2HSHC2HCHFeHCH4CFeSHC3H3CHC2H4C3NCH2C3HC2H2NHCH3C2H3CHNC2H4FeCH3CH4C4H2CSC8SH2SC2H2CHC4H3CH2SHNH2C2NHSH2FeCH2CNH2C2HCHCH2CFeS2FeS2FeSFeS3H2SH3CHSFeS2FeS2FeSFeS3H4SH4CFeH3CHC2NCH2SHC6H4C6H4C2HC3HCHC5H4NH2CH2CHC3NC4HCH5C2HCH3CH2C2NC3H2CHCHC2H2C3H2C5HC3NC9H16CH2CH3FeH3C2H2CH5CH2C2H2C3H3C3HCH4CNCH2CH3CH2NHCSHNHSHFeH2C3H4CHSCHSFeHC2HSH4SH2SHCSFeSCHFeS2FeS2FeSFeS3C2SFeS2FeS2FeSFeS3FeS2FeS2FeSFeS3HC2H2CH4NC2HC2H7C6H4C7H3C6H2C8H4C7H7C3H2CH4C6H4C7H4FeHC2NC9H12C3NCHCH2CH2NHCHC4HNC9H14CH2CNC9H15SH2CH2C2NC9H14NC9H14C2HSH2CFeCH3CH2CH2FeH3C3H3CSCHCSC2H2NH3CH2CH3CH4CFeS2FeSCFeHFeSHSH2S4FeS2FeS2CHFeS3FeS2FeS2FeSFeS3C4H3C6H4C6H4C6H4C6H4NC6SH4C6H4C2FeCH2CHCSC2HCH2CSCSH3FeH5CH3C2H3CH3N2C9H14CH3CH2CH3CH2CNC9H14FeCHNHC2SHCHC2HCH3CHC2HC4H4C2H3NHCHCHC2H5CFeCH2S2H4SCFeS2FeS2FeCFeS3FeS2FeS2FeSFeS3HC2SC3H4C3HC2H3CH2CH3C6H6C7H3C9H2CH2C4H4CSFeH3SC4HC2FeHCNC9H14NC9H4CHCSH7NH4SCHSCFeCH2SH4C3HSH4CH3FeHC2H3SCH3CHCH2CHCN2CH4C6H2CHC2H2C2H5C2HCH5C2H2CH2C3NH2CH5FeHCNCHFeS2FeS2FeSFeS3HSHFeS2FeS2FeSFeCS2H2CFeS2FeSCFe2S3FeS2H3FeHSFeHSCFeS2HC6H5SC2H2SC6H4C6H4CH2C2H3CHC3H2C6H4C6H4C6H2FeHCHCHSN2C9H14NCHNC5H4C2H8SC3H2C2HCHC3HC3H2SH2CH4CH4NHC2HC2H5SH2CNC9H14CHSC7H2CHC2H8CHC3HCHC2H2SHCHCHCH2CH3CH2C2NCH2CHCHC5NHCH2CH2C4H2CH6C3H2NH3CHFeS2FeS2FeSFeSFeS2HCFeSFeSCNHSFeC2SC6H4C6H2CHC6H4CH2CFeH2C3H2C3H2SCHNC4H2C2FeH6CH2CNC2H4C2HC4H4C2H2SCFeC6H3CHNCHSH3C3H2S2CH4C2H3CHCNCHCH2C2H4CHC2H3CH4C2SHCH2C2H2CHFeH4SHSH2CSHCNHSHCH6SH4CHC2H2CSH2C2H3C2H3CHS2CSCH3CFeC2HC3HCHC2FeCSH2CH4CFeCH2CH2SH4NH2CHCFeSHFeS2FeSFeS3HCSHCH3C2HSFeS2CSFeSHSC6H5FeCHCH2NH2CHC2SHC4SC2HCHC6H5C3SH4CHCH2CHSCH4FeHC2NH2CHC2H9C2HCH3CHCHC3HCHC2HCH3CHCHCHCH5CNFeCHC2H2C3H2C2H2CHCNHCH2FeHCH2SC2SHFeCH2C3SH5C2FeS2FeS2FeSFeS3HSCH2SFeS2FeS2FeSFeS3CH2SC2SHSFeS2FeS2FeSFeS3CSCH2NCH3CHCH3SHCH3C6H2CHCHC7H4CH4C6H4CNSCH2FeC8H4C6H4C6H6C5H4C2HCH4SNC9H14CH2C2HNH4CH2C4NH2CH5CH4C2HC2H2CH4CHCHCHCFeNC5H3FeHC2HC4HCH7C2H2C3H2C2HC4HCH2C2H2CHNHCHCH2CFeC2H3CH7C3SCH3CNH2FeHSHSNH2CNCHCHCFeHSH2CH5CSCH3CHCHSFeS2FeS2FeSFeCS2H2SHSHNC2FeSHFeS2FeSFeS3HS2HSHFeS2FeS2FeSFeS3HC2HCH3C2H2C6H7C6H4C7H5C5H2SHC6H2CNCH4SHCHCH2FeH2CH2FeCHCHCHC2FeSH4FeCHCH2NH2C4SHCHCFeH3CHC3NC9H12C2NC9H14NC2HC6H7SHCH3NC9H14CHS2H4SH2CHC2HCHSHC3FeC3HFeS2FeSFeSH5SFeS2FeS2FeSFeS3FeS2FeS2Fe2S3HCHCHC7H2FeC7H4S2C4HCH2C7H2C2HCSC5H3C2HC3HSCSCHCHC2H2CH2C3HC2HC2HFeH3C3H5SFeCHC2HC2H2CHCH6C2H2CHSH2CH4SCHCH3NFeC2H4CH4CHC3H7C3NH2SCHNC9H14N2SC7HCH2CH9CHC2FeHC2H2FeHFeSCHC3HCH4SHNCHCFeSC2HCFeS2FeSFeS2FeSHS3CH4CH2SFeS2CHC4HFeCHC7H3C6HCH2CHCFeC2H4C5H3FeSHCHC3HCH4CH6CH2SCHC3NC2NH2CH4CH2C2HC2HC5HSH5SH3CNCHNCNH2C3H3CHSCHCH3CH2FeCH2CHSHC3H4SCHC2H2C2HSNSH2SFeHCHCH2CH2CH2SHCHC2H2CSH2CHCHSC3H3C2H7FeS2C3FeS2FeS2FeSFeS3FeHSHCHC2H2SHFeSHFeS2FeS2FeSFeS3FeS2FeS2FeSFeS3CHNC4HCHCH5SNH2C6H4C6H5C5H4C6H4C6H4CHCH2CFeHCH2C2H3C4HCHCHC4H4CN2C9H14NC9H14NC7HCH13CHC2H2C2SH2CHCSC3H2C2H3C2HCH2NH3CH5NC2HC2H3C3H2CH3CH2CH5SCHC3HCHCSH2CH2SNC3H5CH4NC2HC6H2CH5CHCHCH4CH2C4HCH2CSH3CH2CH3FeHCHSC2H4C3HCHC2H2FeCFeS2FeS2FeSFeS5HFeCH2CH2FeS2FeS2FeS2FeSFeS3NH4C2HCH2C4HC4SH6C6H4C6SH3C6H4C6HCH2C8HC4H2CNHNCHC2SCH2NC8H16C4H3SCH3CH2CH5CHC2H2C2H4FeH2C3H8NC6H2CH4CH2CH4CHCHFeH2CHC2NH2FeHC2H7CSCSHCH2C3H4C2H4SC2HFeS2FeCSFeSHSH2SCFeS2FeS2FeSFeS3FeS2FeS2FeSFeS3C2H3FeS2CH2CH8C4HC2HC3HC2H2CH5C6H4CHCNC6H4C7H3C6H6FeCNHCHNHC8HNHSH6NC5HC2H8CHC2HCHCH3CHCHSC2HCHCHNCNCH3C3HC2HSC2H3CHCHC2H2CH5CH2FeH2SH8CNH3C2NCHCH3C4H2CHSH3CH2C4H2FeC2HC2SCH8C3H6C2H2FeS2FeS2FeSFeS3HCHFeSHFeS2FeS2FeSFeS3FeS2FeS2FeSFeS3C2H4SHCHCHC3H2CHCH2C3S2C2HCH3CHC6H4CH4CHCHC6H4C6H4C2H2CSH4C2SHC2HCH2C7H3NHC4H5NHNCH2C7H4NH4NC9H12C2H2C2HC2H2CH2CHCHCH3C2HNCH2C2H2C2NH2C2H4C4HCHCHCHC2H6C2H2C3H2C2HC2HNC2H6CH2CHCHC2H2C3H2C3HCH2FeH2C2HC2HSH4CH2CH5CH2CFeS2FeS2FeSFeS3CSC4S2HSNH2C2FeS2FeS2FeSFeHS2H4CH2SCHSC3H4CH3NHC3HC2H2C6H3CSH2CHNC7H4C6H2CHC6H6C3HCH2C3HNCHC3HC2H7C3H2CH2CHC3H7C3HCHCHNHC2H4C2HCHCH2FeHCHFe2HCH3FeS2C2HSHCH6NC8H10CHCHC2HCH2CSNCH2CHSH3CHCHSHCH2SCH2SC2HCH3FeH2S2FeS2FeS2FeSFeS3FeS2HFeS2FeS2FeSFeS3FeS2FeS2FeSFeHS2CNH2C4HC5HC3H3C4H2C6H4C6H4C2H3CHSH2C6H4CHC4H2NCH3CHCHCSCSH2C2NCHCFeSC3H4CHCNH2C2H4CH2CH2C2NCHC7H7CH6C4H2C2H2CHCFeHNCH2CH5C2H2CH3CFeC2FeHCH3CHC2HCH5CHC4H2C3H5CHSH2CH4CHCH3NHC2HCH2S2H3C2HC3H4CH3CH2C2H4CH2CNC2FeS2FeS2FeSFeS3CFeS2H2CSCSCHS2HCFeSHFeS2FeSHFeSFeS3CS2CHC2FeCH2C3SC6H2NHC2HC2HC2HCH4C4H2FeC4H6SC6H4C6H4C6H5C2NFeH3SCHCHCH2C2HCNC2H2FeCH2CHC5H4CH2NSHCSH3CSNC2NH3SH2CH6C2H2CH5C2FeH2SH3NC9H14NC5H10C2H3SHCH2SCFeC2H2C3NH2NHCH2CH3CH2C2H9CHCH2C3H5C3H3CHC4NC2H4CH3C3H2C3HC2HSH2FeCHCH2FeS2FeS2FeSFeS3FeS2CHCHFe3S2FeSHSFe2S2FeS2FeSHCS2FeS2FeS2FeSFeS3CSHFeS2FeHSHFeS3H2C4HC8H4C6HCH2CHNC6H5C4HC2H3C7H4C6H4C6H4C6H4C2H2C6H4NC9H16FeH7CH3NC3H5SNC6HCSH13NC9H15SC2HCHCH3CHC2HNCHFeHCHC3H2C5H2CH2C3SHC2H2CHCH6C2H2C2H3CH2CNH3C2H4CHNHCH3CH6CHC3HCSHFeHCHNCH2CH5CH3SH5NC3H4C3SCH3FeHCHCH3CH2CHCSHC3H4SHCFeSCNHSFeS2FeS2FeSFeHS2HC2FeCFe2S2H3CHSCSHSFeH2CH3C6H4SC2FeHC7H4C6H5CH2CSFeC3H2CHCH4C4SCNC8H15SH3CHCH4SC2HCH5C4HCHC2FeHC2HSCHNHSH4C2FeHNHC2HCH2CH2CH4CH3CHSHSC3HCHCHC2H2CH2NCHCHC2HCHC2NC2H2C2HNSCH2CHSHC2HFeCHFeH2CFeHCH4CHC2H3SH2CH3C3HCSHN
_chemical_formula_sum              "Fe384 S768 C2880 H3456 N192"
_cell_length_a       85.8593
_cell_length_b       86.2437
_cell_length_c       86.1781
_cell_angle_alpha    74.2765
_cell_angle_beta     74.2932
_cell_angle_gamma    74.2106

_space_group_name_H-M_alt    "P 1"
_space_group_IT_number       1

loop_
  _space_group_symop_operation_xyz
  'x, y, z'

loop_
  _atom_site_type_symbol
  _atom_site_label
  _atom_site_symmetry_multiplicity
  _atom_site_fract_x
  _atom_site_fract_y
  _atom_site_fract_z
  _atom_site_occupancy
  Fe  Fe1       1.0  0.38832  0.28197  0.08385  1.0000
  S   S1        1.0  0.38513  0.27729  0.06074  1.0000
  S   S2        1.0  0.38041  0.26525  0.10800  1.0000
  C   C1        1.0  0.31106  0.05285  0.18639  1.0000
  Fe  Fe2       1.0  0.41160  0.27942  0.05117  1.0000
  S   S3        1.0  0.42904  0.25930  0.03922  1.0000
  H   H1        1.0  0.35533  0.28797  0.09201  1.0000
  S   S4        1.0  0.41532  0.28198  0.07496  1.0000
  C   C2        1.0  0.29269  0.29016  0.06852  1.0000
  C   C3        1.0  0.33126  0.01333  0.09034  1.0000
  C   C4        1.0  0.18679  0.31735  0.02733  1.0000
  H   H2        1.0  0.18902  0.25626  0.01207  1.0000
  S   S5        1.0  0.48220  0.28865  0.13228  1.0000
  Fe  Fe3       1.0  0.44298  0.18784  0.12907  1.0000
  S   S6        1.0  0.42665  0.18798  0.15425  1.0000
  S   S7        1.0  0.43711  0.20146  0.10457  1.0000
  Fe  Fe4       1.0  0.47190  0.16480  0.14235  1.0000
  S   S8        1.0  0.45821  0.16314  0.16864  1.0000
  H   H3        1.0  0.48417  0.12720  0.12427  1.0000
  Fe  Fe5       1.0  0.43704  0.16063  0.15938  1.0000
  S   S9        1.0  0.42233  0.14098  0.17352  1.0000
  Fe  Fe6       1.0  0.44932  0.19064  0.16083  1.0000
  S   S10       1.0  0.44670  0.20898  0.17636  1.0000
  S   S11       1.0  0.45156  0.16044  0.13359  1.0000
  S   S12       1.0  0.46482  0.19238  0.13525  1.0000
  C   C5        1.0  0.30041  0.06840  0.18485  1.0000
  H   H4        1.0  0.40738  0.30843  0.10176  1.0000
  C   C6        1.0  0.43467  0.31608  0.11980  1.0000
  S   S13       1.0  0.26119  0.30054  0.02832  1.0000
  C   C7        1.0  0.45326  0.11110  0.11054  1.0000
  H   H5        1.0  0.45120  0.23525  0.01359  1.0000
  C   C8        1.0  0.46708  0.25635  0.12041  1.0000
  Fe  Fe7       1.0  0.25456  0.29169  0.00910  1.0000
  S   S14       1.0  0.23475  0.27678  0.01623  1.0000
  Fe  Fe8       1.0  0.28779  0.29243  0.01594  1.0000
  S   S15       1.0  0.30900  0.27881  0.02880  1.0000
  H   H6        1.0  0.44475  0.21588  0.03921  1.0000
  H   H7        1.0  0.44443  0.10685  0.10663  1.0000
  Fe  Fe9       1.0  0.39286  0.07384  0.14923  1.0000
  S   S16       1.0  0.36709  0.07400  0.14732  1.0000
  S   S17       1.0  0.40490  0.09575  0.13594  1.0000
  Fe  Fe10      1.0  0.39660  0.03955  0.17149  1.0000
  S   S18       1.0  0.37109  0.03717  0.17228  1.0000
  S   S19       1.0  0.41458  0.01813  0.18282  1.0000
  Fe  Fe11      1.0  0.37665  0.04753  0.14515  1.0000
  S   S20       1.0  0.37129  0.03358  0.12910  1.0000
  Fe  Fe12      1.0  0.36361  0.06358  0.17452  1.0000
  S   S21       1.0  0.33997  0.07269  0.19144  1.0000
  S   S22       1.0  0.40291  0.04833  0.14405  1.0000
  S   S23       1.0  0.38859  0.06502  0.17671  1.0000
  S   S24       1.0  0.30106  0.01586  0.14271  1.0000
  C   C9        1.0  0.33051  0.27286  0.10832  1.0000
  H   H8        1.0  0.21285  0.25563  0.02308  1.0000
  H   H9        1.0  0.49088  0.23946  0.14494  1.0000
  H   H10       1.0  0.36258  0.10679  0.20490  1.0000
  H   H11       1.0  0.36957  0.00246  0.22856  1.0000
  Fe  Fe13      1.0  0.46532  0.31067  0.14101  1.0000
  C   C10       1.0  0.32684  0.00054  0.08669  1.0000
  H   H12       1.0  0.47568  0.22872  0.08894  1.0000
  H   H13       1.0  0.48444  0.23769  0.05068  1.0000
  C   C11       1.0  0.35166  0.02875  0.13339  1.0000
  C   C12       1.0  0.33751  0.03806  0.14184  1.0000
  C   C13       1.0  0.32198  0.03410  0.14461  1.0000
  C   C14       1.0  0.32065  0.02040  0.13959  1.0000
  C   C15       1.0  0.33488  0.01081  0.13162  1.0000
  C   C16       1.0  0.35024  0.01526  0.12811  1.0000
  H   H14       1.0  0.33848  0.04860  0.14578  1.0000
  H   H15       1.0  0.31099  0.04164  0.15069  1.0000
  H   H16       1.0  0.32302  0.28762  0.99529  1.0000
  H   H17       1.0  0.36111  0.00809  0.12146  1.0000
  C   C17       1.0  0.33946  0.05895  0.21058  1.0000
  H   H18       1.0  0.34134  0.26961  0.11431  1.0000
  C   C18       1.0  0.45727  0.24050  0.10718  1.0000
  S   S25       1.0  0.35661  0.31757  0.04093  1.0000
  H   H19       1.0  0.29239  0.26443  0.07672  1.0000
  C   C19       1.0  0.47318  0.30751  0.06191  1.0000
  H   H20       1.0  0.36601  0.05104  0.20689  1.0000
  H   H21       1.0  0.35540  0.11724  0.15552  1.0000
  C   C20       1.0  0.47686  0.24711  0.04317  1.0000
  H   H22       1.0  0.35098  0.26692  0.07007  1.0000
  N   N1        1.0  0.46993  0.29085  0.06466  1.0000
  H   H23       1.0  0.35953  0.26120  0.08820  1.0000
  H   H24       1.0  0.32355  0.00227  0.21817  1.0000
  H   H25       1.0  0.38304  0.02237  0.20572  1.0000
  C   C21       1.0  0.47054  0.20548  0.04200  1.0000
  S   S26       1.0  0.28113  0.28109  0.99857  1.0000
  Fe  Fe14      1.0  0.30130  0.98885  0.14641  1.0000
  C   C22       1.0  0.45870  0.29008  0.05459  1.0000
  C   C23       1.0  0.46197  0.12254  0.09955  1.0000
  N   N2        1.0  0.33556  0.27799  0.09015  1.0000
  H   H26       1.0  0.11184  0.25684  0.00367  1.0000
  C   C24       1.0  0.41790  0.12833  0.16286  1.0000
  C   C25       1.0  0.41983  0.13235  0.14569  1.0000
  C   C26       1.0  0.41571  0.12231  0.13763  1.0000
  C   C27       1.0  0.41009  0.10793  0.14657  1.0000
  C   C28       1.0  0.40866  0.10365  0.16367  1.0000
  C   C29       1.0  0.41227  0.11396  0.17181  1.0000
  H   H27       1.0  0.42404  0.14343  0.13864  1.0000
  H   H28       1.0  0.41685  0.12574  0.12440  1.0000
  H   H29       1.0  0.40484  0.09238  0.17061  1.0000
  H   H30       1.0  0.41087  0.11069  0.18508  1.0000
  C   C30       1.0  0.47963  0.24573  0.16859  1.0000
  H   H31       1.0  0.21503  0.31082  0.03590  1.0000
  C   C31       1.0  0.47090  0.22675  0.15771  1.0000
  C   C32       1.0  0.45904  0.22370  0.17237  1.0000
  C   C33       1.0  0.45709  0.23226  0.18470  1.0000
  C   C34       1.0  0.46739  0.24306  0.18290  1.0000
  C   C35       1.0  0.20910  0.26589  0.01340  1.0000
  H   H32       1.0  0.47248  0.22029  0.14808  1.0000
  H   H33       1.0  0.44795  0.23004  0.19604  1.0000
  H   H34       1.0  0.46626  0.24891  0.19291  1.0000
  H   H35       1.0  0.44576  0.09898  0.16121  1.0000
  C   C36       1.0  0.36609  0.13839  0.18844  1.0000
  H   H36       1.0  0.33973  0.30573  0.99667  1.0000
  H   H37       1.0  0.29345  0.03402  0.10644  1.0000
  H   H38       1.0  0.45630  0.27751  0.05710  1.0000
  C   C37       1.0  0.32240  0.28983  0.03147  1.0000
  C   C38       1.0  0.33720  0.28109  0.03652  1.0000
  C   C39       1.0  0.34797  0.28946  0.03907  1.0000
  H   H39       1.0  0.46192  0.08185  0.15532  1.0000
  H   H40       1.0  0.34036  0.26778  0.03844  1.0000
  H   H41       1.0  0.35947  0.28262  0.04260  1.0000
  C   C40       1.0  0.39472  0.24648  0.10713  1.0000
  C   C41       1.0  0.39652  0.23440  0.12146  1.0000
  C   C42       1.0  0.40917  0.22017  0.12071  1.0000
  C   C43       1.0  0.42013  0.21815  0.10571  1.0000
  C   C44       1.0  0.41795  0.22997  0.09136  1.0000
  C   C45       1.0  0.40521  0.24400  0.09206  1.0000
  H   H42       1.0  0.38837  0.23618  0.13314  1.0000
  H   H43       1.0  0.41049  0.21091  0.13177  1.0000
  H   H44       1.0  0.42626  0.22855  0.07967  1.0000
  H   H45       1.0  0.40374  0.25292  0.08084  1.0000
  C   C46       1.0  0.44985  0.25983  0.03652  1.0000
  C   C47       1.0  0.45699  0.27110  0.02340  1.0000
  H   H46       1.0  0.38697  0.16846  0.16629  1.0000
  C   C48       1.0  0.27032  0.02514  0.09180  1.0000
  H   H47       1.0  0.33762  0.12578  0.19752  1.0000
  C   C49       1.0  0.45974  0.24800  0.04658  1.0000
  H   H48       1.0  0.44939  0.28018  0.01554  1.0000
  H   H49       1.0  0.33452  0.11032  0.18908  1.0000
  N   N3        1.0  0.46727  0.19383  0.05807  1.0000
  H   H50       1.0  0.45419  0.23924  0.05667  1.0000
  H   H51       1.0  0.45031  0.29406  0.08582  1.0000
  H   H52       1.0  0.33396  0.00028  0.12763  1.0000
  N   N4        1.0  0.27968  0.01069  0.10185  1.0000
  H   H53       1.0  0.48997  0.17569  0.05291  1.0000
  H   H54       1.0  0.27238  0.02288  0.12255  1.0000
  H   H55       1.0  0.42207  0.26805  0.14767  1.0000
  H   H56       1.0  0.30259  0.01280  0.22261  1.0000
  C   C50       1.0  0.21284  0.29176  0.99469  1.0000
  H   H57       1.0  0.49300  0.25687  0.11231  1.0000
  C   C51       1.0  0.32914  0.31538  0.03176  1.0000
  C   C52       1.0  0.35390  0.03825  0.23020  1.0000
  H   H58       1.0  0.47070  0.19016  0.08285  1.0000
  C   C53       1.0  0.21792  0.27848  0.00722  1.0000
  C   C54       1.0  0.38175  0.99833  0.22135  1.0000
  C   C55       1.0  0.43501  0.26514  0.14050  1.0000
  N   N5        1.0  0.31616  0.02183  0.19808  1.0000
  C   C56       1.0  0.33386  0.02181  0.19033  1.0000
  H   H59       1.0  0.27021  0.98834  0.19736  1.0000
  H   H60       1.0  0.34177  0.00922  0.19251  1.0000
  C   C57       1.0  0.28807  0.04064  0.20319  1.0000
  H   H61       1.0  0.27550  0.08219  0.19128  1.0000
  C   C58       1.0  0.48610  0.24239  0.09953  1.0000
  H   H62       1.0  0.48660  0.19811  0.06706  1.0000
  H   H63       1.0  0.48906  0.30048  0.07979  1.0000
  S   S27       1.0  0.47320  0.30464  0.16530  1.0000
  H   H64       1.0  0.30529  0.07919  0.17786  1.0000
  C   C59       1.0  0.32431  0.05705  0.22126  1.0000
  H   H65       1.0  0.33614  0.30238  0.09192  1.0000
  H   H66       1.0  0.44291  0.25884  0.14973  1.0000
  C   C60       1.0  0.40503  0.00427  0.19911  1.0000
  H   H67       1.0  0.34837  0.29617  0.07306  1.0000
  H   H68       1.0  0.48379  0.26643  0.06186  1.0000
  H   H69       1.0  0.44744  0.18452  0.07667  1.0000
  H   H70       1.0  0.47961  0.27883  0.00971  1.0000
  C   C61       1.0  0.45771  0.21577  0.03398  1.0000
  C   C62       1.0  0.47311  0.12816  0.10468  1.0000
  H   H71       1.0  0.28266  0.03027  0.21037  1.0000
  H   H72       1.0  0.31064  0.01641  0.17742  1.0000
  C   C63       1.0  0.31450  0.29882  0.07468  1.0000
  H   H73       1.0  0.43837  0.27723  0.13403  1.0000
  H   H74       1.0  0.46407  0.29338  0.04115  1.0000
  H   H75       1.0  0.22009  0.31075  0.01436  1.0000
  H   H76       1.0  0.47394  0.16774  0.06824  1.0000
  H   H77       1.0  0.47015  0.28460  0.09072  1.0000
  H   H78       1.0  0.18717  0.31020  0.04015  1.0000
  H   H79       1.0  0.44772  0.23559  0.10533  1.0000
  C   C64       1.0  0.48300  0.25230  0.11084  1.0000
  C   C65       1.0  0.47326  0.23649  0.09770  1.0000
  C   C66       1.0  0.38928  0.00957  0.20839  1.0000
  H   H80       1.0  0.32034  0.30894  0.07306  1.0000
  C   C67       1.0  0.48409  0.25811  0.02976  1.0000
  C   C68       1.0  0.48351  0.31030  0.07081  1.0000
  H   H81       1.0  0.45298  0.12676  0.15646  1.0000
  C   C69       1.0  0.28368  0.07010  0.19244  1.0000
  H   H82       1.0  0.28235  0.29299  0.06252  1.0000
  H   H83       1.0  0.49083  0.08629  0.14267  1.0000
  H   H84       1.0  0.31890  0.99856  0.19163  1.0000
  H   H85       1.0  0.26176  0.01021  0.21366  1.0000
  H   H86       1.0  0.37374  0.15727  0.19489  1.0000
  C   C70       1.0  0.45919  0.09326  0.16013  1.0000
  H   H87       1.0  0.33475  0.13081  0.17672  1.0000
  H   H88       1.0  0.41212  0.26710  0.12454  1.0000
  S   S28       1.0  0.43875  0.31336  0.13950  1.0000
  C   C71       1.0  0.31518  0.01459  0.21595  1.0000
  H   H89       1.0  0.42454  0.25616  0.10915  1.0000
  C   C72       1.0  0.34062  0.12099  0.18608  1.0000
  H   H90       1.0  0.49436  0.27770  0.06856  1.0000
  N   N6        1.0  0.35873  0.11608  0.17985  1.0000
  C   C73       1.0  0.36130  0.10857  0.16550  1.0000
  H   H91       1.0  0.37471  0.10435  0.16033  1.0000
  C   C74       1.0  0.36592  0.10310  0.19285  1.0000
  H   H92       1.0  0.35568  0.09759  0.16899  1.0000
  H   H93       1.0  0.36150  0.09149  0.19524  1.0000
  H   H94       1.0  0.37966  0.10001  0.18922  1.0000
  H   H95       1.0  0.36048  0.13392  0.20114  1.0000
  C   C75       1.0  0.46125  0.22701  0.01908  1.0000
  C   C76       1.0  0.47308  0.19855  0.07051  1.0000
  H   H96       1.0  0.32386  0.05251  0.18022  1.0000
  C   C77       1.0  0.48119  0.23773  0.15587  1.0000
  C   C78       1.0  0.46215  0.28536  0.08223  1.0000
  C   C79       1.0  0.36626  0.13063  0.17579  1.0000
  C   C80       1.0  0.47633  0.17685  0.05641  1.0000
  C   C81       1.0  0.32082  0.28244  0.08275  1.0000
  C   C82       1.0  0.34780  0.26405  0.08379  1.0000
  C   C83       1.0  0.46681  0.11079  0.13240  1.0000
  C   C84       1.0  0.48702  0.20711  0.03406  1.0000
  H   H97       1.0  0.27094  0.03697  0.09422  1.0000
  S   S29       1.0  0.40539  0.30668  0.04091  1.0000
  C   C85       1.0  0.21510  0.31888  0.02337  1.0000
  C   C86       1.0  0.37374  0.13762  0.15941  1.0000
  H   H98       1.0  0.41392  0.30417  0.12922  1.0000
  C   C87       1.0  0.38077  0.15132  0.15609  1.0000
  H   H99       1.0  0.37477  0.13248  0.14896  1.0000
  S   S30       1.0  0.28915  0.31653  0.99812  1.0000
  C   C88       1.0  0.42508  0.26366  0.11757  1.0000
  C   C89       1.0  0.47408  0.27026  0.02006  1.0000
  H   H100      1.0  0.44825  0.09656  0.13458  1.0000
  C   C90       1.0  0.44947  0.19342  0.06460  1.0000
  Fe  Fe15      1.0  0.49304  0.31940  0.15196  1.0000
  C   C91       1.0  0.30056  0.30254  0.06783  1.0000
  H   H101      1.0  0.48959  0.09174  0.16181  1.0000
  S   S31       1.0  0.25354  0.31570  0.99084  1.0000
  H   H102      1.0  0.42875  0.27525  0.10982  1.0000
  C   C92       1.0  0.27615  0.99636  0.23188  1.0000
  C   C93       1.0  0.34387  0.30663  0.03696  1.0000
  H   H103      1.0  0.32491  0.26186  0.11206  1.0000
  C   C94       1.0  0.19892  0.29226  0.98855  1.0000
  H   H104      1.0  0.34328  0.25240  0.08784  1.0000
  H   H105      1.0  0.46133  0.08932  0.17294  1.0000
  H   H106      1.0  0.31605  0.25758  0.08979  1.0000
  H   H107      1.0  0.46658  0.21127  0.07207  1.0000
  H   H108      1.0  0.31283  0.06428  0.21780  1.0000
  H   H109      1.0  0.44427  0.18969  0.05601  1.0000
  H   H110      1.0  0.33642  0.99109  0.08149  1.0000
  C   C95       1.0  0.46562  0.11936  0.15733  1.0000
  Fe  Fe16      1.0  0.40691  0.30904  0.06591  1.0000
  N   N7        1.0  0.43663  0.25467  0.12873  1.0000
  H   H111      1.0  0.46609  0.11557  0.17064  1.0000
  H   H112      1.0  0.31859  0.02266  0.22203  1.0000
  C   C96       1.0  0.27282  0.01099  0.11957  1.0000
  C   C97       1.0  0.35425  0.04955  0.21504  1.0000
  H   H113      1.0  0.29623  0.31501  0.06135  1.0000
  H   H114      1.0  0.26340  0.99489  0.10301  1.0000
  C   C98       1.0  0.19031  0.27934  0.99474  1.0000
  C   C99       1.0  0.38082  0.15831  0.16886  1.0000
  C   C100      1.0  0.31904  0.02538  0.09723  1.0000
  C   C101      1.0  0.31851  0.30705  0.02888  1.0000
  C   C102      1.0  0.30237  0.02457  0.10071  1.0000
  H   H115      1.0  0.44638  0.29844  0.05735  1.0000
  C   C103      1.0  0.43131  0.23926  0.13852  1.0000
  C   C104      1.0  0.49370  0.20095  0.18765  1.0000
  H   H116      1.0  0.25696  0.02480  0.09448  1.0000
  H   H117      1.0  0.38684  0.15616  0.14359  1.0000
  C   C105      1.0  0.49039  0.21847  0.01921  1.0000
  C   C106      1.0  0.37344  0.15190  0.18499  1.0000
  C   C107      1.0  0.48576  0.27900  0.06049  1.0000
  H   H118      1.0  0.32124  0.28296  0.11360  1.0000
  H   H119      1.0  0.43981  0.23204  0.14689  1.0000
  C   C108      1.0  0.47552  0.12238  0.12083  1.0000
  C   C109      1.0  0.31018  0.99963  0.09008  1.0000
  H   H120      1.0  0.26450  0.05749  0.20751  1.0000
  C   C110      1.0  0.34415  0.29177  0.08658  1.0000
  H   H121      1.0  0.47988  0.13710  0.09618  1.0000
  H   H122      1.0  0.43112  0.23107  0.13067  1.0000
  C   C111      1.0  0.33690  0.31514  0.98602  1.0000
  H   H123      1.0  0.41861  0.24178  0.14630  1.0000
  H   H124      1.0  0.48666  0.20290  0.19972  1.0000
  C   C112      1.0  0.19553  0.26625  0.00717  1.0000
  C   C113      1.0  0.45367  0.25057  0.11886  1.0000
  H   H125      1.0  0.32254  0.03511  0.10043  1.0000
  H   H126      1.0  0.46002  0.12709  0.08706  1.0000
  C   C114      1.0  0.29741  0.01152  0.09751  1.0000
  C   C115      1.0  0.27022  0.99881  0.21753  1.0000
  H   H127      1.0  0.34419  0.01380  0.08807  1.0000
  H   H128      1.0  0.46565  0.26390  0.12906  1.0000
  H   H129      1.0  0.33573  0.02630  0.17672  1.0000
  H   H130      1.0  0.30770  0.98924  0.08717  1.0000
  C   C116      1.0  0.45561  0.10523  0.12673  1.0000
  H   H131      1.0  0.27536  0.02557  0.07838  1.0000
  H   H132      1.0  0.45932  0.27298  0.08464  1.0000
  S   S32       1.0  0.37992  0.30943  0.07693  1.0000
  C   C117      1.0  0.47752  0.22845  0.01177  1.0000
  C   C118      1.0  0.30522  0.03847  0.19584  1.0000
  H   H133      1.0  0.21958  0.30156  0.98975  1.0000
  N   N8        1.0  0.46955  0.10504  0.14948  1.0000
  H   H134      1.0  0.47432  0.12778  0.15148  1.0000
  H   H135      1.0  0.37915  0.99603  0.14676  1.0000
  H   H136      1.0  0.44199  0.20562  0.06700  1.0000
  H   H137      1.0  0.49355  0.18155  0.15860  1.0000
  H   H138      1.0  0.47269  0.17303  0.04679  1.0000
  H   H139      1.0  0.38353  0.99779  0.17916  1.0000
  H   H140      1.0  0.33872  0.02959  0.19555  1.0000
  C   C119      1.0  0.42138  0.31041  0.11832  1.0000
  Fe  Fe17      1.0  0.37886  0.30472  0.05270  1.0000
  C   C120      1.0  0.31072  0.01106  0.19071  1.0000
  H   H141      1.0  0.29801  0.00927  0.19689  1.0000
  H   H142      1.0  0.36233  0.00384  0.16207  1.0000
  C   C121      1.0  0.27752  0.05623  0.20156  1.0000
  H   H143      1.0  0.19003  0.30815  0.01943  1.0000
  C   C122      1.0  0.31215  0.27023  0.08368  1.0000
  C   C123      1.0  0.48955  0.19073  0.18009  1.0000
  Fe  Fe18      1.0  0.49118  0.28325  0.15547  1.0000
  H   H144      1.0  0.35333  0.28250  0.98903  1.0000
  C   C124      1.0  0.41760  0.31288  0.10280  1.0000
  H   H145      1.0  0.30711  0.31394  0.02511  1.0000
  H   H146      1.0  0.48011  0.23766  0.00059  1.0000
  H   H147      1.0  0.13221  0.25521  0.00632  1.0000
  S   S33       1.0  0.17321  0.27844  0.98744  1.0000
  C   C125      1.0  0.29844  0.27405  0.07647  1.0000
  H   H148      1.0  0.47918  0.18483  0.18633  1.0000
  C   C126      1.0  0.36933  0.99239  0.15764  1.0000
  H   H149      1.0  0.25997  0.00885  0.12374  1.0000
  H   H150      1.0  0.15609  0.25301  0.98402  1.0000
  H   H151      1.0  0.28047  0.99498  0.08572  1.0000
  C   C127      1.0  0.12509  0.25085  0.99988  1.0000
  H   H152      1.0  0.12627  0.23731  0.00465  1.0000
  H   H153      1.0  0.49226  0.28294  0.04747  1.0000
  C   C128      1.0  0.48717  0.09672  0.14913  1.0000
  H   H154      1.0  0.28053  0.00128  0.12740  1.0000
  C   C129      1.0  0.27672  0.99557  0.09899  1.0000
  H   H155      1.0  0.15211  0.23414  0.98290  1.0000
  H   H156      1.0  0.39893  0.98901  0.16363  1.0000
  C   C130      1.0  0.41314  0.98768  0.20266  1.0000
  H   H157      1.0  0.36079  0.98806  0.15291  1.0000
  H   H158      1.0  0.32577  0.27318  0.98279  1.0000
  Fe  Fe19      1.0  0.29521  0.05621  0.38668  1.0000
  S   S34       1.0  0.29460  0.08331  0.37775  1.0000
  S   S35       1.0  0.30628  0.03810  0.36966  1.0000
  Fe  Fe20      1.0  0.28023  0.05980  0.42238  1.0000
  S   S36       1.0  0.27809  0.08716  0.41630  1.0000
  S   S37       1.0  0.27386  0.04632  0.44886  1.0000
  Fe  Fe21      1.0  0.26939  0.08634  0.39426  1.0000
  S   S38       1.0  0.24852  0.10611  0.38577  1.0000
  Fe  Fe22      1.0  0.30342  0.08177  0.40055  1.0000
  S   S39       1.0  0.32397  0.09432  0.39859  1.0000
  S   S40       1.0  0.26918  0.05932  0.40169  1.0000
  S   S41       1.0  0.30646  0.05427  0.40813  1.0000
  Fe  Fe23      1.0  0.31387  0.14649  0.46494  1.0000
  C   C131      1.0  0.01796  0.15494  0.28582  1.0000
  S   S42       1.0  0.32863  0.14344  0.43967  1.0000
  C   C132      1.0  0.23419  0.14689  0.43529  1.0000
  H   H159      1.0  0.34173  0.01668  0.32405  1.0000
  H   H160      1.0  0.23518  0.20307  0.46263  1.0000
  C   C133      1.0  0.08241  0.17632  0.47874  1.0000
  S   S43       1.0  0.15274  0.17067  0.45814  1.0000
  H   H161      1.0  0.18001  0.08690  0.47960  1.0000
  Fe  Fe24      1.0  0.17409  0.12842  0.44821  1.0000
  S   S44       1.0  0.17864  0.15198  0.43051  1.0000
  S   S45       1.0  0.18512  0.10331  0.44285  1.0000
  Fe  Fe25      1.0  0.18010  0.15954  0.45305  1.0000
  S   S46       1.0  0.19783  0.17524  0.45242  1.0000
  Fe  Fe26      1.0  0.15096  0.16045  0.43747  1.0000
  S   S47       1.0  0.13462  0.17508  0.41932  1.0000
  S   S48       1.0  0.17748  0.13527  0.47025  1.0000
  S   S49       1.0  0.14651  0.13632  0.45360  1.0000
  Fe  Fe27      1.0  0.06246  0.16471  0.38785  1.0000
  S   S50       1.0  0.06879  0.17842  0.36152  1.0000
  S   S51       1.0  0.08175  0.14694  0.40145  1.0000
  Fe  Fe28      1.0  0.02612  0.18219  0.39217  1.0000
  S   S52       1.0  0.03010  0.19787  0.36673  1.0000
  H   H162      1.0  0.23335  0.16046  0.43128  1.0000
  Fe  Fe29      1.0  0.04469  0.17446  0.35897  1.0000
  S   S53       1.0  0.03934  0.17247  0.33519  1.0000
  Fe  Fe30      1.0  0.05335  0.20038  0.37170  1.0000
  S   S54       1.0  0.06016  0.22514  0.36356  1.0000
  S   S55       1.0  0.03979  0.15844  0.38437  1.0000
  S   S56       1.0  0.04809  0.18701  0.39804  1.0000
  H   H163      1.0  0.20738  0.07978  0.39750  1.0000
  C   C134      1.0  0.35475  0.00939  0.30112  1.0000
  C   C135      1.0  0.26786  0.14953  0.42195  1.0000
  C   C136      1.0  0.08429  0.20609  0.42386  1.0000
  H   H164      1.0  0.29827  0.23932  0.47491  1.0000
  H   H165      1.0  0.19616  0.06860  0.46173  1.0000
  C   C137      1.0  0.09182  0.19917  0.43740  1.0000
  C   C138      1.0  0.27124  0.13227  0.40275  1.0000
  H   H166      1.0  0.36539  0.03110  0.23367  1.0000
  H   H167      1.0  0.26101  0.15582  0.43181  1.0000
  C   C139      1.0  0.18456  0.11942  0.37184  1.0000
  S   S57       1.0  0.01146  0.27505  0.31465  1.0000
  Fe  Fe31      1.0  0.31463  0.01310  0.26995  1.0000
  S   S58       1.0  0.28956  0.02962  0.26968  1.0000
  S   S59       1.0  0.33865  0.02139  0.25934  1.0000
  C   C140      1.0  0.08797  0.18467  0.44886  1.0000
  H   H168      1.0  0.33057  0.06490  0.43017  1.0000
  Fe  Fe32      1.0  0.28314  0.00836  0.26414  1.0000
  S   S60       1.0  0.00051  0.18508  0.40853  1.0000
  Fe  Fe33      1.0  0.28352  0.01736  0.29652  1.0000
  S   S61       1.0  0.27094  0.03357  0.31525  1.0000
  H   H169      1.0  0.01858  0.23603  0.32226  1.0000
  C   C141      1.0  0.14766  0.12245  0.38567  1.0000
  C   C142      1.0  0.04173  0.21484  0.30478  1.0000
  H   H170      1.0  0.15205  0.10220  0.41436  1.0000
  H   H171      1.0  0.03531  0.24568  0.28850  1.0000
  H   H172      1.0  0.06737  0.20405  0.41049  1.0000
  N   N9        1.0  0.04411  0.22343  0.31651  1.0000
  S   S62       1.0  0.01933  0.31853  0.28629  1.0000
  C   C143      1.0  0.04141  0.23970  0.36453  1.0000
  C   C144      1.0  0.04033  0.25503  0.35351  1.0000
  C   C145      1.0  0.02480  0.26560  0.35267  1.0000
  C   C146      1.0  0.01048  0.26105  0.36324  1.0000
  C   C147      1.0  0.01169  0.24610  0.37480  1.0000
  C   C148      1.0  0.02712  0.23539  0.37536  1.0000
  H   H173      1.0  0.05139  0.25848  0.34529  1.0000
  H   H174      1.0  0.02388  0.27725  0.34386  1.0000
  H   H175      1.0  0.09693  0.15205  0.46165  1.0000
  H   H176      1.0  0.02793  0.22367  0.38409  1.0000
  C   C149      1.0  0.02255  0.16391  0.33583  1.0000
  C   C150      1.0  0.02209  0.14760  0.34401  1.0000
  C   C151      1.0  0.28769  0.13385  0.39666  1.0000
  H   H177      1.0  0.06918  0.21024  0.31770  1.0000
  C   C152      1.0  0.20867  0.09721  0.37435  1.0000
  C   C153      1.0  0.01105  0.17255  0.32588  1.0000
  H   H178      1.0  0.03108  0.14072  0.35145  1.0000
  H   H179      1.0  0.04308  0.30007  0.30837  1.0000
  C   C154      1.0  0.05776  0.27028  0.29267  1.0000
  H   H180      1.0  0.01140  0.18512  0.31946  1.0000
  H   H181      1.0  0.10086  0.20524  0.43839  1.0000
  H   H182      1.0  0.11050  0.15374  0.47328  1.0000
  H   H183      1.0  0.07402  0.16827  0.47934  1.0000
  H   H184      1.0  0.00771  0.15413  0.28132  1.0000
  C   C155      1.0  0.11972  0.16716  0.41473  1.0000
  C   C156      1.0  0.11723  0.15121  0.42219  1.0000
  C   C157      1.0  0.10558  0.14516  0.41802  1.0000
  C   C158      1.0  0.09614  0.15506  0.40650  1.0000
  C   C159      1.0  0.09858  0.17103  0.39905  1.0000
  C   C160      1.0  0.11040  0.17700  0.40309  1.0000
  H   H185      1.0  0.12430  0.14347  0.43112  1.0000
  H   H186      1.0  0.10376  0.13280  0.42382  1.0000
  H   H187      1.0  0.09142  0.17877  0.39011  1.0000
  H   H188      1.0  0.11223  0.18934  0.39720  1.0000
  H   H189      1.0  0.27731  0.07887  0.45450  1.0000
  C   C161      1.0  0.23222  0.19119  0.46452  1.0000
  C   C162      1.0  0.21923  0.19010  0.45819  1.0000
  C   C163      1.0  0.21466  0.17504  0.46089  1.0000
  C   C164      1.0  0.33965  0.99239  0.32403  1.0000
  C   C165      1.0  0.99944  0.16482  0.32382  1.0000
  S   S63       1.0  0.28974  0.13861  0.47544  1.0000
  H   H190      1.0  0.21247  0.20114  0.45135  1.0000
  H   H191      1.0  0.16106  0.05343  0.47882  1.0000
  H   H192      1.0  0.02176  0.19778  0.24595  1.0000
  C   C166      1.0  0.29565  0.03636  0.35542  1.0000
  C   C167      1.0  0.30322  0.02482  0.34540  1.0000
  C   C168      1.0  0.29564  0.02359  0.33333  1.0000
  C   C169      1.0  0.28040  0.03400  0.33106  1.0000
  C   C170      1.0  0.27275  0.04548  0.34119  1.0000
  C   C171      1.0  0.28031  0.04665  0.35334  1.0000
  H   H193      1.0  0.31502  0.01679  0.34704  1.0000
  H   H194      1.0  0.30159  0.01456  0.32586  1.0000
  H   H195      1.0  0.26096  0.05356  0.33957  1.0000
  H   H196      1.0  0.27436  0.05562  0.36098  1.0000
  C   C172      1.0  0.23044  0.10471  0.40088  1.0000
  C   C173      1.0  0.23010  0.09107  0.41408  1.0000
  C   C174      1.0  0.21598  0.09050  0.42679  1.0000
  C   C175      1.0  0.20240  0.10379  0.42657  1.0000
  C   C176      1.0  0.20270  0.11738  0.41332  1.0000
  C   C177      1.0  0.21662  0.11775  0.40035  1.0000
  H   H197      1.0  0.24074  0.08100  0.41461  1.0000
  H   H198      1.0  0.21581  0.07994  0.43698  1.0000
  H   H199      1.0  0.19204  0.12736  0.41280  1.0000
  H   H200      1.0  0.21677  0.12821  0.39002  1.0000
  C   C178      1.0  0.32412  0.10765  0.41092  1.0000
  C   C179      1.0  0.31182  0.11054  0.42500  1.0000
  C   C180      1.0  0.31301  0.12130  0.43428  1.0000
  C   C181      1.0  0.32637  0.12929  0.42931  1.0000
  C   C182      1.0  0.33844  0.12637  0.41523  1.0000
  C   C183      1.0  0.33739  0.11558  0.40621  1.0000
  H   H201      1.0  0.30149  0.10450  0.42870  1.0000
  H   H202      1.0  0.30355  0.12353  0.44509  1.0000
  H   H203      1.0  0.34875  0.13248  0.41126  1.0000
  H   H204      1.0  0.34693  0.11344  0.39539  1.0000
  C   C184      1.0  0.26079  0.14005  0.41560  1.0000
  H   H205      1.0  0.14723  0.10964  0.38574  1.0000
  C   C185      1.0  0.24605  0.07065  0.45488  1.0000
  C   C186      1.0  0.25617  0.05598  0.46144  1.0000
  C   C187      1.0  0.28985  0.23073  0.48154  1.0000
  H   H206      1.0  0.24010  0.14210  0.44614  1.0000
  H   H207      1.0  0.24879  0.07593  0.44182  1.0000
  H   H208      1.0  0.24996  0.11480  0.43800  1.0000
  H   H209      1.0  0.20670  0.11644  0.35271  1.0000
  N   N10       1.0  0.24338  0.13822  0.42173  1.0000
  C   C188      1.0  0.23442  0.14501  0.40804  1.0000
  C   C189      1.0  0.10733  0.18603  0.46504  1.0000
  H   H210      1.0  0.03952  0.20226  0.31095  1.0000
  C   C190      1.0  0.02822  0.22700  0.32841  1.0000
  C   C191      1.0  0.17636  0.11343  0.38821  1.0000
  C   C192      1.0  0.16006  0.13976  0.39432  1.0000
  C   C193      1.0  0.04360  0.24917  0.29371  1.0000
  H   H211      1.0  0.16310  0.14683  0.38147  1.0000
  H   H212      1.0  0.13486  0.12883  0.39084  1.0000
  C   C194      1.0  0.06324  0.26103  0.30690  1.0000
  C   C195      1.0  0.18493  0.09864  0.39718  1.0000
  C   C196      1.0  0.20083  0.09072  0.39026  1.0000
  H   H213      1.0  0.15080  0.12896  0.37258  1.0000
  S   S64       1.0  0.27014  0.01201  0.24332  1.0000
  C   C197      1.0  0.99948  0.14827  0.33148  1.0000
  C   C198      1.0  0.20051  0.11146  0.36510  1.0000
  H   H214      1.0  0.16928  0.14038  0.40092  1.0000
  C   C199      1.0  0.24287  0.12053  0.42806  1.0000
  H   H215      1.0  0.17993  0.09317  0.40978  1.0000
  H   H216      1.0  0.23966  0.13814  0.39790  1.0000
  H   H217      1.0  0.14086  0.12202  0.41771  1.0000
  H   H218      1.0  0.04312  0.27192  0.27543  1.0000
  H   H219      1.0  0.23502  0.15816  0.40260  1.0000
  H   H220      1.0  0.22122  0.09128  0.36928  1.0000
  H   H221      1.0  0.26681  0.12479  0.39733  1.0000
  H   H222      1.0  0.30336  0.06353  0.44799  1.0000
  H   H223      1.0  0.10111  0.19882  0.46652  1.0000
  H   H224      1.0  0.14786  0.14670  0.40000  1.0000
  H   H225      1.0  0.30703  0.14431  0.39845  1.0000
  H   H226      1.0  0.31247  0.09289  0.47731  1.0000
  C   C200      1.0  0.10482  0.16000  0.46238  1.0000
  N   N11       1.0  0.09554  0.17702  0.46345  1.0000
  H   H227      1.0  0.02959  0.23239  0.33823  1.0000
  C   C201      1.0  0.21474  0.04708  0.46588  1.0000
  S   S65       1.0  0.30471  0.17148  0.47151  1.0000
  C   C202      1.0  0.27578  0.08557  0.46434  1.0000
  H   H228      1.0  0.30695  0.20564  0.46678  1.0000
  C   C203      1.0  0.04791  0.26440  0.28613  1.0000
  C   C204      1.0  0.05965  0.31694  0.29905  1.0000
  H   H229      1.0  0.35882  0.02087  0.29562  1.0000
  H   H230      1.0  0.05277  0.21358  0.29451  1.0000
  C   C205      1.0  0.22366  0.16083  0.46976  1.0000
  H   H231      1.0  0.33935  0.09369  0.45912  1.0000
  C   C206      1.0  0.29416  0.14338  0.40299  1.0000
  C   C207      1.0  0.33876  0.03593  0.24066  1.0000
  H   H232      1.0  0.26288  0.08584  0.47167  1.0000
  N   N12       1.0  0.31977  0.05886  0.28802  1.0000
  C   C208      1.0  0.33423  0.05833  0.27387  1.0000
  C   C209      1.0  0.31412  0.04324  0.29180  1.0000
  C   C210      1.0  0.30635  0.07267  0.28254  1.0000
  C   C211      1.0  0.32352  0.06087  0.30306  1.0000
  C   C212      1.0  0.33999  0.05904  0.30482  1.0000
  C   C213      1.0  0.31058  0.06403  0.31684  1.0000
  C   C214      1.0  0.34310  0.06069  0.31936  1.0000
  C   C215      1.0  0.31383  0.06603  0.33113  1.0000
  C   C216      1.0  0.33004  0.06422  0.33247  1.0000
  H   H233      1.0  0.34401  0.04698  0.27617  1.0000
  H   H234      1.0  0.33077  0.05788  0.26247  1.0000
  H   H235      1.0  0.33962  0.06940  0.27094  1.0000
  H   H236      1.0  0.32342  0.03253  0.29667  1.0000
  H   H237      1.0  0.31196  0.04079  0.28065  1.0000
  H   H238      1.0  0.30231  0.04343  0.30115  1.0000
  H   H239      1.0  0.30943  0.08481  0.28100  1.0000
  H   H240      1.0  0.30412  0.07201  0.27061  1.0000
  H   H241      1.0  0.29421  0.07249  0.29135  1.0000
  H   H242      1.0  0.35067  0.05618  0.29522  1.0000
  H   H243      1.0  0.29782  0.06459  0.31690  1.0000
  H   H244      1.0  0.35571  0.05914  0.32058  1.0000
  H   H245      1.0  0.30375  0.06842  0.34154  1.0000
  H   H246      1.0  0.33241  0.06524  0.34386  1.0000
  S   S66       1.0  0.27415  0.99777  0.29104  1.0000
  H   H247      1.0  0.34870  0.07984  0.43553  1.0000
  C   C217      1.0  0.05902  0.24577  0.31456  1.0000
  H   H248      1.0  0.05680  0.21559  0.33682  1.0000
  H   H249      1.0  0.17875  0.13041  0.36416  1.0000
  C   C218      1.0  0.33151  0.08676  0.45713  1.0000
  C   C219      1.0  0.25247  0.04916  0.47840  1.0000
  C   C220      1.0  0.33684  0.07894  0.44385  1.0000
  C   C221      1.0  0.06898  0.18452  0.43209  1.0000
  C   C222      1.0  0.07289  0.19881  0.42122  1.0000
  H   H250      1.0  0.24822  0.11333  0.41826  1.0000
  C   C223      1.0  0.35889  0.99710  0.29204  1.0000
  H   H251      1.0  0.22116  0.14523  0.43970  1.0000
  H   H252      1.0  0.05360  0.19930  0.33048  1.0000
  C   C224      1.0  0.34514  0.00705  0.31709  1.0000
  C   C225      1.0  0.22025  0.03262  0.47670  1.0000
  H   H253      1.0  0.02327  0.21566  0.33453  1.0000
  H   H254      1.0  0.31906  0.19511  0.48212  1.0000
  C   C226      1.0  0.32659  0.07053  0.44084  1.0000
  C   C227      1.0  0.23710  0.16185  0.47580  1.0000
  H   H255      1.0  0.01101  0.12695  0.34747  1.0000
  H   H256      1.0  0.22111  0.14434  0.41228  1.0000
  C   C228      1.0  0.15336  0.11505  0.41278  1.0000
  H   H257      1.0  0.22420  0.08954  0.46008  1.0000
  C   C229      1.0  0.23221  0.07837  0.46524  1.0000
  C   C230      1.0  0.04929  0.23920  0.30802  1.0000
  C   C231      1.0  0.05652  0.21174  0.32565  1.0000
  S   S67       1.0  0.30903  0.00198  0.29693  1.0000
  C   C232      1.0  0.31586  0.08634  0.46742  1.0000
  C   C233      1.0  0.07633  0.17755  0.44573  1.0000
  H   H258      1.0  0.99795  0.11609  0.37837  1.0000
  H   H259      1.0  0.03057  0.22119  0.29963  1.0000
  H   H260      1.0  0.06044  0.17861  0.42973  1.0000
  N   N13       1.0  0.15969  0.12241  0.39523  1.0000
  H   H261      1.0  0.99879  0.17643  0.26376  1.0000
  H   H262      1.0  0.16162  0.11507  0.42077  1.0000
  H   H263      1.0  0.28966  0.15807  0.42087  1.0000
  C   C234      1.0  0.04464  0.15460  0.29866  1.0000
  H   H264      1.0  0.33188  0.99073  0.33634  1.0000
  H   H265      1.0  0.22995  0.11867  0.43309  1.0000
  H   H266      1.0  0.03977  0.18658  0.25420  1.0000
  C   C235      1.0  0.05413  0.30160  0.32731  1.0000
  H   H267      1.0  0.00153  0.18796  0.37412  1.0000
  S   S68       1.0  0.25631  0.18004  0.48238  1.0000
  C   C236      1.0  0.01074  0.13979  0.34168  1.0000
  H   H268      1.0  0.29560  0.12737  0.38719  1.0000
  H   H269      1.0  0.05681  0.31963  0.28700  1.0000
  C   C237      1.0  0.30502  0.07799  0.46457  1.0000
  H   H270      1.0  0.07056  0.26580  0.31224  1.0000
  C   C238      1.0  0.28432  0.15110  0.41568  1.0000
  N   N14       1.0  0.01649  0.18508  0.27136  1.0000
  H   H271      1.0  0.06634  0.30611  0.34381  1.0000
  C   C239      1.0  0.02680  0.18637  0.25444  1.0000
  C   C240      1.0  0.99929  0.18550  0.27055  1.0000
  C   C241      1.0  0.02387  0.16971  0.28201  1.0000
  H   H272      1.0  0.02820  0.20279  0.27517  1.0000
  C   C242      1.0  0.02492  0.14068  0.29614  1.0000
  H   H273      1.0  0.07297  0.16637  0.45366  1.0000
  C   C243      1.0  0.03783  0.16891  0.28829  1.0000
  H   H274      1.0  0.08760  0.21697  0.41510  1.0000
  H   H275      1.0  0.32121  0.21524  0.47023  1.0000
  H   H276      1.0  0.04301  0.12970  0.31121  1.0000
  C   C244      1.0  0.99568  0.13531  0.39080  1.0000
  H   H277      1.0  0.06320  0.23944  0.32584  1.0000
  C   C245      1.0  0.31094  0.07000  0.45103  1.0000
  H   H278      1.0  0.06082  0.28221  0.28688  1.0000
  H   H279      1.0  0.00067  0.24245  0.38287  1.0000
  H   H280      1.0  0.31223  0.04391  0.24429  1.0000
  Fe  Fe34      1.0  0.15009  0.14583  0.47379  1.0000
  Fe  Fe35      1.0  0.00264  0.30099  0.30143  1.0000
  N   N15       1.0  0.28815  0.07767  0.47482  1.0000
  C   C246      1.0  0.31208  0.20737  0.47661  1.0000
  S   S69       1.0  0.00079  0.24351  0.29676  1.0000
  H   H281      1.0  0.04345  0.17937  0.28560  1.0000
  C   C247      1.0  0.16988  0.08056  0.48074  1.0000
  C   C248      1.0  0.19943  0.05741  0.47060  1.0000
  H   H282      1.0  0.07465  0.18883  0.47963  1.0000
  H   H283      1.0  0.05468  0.15455  0.30409  1.0000
  H   H284      1.0  0.27693  0.09846  0.45815  1.0000
  H   H285      1.0  0.16928  0.08004  0.46817  1.0000
  C   C249      1.0  0.24130  0.17715  0.47330  1.0000
  H   H286      1.0  0.00803  0.21124  0.27143  1.0000
  H   H287      1.0  0.04768  0.29296  0.33677  1.0000
  H   H288      1.0  0.11782  0.18656  0.45407  1.0000
  C   C250      1.0  0.05168  0.30552  0.31126  1.0000
  H   H289      1.0  0.22042  0.14909  0.47181  1.0000
  H   H290      1.0  0.28797  0.05324  0.47275  1.0000
  H   H291      1.0  0.22264  0.05054  0.45392  1.0000
  H   H292      1.0  0.01963  0.12982  0.29958  1.0000
  C   C251      1.0  0.03809  0.14057  0.30270  1.0000
  H   H293      1.0  0.23235  0.02494  0.47310  1.0000
  H   H294      1.0  0.00673  0.12940  0.39570  1.0000
  S   S70       1.0  0.30887  0.99282  0.26233  1.0000
  H   H295      1.0  0.02736  0.17563  0.24931  1.0000
  H   H296      1.0  0.11500  0.16020  0.45125  1.0000
  H   H297      1.0  0.11301  0.17979  0.47597  1.0000
  H   H298      1.0  0.36583  0.99974  0.27946  1.0000
  H   H299      1.0  0.01059  0.19804  0.29098  1.0000
  C   C252      1.0  0.01586  0.19985  0.27749  1.0000
  C   C253      1.0  0.06462  0.30905  0.33125  1.0000
  C   C254      1.0  0.22855  0.07156  0.48220  1.0000
  C   C255      1.0  0.32396  0.04544  0.23624  1.0000
  H   H300      1.0  0.28359  0.22951  0.47230  1.0000
  H   H301      1.0  0.10120  0.31970  0.28444  1.0000
  C   C256      1.0  0.28667  0.06034  0.48222  1.0000
  C   C257      1.0  0.12498  0.08020  0.60178  1.0000
  Fe  Fe36      1.0  0.42178  0.22285  0.53165  1.0000
  S   S71       1.0  0.41775  0.21510  0.55907  1.0000
  S   S72       1.0  0.44534  0.23144  0.51736  1.0000
  Fe  Fe37      1.0  0.38981  0.21290  0.53044  1.0000
  S   S73       1.0  0.38337  0.20508  0.55813  1.0000
  C   C258      1.0  0.47150  0.23089  0.60233  1.0000
  Fe  Fe38      1.0  0.39138  0.22788  0.55856  1.0000
  S   S74       1.0  0.37793  0.24447  0.57659  1.0000
  Fe  Fe39      1.0  0.41045  0.19333  0.55581  1.0000
  S   S75       1.0  0.42125  0.16758  0.56793  1.0000
  S   S76       1.0  0.39561  0.23691  0.53098  1.0000
  S   S77       1.0  0.41665  0.19994  0.52830  1.0000
  C   C259      1.0  0.41619  0.26963  0.51733  1.0000
  H   H302      1.0  0.18758  0.03414  0.50898  1.0000
  S   S78       1.0  0.16684  0.99016  0.65823  1.0000
  H   H303      1.0  0.14697  0.06306  0.49492  1.0000
  Fe  Fe40      1.0  0.45699  0.16757  0.63989  1.0000
  S   S79       1.0  0.43201  0.17776  0.63349  1.0000
  S   S80       1.0  0.45816  0.16561  0.66605  1.0000
  S   S81       1.0  0.48475  0.26342  0.54802  1.0000
  H   H304      1.0  0.15803  0.08870  0.48551  1.0000
  H   H305      1.0  0.43254  0.24483  0.59536  1.0000
  Fe  Fe41      1.0  0.41483  0.29793  0.61435  1.0000
  S   S82       1.0  0.39862  0.29537  0.63993  1.0000
  S   S83       1.0  0.41349  0.29375  0.58986  1.0000
  Fe  Fe42      1.0  0.42212  0.28116  0.64834  1.0000
  S   S84       1.0  0.42291  0.25859  0.66896  1.0000
  S   S85       1.0  0.43760  0.28210  0.62283  1.0000
  Fe  Fe43      1.0  0.20789  0.07392  0.52226  1.0000
  S   S86       1.0  0.19446  0.09653  0.53199  1.0000
  S   S87       1.0  0.21076  0.08120  0.49463  1.0000
  Fe  Fe44      1.0  0.20880  0.05358  0.55696  1.0000
  S   S88       1.0  0.19540  0.07496  0.56905  1.0000
  S   S89       1.0  0.21664  0.02974  0.57447  1.0000
  Fe  Fe45      1.0  0.17910  0.08053  0.55105  1.0000
  S   S90       1.0  0.15168  0.09020  0.55732  1.0000
  Fe  Fe46      1.0  0.21207  0.08887  0.54869  1.0000
  S   S91       1.0  0.22223  0.10978  0.54965  1.0000
  S   S92       1.0  0.19106  0.05814  0.54037  1.0000
  S   S93       1.0  0.22697  0.06723  0.53771  1.0000
  H   H306      1.0  0.47435  0.19512  0.55417  1.0000
  H   H307      1.0  0.43077  0.22675  0.64273  1.0000
  H   H308      1.0  0.12898  0.05217  0.64462  1.0000
  H   H309      1.0  0.42076  0.16293  0.53295  1.0000
  S   S94       1.0  0.32392  0.16898  0.51215  1.0000
  H   H310      1.0  0.41066  0.12949  0.54155  1.0000
  S   S95       1.0  0.47580  0.11733  0.68073  1.0000
  H   H311      1.0  0.39506  0.17023  0.55306  1.0000
  H   H312      1.0  0.37090  0.14085  0.54816  1.0000
  Fe  Fe47      1.0  0.14261  0.00408  0.67038  1.0000
  S   S96       1.0  0.13978  0.02856  0.67624  1.0000
  H   H313      1.0  0.42410  0.30607  0.49327  1.0000
  S   S97       1.0  0.06274  0.05645  0.69377  1.0000
  C   C260      1.0  0.11845  0.03653  0.68145  1.0000
  C   C261      1.0  0.10764  0.02574  0.68822  1.0000
  C   C262      1.0  0.09057  0.03191  0.69222  1.0000
  C   C263      1.0  0.08416  0.04891  0.68877  1.0000
  C   C264      1.0  0.09493  0.05977  0.68176  1.0000
  C   C265      1.0  0.11213  0.05358  0.67839  1.0000
  H   H314      1.0  0.11237  0.01260  0.69056  1.0000
  H   H315      1.0  0.08236  0.02347  0.69774  1.0000
  H   H316      1.0  0.08999  0.07294  0.67927  1.0000
  H   H317      1.0  0.12047  0.06198  0.67317  1.0000
  C   C266      1.0  0.20071  0.01913  0.58515  1.0000
  C   C267      1.0  0.18693  0.02123  0.57851  1.0000
  H   H318      1.0  0.49005  0.18430  0.59170  1.0000
  H   H319      1.0  0.43010  0.28939  0.70072  1.0000
  C   C268      1.0  0.18875  0.00055  0.60956  1.0000
  C   C269      1.0  0.20167  0.00865  0.60064  1.0000
  H   H320      1.0  0.18616  0.02912  0.56653  1.0000
  H   H321      1.0  0.06279  0.02506  0.65874  1.0000
  C   C270      1.0  0.45564  0.24072  0.60256  1.0000
  H   H322      1.0  0.21235  0.00691  0.60579  1.0000
  C   C271      1.0  0.13613  0.12952  0.51363  1.0000
  C   C272      1.0  0.12619  0.12922  0.52949  1.0000
  C   C273      1.0  0.13075  0.11684  0.54285  1.0000
  C   C274      1.0  0.14535  0.10485  0.54039  1.0000
  C   C275      1.0  0.15508  0.10495  0.52445  1.0000
  C   C276      1.0  0.15045  0.11722  0.51107  1.0000
  H   H323      1.0  0.11508  0.13869  0.53152  1.0000
  H   H324      1.0  0.12317  0.11678  0.55513  1.0000
  H   H325      1.0  0.16614  0.09553  0.52242  1.0000
  C   C277      1.0  0.24246  0.10746  0.53793  1.0000
  C   C278      1.0  0.24772  0.12106  0.52674  1.0000
  C   C279      1.0  0.26429  0.11970  0.51842  1.0000
  C   C280      1.0  0.27571  0.10484  0.52164  1.0000
  C   C281      1.0  0.27034  0.09098  0.53225  1.0000
  C   C282      1.0  0.25367  0.09228  0.54039  1.0000
  H   H326      1.0  0.23905  0.13270  0.52459  1.0000
  H   H327      1.0  0.26825  0.13035  0.50994  1.0000
  H   H328      1.0  0.27913  0.07940  0.53460  1.0000
  H   H329      1.0  0.24961  0.08172  0.54905  1.0000
  N   N16       1.0  0.46110  0.30334  0.56839  1.0000
  H   H330      1.0  0.05773  0.01291  0.70392  1.0000
  C   C283      1.0  0.46677  0.21472  0.66476  1.0000
  C   C284      1.0  0.46493  0.22759  0.65096  1.0000
  C   C285      1.0  0.45179  0.24141  0.65219  1.0000
  C   C286      1.0  0.44034  0.24225  0.66716  1.0000
  C   C287      1.0  0.44231  0.22941  0.68095  1.0000
  C   C288      1.0  0.45554  0.21573  0.67978  1.0000
  H   H331      1.0  0.47377  0.22693  0.63940  1.0000
  H   H332      1.0  0.45043  0.25123  0.64151  1.0000
  H   H333      1.0  0.43355  0.23001  0.69258  1.0000
  H   H334      1.0  0.41452  0.31478  0.69696  1.0000
  Fe  Fe48      1.0  0.47659  0.14190  0.66335  1.0000
  C   C289      1.0  0.35317  0.19018  0.52693  1.0000
  C   C290      1.0  0.34160  0.18139  0.52660  1.0000
  C   C291      1.0  0.33921  0.17983  0.51158  1.0000
  H   H335      1.0  0.43430  0.20499  0.64314  1.0000
  H   H336      1.0  0.34745  0.18575  0.48518  1.0000
  H   H337      1.0  0.35445  0.19160  0.53858  1.0000
  H   H338      1.0  0.33426  0.17597  0.53809  1.0000
  H   H339      1.0  0.41247  0.18906  0.66138  1.0000
  H   H340      1.0  0.45171  0.25116  0.60848  1.0000
  C   C292      1.0  0.40476  0.27807  0.58817  1.0000
  C   C293      1.0  0.41228  0.26965  0.57526  1.0000
  C   C294      1.0  0.40442  0.25887  0.57200  1.0000
  C   C295      1.0  0.38877  0.25677  0.58133  1.0000
  C   C296      1.0  0.38141  0.26492  0.59445  1.0000
  C   C297      1.0  0.38946  0.27537  0.59800  1.0000
  H   H341      1.0  0.42397  0.27188  0.56741  1.0000
  H   H342      1.0  0.41011  0.25272  0.56186  1.0000
  H   H343      1.0  0.36931  0.26335  0.60176  1.0000
  H   H344      1.0  0.38343  0.28196  0.60782  1.0000
  C   C298      1.0  0.42342  0.16878  0.58716  1.0000
  C   C299      1.0  0.41279  0.18126  0.59480  1.0000
  C   C300      1.0  0.41511  0.18322  0.60953  1.0000
  C   C301      1.0  0.42838  0.17314  0.61639  1.0000
  C   C302      1.0  0.43882  0.16033  0.60903  1.0000
  C   C303      1.0  0.43622  0.15804  0.59444  1.0000
  H   H345      1.0  0.40274  0.18944  0.58936  1.0000
  H   H346      1.0  0.40676  0.19278  0.61547  1.0000
  H   H347      1.0  0.44900  0.15238  0.61441  1.0000
  H   H348      1.0  0.44445  0.14836  0.58854  1.0000
  H   H349      1.0  0.40959  0.17315  0.51707  1.0000
  H   H350      1.0  0.48095  0.29906  0.53730  1.0000
  H   H351      1.0  0.42106  0.15202  0.51785  1.0000
  C   C304      1.0  0.47773  0.27838  0.62743  1.0000
  C   C305      1.0  0.41494  0.31835  0.53755  1.0000
  H   H352      1.0  0.46570  0.27863  0.63560  1.0000
  H   H353      1.0  0.18672  0.12528  0.50497  1.0000
  C   C306      1.0  0.47518  0.25140  0.54142  1.0000
  C   C307      1.0  0.45873  0.25033  0.54903  1.0000
  C   C308      1.0  0.44978  0.24325  0.54234  1.0000
  C   C309      1.0  0.45702  0.23778  0.52761  1.0000
  H   H354      1.0  0.26351  0.11830  0.59294  1.0000
  C   C310      1.0  0.36256  0.19764  0.51218  1.0000
  H   H355      1.0  0.45278  0.25532  0.55994  1.0000
  H   H356      1.0  0.43708  0.24268  0.54819  1.0000
  S   S98       1.0  0.47340  0.14283  0.63815  1.0000
  H   H357      1.0  0.43155  0.31239  0.51567  1.0000
  H   H358      1.0  0.22572  0.16058  0.52816  1.0000
  S   S99       1.0  0.37675  0.20973  0.51168  1.0000
  H   H359      1.0  0.16526  0.06580  0.63104  1.0000
  H   H360      1.0  0.03767  0.03415  0.68830  1.0000
  H   H361      1.0  0.41678  0.19553  0.67758  1.0000
  H   H362      1.0  0.47735  0.21482  0.55461  1.0000
  H   H363      1.0  0.28017  0.23676  0.49090  1.0000
  S   S100      1.0  0.48374  0.19796  0.66364  1.0000
  C   C311      1.0  0.28692  0.20337  0.49606  1.0000
  C   C312      1.0  0.42848  0.21465  0.65050  1.0000
  H   H364      1.0  0.27108  0.08596  0.49603  1.0000
  C   C313      1.0  0.28382  0.08645  0.48855  1.0000
  C   C314      1.0  0.47667  0.21738  0.59472  1.0000
  H   H365      1.0  0.27547  0.08674  0.56842  1.0000
  H   H366      1.0  0.48058  0.28571  0.65616  1.0000
  H   H367      1.0  0.44699  0.19320  0.58568  1.0000
  H   H368      1.0  0.16169  0.14736  0.50468  1.0000
  H   H369      1.0  0.26705  0.12209  0.54840  1.0000
  H   H370      1.0  0.12371  0.08803  0.58978  1.0000
  H   H371      1.0  0.18501  0.13281  0.53690  1.0000
  C   C315      1.0  0.28458  0.09481  0.56499  1.0000
  N   N17       1.0  0.15841  0.04824  0.62198  1.0000
  H   H372      1.0  0.18364  0.04022  0.60921  1.0000
  C   C316      1.0  0.31834  0.22644  0.49766  1.0000
  C   C317      1.0  0.39498  0.30135  0.55116  1.0000
  H   H373      1.0  0.17427  0.16030  0.49019  1.0000
  C   C318      1.0  0.15727  0.99017  0.72371  1.0000
  C   C319      1.0  0.19488  0.03832  0.49696  1.0000
  C   C320      1.0  0.38048  0.15269  0.50047  1.0000
  C   C321      1.0  0.17502  0.00261  0.60283  1.0000
  H   H374      1.0  0.35359  0.13532  0.53281  1.0000
  C   C322      1.0  0.12832  0.05989  0.63252  1.0000
  H   H375      1.0  0.14785  0.02897  0.64015  1.0000
  H   H376      1.0  0.02594  0.01872  0.69354  1.0000
  C   C323      1.0  0.23878  0.05703  0.48881  1.0000
  N   N18       1.0  0.41050  0.21520  0.65711  1.0000
  C   C324      1.0  0.40398  0.22830  0.66680  1.0000
  C   C325      1.0  0.40879  0.19906  0.66839  1.0000
  C   C326      1.0  0.40096  0.21867  0.64414  1.0000
  C   C327      1.0  0.38366  0.21923  0.64854  1.0000
  C   C328      1.0  0.40825  0.22192  0.62699  1.0000
  C   C329      1.0  0.37429  0.22273  0.63657  1.0000
  C   C330      1.0  0.39871  0.22554  0.61512  1.0000
  C   C331      1.0  0.38181  0.22585  0.61990  1.0000
  H   H377      1.0  0.40465  0.24069  0.65866  1.0000
  H   H378      1.0  0.41116  0.22649  0.67637  1.0000
  H   H379      1.0  0.39087  0.22874  0.67335  1.0000
  H   H380      1.0  0.39593  0.19902  0.67551  1.0000
  H   H381      1.0  0.37726  0.21698  0.66132  1.0000
  H   H382      1.0  0.42133  0.22147  0.62242  1.0000
  H   H383      1.0  0.36111  0.22304  0.64019  1.0000
  H   H384      1.0  0.40449  0.22781  0.60210  1.0000
  H   H385      1.0  0.37452  0.22847  0.61064  1.0000
  C   C332      1.0  0.47782  0.30669  0.56050  1.0000
  H   H386      1.0  0.48906  0.21022  0.59516  1.0000
  Fe  Fe49      1.0  0.47989  0.17751  0.65455  1.0000
  H   H387      1.0  0.45707  0.20592  0.69053  1.0000
  C   C333      1.0  0.40148  0.29171  0.53926  1.0000
  H   H388      1.0  0.15105  0.02739  0.61912  1.0000
  H   H389      1.0  0.06563  0.03000  0.67645  1.0000
  H   H390      1.0  0.16987  0.05474  0.51813  1.0000
  H   H391      1.0  0.13845  0.02058  0.71615  1.0000
  H   H392      1.0  0.17624  0.04479  0.63675  1.0000
  C   C334      1.0  0.49198  0.10853  0.69136  1.0000
  C   C335      1.0  0.29376  0.12777  0.57668  1.0000
  H   H393      1.0  0.43730  0.31556  0.58075  1.0000
  H   H394      1.0  0.37660  0.16421  0.55355  1.0000
  H   H395      1.0  0.16855  0.04520  0.59693  1.0000
  H   H396      1.0  0.39375  0.13570  0.55783  1.0000
  C   C336      1.0  0.26305  0.11950  0.56203  1.0000
  H   H397      1.0  0.25707  0.13157  0.56558  1.0000
  C   C337      1.0  0.30851  0.21233  0.53095  1.0000
  H   H398      1.0  0.03111  0.10503  0.72864  1.0000
  C   C338      1.0  0.38784  0.15149  0.52650  1.0000
  H   H399      1.0  0.15531  0.05109  0.64692  1.0000
  C   C339      1.0  0.48631  0.30376  0.54458  1.0000
  H   H400      1.0  0.48120  0.31391  0.58155  1.0000
  H   H401      1.0  0.28184  0.20164  0.48616  1.0000
  H   H402      1.0  0.23591  0.05166  0.50187  1.0000
  C   C340      1.0  0.17423  0.01284  0.58724  1.0000
  N   N19       1.0  0.42260  0.28490  0.51351  1.0000
  H   H403      1.0  0.16694  0.13336  0.53046  1.0000
  C   C341      1.0  0.20589  0.15446  0.52168  1.0000
  H   H404      1.0  0.30828  0.14290  0.58026  1.0000
  C   C342      1.0  0.44086  0.31750  0.70585  1.0000
  H   H405      1.0  0.43535  0.21155  0.66054  1.0000
  S   S101      1.0  0.12872  0.00337  0.65220  1.0000
  H   H406      1.0  0.27436  0.05960  0.49060  1.0000
  Fe  Fe50      1.0  0.15236  0.98756  0.64131  1.0000
  C   C343      1.0  0.18909  0.05346  0.48645  1.0000
  C   C344      1.0  0.48658  0.31202  0.56917  1.0000
  H   H407      1.0  0.26024  0.03777  0.48350  1.0000
  H   H408      1.0  0.08777  0.17122  0.48999  1.0000
  H   H409      1.0  0.44724  0.29025  0.50570  1.0000
  H   H410      1.0  0.39571  0.28153  0.54088  1.0000
  N   N20       1.0  0.18326  0.14809  0.51255  1.0000
  C   C345      1.0  0.16956  0.15606  0.50365  1.0000
  C   C346      1.0  0.19388  0.13437  0.50476  1.0000
  C   C347      1.0  0.17569  0.14110  0.52986  1.0000
  C   C348      1.0  0.19356  0.15953  0.51211  1.0000
  H   H411      1.0  0.45178  0.31178  0.54602  1.0000
  H   H412      1.0  0.46384  0.17650  0.58142  1.0000
  C   C349      1.0  0.03663  0.98934  0.68292  1.0000
  H   H413      1.0  0.07747  0.01126  0.67067  1.0000
  S   S102      1.0  0.47745  0.18136  0.62846  1.0000
  C   C350      1.0  0.30620  0.21672  0.50218  1.0000
  C   C351      1.0  0.32549  0.22874  0.50942  1.0000
  C   C352      1.0  0.44108  0.28914  0.69095  1.0000
  C   C353      1.0  0.42148  0.30885  0.52551  1.0000
  C   C354      1.0  0.39057  0.15597  0.50898  1.0000
  H   H414      1.0  0.45420  0.31799  0.58709  1.0000
  C   C355      1.0  0.21032  0.02821  0.49219  1.0000
  C   C356      1.0  0.34880  0.18703  0.49685  1.0000
  Fe  Fe51      1.0  0.49418  0.15624  0.62918  1.0000
  H   H415      1.0  0.46785  0.26150  0.66922  1.0000
  H   H416      1.0  0.48248  0.08785  0.66033  1.0000
  H   H417      1.0  0.28907  0.09639  0.55141  1.0000
  H   H418      1.0  0.45059  0.28453  0.58712  1.0000
  H   H419      1.0  0.16126  0.16672  0.50874  1.0000
  C   C357      1.0  0.13191  0.01025  0.72208  1.0000
  C   C358      1.0  0.44488  0.23713  0.59516  1.0000
  H   H420      1.0  0.40272  0.27235  0.51752  1.0000
  H   H421      1.0  0.16524  0.99940  0.71866  1.0000
  C   C359      1.0  0.37416  0.14399  0.53486  1.0000
  H   H422      1.0  0.44118  0.22146  0.58181  1.0000
  C   C360      1.0  0.44996  0.22372  0.58742  1.0000
  H   H423      1.0  0.40529  0.29881  0.49822  1.0000
  C   C361      1.0  0.27025  0.10693  0.58825  1.0000
  C   C362      1.0  0.48268  0.24521  0.52713  1.0000
  C   C363      1.0  0.47355  0.23862  0.52015  1.0000
  C   C364      1.0  0.04965  0.99786  0.67502  1.0000
  H   H424      1.0  0.28017  0.10018  0.59520  1.0000
  C   C365      1.0  0.15625  0.03098  0.62784  1.0000
  N   N21       1.0  0.47116  0.19936  0.57856  1.0000
  H   H425      1.0  0.46779  0.28947  0.59146  1.0000
  C   C366      1.0  0.46608  0.21347  0.58686  1.0000
  N   N22       1.0  0.27711  0.11077  0.57020  1.0000
  H   H426      1.0  0.42235  0.26197  0.50791  1.0000
  S   S103      1.0  0.06352  0.02104  0.73258  1.0000
  C   C367      1.0  0.41518  0.29500  0.52619  1.0000
  H   H427      1.0  0.16868  0.15106  0.53661  1.0000
  C   C368      1.0  0.29781  0.12512  0.54851  1.0000
  C   C369      1.0  0.19238  0.17553  0.50163  1.0000
  H   H428      1.0  0.18031  0.07159  0.50941  1.0000
  H   H429      1.0  0.47924  0.23448  0.50872  1.0000
  H   H430      1.0  0.04618  0.99758  0.70716  1.0000
  H   H431      1.0  0.29515  0.12079  0.53906  1.0000
  H   H432      1.0  0.38489  0.29827  0.56136  1.0000
  H   H433      1.0  0.44414  0.27468  0.52413  1.0000
  C   C370      1.0  0.17019  0.06629  0.50858  1.0000
  H   H434      1.0  0.09353  0.98853  0.70954  1.0000
  C   C371      1.0  0.06077  0.99257  0.66096  1.0000
  C   C372      1.0  0.32053  0.22176  0.52603  1.0000
  C   C373      1.0  0.48205  0.29305  0.61764  1.0000
  H   H435      1.0  0.16041  0.04334  0.50005  1.0000
  H   H436      1.0  0.47131  0.27753  0.57632  1.0000
  H   H437      1.0  0.15802  0.11718  0.49883  1.0000
  H   H438      1.0  0.15022  0.07034  0.59295  1.0000
  C   C374      1.0  0.28962  0.12110  0.56529  1.0000
  C   C375      1.0  0.30949  0.13501  0.54346  1.0000
  H   H439      1.0  0.38259  0.15645  0.48714  1.0000
  C   C376      1.0  0.36026  0.19596  0.49718  1.0000
  C   C377      1.0  0.17183  0.04886  0.60688  1.0000
  H   H440      1.0  0.03179  0.02872  0.67225  1.0000
  H   H441      1.0  0.48557  0.25196  0.63407  1.0000
  C   C378      1.0  0.03609  0.02363  0.68406  1.0000
  C   C379      1.0  0.46988  0.20530  0.56102  1.0000
  H   H442      1.0  0.30497  0.20662  0.54386  1.0000
  H   H443      1.0  0.20199  0.19769  0.49260  1.0000
  N   N23       1.0  0.05173  0.01096  0.68193  1.0000
  H   H444      1.0  0.43950  0.29968  0.56262  1.0000
  S   S104      1.0  0.29684  0.10407  0.51368  1.0000
  S   S105      1.0  0.28912  0.15229  0.50802  1.0000
  H   H445      1.0  0.26110  0.09892  0.59142  1.0000
  C   C380      1.0  0.31319  0.14146  0.55485  1.0000
  C   C381      1.0  0.44087  0.27988  0.51184  1.0000
  H   H446      1.0  0.45690  0.21075  0.55961  1.0000
  H   H447      1.0  0.46006  0.18353  0.60021  1.0000
  H   H448      1.0  0.49256  0.05756  0.66692  1.0000
  H   H449      1.0  0.25334  0.11213  0.56520  1.0000
  H   H450      1.0  0.20425  0.12749  0.51107  1.0000
  C   C382      1.0  0.41891  0.29478  0.49743  1.0000
  C   C383      1.0  0.46274  0.28808  0.58141  1.0000
  H   H451      1.0  0.32203  0.14939  0.55071  1.0000
  C   C384      1.0  0.30537  0.13782  0.57143  1.0000
  S   S106      1.0  0.42873  0.30320  0.65175  1.0000
  S   S107      1.0  0.46724  0.31158  0.61684  1.0000
  H   H452      1.0  0.28815  0.12551  0.58967  1.0000
  C   C385      1.0  0.11140  0.08041  0.61503  1.0000
  C   C386      1.0  0.06498  0.01963  0.67143  1.0000
  C   C387      1.0  0.48902  0.26331  0.62671  1.0000
  C   C388      1.0  0.16404  0.05271  0.63470  1.0000
  H   H453      1.0  0.47990  0.23380  0.60803  1.0000
  C   C389      1.0  0.11306  0.07027  0.63038  1.0000
  Fe  Fe52      1.0  0.44215  0.30549  0.62549  1.0000
  H   H454      1.0  0.16818  0.02211  0.62918  1.0000
  C   C390      1.0  0.14242  0.05936  0.61931  1.0000
  C   C391      1.0  0.05601  0.00350  0.69828  1.0000
  C   C392      1.0  0.41302  0.16098  0.52541  1.0000
  C   C393      1.0  0.45241  0.30108  0.55665  1.0000
  H   H455      1.0  0.29538  0.08796  0.57066  1.0000
  C   C394      1.0  0.36414  0.14079  0.52622  1.0000
  H   H456      1.0  0.31555  0.13786  0.53054  1.0000
  H   H457      1.0  0.17462  0.06137  0.60213  1.0000
  C   C395      1.0  0.14030  0.06987  0.60380  1.0000
  Fe  Fe53      1.0  0.29975  0.12905  0.49849  1.0000
  Fe  Fe54      1.0  0.05502  0.04752  0.72099  1.0000
  H   H458      1.0  0.10249  0.07037  0.64070  1.0000
  H   H459      1.0  0.09955  0.08841  0.61337  1.0000
  H   H460      1.0  0.18954  0.99250  0.62150  1.0000
  Fe  Fe55      1.0  0.31365  0.15936  0.49520  1.0000
  S   S108      1.0  0.13088  0.14581  0.49733  1.0000
  C   C396      1.0  0.30146  0.20972  0.51927  1.0000
  N   N24       1.0  0.39812  0.15495  0.53596  1.0000
  H   H461      1.0  0.45845  0.28960  0.55201  1.0000
  C   C397      1.0  0.40183  0.31447  0.55046  1.0000
  C   C398      1.0  0.38802  0.16776  0.54523  1.0000
  H   H462      1.0  0.38420  0.17961  0.53667  1.0000
  Fe  Fe56      1.0  0.40660  0.31780  0.64141  1.0000
  C   C399      1.0  0.15965  0.05557  0.49135  1.0000
  C   C400      1.0  0.44765  0.30349  0.68332  1.0000
  C   C401      1.0  0.44831  0.27422  0.68586  1.0000
  C   C402      1.0  0.40399  0.13983  0.54789  1.0000
  H   H463      1.0  0.32260  0.23219  0.48496  1.0000
  H   H464      1.0  0.27605  0.20835  0.50515  1.0000
  N   N25       1.0  0.17255  0.06387  0.49161  1.0000
  H   H465      1.0  0.41262  0.14192  0.55439  1.0000
  H   H466      1.0  0.43452  0.30788  0.71460  1.0000
  C   C403      1.0  0.46247  0.27301  0.67333  1.0000
  H   H467      1.0  0.16367  0.01440  0.58196  1.0000
  H   H468      1.0  0.29262  0.20186  0.52391  1.0000
  H   H469      1.0  0.28416  0.09975  0.48395  1.0000
  C   C404      1.0  0.46005  0.18768  0.58679  1.0000
  H   H470      1.0  0.45407  0.31395  0.70693  1.0000
  H   H471      1.0  0.40021  0.16230  0.50153  1.0000
  C   C405      1.0  0.46956  0.28669  0.66594  1.0000
  H   H472      1.0  0.29238  0.08081  0.49722  1.0000
  H   H473      1.0  0.20794  0.14227  0.52950  1.0000
  H   H474      1.0  0.44662  0.27022  0.50437  1.0000
  H   H475      1.0  0.21467  0.01695  0.50059  1.0000
  N   N26       1.0  0.43950  0.31926  0.68865  1.0000
  H   H476      1.0  0.33520  0.23568  0.50562  1.0000
  C   C406      1.0  0.20278  0.18575  0.50103  1.0000
  H   H477      1.0  0.07145  0.99780  0.65449  1.0000
  H   H478      1.0  0.15826  0.07488  0.51231  1.0000
  Fe  Fe57      1.0  0.28111  0.16250  0.48385  1.0000
  C   C407      1.0  0.21472  0.18038  0.51059  1.0000
  H   H479      1.0  0.32634  0.22334  0.53505  1.0000
  H   H480      1.0  0.18388  0.18032  0.49339  1.0000
  H   H481      1.0  0.41848  0.26168  0.52940  1.0000
  C   C408      1.0  0.46229  0.30175  0.67073  1.0000
  H   H482      1.0  0.13059  0.00545  0.71186  1.0000
  S   S109      1.0  0.32476  0.13499  0.48751  1.0000
  H   H483      1.0  0.06763  0.99382  0.69727  1.0000
  H   H484      1.0  0.22317  0.18811  0.50956  1.0000
  C   C409      1.0  0.36734  0.14508  0.50906  1.0000
  H   H485      1.0  0.49195  0.17960  0.57238  1.0000
  S   S110      1.0  0.15859  0.99271  0.61354  1.0000
  C   C410      1.0  0.45033  0.31714  0.57610  1.0000
  C   C411      1.0  0.21622  0.16480  0.52095  1.0000
  H   H486      1.0  0.44269  0.26360  0.69141  1.0000
  H   H487      1.0  0.48837  0.08388  0.69531  1.0000
  H   H488      1.0  0.02797  0.99232  0.69393  1.0000
  H   H489      1.0  0.35927  0.14299  0.50242  1.0000
  H   H490      1.0  0.19949  0.13901  0.49166  1.0000
  H   H491      1.0  0.42421  0.28755  0.48756  1.0000
  C   C412      1.0  0.48843  0.19000  0.57886  1.0000
  N   N27       1.0  0.29883  0.21449  0.48944  1.0000
  H   H492      1.0  0.36743  0.20163  0.48568  1.0000
  H   H493      1.0  0.29297  0.19082  0.50204  1.0000
  H   H494      1.0  0.11907  0.01531  0.72839  1.0000
  H   H495      1.0  0.46825  0.31187  0.66411  1.0000
  H   H496      1.0  0.29636  0.05375  0.48948  1.0000
  H   H497      1.0  0.24382  0.15095  0.48286  1.0000
  C   C413      1.0  0.08464  0.30640  0.86263  1.0000
  H   H498      1.0  0.14939  0.01723  0.78453  1.0000
  C   C414      1.0  0.09074  0.00165  0.77494  1.0000
  H   H499      1.0  0.09058  0.27861  0.88573  1.0000
  S   S111      1.0  0.99704  0.30636  0.78995  1.0000
  H   H500      1.0  0.00101  0.16433  0.77964  1.0000
  Fe  Fe58      1.0  0.03782  0.02343  0.74789  1.0000
  H   H501      1.0  0.06541  0.00367  0.77422  1.0000
  S   S112      1.0  0.15847  0.29340  0.94585  1.0000
  H   H502      1.0  0.13268  0.03668  0.76513  1.0000
  Fe  Fe59      1.0  0.06779  0.24912  0.90908  1.0000
  S   S113      1.0  0.07628  0.24575  0.88281  1.0000
  S   S114      1.0  0.08898  0.25300  0.91860  1.0000
  Fe  Fe60      1.0  0.03297  0.24363  0.91035  1.0000
  S   S115      1.0  0.03922  0.24060  0.88425  1.0000
  C   C415      1.0  0.33537  0.31101  0.97170  1.0000
  Fe  Fe61      1.0  0.06303  0.22491  0.89043  1.0000
  S   S116      1.0  0.07495  0.20063  0.88269  1.0000
  Fe  Fe62      1.0  0.05173  0.26177  0.87914  1.0000
  S   S117      1.0  0.05094  0.28258  0.85684  1.0000
  S   S118      1.0  0.05637  0.22658  0.91713  1.0000
  S   S119      1.0  0.04358  0.26637  0.90480  1.0000
  Fe  Fe63      1.0  0.05247  0.17006  0.81444  1.0000
  S   S120      1.0  0.05009  0.16946  0.78923  1.0000
  S   S121      1.0  0.07084  0.18298  0.81729  1.0000
  Fe  Fe64      1.0  0.02530  0.15157  0.83160  1.0000
  S   S122      1.0  0.02002  0.14967  0.80821  1.0000
  S   S123      1.0  0.01085  0.14300  0.85690  1.0000
  Fe  Fe65      1.0  0.04760  0.14311  0.79997  1.0000
  S   S124      1.0  0.06060  0.12318  0.78528  1.0000
  Fe  Fe66      1.0  0.02279  0.17595  0.79935  1.0000
  H   H503      1.0  0.01796  0.14377  0.89026  1.0000
  S   S125      1.0  0.05280  0.14304  0.82430  1.0000
  S   S126      1.0  0.02532  0.17855  0.82363  1.0000
  S   S127      1.0  0.10873  0.30432  0.94828  1.0000
  S   S128      1.0  0.01841  0.26605  0.77246  1.0000
  Fe  Fe67      1.0  0.16706  0.31693  0.93309  1.0000
  C   C416      1.0  0.02203  0.23924  0.81557  1.0000
  C   C417      1.0  0.07568  0.99659  0.77967  1.0000
  Fe  Fe68      1.0  0.03754  0.05767  0.75327  1.0000
  H   H504      1.0  0.35683  0.27103  0.97378  1.0000
  S   S129      1.0  0.02335  0.07823  0.76682  1.0000
  H   H505      1.0  0.03639  0.14947  0.76993  1.0000
  Fe  Fe69      1.0  0.06903  0.03104  0.75138  1.0000
  S   S130      1.0  0.09280  0.01991  0.76022  1.0000
  C   C418      1.0  0.21359  0.27082  0.95611  1.0000
  S   S131      1.0  0.04373  0.03184  0.76784  1.0000
  C   C419      1.0  0.05000  0.11067  0.78050  1.0000
  C   C420      1.0  0.05892  0.09954  0.77030  1.0000
  C   C421      1.0  0.05089  0.08962  0.76595  1.0000
  C   C422      1.0  0.03383  0.09076  0.77172  1.0000
  C   C423      1.0  0.02492  0.10182  0.78201  1.0000
  C   C424      1.0  0.03299  0.11164  0.78648  1.0000
  H   H506      1.0  0.07209  0.09871  0.76560  1.0000
  H   H507      1.0  0.05789  0.08125  0.75798  1.0000
  H   H508      1.0  0.01175  0.10268  0.78666  1.0000
  H   H509      1.0  0.02607  0.11983  0.79466  1.0000
  C   C425      1.0  0.00868  0.21462  0.78072  1.0000
  C   C426      1.0  0.02457  0.21662  0.77971  1.0000
  C   C427      1.0  0.02765  0.23251  0.77632  1.0000
  C   C428      1.0  0.01470  0.24642  0.77471  1.0000
  C   C429      1.0  0.04931  0.00585  0.82097  1.0000
  H   H510      1.0  0.11918  0.98912  0.74833  1.0000
  H   H511      1.0  0.03454  0.20596  0.78148  1.0000
  H   H512      1.0  0.03996  0.23403  0.77553  1.0000
  S   S132      1.0  0.29041  0.30921  0.95438  1.0000
  H   H513      1.0  0.00246  0.20614  0.84430  1.0000
  H   H514      1.0  0.16218  0.98877  0.78051  1.0000
  H   H515      1.0  0.08989  0.99262  0.82267  1.0000
  H   H516      1.0  0.01475  0.21659  0.86057  1.0000
  C   C430      1.0  0.05505  0.15483  0.87565  1.0000
  C   C431      1.0  0.99884  0.24443  0.77552  1.0000
  C   C432      1.0  0.03146  0.28656  0.85201  1.0000
  C   C433      1.0  0.01878  0.27982  0.86349  1.0000
  N   N28       1.0  0.06666  0.24467  0.82561  1.0000
  H   H517      1.0  0.99791  0.17176  0.74292  1.0000
  H   H518      1.0  0.15460  0.25053  0.96462  1.0000
  C   C434      1.0  0.02870  0.29581  0.83653  1.0000
  H   H519      1.0  0.02063  0.27301  0.87559  1.0000
  C   C435      1.0  0.22690  0.27039  0.96265  1.0000
  H   H520      1.0  0.03849  0.30104  0.82758  1.0000
  C   C436      1.0  0.07068  0.18700  0.83634  1.0000
  C   C437      1.0  0.08562  0.18253  0.84162  1.0000
  C   C438      1.0  0.08659  0.18680  0.85584  1.0000
  C   C439      1.0  0.07281  0.19615  0.86466  1.0000
  C   C440      1.0  0.05773  0.20074  0.85946  1.0000
  C   C441      1.0  0.05667  0.19611  0.84530  1.0000
  H   H521      1.0  0.09656  0.17573  0.83465  1.0000
  H   H522      1.0  0.09822  0.18305  0.85986  1.0000
  H   H523      1.0  0.04693  0.20772  0.86639  1.0000
  H   H524      1.0  0.04517  0.19993  0.84107  1.0000
  N   N29       1.0  0.07665  0.30385  0.88043  1.0000
  C   C442      1.0  0.07839  0.00114  0.82055  1.0000
  C   C443      1.0  0.10367  0.29025  0.93937  1.0000
  C   C444      1.0  0.08696  0.29159  0.93922  1.0000
  C   C445      1.0  0.08226  0.28073  0.93249  1.0000
  C   C446      1.0  0.09420  0.26813  0.92595  1.0000
  C   C447      1.0  0.11093  0.26688  0.92598  1.0000
  C   C448      1.0  0.11565  0.27785  0.93256  1.0000
  H   H525      1.0  0.07754  0.30112  0.94440  1.0000
  H   H526      1.0  0.06934  0.28185  0.93276  1.0000
  H   H527      1.0  0.12031  0.25717  0.92106  1.0000
  H   H528      1.0  0.12855  0.27658  0.93248  1.0000
  C   C449      1.0  0.15310  0.99235  0.75856  1.0000
  H   H529      1.0  0.36429  0.28981  0.96846  1.0000
  C   C450      1.0  0.20806  0.28457  0.94452  1.0000
  N   N30       1.0  0.06342  0.04677  0.80289  1.0000
  C   C451      1.0  0.07330  0.04856  0.78576  1.0000
  C   C452      1.0  0.04657  0.05725  0.80247  1.0000
  C   C453      1.0  0.07095  0.05340  0.81266  1.0000
  C   C454      1.0  0.06339  0.02909  0.81008  1.0000
  C   C455      1.0  0.07822  0.01776  0.81327  1.0000
  C   C456      1.0  0.04897  0.02253  0.81378  1.0000
  H   H530      1.0  0.09763  0.29926  0.86037  1.0000
  C   C457      1.0  0.10255  0.23697  0.95861  1.0000
  H   H531      1.0  0.00783  0.14249  0.78071  1.0000
  H   H532      1.0  0.07386  0.06164  0.77992  1.0000
  H   H533      1.0  0.08628  0.04136  0.78507  1.0000
  H   H534      1.0  0.06790  0.04400  0.77793  1.0000
  H   H535      1.0  0.04077  0.05445  0.79371  1.0000
  H   H536      1.0  0.04684  0.07058  0.79822  1.0000
  H   H537      1.0  0.03824  0.05585  0.81491  1.0000
  H   H538      1.0  0.08433  0.04780  0.81188  1.0000
  H   H539      1.0  0.07015  0.06694  0.80817  1.0000
  H   H540      1.0  0.06458  0.05121  0.82591  1.0000
  H   H541      1.0  0.08989  0.02158  0.80987  1.0000
  H   H542      1.0  0.03731  0.02997  0.81104  1.0000
  H   H543      1.0  0.19769  0.28493  0.93941  1.0000
  C   C458      1.0  0.11947  0.23034  0.95705  1.0000
  H   H544      1.0  0.34127  0.27799  0.95378  1.0000
  C   C459      1.0  0.02912  0.16805  0.86757  1.0000
  H   H545      1.0  0.03531  0.26407  0.83105  1.0000
  H   H546      1.0  0.03654  0.13460  0.87831  1.0000
  H   H547      1.0  0.32649  0.29673  0.95044  1.0000
  H   H548      1.0  0.05363  0.25293  0.84810  1.0000
  H   H549      1.0  0.20734  0.26060  0.96026  1.0000
  C   C460      1.0  0.00373  0.22406  0.85626  1.0000
  C   C461      1.0  0.13638  0.01938  0.74987  1.0000
  C   C462      1.0  0.00057  0.29149  0.84414  1.0000
  H   H550      1.0  0.05896  0.14711  0.86621  1.0000
  C   C463      1.0  0.99696  0.23958  0.85999  1.0000
  C   C464      1.0  0.04094  0.12128  0.73660  1.0000
  H   H551      1.0  0.05977  0.16623  0.86945  1.0000
  S   S133      1.0  0.13575  0.31323  0.97475  1.0000
  H   H552      1.0  0.08427  0.23232  0.80726  1.0000
  C   C465      1.0  0.14370  0.00318  0.74711  1.0000
  C   C466      1.0  0.06394  0.99523  0.82453  1.0000
  H   H553      1.0  0.09537  0.23296  0.95242  1.0000
  C   C467      1.0  0.10432  0.99167  0.78143  1.0000
  H   H554      1.0  0.04774  0.13771  0.74650  1.0000
  Fe  Fe70      1.0  0.99578  0.28354  0.78285  1.0000
  H   H555      1.0  0.25169  0.30698  0.91903  1.0000
  C   C468      1.0  0.05142  0.24233  0.82244  1.0000
  H   H556      1.0  0.26077  0.30122  0.94554  1.0000
  H   H557      1.0  0.21063  0.30852  0.93088  1.0000
  H   H558      1.0  0.07800  0.30230  0.85549  1.0000
  H   H559      1.0  0.03396  0.16199  0.85682  1.0000
  C   C469      1.0  0.07765  0.28597  0.88713  1.0000
  Fe  Fe71      1.0  0.13297  0.30945  0.95064  1.0000
  S   S134      1.0  0.00444  0.19480  0.78583  1.0000
  H   H560      1.0  0.00276  0.00328  0.73540  1.0000
  C   C470      1.0  0.06977  0.26114  0.81633  1.0000
  C   C471      1.0  0.03731  0.13468  0.74415  1.0000
  C   C472      1.0  0.11088  0.30922  0.89759  1.0000
  H   H561      1.0  0.01107  0.30543  0.82064  1.0000
  H   H562      1.0  0.06210  0.21971  0.81270  1.0000
  H   H563      1.0  0.03161  0.18066  0.86352  1.0000
  C   C473      1.0  0.08169  0.23211  0.82069  1.0000
  H   H564      1.0  0.04030  0.16381  0.75035  1.0000
  C   C474      1.0  0.12156  0.24843  0.97374  1.0000
  C   C475      1.0  0.00364  0.15451  0.77255  1.0000
  H   H565      1.0  0.03826  0.00102  0.82353  1.0000
  H   H566      1.0  0.10938  0.29393  0.88268  1.0000
  H   H567      1.0  0.03679  0.21718  0.80760  1.0000
  H   H568      1.0  0.06272  0.23147  0.85087  1.0000
  C   C476      1.0  0.00862  0.18013  0.91551  1.0000
  C   C477      1.0  0.02178  0.25231  0.82227  1.0000
  C   C478      1.0  0.06454  0.24378  0.84344  1.0000
  N   N31       1.0  0.03677  0.15847  0.88172  1.0000
  C   C479      1.0  0.03064  0.16046  0.76145  1.0000
  H   H569      1.0  0.09781  0.26452  0.98180  1.0000
  H   H570      1.0  0.09291  0.23418  0.82325  1.0000
  C   C480      1.0  0.03115  0.16804  0.89487  1.0000
  C   C481      1.0  0.01431  0.17075  0.90337  1.0000
  C   C482      1.0  0.04176  0.17580  0.89889  1.0000
  H   H571      1.0  0.03598  0.13534  0.89919  1.0000
  C   C483      1.0  0.03583  0.18548  0.91078  1.0000
  C   C484      1.0  0.33862  0.29126  0.95420  1.0000
  H   H572      1.0  0.08042  0.21945  0.82771  1.0000
  H   H573      1.0  0.02691  0.17094  0.76783  1.0000
  N   N32       1.0  0.01630  0.15743  0.75707  1.0000
  H   H574      1.0  0.00207  0.11974  0.73610  1.0000
  C   C485      1.0  0.03661  0.22747  0.81265  1.0000
  H   H575      1.0  0.08189  0.25465  0.96838  1.0000
  H   H576      1.0  0.01475  0.19512  0.92833  1.0000
  H   H577      1.0  0.12530  0.22102  0.94975  1.0000
  C   C486      1.0  0.05881  0.31191  0.88180  1.0000
  C   C487      1.0  0.99593  0.22855  0.77817  1.0000
  H   H578      1.0  0.05468  0.17479  0.89292  1.0000
  H   H579      1.0  0.04411  0.19151  0.91342  1.0000
  H   H580      1.0  0.13182  0.27634  0.96231  1.0000
  C   C488      1.0  0.05119  0.22907  0.81573  1.0000
  H   H581      1.0  0.08173  0.26296  0.81746  1.0000
  N   N33       1.0  0.23608  0.31312  0.94163  1.0000
  C   C489      1.0  0.00812  0.13778  0.74536  1.0000
  C   C490      1.0  0.12892  0.23590  0.96449  1.0000
  H   H582      1.0  0.11603  0.99546  0.77778  1.0000
  H   H583      1.0  0.01543  0.16940  0.87067  1.0000
  H   H584      1.0  0.06008  0.27136  0.82096  1.0000
  H   H585      1.0  0.05274  0.30685  0.87491  1.0000
  Fe  Fe72      1.0  0.16197  0.29894  0.96857  1.0000
  C   C491      1.0  0.99653  0.21822  0.84681  1.0000
  H   H586      1.0  0.00530  0.16587  0.90056  1.0000
  H   H587      1.0  0.07004  0.26284  0.80298  1.0000
  H   H588      1.0  0.14197  0.23031  0.96263  1.0000
  C   C492      1.0  0.22901  0.29822  0.94629  1.0000
  H   H589      1.0  0.07549  0.24615  0.84626  1.0000
  H   H590      1.0  0.00612  0.18360  0.75167  1.0000
  H   H591      1.0  0.00276  0.24420  0.86702  1.0000
  H   H592      1.0  0.01042  0.26149  0.82456  1.0000
  C   C493      1.0  0.14789  0.01339  0.77414  1.0000
  C   C494      1.0  0.12883  0.27289  0.97602  1.0000
  C   C495      1.0  0.01326  0.29817  0.83254  1.0000
  C   C496      1.0  0.03617  0.25375  0.82585  1.0000
  H   H593      1.0  0.12384  0.30377  0.89762  1.0000
  H   H594      1.0  0.06154  0.14812  0.88590  1.0000
  C   C497      1.0  0.23462  0.28381  0.95781  1.0000
  S   S135      1.0  0.00715  0.24240  0.92585  1.0000
  C   C498      1.0  0.01189  0.12414  0.73814  1.0000
  C   C499      1.0  0.03160  0.14239  0.88772  1.0000
  C   C500      1.0  0.13853  0.02433  0.76318  1.0000
  C   C501      1.0  0.15513  0.99742  0.77184  1.0000
  C   C502      1.0  0.21561  0.29807  0.93968  1.0000
  C   C503      1.0  0.00345  0.28217  0.85951  1.0000
  C   C504      1.0  0.02661  0.98964  0.74011  1.0000
  C   C505      1.0  0.01932  0.18757  0.91914  1.0000
  S   S136      1.0  0.02609  0.00119  0.75448  1.0000
  H   H595      1.0  0.07192  0.28350  0.90054  1.0000
  H   H596      1.0  0.34839  0.29688  0.94475  1.0000
  S   S137      1.0  0.06331  0.05741  0.73818  1.0000
  C   C506      1.0  0.24213  0.31736  0.92348  1.0000
  C   C507      1.0  0.02069  0.14328  0.74891  1.0000
  H   H597      1.0  0.05183  0.30975  0.89485  1.0000
  H   H598      1.0  0.07115  0.28087  0.88077  1.0000
  C   C508      1.0  0.00939  0.17264  0.74594  1.0000
  H   H599      1.0  0.24644  0.30846  0.96304  1.0000
  C   C509      1.0  0.10244  0.30365  0.88913  1.0000
  C   C510      1.0  0.09497  0.24921  0.96763  1.0000
  C   C511      1.0  0.10426  0.25485  0.97514  1.0000
  C   C512      1.0  0.25018  0.31119  0.94937  1.0000
  H   H600      1.0  0.24465  0.28269  0.96364  1.0000
  H   H601      1.0  0.23096  0.25979  0.97192  1.0000
  H   H602      1.0  0.01096  0.23835  0.81245  1.0000
  C   C513      1.0  0.08531  0.31014  0.88936  1.0000
  H   H603      1.0  0.12860  0.02834  0.74215  1.0000
  H   H604      1.0  0.99657  0.20824  0.81796  1.0000
  S   S138      1.0  0.18515  0.31727  0.90885  1.0000
  H   H605      1.0  0.99574  0.18183  0.92197  1.0000
  N   N34       1.0  0.33798  0.29351  0.97088  1.0000
  H   H606      1.0  0.00135  0.23285  0.89768  1.0000
  H   H607      1.0  0.11593  0.27959  0.98010  1.0000
  C   C514      1.0  0.14924  0.24771  0.97811  1.0000
  C   C515      1.0  0.35379  0.28387  0.97571  1.0000
  N   N35       1.0  0.13112  0.25475  0.98174  1.0000
  H   H608      1.0  0.19508  0.30239  0.97886  1.0000
  S   S139      1.0  0.02863  0.04954  0.73493  1.0000
  H   H609      1.0  0.31218  0.29302  0.97887  1.0000
  H   H610      1.0  0.13688  0.27791  0.98073  1.0000
  Fe  Fe73      1.0  0.28054  0.30596  0.98169  1.0000
  C   C516      1.0  0.99455  0.22995  0.92410  1.0000
  H   H611      1.0  0.09407  0.99614  0.73514  1.0000
  H   H612      1.0  0.08478  0.31966  0.85724  1.0000
  C   C517      1.0  0.32418  0.28650  0.98246  1.0000
  N   N36       1.0  0.14110  0.99721  0.73362  1.0000
  H   H613      1.0  0.01848  0.17523  0.73410  1.0000
  H   H614      1.0  0.99525  0.14383  0.74837  1.0000
  C   C518      1.0  0.02826  0.11587  0.73383  1.0000
  C   C519      1.0  0.01257  0.99256  0.73360  1.0000
  H   H615      1.0  0.05364  0.11463  0.73346  1.0000
  C   C520      1.0  0.22337  0.34176  0.05790  1.0000
  H   H616      1.0  0.03980  0.58361  0.16193  1.0000
  C   C521      1.0  0.17157  0.47765  0.22315  1.0000
  H   H617      1.0  0.45484  0.35532  0.21749  1.0000
  H   H618      1.0  0.12233  0.49204  0.20322  1.0000
  C   C522      1.0  0.07152  0.46463  0.20457  1.0000
  Fe  Fe74      1.0  0.17482  0.40850  0.03182  1.0000
  S   S140      1.0  0.18016  0.38103  0.03578  1.0000
  S   S141      1.0  0.18733  0.42379  0.00855  1.0000
  Fe  Fe75      1.0  0.15032  0.40922  0.06452  1.0000
  S   S142      1.0  0.15280  0.38174  0.07075  1.0000
  S   S143      1.0  0.13341  0.42395  0.08326  1.0000
  Fe  Fe76      1.0  0.17981  0.38096  0.06184  1.0000
  S   S144      1.0  0.19736  0.36108  0.07519  1.0000
  Fe  Fe77      1.0  0.15281  0.38366  0.04419  1.0000
  S   S145      1.0  0.14161  0.36554  0.03826  1.0000
  S   S146      1.0  0.17764  0.40823  0.05712  1.0000
  S   S147      1.0  0.14715  0.41144  0.03874  1.0000
  H   H619      1.0  0.44714  0.34274  0.14542  1.0000
  H   H620      1.0  0.13726  0.33720  0.99791  1.0000
  S   S148      1.0  0.04481  0.53362  0.19014  1.0000
  H   H621      1.0  0.46166  0.32420  0.20314  1.0000
  H   H622      1.0  0.17969  0.38615  0.09246  1.0000
  H   H623      1.0  0.13852  0.48705  0.21465  1.0000
  C   C523      1.0  0.02991  0.59342  0.15785  1.0000
  H   H624      1.0  0.17834  0.33018  0.99977  1.0000
  S   S149      1.0  0.04818  0.56875  0.20976  1.0000
  Fe  Fe78      1.0  0.12793  0.47677  0.17177  1.0000
  S   S150      1.0  0.15483  0.46478  0.17017  1.0000
  S   S151      1.0  0.12104  0.50434  0.16748  1.0000
  Fe  Fe79      1.0  0.11764  0.44396  0.18136  1.0000
  S   S152      1.0  0.14364  0.42941  0.18054  1.0000
  S   S153      1.0  0.09585  0.43211  0.18850  1.0000
  Fe  Fe80      1.0  0.14595  0.44768  0.19380  1.0000
  S   S154      1.0  0.15386  0.44034  0.21832  1.0000
  Fe  Fe81      1.0  0.14946  0.44800  0.15705  1.0000
  S   S155      1.0  0.16553  0.44172  0.13301  1.0000
  S   S156      1.0  0.11938  0.46088  0.19613  1.0000
  S   S157      1.0  0.12316  0.46142  0.15709  1.0000
  H   H625      1.0  0.22060  0.33136  0.06769  1.0000
  H   H626      1.0  0.22771  0.42449  0.99462  1.0000
  H   H627      1.0  0.21879  0.34985  0.00294  1.0000
  H   H628      1.0  0.02518  0.63258  0.13465  1.0000
  S   S158      1.0  0.25163  0.34999  0.01168  1.0000
  H   H629      1.0  0.47576  0.33169  0.18503  1.0000
  H   H630      1.0  0.07071  0.47440  0.19316  1.0000
  H   H631      1.0  0.07266  0.49345  0.20931  1.0000
  H   H632      1.0  0.19243  0.33428  0.04578  1.0000
  C   C524      1.0  0.16191  0.36531  0.11482  1.0000
  Fe  Fe82      1.0  0.04346  0.54388  0.21188  1.0000
  H   H633      1.0  0.03184  0.56019  0.16154  1.0000
  H   H634      1.0  0.03914  0.45534  0.21988  1.0000
  H   H635      1.0  0.09971  0.44107  0.02257  1.0000
  C   C525      1.0  0.02194  0.62119  0.14233  1.0000
  H   H636      1.0  0.26527  0.40009  0.98902  1.0000
  C   C526      1.0  0.11275  0.40053  0.02141  1.0000
  C   C527      1.0  0.13187  0.43423  0.00328  1.0000
  N   N37       1.0  0.00925  0.57554  0.17246  1.0000
  C   C528      1.0  0.18773  0.33743  0.99486  1.0000
  H   H637      1.0  0.12411  0.40707  0.98534  1.0000
  H   H638      1.0  0.19349  0.36401  0.11136  1.0000
  S   S159      1.0  0.02111  0.54564  0.23267  1.0000
  H   H639      1.0  0.41758  0.34279  0.15679  1.0000
  C   C529      1.0  0.06586  0.52580  0.18275  1.0000
  C   C530      1.0  0.07763  0.53421  0.18283  1.0000
  C   C531      1.0  0.09452  0.52775  0.17759  1.0000
  C   C532      1.0  0.09976  0.51244  0.17310  1.0000
  C   C533      1.0  0.08803  0.50385  0.17322  1.0000
  C   C534      1.0  0.07103  0.51076  0.17764  1.0000
  H   H640      1.0  0.07372  0.54582  0.18678  1.0000
  H   H641      1.0  0.10357  0.53446  0.17743  1.0000
  H   H642      1.0  0.09205  0.49200  0.16975  1.0000
  H   H643      1.0  0.06191  0.50422  0.17766  1.0000
  C   C535      1.0  0.14215  0.42997  0.09655  1.0000
  C   C536      1.0  0.13258  0.43253  0.11202  1.0000
  C   C537      1.0  0.13957  0.43614  0.12331  1.0000
  C   C538      1.0  0.15615  0.43746  0.11911  1.0000
  C   C539      1.0  0.16554  0.43552  0.10340  1.0000
  C   C540      1.0  0.15856  0.43185  0.09215  1.0000
  H   H644      1.0  0.11984  0.43122  0.11551  1.0000
  H   H645      1.0  0.13218  0.43759  0.13537  1.0000
  H   H646      1.0  0.17832  0.43669  0.09996  1.0000
  H   H647      1.0  0.16597  0.43031  0.08014  1.0000
  C   C541      1.0  0.14418  0.36317  0.01790  1.0000
  C   C542      1.0  0.14880  0.37533  0.00417  1.0000
  H   H648      1.0  0.15248  0.44638  0.99325  1.0000
  C   C543      1.0  0.46975  0.33686  0.04823  1.0000
  C   C544      1.0  0.14060  0.34779  0.99956  1.0000
  C   C545      1.0  0.14029  0.34931  0.01550  1.0000
  H   H649      1.0  0.15186  0.38605  0.00585  1.0000
  C   C546      1.0  0.03860  0.49578  0.21709  1.0000
  H   H650      1.0  0.11133  0.52682  0.20697  1.0000
  C   C547      1.0  0.21448  0.35773  0.05919  1.0000
  C   C548      1.0  0.21792  0.37114  0.04650  1.0000
  C   C549      1.0  0.22988  0.36862  0.03230  1.0000
  C   C550      1.0  0.23829  0.35267  0.03056  1.0000
  C   C551      1.0  0.01458  0.57172  0.18831  1.0000
  H   H651      1.0  0.24625  0.40183  0.00432  1.0000
  H   H652      1.0  0.21111  0.38351  0.04750  1.0000
  H   H653      1.0  0.46413  0.34726  0.03972  1.0000
  H   H654      1.0  0.10242  0.39646  0.03135  1.0000
  N   N38       1.0  0.19836  0.32880  0.02155  1.0000
  H   H655      1.0  0.01462  0.65159  0.22510  1.0000
  H   H656      1.0  0.48233  0.35123  0.05560  1.0000
  C   C552      1.0  0.00354  0.64618  0.22787  1.0000
  H   H657      1.0  0.44035  0.34362  0.21820  1.0000
  H   H658      1.0  0.13666  0.33987  0.02605  1.0000
  C   C553      1.0  0.47992  0.33913  0.05721  1.0000
  H   H659      1.0  0.17969  0.48575  0.21558  1.0000
  C   C554      1.0  0.18231  0.40333  0.99172  1.0000
  C   C555      1.0  0.33450  0.33154  0.98709  1.0000
  C   C556      1.0  0.22842  0.39250  0.98902  1.0000
  N   N39       1.0  0.06303  0.47128  0.21955  1.0000
  C   C557      1.0  0.14862  0.37403  0.98828  1.0000
  C   C558      1.0  0.16205  0.38725  0.14530  1.0000
  C   C559      1.0  0.45141  0.34674  0.16745  1.0000
  C   C560      1.0  0.43984  0.32746  0.09029  1.0000
  H   H660      1.0  0.08524  0.47735  0.22111  1.0000
  C   C561      1.0  0.18529  0.37003  0.12154  1.0000
  H   H661      1.0  0.19178  0.37917  0.12252  1.0000
  H   H662      1.0  0.18458  0.36030  0.13307  1.0000
  H   H663      1.0  0.15046  0.37061  0.10987  1.0000
  H   H664      1.0  0.47241  0.36201  0.17333  1.0000
  H   H665      1.0  0.17473  0.38314  0.14670  1.0000
  C   C562      1.0  0.46426  0.36405  0.18533  1.0000
  C   C563      1.0  0.09550  0.41916  0.20812  1.0000
  H   H666      1.0  0.23016  0.37922  0.99521  1.0000
  C   C564      1.0  0.12833  0.49688  0.21029  1.0000
  H   H667      1.0  0.46442  0.34611  0.16200  1.0000
  H   H668      1.0  0.13539  0.39225  0.12032  1.0000
  H   H669      1.0  0.17608  0.39721  0.00347  1.0000
  C   C565      1.0  0.00554  0.61960  0.14643  1.0000
  H   H670      1.0  0.20174  0.34903  0.02971  1.0000
  H   H671      1.0  0.04559  0.50445  0.21710  1.0000
  C   C566      1.0  0.15694  0.38558  0.13155  1.0000
  C   C567      1.0  0.03411  0.60814  0.14806  1.0000
  N   N40       1.0  0.16857  0.37805  0.11805  1.0000
  C   C568      1.0  0.02221  0.50239  0.21543  1.0000
  C   C569      1.0  0.09452  0.42148  0.00574  1.0000
  C   C570      1.0  0.14002  0.39218  0.13083  1.0000
  H   H672      1.0  0.17369  0.32412  0.02758  1.0000
  H   H673      1.0  0.08307  0.41884  0.01484  1.0000
  C   C571      1.0  0.18862  0.41699  0.99068  1.0000
  H   H674      1.0  0.23228  0.37909  0.02257  1.0000
  C   C572      1.0  0.14436  0.36036  0.98594  1.0000
  H   H675      1.0  0.22074  0.39955  0.99854  1.0000
  C   C573      1.0  0.44635  0.35390  0.21043  1.0000
  C   C574      1.0  0.03484  0.46853  0.21868  1.0000
  H   H676      1.0  0.11248  0.42480  0.03487  1.0000
  H   H677      1.0  0.13446  0.50657  0.20133  1.0000
  C   C575      1.0  0.10462  0.51802  0.21670  1.0000
  C   C576      1.0  0.16816  0.46610  0.21638  1.0000
  C   C577      1.0  0.25369  0.39534  0.99430  1.0000
  H   H678      1.0  0.17086  0.35884  0.10533  1.0000
  H   H679      1.0  0.17377  0.46522  0.20370  1.0000
  C   C578      1.0  0.10991  0.40074  0.22908  1.0000
  C   C579      1.0  0.13419  0.40074  0.15673  1.0000
  C   C580      1.0  0.10292  0.42752  0.02741  1.0000
  C   C581      1.0  0.46780  0.33475  0.19677  1.0000
  C   C582      1.0  0.15774  0.45555  0.22612  1.0000
  H   H680      1.0  0.06635  0.48869  0.23157  1.0000
  C   C583      1.0  0.44165  0.34473  0.15784  1.0000
  C   C584      1.0  0.42493  0.34478  0.16424  1.0000
  C   C585      1.0  0.23527  0.33923  0.04350  1.0000
  N   N41       1.0  0.14713  0.49354  0.11349  1.0000
  C   C586      1.0  0.15290  0.48880  0.12919  1.0000
  C   C587      1.0  0.15976  0.48442  0.10163  1.0000
  C   C588      1.0  0.14646  0.51142  0.10669  1.0000
  C   C589      1.0  0.13043  0.49007  0.11668  1.0000
  C   C590      1.0  0.11681  0.49857  0.12700  1.0000
  C   C591      1.0  0.12720  0.47809  0.11009  1.0000
  C   C592      1.0  0.10096  0.49542  0.13035  1.0000
  C   C593      1.0  0.11131  0.47499  0.11360  1.0000
  C   C594      1.0  0.09823  0.48362  0.12369  1.0000
  H   H681      1.0  0.15319  0.47553  0.13480  1.0000
  H   H682      1.0  0.16562  0.49074  0.12739  1.0000
  H   H683      1.0  0.14474  0.49592  0.13846  1.0000
  H   H684      1.0  0.17211  0.48746  0.09930  1.0000
  H   H685      1.0  0.15618  0.48734  0.08951  1.0000
  H   H686      1.0  0.16173  0.47085  0.10650  1.0000
  H   H687      1.0  0.13886  0.51908  0.11572  1.0000
  H   H688      1.0  0.15900  0.51430  0.10330  1.0000
  H   H689      1.0  0.14110  0.51570  0.09546  1.0000
  H   H690      1.0  0.11836  0.50747  0.13290  1.0000
  H   H691      1.0  0.13677  0.47070  0.10243  1.0000
  H   H692      1.0  0.09083  0.50198  0.13840  1.0000
  H   H693      1.0  0.10921  0.46562  0.10862  1.0000
  H   H694      1.0  0.08599  0.48100  0.12654  1.0000
  H   H695      1.0  0.06616  0.45463  0.20363  1.0000
  H   H696      1.0  0.06886  0.42348  0.21481  1.0000
  C   C595      1.0  0.15077  0.39472  0.15766  1.0000
  H   H697      1.0  0.12375  0.39760  0.02700  1.0000
  H   H698      1.0  0.42116  0.35076  0.20230  1.0000
  C   C596      1.0  0.19304  0.34064  0.03259  1.0000
  H   H699      1.0  0.49183  0.47241  0.22877  1.0000
  H   H700      1.0  0.09172  0.43458  0.99903  1.0000
  H   H701      1.0  0.01520  0.54997  0.17077  1.0000
  Fe  Fe83      1.0  0.26215  0.32390  0.00900  1.0000
  H   H702      1.0  0.00811  0.63358  0.22513  1.0000
  H   H703      1.0  0.01373  0.61621  0.20230  1.0000
  H   H704      1.0  0.11601  0.40457  0.14245  1.0000
  C   C597      1.0  0.00212  0.61263  0.20413  1.0000
  C   C598      1.0  0.01329  0.59136  0.16228  1.0000
  H   H705      1.0  0.02822  0.56962  0.18659  1.0000
  H   H706      1.0  0.15496  0.39610  0.16791  1.0000
  C   C599      1.0  0.12883  0.39944  0.14336  1.0000
  H   H707      1.0  0.12202  0.41225  0.20516  1.0000
  H   H708      1.0  0.45537  0.37604  0.18275  1.0000
  H   H709      1.0  0.15886  0.39678  0.09866  1.0000
  H   H710      1.0  0.33586  0.33433  0.99814  1.0000
  H   H711      1.0  0.47255  0.36541  0.19262  1.0000
  C   C600      1.0  0.11027  0.41098  0.21333  1.0000
  H   H712      1.0  0.09638  0.51435  0.21100  1.0000
  H   H713      1.0  0.12554  0.40672  0.16624  1.0000
  C   C601      1.0  0.00117  0.60498  0.15630  1.0000
  C   C602      1.0  0.08032  0.41726  0.21879  1.0000
  H   H714      1.0  0.01733  0.51556  0.21420  1.0000
  H   H715      1.0  0.99611  0.62982  0.14195  1.0000
  C   C603      1.0  0.44464  0.34904  0.18385  1.0000
  C   C604      1.0  0.01815  0.56205  0.16360  1.0000
  C   C605      1.0  0.04546  0.47858  0.21875  1.0000
  H   H716      1.0  0.08483  0.45919  0.20449  1.0000
  H   H717      1.0  0.44680  0.33438  0.07955  1.0000
  H   H718      1.0  0.25733  0.38214  0.00035  1.0000
  C   C606      1.0  0.17067  0.39106  0.10288  1.0000
  C   C607      1.0  0.19880  0.33803  0.00426  1.0000
  C   C608      1.0  0.07215  0.48328  0.22045  1.0000
  H   H719      1.0  0.11570  0.39261  0.01230  1.0000
  C   C609      1.0  0.42745  0.34920  0.18998  1.0000
  H   H720      1.0  0.04687  0.60943  0.14484  1.0000
  H   H721      1.0  0.13239  0.51794  0.22542  1.0000
  H   H722      1.0  0.18050  0.34841  0.03151  1.0000
  H   H723      1.0  0.17534  0.40101  0.10493  1.0000
  C   C610      1.0  0.48677  0.32588  0.06848  1.0000
  N   N42       1.0  0.10862  0.41835  0.01385  1.0000
  C   C611      1.0  0.44408  0.32436  0.10568  1.0000
  H   H724      1.0  0.01108  0.56028  0.19664  1.0000
  H   H725      1.0  0.09169  0.42398  0.03628  1.0000
  C   C612      1.0  0.21026  0.34843  0.99645  1.0000
  H   H726      1.0  0.15906  0.35587  0.12626  1.0000
  H   H727      1.0  0.47629  0.33522  0.20430  1.0000
  H   H728      1.0  0.01494  0.56464  0.15134  1.0000
  C   C613      1.0  0.01213  0.49216  0.21548  1.0000
  H   H729      1.0  0.99937  0.49732  0.21442  1.0000
  H   H730      1.0  0.43676  0.36558  0.20925  1.0000
  N   N43       1.0  0.11609  0.50338  0.22414  1.0000
  H   H731      1.0  0.00343  0.64632  0.19661  1.0000
  C   C614      1.0  0.01842  0.47524  0.21716  1.0000
  S   S160      1.0  0.48328  0.32720  0.12838  1.0000
  H   H732      1.0  0.45428  0.32888  0.10668  1.0000
  N   N44       1.0  0.45544  0.35046  0.19399  1.0000
  H   H733      1.0  0.01051  0.46723  0.21748  1.0000
  S   S161      1.0  0.06126  0.53058  0.22827  1.0000
  H   H734      1.0  0.09699  0.41357  0.99672  1.0000
  Fe  Fe84      1.0  0.02709  0.56977  0.23180  1.0000
  H   H735      1.0  0.00892  0.58195  0.19494  1.0000
  H   H736      1.0  0.40480  0.34703  0.18516  1.0000
  C   C615      1.0  0.41782  0.34709  0.18024  1.0000
  C   C616      1.0  0.99724  0.60078  0.21807  1.0000
  C   C617      1.0  0.12955  0.41614  0.98725  1.0000
  H   H737      1.0  0.12268  0.46891  0.22738  1.0000
  H   H738      1.0  0.24186  0.32691  0.04238  1.0000
  H   H739      1.0  0.32583  0.32867  0.03014  1.0000
  H   H740      1.0  0.99567  0.62915  0.18201  1.0000
  C   C618      1.0  0.14573  0.43827  0.99141  1.0000
  H   H741      1.0  0.22417  0.32662  0.02148  1.0000
  S   S162      1.0  0.42228  0.32505  0.06907  1.0000
  C   C619      1.0  0.12325  0.42308  0.00149  1.0000
  H   H742      1.0  0.12841  0.43979  0.01388  1.0000
  S   S163      1.0  0.08956  0.55894  0.22623  1.0000
  Fe  Fe85      1.0  0.06391  0.55564  0.22835  1.0000
  H   H743      1.0  0.09679  0.52543  0.22579  1.0000
  C   C620      1.0  0.46636  0.32132  0.05049  1.0000
  C   C621      1.0  0.42668  0.32165  0.08875  1.0000
  H   H744      1.0  0.45801  0.32059  0.04346  1.0000
  S   S164      1.0  0.04326  0.55876  0.25029  1.0000
  H   H745      1.0  0.10208  0.62996  0.48222  1.0000
  H   H746      1.0  0.07873  0.32969  0.26839  1.0000
  H   H747      1.0  0.10101  0.33031  0.29980  1.0000
  H   H748      1.0  0.07878  0.36317  0.28643  1.0000
  S   S165      1.0  0.28135  0.63504  0.41321  1.0000
  H   H749      1.0  0.22276  0.52683  0.46886  1.0000
  H   H750      1.0  0.25322  0.60137  0.45004  1.0000
  S   S166      1.0  0.31756  0.63646  0.38681  1.0000
  H   H751      1.0  0.21314  0.63509  0.42971  1.0000
  C   C622      1.0  0.06437  0.45760  0.23425  1.0000
  S   S167      1.0  0.28244  0.63662  0.36627  1.0000
  Fe  Fe86      1.0  0.30813  0.63031  0.41407  1.0000
  S   S168      1.0  0.31941  0.60723  0.42972  1.0000
  C   C623      1.0  0.10317  0.46263  0.24723  1.0000
  H   H752      1.0  0.05980  0.35747  0.29849  1.0000
  Fe  Fe87      1.0  0.18647  0.58605  0.39739  1.0000
  S   S169      1.0  0.18312  0.56022  0.40769  1.0000
  S   S170      1.0  0.16717  0.60904  0.40046  1.0000
  Fe  Fe88      1.0  0.22161  0.57538  0.37997  1.0000
  S   S171      1.0  0.22114  0.54829  0.38829  1.0000
  S   S172      1.0  0.24377  0.58470  0.36309  1.0000
  Fe  Fe89      1.0  0.19569  0.55554  0.38220  1.0000
  S   S173      1.0  0.18065  0.54191  0.37395  1.0000
  Fe  Fe90      1.0  0.20854  0.55513  0.41278  1.0000
  S   S174      1.0  0.21348  0.53915  0.43726  1.0000
  S   S175      1.0  0.19744  0.58206  0.37171  1.0000
  S   S176      1.0  0.21068  0.58161  0.40473  1.0000
  C   C624      1.0  0.20088  0.63160  0.40021  1.0000
  C   C625      1.0  0.08911  0.46804  0.25864  1.0000
  S   S177      1.0  0.04023  0.51392  0.27162  1.0000
  Fe  Fe91      1.0  0.04204  0.42675  0.27839  1.0000
  S   S178      1.0  0.06875  0.42612  0.27675  1.0000
  S   S179      1.0  0.02687  0.44828  0.26379  1.0000
  Fe  Fe92      1.0  0.04211  0.39369  0.30255  1.0000
  S   S180      1.0  0.06865  0.39066  0.30366  1.0000
  S   S181      1.0  0.02780  0.37393  0.31743  1.0000
  Fe  Fe93      1.0  0.06257  0.41755  0.30420  1.0000
  S   S182      1.0  0.07087  0.42576  0.32287  1.0000
  Fe  Fe94      1.0  0.07242  0.39949  0.27629  1.0000
  S   S183      1.0  0.09428  0.38699  0.25982  1.0000
  S   S184      1.0  0.03539  0.41987  0.30600  1.0000
  S   S185      1.0  0.04638  0.40089  0.27502  1.0000
  Fe  Fe95      1.0  0.12974  0.51541  0.29569  1.0000
  S   S186      1.0  0.15550  0.51820  0.28299  1.0000
  S   S187      1.0  0.10786  0.53656  0.29631  1.0000
  Fe  Fe96      1.0  0.13976  0.47885  0.30739  1.0000
  S   S188      1.0  0.16675  0.47854  0.29618  1.0000
  S   S189      1.0  0.13131  0.45546  0.32179  1.0000
  Fe  Fe97      1.0  0.16270  0.50142  0.30617  1.0000
  S   S190      1.0  0.18231  0.50766  0.31580  1.0000
  Fe  Fe98      1.0  0.15719  0.49534  0.27426  1.0000
  S   S191      1.0  0.16857  0.49372  0.24763  1.0000
  S   S192      1.0  0.13651  0.50006  0.31939  1.0000
  S   S193      1.0  0.13054  0.49420  0.28495  1.0000
  H   H753      1.0  0.29914  0.58538  0.45145  1.0000
  C   C626      1.0  0.02036  0.33452  0.29496  1.0000
  C   C627      1.0  0.09473  0.39907  0.23983  1.0000
  H   H754      1.0  0.10346  0.34083  0.27871  1.0000
  H   H755      1.0  0.11649  0.51440  0.24365  1.0000
  C   C628      1.0  0.11191  0.47396  0.23585  1.0000
  H   H756      1.0  0.99832  0.64489  0.24135  1.0000
  H   H757      1.0  0.25115  0.62467  0.46808  1.0000
  H   H758      1.0  0.35450  0.62934  0.40376  1.0000
  H   H759      1.0  0.49286  0.49617  0.23872  1.0000
  N   N45       1.0  0.20195  0.63821  0.38226  1.0000
  C   C629      1.0  0.02469  0.35913  0.30842  1.0000
  C   C630      1.0  0.01759  0.34602  0.31864  1.0000
  H   H760      1.0  0.20697  0.57244  0.45278  1.0000
  C   C631      1.0  0.02704  0.34785  0.28468  1.0000
  C   C632      1.0  0.02920  0.36012  0.29137  1.0000
  H   H761      1.0  0.03072  0.34862  0.27151  1.0000
  H   H762      1.0  0.03439  0.37030  0.28333  1.0000
  H   H763      1.0  0.35952  0.64716  0.37592  1.0000
  H   H764      1.0  0.02113  0.50816  0.25144  1.0000
  H   H765      1.0  0.10754  0.41310  0.26249  1.0000
  H   H766      1.0  0.27899  0.58777  0.47747  1.0000
  H   H767      1.0  0.42453  0.63822  0.39656  1.0000
  C   C633      1.0  0.08782  0.43455  0.32099  1.0000
  C   C634      1.0  0.09448  0.44514  0.30664  1.0000
  C   C635      1.0  0.10748  0.45238  0.30663  1.0000
  C   C636      1.0  0.11385  0.44882  0.32094  1.0000
  C   C637      1.0  0.10712  0.43826  0.33506  1.0000
  C   C638      1.0  0.09411  0.43140  0.33515  1.0000
  H   H768      1.0  0.08951  0.44783  0.29571  1.0000
  H   H769      1.0  0.11274  0.46036  0.29555  1.0000
  H   H770      1.0  0.11199  0.43532  0.34610  1.0000
  H   H771      1.0  0.08894  0.42343  0.34633  1.0000
  C   C639      1.0  0.09481  0.55376  0.24561  1.0000
  C   C640      1.0  0.11108  0.54597  0.24708  1.0000
  C   C641      1.0  0.11507  0.54033  0.26269  1.0000
  C   C642      1.0  0.10302  0.54344  0.27675  1.0000
  C   C643      1.0  0.08696  0.55196  0.27521  1.0000
  C   C644      1.0  0.08281  0.55692  0.25969  1.0000
  C   C645      1.0  0.20669  0.62395  0.37410  1.0000
  H   H772      1.0  0.12757  0.53391  0.26377  1.0000
  H   H773      1.0  0.07765  0.55458  0.28602  1.0000
  H   H774      1.0  0.07044  0.56357  0.25858  1.0000
  C   C646      1.0  0.03560  0.49592  0.26990  1.0000
  C   C647      1.0  0.04168  0.48077  0.27968  1.0000
  C   C648      1.0  0.03848  0.46619  0.27827  1.0000
  C   C649      1.0  0.02907  0.46669  0.26714  1.0000
  C   C650      1.0  0.02256  0.48188  0.25771  1.0000
  C   C651      1.0  0.02603  0.49648  0.25889  1.0000
  H   H775      1.0  0.04918  0.48018  0.28813  1.0000
  H   H776      1.0  0.04336  0.45457  0.28578  1.0000
  C   C652      1.0  0.24024  0.60493  0.44936  1.0000
  C   C653      1.0  0.39373  0.64898  0.38834  1.0000
  C   C654      1.0  0.18131  0.53294  0.35730  1.0000
  C   C655      1.0  0.19529  0.53080  0.34455  1.0000
  C   C656      1.0  0.19538  0.52293  0.33210  1.0000
  C   C657      1.0  0.18148  0.51724  0.33206  1.0000
  C   C658      1.0  0.16745  0.51948  0.34476  1.0000
  C   C659      1.0  0.16741  0.52723  0.35728  1.0000
  H   H777      1.0  0.20612  0.53502  0.34438  1.0000
  H   H778      1.0  0.20633  0.52125  0.32238  1.0000
  H   H779      1.0  0.15674  0.51500  0.34509  1.0000
  H   H780      1.0  0.15659  0.52863  0.36716  1.0000
  C   C660      1.0  0.25033  0.55166  0.45953  1.0000
  C   C661      1.0  0.24104  0.53987  0.46869  1.0000
  C   C662      1.0  0.22980  0.53605  0.46176  1.0000
  C   C663      1.0  0.22779  0.54398  0.44566  1.0000
  C   C664      1.0  0.23687  0.55596  0.43665  1.0000
  C   C665      1.0  0.24798  0.55984  0.44361  1.0000
  C   C666      1.0  0.07994  0.40747  0.23474  1.0000
  H   H781      1.0  0.23548  0.56217  0.42426  1.0000
  H   H782      1.0  0.25478  0.56924  0.43658  1.0000
  H   H783      1.0  0.12050  0.54395  0.23617  1.0000
  H   H784      1.0  0.00332  0.40064  0.28657  1.0000
  H   H785      1.0  0.14299  0.64321  0.44114  1.0000
  H   H786      1.0  0.99792  0.39301  0.26313  1.0000
  H   H787      1.0  0.25262  0.64451  0.45456  1.0000
  C   C667      1.0  0.30733  0.60745  0.44957  1.0000
  C   C668      1.0  0.07260  0.32054  0.31918  1.0000
  C   C669      1.0  0.07350  0.35320  0.29589  1.0000
  H   H788      1.0  0.20901  0.64652  0.47983  1.0000
  H   H789      1.0  0.37385  0.62427  0.42210  1.0000
  C   C670      1.0  0.30570  0.62045  0.45714  1.0000
  H   H790      1.0  0.07756  0.35230  0.30735  1.0000
  H   H791      1.0  0.21847  0.61555  0.37675  1.0000
  H   H792      1.0  0.21762  0.56659  0.47797  1.0000
  H   H793      1.0  0.31282  0.62985  0.45115  1.0000
  C   C671      1.0  0.27158  0.62156  0.36716  1.0000
  C   C672      1.0  0.27329  0.61691  0.35237  1.0000
  C   C673      1.0  0.26469  0.60561  0.35163  1.0000
  C   C674      1.0  0.25390  0.59892  0.36559  1.0000
  C   C675      1.0  0.25199  0.60348  0.38061  1.0000
  C   C676      1.0  0.26091  0.61480  0.38142  1.0000
  H   H794      1.0  0.28139  0.62210  0.34130  1.0000
  H   H795      1.0  0.26632  0.60215  0.34002  1.0000
  H   H796      1.0  0.24383  0.59820  0.39154  1.0000
  H   H797      1.0  0.25932  0.61851  0.39286  1.0000
  C   C677      1.0  0.14920  0.61762  0.45292  1.0000
  C   C678      1.0  0.14823  0.63082  0.43935  1.0000
  C   C679      1.0  0.15356  0.62799  0.42331  1.0000
  C   C680      1.0  0.16024  0.61197  0.42074  1.0000
  C   C681      1.0  0.16132  0.59868  0.43428  1.0000
  C   C682      1.0  0.15550  0.60149  0.45040  1.0000
  C   C683      1.0  0.08392  0.48475  0.25890  1.0000
  H   H798      1.0  0.42194  0.63841  0.36791  1.0000
  H   H799      1.0  0.16636  0.58626  0.43233  1.0000
  H   H800      1.0  0.15616  0.59123  0.46089  1.0000
  H   H801      1.0  0.14829  0.46930  0.26193  1.0000
  Fe  Fe99      1.0  0.15118  0.64425  0.47266  1.0000
  H   H802      1.0  0.25221  0.65273  0.35164  1.0000
  C   C684      1.0  0.15402  0.46830  0.24932  1.0000
  C   C685      1.0  0.15063  0.45677  0.24257  1.0000
  N   N46       1.0  0.15381  0.41780  0.29186  1.0000
  C   C686      1.0  0.15577  0.43513  0.28665  1.0000
  C   C687      1.0  0.14953  0.41359  0.31019  1.0000
  C   C688      1.0  0.17000  0.40685  0.28656  1.0000
  C   C689      1.0  0.14109  0.41603  0.28413  1.0000
  C   C690      1.0  0.12503  0.41387  0.29324  1.0000
  C   C691      1.0  0.14430  0.41726  0.26683  1.0000
  C   C692      1.0  0.11314  0.41279  0.28546  1.0000
  C   C693      1.0  0.13232  0.41615  0.25918  1.0000
  C   C694      1.0  0.11679  0.41390  0.26848  1.0000
  H   H803      1.0  0.16444  0.43744  0.29292  1.0000
  H   H804      1.0  0.16069  0.43861  0.27315  1.0000
  H   H805      1.0  0.14370  0.44383  0.28965  1.0000
  H   H806      1.0  0.14734  0.40084  0.31489  1.0000
  H   H807      1.0  0.13836  0.42230  0.31522  1.0000
  H   H808      1.0  0.15949  0.41452  0.31570  1.0000
  H   H809      1.0  0.17548  0.41064  0.27323  1.0000
  H   H810      1.0  0.17943  0.40705  0.29316  1.0000
  H   H811      1.0  0.16869  0.39387  0.28893  1.0000
  H   H812      1.0  0.12119  0.41320  0.30637  1.0000
  H   H813      1.0  0.15594  0.41953  0.25889  1.0000
  H   H814      1.0  0.10095  0.41120  0.29267  1.0000
  C   C695      1.0  0.25077  0.63778  0.46770  1.0000
  C   C696      1.0  0.18519  0.59925  0.47740  1.0000
  C   C697      1.0  0.38220  0.65174  0.37825  1.0000
  N   N47       1.0  0.07862  0.33742  0.29027  1.0000
  C   C698      1.0  0.22130  0.64326  0.47167  1.0000
  H   H815      1.0  0.13507  0.41723  0.24591  1.0000
  C   C699      1.0  0.01540  0.33377  0.31195  1.0000
  H   H816      1.0  0.19236  0.62288  0.40530  1.0000
  H   H817      1.0  0.14213  0.44908  0.25001  1.0000
  C   C700      1.0  0.41970  0.65181  0.39381  1.0000
  H   H818      1.0  0.17632  0.63928  0.38295  1.0000
  H   H819      1.0  0.19608  0.64153  0.40737  1.0000
  N   N48       1.0  0.20044  0.58883  0.46941  1.0000
  H   H820      1.0  0.19424  0.61744  0.44598  1.0000
  C   C701      1.0  0.20691  0.61369  0.44753  1.0000
  H   H821      1.0  0.23480  0.58359  0.46685  1.0000
  C   C702      1.0  0.99546  0.39196  0.28881  1.0000
  C   C703      1.0  0.23441  0.61948  0.43879  1.0000
  C   C704      1.0  0.21228  0.59913  0.45893  1.0000
  C   C705      1.0  0.16460  0.47870  0.23967  1.0000
  H   H822      1.0  0.06128  0.34586  0.27420  1.0000
  N   N49       1.0  0.29633  0.58069  0.41080  1.0000
  C   C706      1.0  0.31031  0.57052  0.41861  1.0000
  C   C707      1.0  0.30277  0.59386  0.39742  1.0000
  C   C708      1.0  0.28342  0.58877  0.42319  1.0000
  C   C709      1.0  0.28911  0.57011  0.40498  1.0000
  C   C710      1.0  0.28370  0.55614  0.41603  1.0000
  C   C711      1.0  0.28651  0.57364  0.38864  1.0000
  C   C712      1.0  0.27602  0.54645  0.41112  1.0000
  C   C713      1.0  0.27891  0.56379  0.38384  1.0000
  C   C714      1.0  0.27355  0.55032  0.39508  1.0000
  H   H823      1.0  0.30622  0.56188  0.43029  1.0000
  H   H824      1.0  0.31966  0.56317  0.41012  1.0000
  H   H825      1.0  0.31677  0.57826  0.42208  1.0000
  H   H826      1.0  0.31230  0.58862  0.38747  1.0000
  H   H827      1.0  0.30873  0.60114  0.40208  1.0000
  H   H828      1.0  0.29269  0.60294  0.39189  1.0000
  H   H829      1.0  0.27941  0.57971  0.43459  1.0000
  H   H830      1.0  0.28801  0.59768  0.42712  1.0000
  H   H831      1.0  0.27226  0.59566  0.41811  1.0000
  H   H832      1.0  0.28481  0.55292  0.42880  1.0000
  H   H833      1.0  0.28990  0.58414  0.37938  1.0000
  H   H834      1.0  0.27156  0.53614  0.41997  1.0000
  H   H835      1.0  0.27677  0.56686  0.37141  1.0000
  H   H836      1.0  0.26726  0.54304  0.39138  1.0000
  C   C715      1.0  0.22922  0.64550  0.36495  1.0000
  H   H837      1.0  0.05842  0.46214  0.24579  1.0000
  H   H838      1.0  0.07302  0.48898  0.26779  1.0000
  C   C716      1.0  0.09272  0.49612  0.24779  1.0000
  N   N50       1.0  0.15050  0.55851  0.30569  1.0000
  C   C717      1.0  0.14072  0.57356  0.31180  1.0000
  C   C718      1.0  0.14304  0.54433  0.31558  1.0000
  C   C719      1.0  0.16743  0.55538  0.30874  1.0000
  C   C720      1.0  0.15027  0.56062  0.28809  1.0000
  C   C721      1.0  0.16493  0.55769  0.27575  1.0000
  C   C722      1.0  0.13497  0.56532  0.28292  1.0000
  C   C723      1.0  0.16417  0.55952  0.25931  1.0000
  C   C724      1.0  0.13439  0.56735  0.26642  1.0000
  C   C725      1.0  0.14894  0.56437  0.25465  1.0000
  H   H839      1.0  0.12728  0.57556  0.31223  1.0000
  H   H840      1.0  0.14171  0.57283  0.32462  1.0000
  H   H841      1.0  0.14510  0.58473  0.30381  1.0000
  H   H842      1.0  0.13028  0.54567  0.31397  1.0000
  H   H843      1.0  0.14232  0.54273  0.32899  1.0000
  H   H844      1.0  0.15057  0.53264  0.31197  1.0000
  H   H845      1.0  0.17378  0.56562  0.30166  1.0000
  H   H846      1.0  0.16723  0.55403  0.32204  1.0000
  H   H847      1.0  0.17526  0.54364  0.30544  1.0000
  H   H848      1.0  0.17713  0.55363  0.27849  1.0000
  H   H849      1.0  0.12327  0.56703  0.29165  1.0000
  H   H850      1.0  0.17546  0.55689  0.25016  1.0000
  H   H851      1.0  0.12252  0.57083  0.26284  1.0000
  H   H852      1.0  0.14838  0.56554  0.24196  1.0000
  H   H853      1.0  0.10740  0.44958  0.24717  1.0000
  S   S194      1.0  0.26577  0.55567  0.46702  1.0000
  H   H854      1.0  0.21326  0.62484  0.40279  1.0000
  H   H855      1.0  0.24276  0.62740  0.43125  1.0000
  C   C726      1.0  0.07475  0.34090  0.27371  1.0000
  H   H856      1.0  0.08299  0.64406  0.47862  1.0000
  H   H857      1.0  0.03135  0.46368  0.33226  1.0000
  C   C727      1.0  0.10681  0.49114  0.23565  1.0000
  C   C728      1.0  0.21777  0.62380  0.43787  1.0000
  N   N51       1.0  0.18785  0.50622  0.41456  1.0000
  C   C729      1.0  0.19066  0.49334  0.42951  1.0000
  C   C730      1.0  0.20211  0.51447  0.40889  1.0000
  C   C731      1.0  0.17277  0.51882  0.41915  1.0000
  C   C732      1.0  0.18561  0.49871  0.40196  1.0000
  C   C733      1.0  0.19618  0.49935  0.38601  1.0000
  C   C734      1.0  0.17237  0.49052  0.40544  1.0000
  C   C735      1.0  0.19345  0.49239  0.37434  1.0000
  C   C736      1.0  0.16973  0.48366  0.39364  1.0000
  C   C737      1.0  0.18022  0.48467  0.37809  1.0000
  H   H858      1.0  0.20157  0.48335  0.42641  1.0000
  H   H859      1.0  0.19306  0.49852  0.43897  1.0000
  H   H860      1.0  0.17983  0.48756  0.43555  1.0000
  H   H861      1.0  0.21404  0.50567  0.40574  1.0000
  H   H862      1.0  0.20341  0.52019  0.41851  1.0000
  H   H863      1.0  0.20049  0.52461  0.39792  1.0000
  H   H864      1.0  0.16168  0.51346  0.42516  1.0000
  H   H865      1.0  0.17435  0.52543  0.42791  1.0000
  H   H866      1.0  0.16981  0.52830  0.40805  1.0000
  H   H867      1.0  0.20631  0.50566  0.38197  1.0000
  H   H868      1.0  0.16380  0.48958  0.41726  1.0000
  H   H869      1.0  0.20134  0.49350  0.36207  1.0000
  H   H870      1.0  0.15937  0.47772  0.39647  1.0000
  H   H871      1.0  0.17797  0.47969  0.36880  1.0000
  N   N52       1.0  0.07557  0.50312  0.31112  1.0000
  C   C738      1.0  0.06775  0.51967  0.31493  1.0000
  C   C739      1.0  0.09059  0.49667  0.31830  1.0000
  C   C740      1.0  0.08099  0.50500  0.29298  1.0000
  C   C741      1.0  0.06348  0.49227  0.31743  1.0000
  C   C742      1.0  0.06705  0.47617  0.32740  1.0000
  C   C743      1.0  0.04770  0.49754  0.31320  1.0000
  C   C744      1.0  0.05543  0.46615  0.33280  1.0000
  C   C745      1.0  0.03618  0.48743  0.31872  1.0000
  C   C746      1.0  0.04009  0.47171  0.32840  1.0000
  H   H872      1.0  0.07687  0.52769  0.31158  1.0000
  H   H873      1.0  0.05796  0.52658  0.30789  1.0000
  H   H874      1.0  0.06212  0.51866  0.32831  1.0000
  H   H875      1.0  0.08733  0.49461  0.33200  1.0000
  H   H876      1.0  0.09910  0.50540  0.31387  1.0000
  H   H877      1.0  0.09802  0.48493  0.31471  1.0000
  H   H878      1.0  0.07045  0.51065  0.28661  1.0000
  H   H879      1.0  0.09013  0.51309  0.28771  1.0000
  H   H880      1.0  0.08692  0.49282  0.28963  1.0000
  H   H881      1.0  0.07880  0.47085  0.33101  1.0000
  H   H882      1.0  0.04428  0.50936  0.30519  1.0000
  H   H883      1.0  0.05848  0.45379  0.34015  1.0000
  H   H884      1.0  0.02439  0.49162  0.31493  1.0000
  H   H885      1.0  0.13382  0.49819  0.23929  1.0000
  C   C747      1.0  0.07030  0.32493  0.30270  1.0000
  C   C748      1.0  0.22941  0.59482  0.45921  1.0000
  H   H886      1.0  0.23314  0.63439  0.36015  1.0000
  S   S195      1.0  0.14326  0.62137  0.47298  1.0000
  H   H887      1.0  0.08225  0.45928  0.26737  1.0000
  H   H888      1.0  0.20797  0.62805  0.36050  1.0000
  C   C749      1.0  0.19589  0.58046  0.45892  1.0000
  Fe  Fe100     1.0  0.03954  0.53445  0.24906  1.0000
  C   C750      1.0  0.09685  0.33178  0.28825  1.0000
  H   H889      1.0  0.01405  0.34517  0.33184  1.0000
  H   H890      1.0  0.22263  0.63014  0.47136  1.0000
  H   H891      1.0  0.24280  0.53343  0.48096  1.0000
  C   C751      1.0  0.36543  0.63464  0.39946  1.0000
  H   H892      1.0  0.08843  0.50886  0.24891  1.0000
  H   H893      1.0  0.17780  0.60755  0.46847  1.0000
  C   C752      1.0  0.29801  0.59541  0.45722  1.0000
  H   H894      1.0  0.08112  0.35046  0.26474  1.0000
  H   H895      1.0  0.07751  0.45163  0.23480  1.0000
  Fe  Fe101     1.0  0.29050  0.64322  0.38606  1.0000
  H   H896      1.0  0.01501  0.48230  0.24937  1.0000
  H   H897      1.0  0.15257  0.63828  0.41288  1.0000
  H   H898      1.0  0.01042  0.32347  0.32004  1.0000
  C   C753      1.0  0.37634  0.63184  0.40978  1.0000
  C   C754      1.0  0.39030  0.63888  0.40440  1.0000
  C   C755      1.0  0.18527  0.64751  0.37952  1.0000
  H   H899      1.0  0.19018  0.58940  0.44896  1.0000
  H   H900      1.0  0.19724  0.61622  0.37855  1.0000
  H   H901      1.0  0.05844  0.44756  0.23449  1.0000
  C   C756      1.0  0.41816  0.65206  0.36641  1.0000
  S   S196      1.0  0.17811  0.64339  0.46923  1.0000
  C   C757      1.0  0.36834  0.64458  0.38373  1.0000
  H   H902      1.0  0.39809  0.63633  0.41313  1.0000
  C   C758      1.0  0.28683  0.59654  0.47223  1.0000
  S   S197      1.0  0.00859  0.59369  0.23366  1.0000
  C   C759      1.0  0.28571  0.60901  0.48024  1.0000
  C   C760      1.0  0.21382  0.64928  0.37609  1.0000
  H   H903      1.0  0.06818  0.40619  0.24296  1.0000
  H   H904      1.0  0.11751  0.65145  0.47375  1.0000
  N   N53       1.0  0.23503  0.64558  0.47766  1.0000
  H   H905      1.0  0.29425  0.63070  0.47883  1.0000
  H   H906      1.0  0.18695  0.57256  0.46621  1.0000
  H   H907      1.0  0.22085  0.65077  0.45903  1.0000
  C   C761      1.0  0.29514  0.62103  0.47267  1.0000
  H   H908      1.0  0.26160  0.63728  0.47263  1.0000
  H   H909      1.0  0.08037  0.32618  0.32293  1.0000
  C   C762      1.0  0.12507  0.50876  0.23348  1.0000
  H   H910      1.0  0.12137  0.39435  0.23301  1.0000
  H   H911      1.0  0.44012  0.34524  0.68210  1.0000
  H   H912      1.0  0.44641  0.33520  0.66508  1.0000
  C   C763      1.0  0.41743  0.54071  0.66020  1.0000
  H   H913      1.0  0.40504  0.49507  0.67140  1.0000
  H   H914      1.0  0.38761  0.50426  0.68553  1.0000
  H   H915      1.0  0.36179  0.51295  0.66734  1.0000
  H   H916      1.0  0.48155  0.61268  0.72987  1.0000
  C   C764      1.0  0.37959  0.49888  0.64038  1.0000
  Fe  Fe102     1.0  0.23344  0.57023  0.52122  1.0000
  S   S198      1.0  0.24854  0.54524  0.51798  1.0000
  S   S199      1.0  0.20580  0.57467  0.52864  1.0000
  Fe  Fe103     1.0  0.26321  0.58618  0.50807  1.0000
  S   S200      1.0  0.28063  0.56231  0.50408  1.0000
  C   C765      1.0  0.38747  0.48885  0.65336  1.0000
  Fe  Fe104     1.0  0.26084  0.55880  0.49344  1.0000
  H   H917      1.0  0.28773  0.47396  0.71819  1.0000
  Fe  Fe105     1.0  0.26651  0.55174  0.52894  1.0000
  S   S201      1.0  0.27898  0.53408  0.54901  1.0000
  H   H918      1.0  0.37923  0.50442  0.61457  1.0000
  S   S202      1.0  0.25032  0.57598  0.53368  1.0000
  H   H919      1.0  0.35028  0.53309  0.71683  1.0000
  H   H920      1.0  0.40262  0.53999  0.62774  1.0000
  S   S203      1.0  0.43168  0.52374  0.70138  1.0000
  S   S204      1.0  0.27210  0.60985  0.49940  1.0000
  S   S205      1.0  0.35690  0.57169  0.71032  1.0000
  S   S206      1.0  0.40463  0.56680  0.70870  1.0000
  Fe  Fe106     1.0  0.41220  0.40476  0.68687  1.0000
  S   S207      1.0  0.38833  0.40377  0.70545  1.0000
  S   S208      1.0  0.42523  0.38591  0.67091  1.0000
  Fe  Fe107     1.0  0.41406  0.43793  0.69314  1.0000
  S   S209      1.0  0.39026  0.43942  0.71203  1.0000
  S   S210      1.0  0.42990  0.45708  0.68403  1.0000
  C   C766      1.0  0.31616  0.53778  0.72115  1.0000
  H   H921      1.0  0.42010  0.32388  0.67554  1.0000
  Fe  Fe108     1.0  0.38113  0.43070  0.69448  1.0000
  S   S211      1.0  0.35516  0.44079  0.69068  1.0000
  S   S212      1.0  0.42451  0.41135  0.70347  1.0000
  S   S213      1.0  0.40420  0.43128  0.67470  1.0000
  Fe  Fe109     1.0  0.30507  0.52614  0.65660  1.0000
  S   S214      1.0  0.33218  0.51592  0.65405  1.0000
  S   S215      1.0  0.28825  0.51909  0.68137  1.0000
  Fe  Fe110     1.0  0.30973  0.54552  0.62118  1.0000
  S   S216      1.0  0.33746  0.53693  0.61627  1.0000
  S   S217      1.0  0.29743  0.56291  0.60090  1.0000
  Fe  Fe111     1.0  0.33168  0.51240  0.62955  1.0000
  S   S218      1.0  0.34744  0.48903  0.62251  1.0000
  Fe  Fe112     1.0  0.33568  0.54123  0.64136  1.0000
  S   S219      1.0  0.35734  0.54677  0.64770  1.0000
  S   S220      1.0  0.30409  0.52044  0.63298  1.0000
  S   S221      1.0  0.30829  0.55218  0.64532  1.0000
  C   C767      1.0  0.32425  0.48760  0.70355  1.0000
  C   C768      1.0  0.31449  0.49608  0.69195  1.0000
  C   C769      1.0  0.29934  0.50666  0.69648  1.0000
  C   C770      1.0  0.29339  0.50776  0.71308  1.0000
  H   H922      1.0  0.33605  0.47958  0.69981  1.0000
  H   H923      1.0  0.31855  0.49417  0.67953  1.0000
  H   H924      1.0  0.28156  0.51575  0.71674  1.0000
  C   C771      1.0  0.35301  0.45381  0.67152  1.0000
  C   C772      1.0  0.33739  0.46326  0.66938  1.0000
  C   C773      1.0  0.33555  0.47402  0.65423  1.0000
  C   C774      1.0  0.34927  0.47495  0.64110  1.0000
  C   C775      1.0  0.36476  0.46527  0.64316  1.0000
  C   C776      1.0  0.36668  0.45487  0.65837  1.0000
  H   H925      1.0  0.32674  0.46254  0.67951  1.0000
  H   H926      1.0  0.32352  0.48162  0.65269  1.0000
  H   H927      1.0  0.37539  0.46627  0.63315  1.0000
  H   H928      1.0  0.37878  0.44777  0.65976  1.0000
  C   C777      1.0  0.35603  0.56283  0.69448  1.0000
  C   C778      1.0  0.36974  0.55173  0.68786  1.0000
  C   C779      1.0  0.36957  0.54619  0.67404  1.0000
  C   C780      1.0  0.35562  0.55134  0.66693  1.0000
  C   C781      1.0  0.34154  0.56176  0.67411  1.0000
  C   C782      1.0  0.34178  0.56756  0.68782  1.0000
  H   H929      1.0  0.38080  0.54801  0.69286  1.0000
  H   H930      1.0  0.38061  0.53856  0.66837  1.0000
  H   H931      1.0  0.33078  0.56602  0.66860  1.0000
  H   H932      1.0  0.33107  0.57609  0.69296  1.0000
  C   C783      1.0  0.42964  0.50535  0.69734  1.0000
  C   C784      1.0  0.41596  0.49790  0.70475  1.0000
  C   C785      1.0  0.41576  0.48280  0.70123  1.0000
  C   C786      1.0  0.42905  0.47546  0.69000  1.0000
  C   C787      1.0  0.44232  0.48324  0.68245  1.0000
  C   C788      1.0  0.44267  0.49794  0.68615  1.0000
  H   H933      1.0  0.40582  0.50352  0.71343  1.0000
  H   H934      1.0  0.40544  0.47687  0.70716  1.0000
  H   H935      1.0  0.45259  0.47777  0.67373  1.0000
  H   H936      1.0  0.45325  0.50356  0.68032  1.0000
  C   C789      1.0  0.28513  0.54226  0.56269  1.0000
  C   C790      1.0  0.28284  0.55928  0.56107  1.0000
  C   C791      1.0  0.28688  0.56543  0.57271  1.0000
  C   C792      1.0  0.29338  0.55465  0.58600  1.0000
  C   C793      1.0  0.29589  0.53763  0.58748  1.0000
  C   C794      1.0  0.29176  0.53148  0.57589  1.0000
  H   H937      1.0  0.27798  0.56774  0.55086  1.0000
  H   H938      1.0  0.28496  0.57861  0.57141  1.0000
  H   H939      1.0  0.30091  0.52919  0.59762  1.0000
  H   H940      1.0  0.29366  0.51830  0.57722  1.0000
  N   N54       1.0  0.47466  0.64692  0.72884  1.0000
  C   C795      1.0  0.18824  0.63043  0.51682  1.0000
  C   C796      1.0  0.20109  0.62323  0.52530  1.0000
  C   C797      1.0  0.20645  0.60604  0.52907  1.0000
  C   C798      1.0  0.19824  0.59602  0.52532  1.0000
  C   C799      1.0  0.18456  0.60318  0.51799  1.0000
  C   C800      1.0  0.17981  0.62040  0.51335  1.0000
  S   S222      1.0  0.38818  0.53437  0.72949  1.0000
  H   H941      1.0  0.21687  0.60055  0.53497  1.0000
  H   H942      1.0  0.17804  0.59541  0.51535  1.0000
  H   H943      1.0  0.16964  0.62589  0.50709  1.0000
  H   H944      1.0  0.22218  0.64181  0.50303  1.0000
  C   C801      1.0  0.39995  0.35128  0.65896  1.0000
  C   C802      1.0  0.41577  0.35339  0.65018  1.0000
  C   C803      1.0  0.42327  0.36413  0.65395  1.0000
  C   C804      1.0  0.41519  0.37260  0.66671  1.0000
  C   C805      1.0  0.39949  0.37023  0.67572  1.0000
  C   C806      1.0  0.39181  0.35977  0.67170  1.0000
  H   H945      1.0  0.42216  0.34689  0.64034  1.0000
  H   H946      1.0  0.43543  0.36587  0.64693  1.0000
  H   H947      1.0  0.39327  0.37644  0.68578  1.0000
  H   H948      1.0  0.37963  0.35806  0.67864  1.0000
  C   C807      1.0  0.32241  0.53476  0.70494  1.0000
  C   C808      1.0  0.40031  0.48535  0.62015  1.0000
  Fe  Fe113     1.0  0.39983  0.41245  0.72114  1.0000
  C   C809      1.0  0.23394  0.63669  0.49507  1.0000
  H   H949      1.0  0.36848  0.50827  0.64244  1.0000
  H   H950      1.0  0.24423  0.63775  0.50003  1.0000
  C   C810      1.0  0.46248  0.61141  0.71941  1.0000
  H   H951      1.0  0.46635  0.59812  0.72088  1.0000
  C   C811      1.0  0.44235  0.46859  0.72889  1.0000
  S   S223      1.0  0.42062  0.32173  0.61505  1.0000
  C   C812      1.0  0.28942  0.55115  0.71329  1.0000
  C   C813      1.0  0.42169  0.32359  0.68801  1.0000
  H   H952      1.0  0.33927  0.44775  0.72218  1.0000
  C   C814      1.0  0.29079  0.46428  0.72864  1.0000
  H   H953      1.0  0.45996  0.33173  0.67912  1.0000
  H   H954      1.0  0.08386  0.63051  0.49841  1.0000
  C   C815      1.0  0.31241  0.54000  0.69332  1.0000
  S   S224      1.0  0.18361  0.65186  0.50953  1.0000
  C   C816      1.0  0.32821  0.42006  0.72484  1.0000
  S   S225      1.0  0.39014  0.33808  0.65431  1.0000
  H   H955      1.0  0.32775  0.42873  0.71272  1.0000
  H   H956      1.0  0.34442  0.51318  0.72413  1.0000
  H   H957      1.0  0.31798  0.41342  0.72775  1.0000
  Fe  Fe114     1.0  0.41338  0.53953  0.71818  1.0000
  H   H958      1.0  0.31428  0.45452  0.71490  1.0000
  H   H959      1.0  0.42110  0.52224  0.64633  1.0000
  H   H960      1.0  0.39628  0.46917  0.68295  1.0000
  H   H961      1.0  0.07254  0.64326  0.52169  1.0000
  H   H962      1.0  0.42549  0.53289  0.66833  1.0000
  C   C817      1.0  0.40957  0.55674  0.66224  1.0000
  H   H963      1.0  0.39701  0.32153  0.56006  1.0000
  H   H964      1.0  0.40973  0.47001  0.65771  1.0000
  H   H965      1.0  0.37227  0.58914  0.63884  1.0000
  C   C818      1.0  0.29933  0.54607  0.72499  1.0000
  C   C819      1.0  0.30304  0.49903  0.72484  1.0000
  H   H966      1.0  0.20726  0.63091  0.52855  1.0000
  H   H967      1.0  0.21135  0.58167  0.49080  1.0000
  H   H968      1.0  0.38928  0.56804  0.63043  1.0000
  C   C820      1.0  0.44689  0.33340  0.67826  1.0000
  H   H969      1.0  0.40500  0.48389  0.60752  1.0000
  H   H970      1.0  0.27655  0.55730  0.71651  1.0000
  H   H971      1.0  0.34022  0.41101  0.72288  1.0000
  N   N55       1.0  0.39114  0.58466  0.65308  1.0000
  N   N56       1.0  0.37630  0.41116  0.64515  1.0000
  C   C821      1.0  0.35861  0.41799  0.64431  1.0000
  C   C822      1.0  0.38122  0.39479  0.64071  1.0000
  C   C823      1.0  0.37740  0.40890  0.66256  1.0000
  C   C824      1.0  0.38759  0.42174  0.63401  1.0000
  C   C825      1.0  0.40474  0.41747  0.63420  1.0000
  C   C826      1.0  0.38220  0.43606  0.62229  1.0000
  C   C827      1.0  0.41567  0.42716  0.62373  1.0000
  C   C828      1.0  0.39327  0.44560  0.61176  1.0000
  C   C829      1.0  0.40995  0.44121  0.61253  1.0000
  H   H972      1.0  0.35042  0.41004  0.65324  1.0000
  H   H973      1.0  0.35421  0.43044  0.64740  1.0000
  H   H974      1.0  0.35647  0.41893  0.63188  1.0000
  H   H975      1.0  0.38076  0.39592  0.62766  1.0000
  H   H976      1.0  0.37301  0.38635  0.64866  1.0000
  H   H977      1.0  0.39404  0.38841  0.64211  1.0000
  H   H978      1.0  0.39013  0.40357  0.66463  1.0000
  H   H979      1.0  0.37333  0.42082  0.66655  1.0000
  H   H980      1.0  0.36946  0.40053  0.67117  1.0000
  H   H981      1.0  0.40992  0.40652  0.64242  1.0000
  H   H982      1.0  0.36942  0.44042  0.62118  1.0000
  H   H983      1.0  0.42866  0.42368  0.62432  1.0000
  H   H984      1.0  0.38875  0.45665  0.60316  1.0000
  H   H985      1.0  0.41844  0.44870  0.60442  1.0000
  C   C830      1.0  0.34392  0.52490  0.72758  1.0000
  H   H986      1.0  0.41208  0.56047  0.67214  1.0000
  H   H987      1.0  0.38512  0.57944  0.67968  1.0000
  H   H988      1.0  0.40381  0.58733  0.67052  1.0000
  C   C831      1.0  0.39694  0.56084  0.63908  1.0000
  H   H989      1.0  0.36724  0.60162  0.65352  1.0000
  H   H990      1.0  0.40026  0.59414  0.62729  1.0000
  C   C832      1.0  0.31866  0.48922  0.71997  1.0000
  H   H991      1.0  0.43176  0.64292  0.70732  1.0000
  H   H992      1.0  0.36643  0.58035  0.66034  1.0000
  H   H993      1.0  0.23460  0.62328  0.49660  1.0000
  C   C833      1.0  0.40861  0.47564  0.63247  1.0000
  H   H994      1.0  0.32946  0.55830  0.72739  1.0000
  H   H995      1.0  0.37713  0.46679  0.68011  1.0000
  C   C834      1.0  0.44295  0.63662  0.71186  1.0000
  N   N57       1.0  0.23751  0.53856  0.58846  1.0000
  C   C835      1.0  0.23739  0.55166  0.57316  1.0000
  C   C836      1.0  0.24688  0.52278  0.58354  1.0000
  C   C837      1.0  0.22012  0.53725  0.59613  1.0000
  C   C838      1.0  0.24497  0.54188  0.60053  1.0000
  C   C839      1.0  0.24926  0.55719  0.59868  1.0000
  C   C840      1.0  0.24796  0.52963  0.61484  1.0000
  C   C841      1.0  0.25649  0.55978  0.61022  1.0000
  C   C842      1.0  0.25545  0.53228  0.62616  1.0000
  C   C843      1.0  0.25981  0.54730  0.62377  1.0000
  H   H996      1.0  0.25013  0.55348  0.56705  1.0000
  H   H997      1.0  0.23251  0.54854  0.56390  1.0000
  H   H998      1.0  0.22943  0.56367  0.57560  1.0000
  H   H999      1.0  0.26043  0.52231  0.58020  1.0000
  H   H1000     1.0  0.24350  0.52110  0.57259  1.0000
  H   H1001     1.0  0.24482  0.51179  0.59347  1.0000
  H   H1002     1.0  0.21402  0.53490  0.58736  1.0000
  H   H1003     1.0  0.21925  0.52707  0.60725  1.0000
  H   H1004     1.0  0.21275  0.54887  0.60006  1.0000
  H   H1005     1.0  0.24770  0.56722  0.58817  1.0000
  H   H1006     1.0  0.24479  0.51779  0.61724  1.0000
  H   H1007     1.0  0.26031  0.57130  0.60823  1.0000
  H   H1008     1.0  0.25816  0.52259  0.63671  1.0000
  H   H1009     1.0  0.26609  0.54920  0.63225  1.0000
  Fe  Fe115     1.0  0.37953  0.56164  0.72148  1.0000
  C   C844      1.0  0.38587  0.49699  0.62410  1.0000
  H   H1010     1.0  0.11792  0.63550  0.50031  1.0000
  N   N58       1.0  0.38156  0.49131  0.67052  1.0000
  H   H1011     1.0  0.43516  0.32924  0.71022  1.0000
  C   C845      1.0  0.39111  0.58812  0.66909  1.0000
  C   C846      1.0  0.41501  0.53470  0.64778  1.0000
  S   S226      1.0  0.24440  0.58335  0.49621  1.0000
  H   H1012     1.0  0.35271  0.42952  0.73053  1.0000
  C   C847      1.0  0.37361  0.58907  0.65131  1.0000
  H   H1013     1.0  0.35919  0.50043  0.68740  1.0000
  C   C848      1.0  0.40051  0.59560  0.63967  1.0000
  C   C849      1.0  0.44836  0.61966  0.71320  1.0000
  H   H1014     1.0  0.44133  0.61278  0.70989  1.0000
  C   C850      1.0  0.36388  0.49987  0.67415  1.0000
  H   H1015     1.0  0.35595  0.49328  0.67111  1.0000
  H   H1016     1.0  0.38409  0.60078  0.67041  1.0000
  H   H1017     1.0  0.39108  0.51322  0.66374  1.0000
  C   C851      1.0  0.39173  0.50141  0.67302  1.0000
  H   H1018     1.0  0.45022  0.32918  0.56717  1.0000
  C   C852      1.0  0.38322  0.47537  0.68271  1.0000
  C   C853      1.0  0.40244  0.47745  0.64880  1.0000
  H   H1019     1.0  0.09986  0.63414  0.51610  1.0000
  C   C854      1.0  0.40472  0.54473  0.63728  1.0000
  C   C855      1.0  0.43419  0.45591  0.73144  1.0000
  C   C856      1.0  0.39889  0.56731  0.65180  1.0000
  C   C857      1.0  0.45161  0.64540  0.71678  1.0000
  H   H1020     1.0  0.41996  0.46672  0.62940  1.0000
  H   H1021     1.0  0.37743  0.47695  0.69556  1.0000
  H   H1022     1.0  0.41376  0.59271  0.64050  1.0000
  H   H1023     1.0  0.39531  0.60883  0.64014  1.0000
  C   C858      1.0  0.47116  0.62002  0.72452  1.0000
  C   C859      1.0  0.30598  0.45300  0.72688  1.0000
  H   H1024     1.0  0.28823  0.55184  0.68846  1.0000
  H   H1025     1.0  0.17660  0.59179  0.48644  1.0000
  H   H1026     1.0  0.31731  0.53743  0.68108  1.0000
  N   N59       1.0  0.09550  0.65118  0.49322  1.0000
  H   H1027     1.0  0.42005  0.32873  0.53696  1.0000
  C   C860      1.0  0.29598  0.54819  0.69746  1.0000
  H   H1028     1.0  0.41547  0.33595  0.69083  1.0000
  C   C861      1.0  0.10581  0.64291  0.50570  1.0000
  H   H1029     1.0  0.19774  0.56914  0.49115  1.0000
  C   C862      1.0  0.46598  0.63736  0.72333  1.0000
  C   C863      1.0  0.09088  0.63836  0.48791  1.0000
  H   H1030     1.0  0.45473  0.46796  0.72124  1.0000
  H   H1031     1.0  0.33497  0.52846  0.70083  1.0000
  H   H1032     1.0  0.44031  0.44537  0.72582  1.0000
  H   H1033     1.0  0.10839  0.65212  0.51102  1.0000
  H   H1034     1.0  0.18828  0.60702  0.48406  1.0000
  C   C864      1.0  0.20716  0.57606  0.48284  1.0000
  Fe  Fe116     1.0  0.14649  0.33505  0.95982  1.0000
  C   C865      1.0  0.46017  0.63712  0.85291  1.0000
  H   H1035     1.0  0.34017  0.44369  0.74335  1.0000
  H   H1036     1.0  0.16752  0.37995  0.94475  1.0000
  S   S227      1.0  0.46110  0.61186  0.77093  1.0000
  S   S228      1.0  0.46158  0.62555  0.81050  1.0000
  H   H1037     1.0  0.29375  0.54873  0.73708  1.0000
  H   H1038     1.0  0.40049  0.55465  0.77181  1.0000
  H   H1039     1.0  0.40683  0.56589  0.84164  1.0000
  H   H1040     1.0  0.36834  0.47187  0.75267  1.0000
  S   S229      1.0  0.38533  0.52443  0.77686  1.0000
  C   C866      1.0  0.31943  0.52180  0.74838  1.0000
  Fe  Fe117     1.0  0.31198  0.49345  0.78921  1.0000
  S   S230      1.0  0.29627  0.48885  0.77452  1.0000
  S   S231      1.0  0.31072  0.51886  0.79205  1.0000
  Fe  Fe118     1.0  0.33307  0.45891  0.79247  1.0000
  S   S232      1.0  0.31950  0.45156  0.77795  1.0000
  S   S233      1.0  0.35420  0.44034  0.80164  1.0000
  Fe  Fe119     1.0  0.32053  0.47619  0.76100  1.0000
  C   C867      1.0  0.43976  0.58654  0.75147  1.0000
  Fe  Fe120     1.0  0.29664  0.46463  0.79310  1.0000
  S   S234      1.0  0.27729  0.44910  0.80300  1.0000
  S   S235      1.0  0.33614  0.48236  0.77440  1.0000
  S   S236      1.0  0.31034  0.47041  0.80894  1.0000
  Fe  Fe121     1.0  0.23540  0.41898  0.89326  1.0000
  S   S237      1.0  0.25575  0.39667  0.89040  1.0000
  S   S238      1.0  0.23790  0.44408  0.87737  1.0000
  Fe  Fe122     1.0  0.21543  0.40057  0.92439  1.0000
  S   S239      1.0  0.23435  0.37685  0.92421  1.0000
  S   S240      1.0  0.19242  0.39892  0.94438  1.0000
  Fe  Fe123     1.0  0.25290  0.39271  0.91763  1.0000
  S   S241      1.0  0.27445  0.38624  0.92976  1.0000
  Fe  Fe124     1.0  0.23518  0.38301  0.89714  1.0000
  S   S242      1.0  0.23675  0.36354  0.88373  1.0000
  S   S243      1.0  0.23394  0.41596  0.92036  1.0000
  S   S244      1.0  0.21486  0.40573  0.89752  1.0000
  H   H1041     1.0  0.41642  0.58815  0.78137  1.0000
  C   C868      1.0  0.22218  0.35095  0.89147  1.0000
  C   C869      1.0  0.22242  0.33967  0.88239  1.0000
  S   S245      1.0  0.33170  0.47894  0.73387  1.0000
  C   C870      1.0  0.41800  0.45695  0.74080  1.0000
  C   C871      1.0  0.19919  0.34135  0.91207  1.0000
  C   C872      1.0  0.21061  0.35177  0.90640  1.0000
  H   H1042     1.0  0.23137  0.33895  0.87089  1.0000
  H   H1043     1.0  0.38837  0.54534  0.80699  1.0000
  H   H1044     1.0  0.41277  0.49463  0.74987  1.0000
  H   H1045     1.0  0.21049  0.36044  0.91345  1.0000
  C   C873      1.0  0.28041  0.36480  0.93542  1.0000
  C   C874      1.0  0.28677  0.35776  0.94965  1.0000
  C   C875      1.0  0.29001  0.34065  0.95528  1.0000
  H   H1046     1.0  0.25377  0.41164  0.94740  1.0000
  C   C876      1.0  0.28225  0.33747  0.93154  1.0000
  C   C877      1.0  0.27822  0.35469  0.92627  1.0000
  H   H1047     1.0  0.28869  0.36551  0.95664  1.0000
  H   H1048     1.0  0.48200  0.63185  0.88840  1.0000
  H   H1049     1.0  0.27344  0.36013  0.91515  1.0000
  C   C878      1.0  0.19167  0.40568  0.96208  1.0000
  H   H1050     1.0  0.21809  0.32427  0.96044  1.0000
  H   H1051     1.0  0.32847  0.32255  0.94771  1.0000
  C   C879      1.0  0.19809  0.41929  0.96098  1.0000
  H   H1052     1.0  0.46124  0.58214  0.76186  1.0000
  H   H1053     1.0  0.38442  0.49863  0.75199  1.0000
  H   H1054     1.0  0.20400  0.42564  0.94910  1.0000
  C   C880      1.0  0.26584  0.44820  0.82346  1.0000
  C   C881      1.0  0.26353  0.46092  0.83158  1.0000
  C   C882      1.0  0.25476  0.45961  0.84807  1.0000
  C   C883      1.0  0.24859  0.44543  0.85664  1.0000
  C   C884      1.0  0.25098  0.43268  0.84853  1.0000
  C   C885      1.0  0.25932  0.43421  0.83190  1.0000
  H   H1055     1.0  0.26838  0.47182  0.82514  1.0000
  H   H1056     1.0  0.25285  0.46955  0.85426  1.0000
  H   H1057     1.0  0.24611  0.42179  0.85499  1.0000
  H   H1058     1.0  0.26092  0.42440  0.82563  1.0000
  H   H1059     1.0  0.39202  0.55813  0.82560  1.0000
  H   H1060     1.0  0.45436  0.63848  0.84277  1.0000
  C   C886      1.0  0.42242  0.58729  0.80393  1.0000
  C   C887      1.0  0.38625  0.41181  0.76245  1.0000
  C   C888      1.0  0.38807  0.40642  0.77883  1.0000
  C   C889      1.0  0.37819  0.41524  0.79080  1.0000
  C   C890      1.0  0.36625  0.42935  0.78650  1.0000
  C   C891      1.0  0.36436  0.43478  0.77011  1.0000
  C   C892      1.0  0.37441  0.42604  0.75808  1.0000
  H   H1061     1.0  0.39722  0.39543  0.78225  1.0000
  H   H1062     1.0  0.37977  0.41106  0.80341  1.0000
  H   H1063     1.0  0.35536  0.44584  0.76664  1.0000
  C   C893      1.0  0.29890  0.43972  0.75570  1.0000
  C   C894      1.0  0.36431  0.52355  0.78216  1.0000
  C   C895      1.0  0.35247  0.53677  0.77588  1.0000
  C   C896      1.0  0.33577  0.53569  0.77985  1.0000
  C   C897      1.0  0.33104  0.52110  0.78938  1.0000
  C   C898      1.0  0.34288  0.50793  0.79571  1.0000
  C   C899      1.0  0.35942  0.50932  0.79243  1.0000
  C   C900      1.0  0.42567  0.59794  0.74724  1.0000
  C   C901      1.0  0.25431  0.38596  0.97038  1.0000
  H   H1064     1.0  0.33924  0.49670  0.80323  1.0000
  H   H1065     1.0  0.36849  0.49914  0.79749  1.0000
  C   C902      1.0  0.44680  0.60680  0.76237  1.0000
  H   H1066     1.0  0.31499  0.55330  0.74632  1.0000
  H   H1067     1.0  0.22796  0.33860  0.94379  1.0000
  C   C903      1.0  0.21078  0.35742  0.98022  1.0000
  C   C904      1.0  0.42215  0.61371  0.75081  1.0000
  C   C905      1.0  0.43255  0.61809  0.75841  1.0000
  C   C906      1.0  0.15129  0.43156  0.97741  1.0000
  H   H1068     1.0  0.43110  0.59535  0.79805  1.0000
  H   H1069     1.0  0.42968  0.63030  0.76091  1.0000
  H   H1070     1.0  0.41442  0.54804  0.78563  1.0000
  H   H1071     1.0  0.32657  0.54596  0.77517  1.0000
  C   C907      1.0  0.40877  0.57068  0.82841  1.0000
  S   S246      1.0  0.14148  0.33287  0.93621  1.0000
  Fe  Fe125     1.0  0.39184  0.54033  0.75180  1.0000
  H   H1072     1.0  0.37572  0.55464  0.79229  1.0000
  H   H1073     1.0  0.44073  0.49230  0.73350  1.0000
  H   H1074     1.0  0.29443  0.33537  0.96654  1.0000
  S   S247      1.0  0.48717  0.63959  0.77742  1.0000
  C   C908      1.0  0.43443  0.48229  0.73583  1.0000
  C   C909      1.0  0.40650  0.55907  0.77921  1.0000
  C   C910      1.0  0.27979  0.46349  0.74389  1.0000
  C   C911      1.0  0.45025  0.59099  0.75890  1.0000
  H   H1075     1.0  0.37131  0.48831  0.76923  1.0000
  C   C912      1.0  0.38478  0.58337  0.78187  1.0000
  C   C913      1.0  0.41396  0.58308  0.79444  1.0000
  Fe  Fe126     1.0  0.40677  0.57018  0.73319  1.0000
  H   H1076     1.0  0.47574  0.61354  0.84968  1.0000
  C   C914      1.0  0.22996  0.44420  0.97363  1.0000
  N   N60       1.0  0.30826  0.42034  0.84237  1.0000
  C   C915      1.0  0.29893  0.41281  0.83527  1.0000
  C   C916      1.0  0.29804  0.43648  0.84559  1.0000
  C   C917      1.0  0.32328  0.42357  0.82964  1.0000
  C   C918      1.0  0.31189  0.40938  0.85804  1.0000
  C   C919      1.0  0.29873  0.40522  0.87132  1.0000
  C   C920      1.0  0.32828  0.40265  0.86069  1.0000
  C   C921      1.0  0.30174  0.39488  0.88625  1.0000
  C   C922      1.0  0.33114  0.39233  0.87573  1.0000
  C   C923      1.0  0.31789  0.38845  0.88848  1.0000
  H   H1077     1.0  0.28666  0.41143  0.84335  1.0000
  H   H1078     1.0  0.29636  0.42053  0.82320  1.0000
  H   H1079     1.0  0.30594  0.40036  0.83325  1.0000
  H   H1080     1.0  0.28568  0.43548  0.85369  1.0000
  H   H1081     1.0  0.29558  0.44525  0.83399  1.0000
  H   H1082     1.0  0.30431  0.44226  0.85157  1.0000
  H   H1083     1.0  0.33147  0.41203  0.82621  1.0000
  H   H1084     1.0  0.32006  0.43174  0.81798  1.0000
  H   H1085     1.0  0.33057  0.42999  0.83377  1.0000
  H   H1086     1.0  0.28594  0.41001  0.87028  1.0000
  H   H1087     1.0  0.33908  0.40521  0.85137  1.0000
  H   H1088     1.0  0.29146  0.39189  0.89620  1.0000
  H   H1089     1.0  0.34371  0.38735  0.87754  1.0000
  H   H1090     1.0  0.32008  0.38049  0.90015  1.0000
  N   N61       1.0  0.16295  0.38716  0.92011  1.0000
  C   C924      1.0  0.14482  0.38826  0.92623  1.0000
  C   C925      1.0  0.17159  0.37570  0.93288  1.0000
  C   C926      1.0  0.16598  0.40384  0.91807  1.0000
  C   C927      1.0  0.16902  0.38081  0.90471  1.0000
  C   C928      1.0  0.16404  0.36692  0.90331  1.0000
  C   C929      1.0  0.18098  0.38727  0.89127  1.0000
  C   C930      1.0  0.17027  0.36025  0.88920  1.0000
  C   C931      1.0  0.18736  0.38031  0.87735  1.0000
  C   C932      1.0  0.18198  0.36687  0.87629  1.0000
  H   H1091     1.0  0.14156  0.37595  0.93083  1.0000
  H   H1092     1.0  0.41133  0.62267  0.74758  1.0000
  H   H1093     1.0  0.13792  0.39542  0.91641  1.0000
  H   H1094     1.0  0.16916  0.36311  0.93559  1.0000
  C   C933      1.0  0.47534  0.63359  0.87883  1.0000
  H   H1095     1.0  0.18522  0.37468  0.92893  1.0000
  C   C934      1.0  0.45577  0.64960  0.86179  1.0000
  S   S248      1.0  0.14290  0.35987  0.96601  1.0000
  H   H1096     1.0  0.22100  0.39452  0.97961  1.0000
  H   H1097     1.0  0.15583  0.36063  0.91333  1.0000
  H   H1098     1.0  0.18596  0.39745  0.89133  1.0000
  H   H1099     1.0  0.16666  0.34932  0.88866  1.0000
  H   H1100     1.0  0.19692  0.38507  0.86752  1.0000
  H   H1101     1.0  0.18732  0.36120  0.86570  1.0000
  H   H1102     1.0  0.27527  0.45075  0.76927  1.0000
  N   N62       1.0  0.32679  0.42863  0.73811  1.0000
  H   H1103     1.0  0.05705  0.32541  0.87655  1.0000
  H   H1104     1.0  0.48592  0.62708  0.74650  1.0000
  H   H1105     1.0  0.39101  0.48943  0.77130  1.0000
  H   H1106     1.0  0.44336  0.64797  0.90468  1.0000
  S   S249      1.0  0.39892  0.40043  0.74783  1.0000
  C   C935      1.0  0.24148  0.41501  0.97258  1.0000
  H   H1107     1.0  0.26819  0.47250  0.74531  1.0000
  S   S250      1.0  0.38061  0.56720  0.74511  1.0000
  C   C936      1.0  0.18370  0.39779  0.97745  1.0000
  Fe  Fe127     1.0  0.48491  0.63494  0.80475  1.0000
  C   C937      1.0  0.34031  0.43774  0.73335  1.0000
  H   H1108     1.0  0.37847  0.45926  0.77951  1.0000
  H   H1109     1.0  0.34183  0.40718  0.75093  1.0000
  S   S251      1.0  0.41808  0.54325  0.74130  1.0000
  H   H1110     1.0  0.32940  0.42128  0.76346  1.0000
  H   H1111     1.0  0.29845  0.50011  0.73756  1.0000
  H   H1112     1.0  0.39511  0.44607  0.76861  1.0000
  H   H1113     1.0  0.16215  0.43460  0.96835  1.0000
  C   C938      1.0  0.38444  0.48779  0.76253  1.0000
  C   C939      1.0  0.28383  0.45123  0.75736  1.0000
  C   C940      1.0  0.24405  0.43689  0.94749  1.0000
  H   H1114     1.0  0.17947  0.34623  0.97190  1.0000
  S   S252      1.0  0.17283  0.32092  0.95529  1.0000
  H   H1115     1.0  0.41480  0.56686  0.77025  1.0000
  H   H1116     1.0  0.19999  0.36379  0.95893  1.0000
  H   H1117     1.0  0.30121  0.43070  0.76672  1.0000
  H   H1118     1.0  0.44277  0.57440  0.74876  1.0000
  C   C941      1.0  0.40937  0.47095  0.74766  1.0000
  H   H1119     1.0  0.37616  0.59117  0.79037  1.0000
  H   H1120     1.0  0.37293  0.43023  0.74549  1.0000
  H   H1121     1.0  0.39309  0.59104  0.77271  1.0000
  Fe  Fe128     1.0  0.46265  0.63203  0.78314  1.0000
  H   H1122     1.0  0.37734  0.58054  0.77464  1.0000
  C   C942      1.0  0.14332  0.42041  0.97538  1.0000
  C   C943      1.0  0.38164  0.47047  0.74635  1.0000
  H   H1123     1.0  0.17941  0.40369  0.91561  1.0000
  H   H1124     1.0  0.45789  0.64546  0.75243  1.0000
  H   H1125     1.0  0.37218  0.56363  0.80969  1.0000
  S   S253      1.0  0.41224  0.59339  0.73722  1.0000
  C   C944      1.0  0.07716  0.32253  0.89866  1.0000
  H   H1126     1.0  0.31996  0.40813  0.75730  1.0000
  H   H1127     1.0  0.35612  0.54788  0.76810  1.0000
  H   H1128     1.0  0.42639  0.58445  0.82820  1.0000
  C   C945      1.0  0.33070  0.32437  0.95877  1.0000
  H   H1129     1.0  0.14816  0.41475  0.96476  1.0000
  C   C946      1.0  0.31055  0.44036  0.74036  1.0000
  H   H1130     1.0  0.38253  0.48001  0.73468  1.0000
  H   H1131     1.0  0.28056  0.32964  0.92448  1.0000
  C   C947      1.0  0.38207  0.55752  0.80056  1.0000
  H   H1132     1.0  0.41222  0.44676  0.74242  1.0000
  C   C948      1.0  0.41819  0.48354  0.74511  1.0000
  N   N63       1.0  0.39406  0.56813  0.79115  1.0000
  N   N64       1.0  0.39199  0.47203  0.75692  1.0000
  C   C949      1.0  0.23553  0.44886  0.95664  1.0000
  H   H1133     1.0  0.26671  0.38882  0.96434  1.0000
  H   H1134     1.0  0.23312  0.46176  0.95051  1.0000
  H   H1135     1.0  0.16060  0.40873  0.92954  1.0000
  H   H1136     1.0  0.38528  0.45821  0.74302  1.0000
  C   C950      1.0  0.40029  0.56634  0.81900  1.0000
  C   C951      1.0  0.39125  0.45844  0.77177  1.0000
  C   C952      1.0  0.19935  0.33024  0.90274  1.0000
  C   C953      1.0  0.41980  0.58112  0.82090  1.0000
  C   C954      1.0  0.40262  0.57250  0.80164  1.0000
  C   C955      1.0  0.28769  0.33048  0.94633  1.0000
  H   H1137     1.0  0.24826  0.44053  0.93423  1.0000
  H   H1138     1.0  0.39946  0.45874  0.77966  1.0000
  C   C956      1.0  0.24708  0.42021  0.95527  1.0000
  H   H1139     1.0  0.13990  0.39419  0.93707  1.0000
  C   C957      1.0  0.47957  0.62117  0.86992  1.0000
  C   C958      1.0  0.47207  0.62297  0.85691  1.0000
  H   H1140     1.0  0.19015  0.34201  0.92347  1.0000
  H   H1141     1.0  0.16062  0.41282  0.90788  1.0000
  C   C959      1.0  0.48941  0.63671  0.73540  1.0000
  C   C960      1.0  0.32951  0.41575  0.75315  1.0000
  H   H1142     1.0  0.48915  0.61033  0.87275  1.0000
  H   H1143     1.0  0.24786  0.38638  0.96062  1.0000
  H   H1144     1.0  0.30680  0.52737  0.75460  1.0000
  H   H1145     1.0  0.32711  0.51800  0.75785  1.0000
  H   H1146     1.0  0.07929  0.33715  0.91445  1.0000
  C   C961      1.0  0.21105  0.32940  0.88798  1.0000
  C   C962      1.0  0.19628  0.42510  0.97524  1.0000
  H   H1147     1.0  0.31863  0.51045  0.74516  1.0000
  C   C963      1.0  0.32828  0.34075  0.96000  1.0000
  H   H1148     1.0  0.33669  0.54615  0.74548  1.0000
  H   H1149     1.0  0.25505  0.32265  0.94587  1.0000
  H   H1150     1.0  0.24771  0.32845  0.91957  1.0000
  H   H1151     1.0  0.20072  0.43597  0.97428  1.0000
  H   H1152     1.0  0.17862  0.38735  0.97836  1.0000
  C   C964      1.0  0.08575  0.32798  0.90711  1.0000
  C   C965      1.0  0.46325  0.64819  0.87509  1.0000
  H   H1153     1.0  0.15172  0.38369  0.97775  1.0000
  H   H1154     1.0  0.06413  0.32804  0.89982  1.0000
  C   C966      1.0  0.19979  0.35651  0.97137  1.0000
  H   H1155     1.0  0.32454  0.35074  0.95006  1.0000
  H   H1156     1.0  0.21248  0.33017  0.94077  1.0000
  C   C967      1.0  0.33022  0.34432  0.97410  1.0000
  C   C968      1.0  0.22309  0.32715  0.94688  1.0000
  C   C969      1.0  0.32691  0.54834  0.73843  1.0000
  N   N65       1.0  0.32654  0.53322  0.73357  1.0000
  H   H1157     1.0  0.10904  0.32530  0.91350  1.0000
  H   H1158     1.0  0.22307  0.45348  0.98072  1.0000
  C   C970      1.0  0.10255  0.32137  0.90655  1.0000
  H   H1159     1.0  0.32821  0.35702  0.97505  1.0000
  H   H1160     1.0  0.46399  0.64497  0.90770  1.0000
  H   H1161     1.0  0.35133  0.52159  0.73725  1.0000
  H   H1162     1.0  0.21954  0.36537  0.97454  1.0000
  H   H1163     1.0  0.25655  0.37290  0.97734  1.0000
  Fe  Fe129     1.0  0.44889  0.65206  0.81000  1.0000
  H   H1164     1.0  0.21126  0.32083  0.88075  1.0000
  C   C971      1.0  0.18828  0.34659  0.97868  1.0000
  N   N66       1.0  0.24448  0.39748  0.98130  1.0000
  C   C972      1.0  0.23277  0.42753  0.98150  1.0000
  H   H1165     1.0  0.23209  0.32027  0.91662  1.0000
  Fe  Fe130     1.0  0.22099  0.92605  0.03481  1.0000
  S   S254      1.0  0.22674  0.89943  0.03381  1.0000
  S   S255      1.0  0.20388  0.94286  0.01842  1.0000
  Fe  Fe131     1.0  0.24369  0.92087  0.05955  1.0000
  S   S256      1.0  0.25074  0.89371  0.05959  1.0000
  S   S257      1.0  0.26023  0.92642  0.07380  1.0000
  Fe  Fe132     1.0  0.25267  0.90107  0.03235  1.0000
  S   S258      1.0  0.27363  0.89107  0.01333  1.0000
  Fe  Fe133     1.0  0.22392  0.89509  0.06111  1.0000
  S   S259      1.0  0.21199  0.87597  0.08060  1.0000
  S   S260      1.0  0.24734  0.92802  0.03171  1.0000
  S   S261      1.0  0.21637  0.92182  0.06264  1.0000
  H   H1166     1.0  0.18064  0.86351  0.99743  1.0000
  S   S262      1.0  0.27376  0.81669  0.01966  1.0000
  H   H1167     1.0  0.38978  0.95445  0.17428  1.0000
  Fe  Fe134     1.0  0.16230  0.82602  0.05097  1.0000
  S   S263      1.0  0.16680  0.80533  0.03787  1.0000
  S   S264      1.0  0.17771  0.82431  0.06916  1.0000
  Fe  Fe135     1.0  0.13519  0.84675  0.03329  1.0000
  S   S265      1.0  0.13746  0.82846  0.01827  1.0000
  S   S266      1.0  0.11636  0.87039  0.03026  1.0000
  Fe  Fe136     1.0  0.13896  0.80976  0.04193  1.0000
  S   S267      1.0  0.12515  0.78884  0.05087  1.0000
  Fe  Fe137     1.0  0.16476  0.82560  0.01545  1.0000
  C   C973      1.0  0.12143  0.73591  0.04077  1.0000
  S   S268      1.0  0.13467  0.82843  0.05737  1.0000
  S   S269      1.0  0.16234  0.84586  0.02822  1.0000
  H   H1168     1.0  0.30690  0.90076  0.22670  1.0000
  H   H1169     1.0  0.20317  0.91380  0.00727  1.0000
  C   C974      1.0  0.11831  0.76210  0.01366  1.0000
  Fe  Fe138     1.0  0.04521  0.77018  0.03924  1.0000
  S   S270      1.0  0.04757  0.75737  0.06499  1.0000
  S   S271      1.0  0.06544  0.78352  0.02315  1.0000
  Fe  Fe139     1.0  0.00996  0.76349  0.04516  1.0000
  S   S272      1.0  0.01025  0.75074  0.07154  1.0000
  C   C975      1.0  0.19996  0.81222  0.98797  1.0000
  Fe  Fe140     1.0  0.02160  0.77103  0.07211  1.0000
  Fe  Fe141     1.0  0.03618  0.73857  0.06127  1.0000
  S   S273      1.0  0.04856  0.71195  0.06797  1.0000
  S   S274      1.0  0.01950  0.78488  0.04656  1.0000
  S   S275      1.0  0.03561  0.75020  0.03466  1.0000
  Fe  Fe142     1.0  0.39193  0.91883  0.21239  1.0000
  S   S276      1.0  0.40898  0.92893  0.22089  1.0000
  S   S277      1.0  0.39845  0.91651  0.18590  1.0000
  H   H1170     1.0  0.10003  0.71848  0.06462  1.0000
  H   H1171     1.0  0.04120  0.83595  0.03029  1.0000
  H   H1172     1.0  0.28955  0.83999  0.99346  1.0000
  Fe  Fe143     1.0  0.28575  0.96234  0.14209  1.0000
  H   H1173     1.0  0.42536  0.98358  0.19550  1.0000
  S   S278      1.0  0.26558  0.96038  0.12984  1.0000
  Fe  Fe144     1.0  0.29386  0.96110  0.17559  1.0000
  H   H1174     1.0  0.12859  0.93202  0.99457  1.0000
  S   S279      1.0  0.29040  0.95489  0.20339  1.0000
  C   C976      1.0  0.01360  0.72715  0.12482  1.0000
  Fe  Fe145     1.0  0.32140  0.95401  0.14658  1.0000
  S   S280      1.0  0.34719  0.93958  0.13889  1.0000
  S   S281      1.0  0.29960  0.94241  0.15974  1.0000
  H   H1175     1.0  0.02536  0.74591  0.10603  1.0000
  C   C977      1.0  0.38335  0.92272  0.17377  1.0000
  C   C978      1.0  0.36653  0.92885  0.18000  1.0000
  C   C979      1.0  0.35514  0.93402  0.16949  1.0000
  C   C980      1.0  0.36062  0.93311  0.15279  1.0000
  C   C981      1.0  0.37737  0.92689  0.14676  1.0000
  C   C982      1.0  0.38865  0.92176  0.15716  1.0000
  H   H1176     1.0  0.36232  0.92962  0.19283  1.0000
  H   H1177     1.0  0.34216  0.93861  0.17429  1.0000
  H   H1178     1.0  0.38168  0.92610  0.13392  1.0000
  H   H1179     1.0  0.40159  0.91708  0.15223  1.0000
  H   H1180     1.0  0.28978  0.84222  0.06277  1.0000
  S   S282      1.0  0.31662  0.97112  0.16342  1.0000
  C   C983      1.0  0.42291  0.87305  0.20507  1.0000
  C   C984      1.0  0.06065  0.82744  0.05336  1.0000
  H   H1181     1.0  0.01914  0.82843  0.06434  1.0000
  H   H1182     1.0  0.03389  0.80096  0.06413  1.0000
  S   S283      1.0  0.30821  0.97277  0.12789  1.0000
  C   C985      1.0  0.01725  0.67561  0.10145  1.0000
  C   C986      1.0  0.10777  0.73876  0.03328  1.0000
  C   C987      1.0  0.04250  0.68142  0.08230  1.0000
  C   C988      1.0  0.03595  0.69835  0.08059  1.0000
  C   C989      1.0  0.01992  0.70395  0.08933  1.0000
  C   C990      1.0  0.01062  0.69257  0.09994  1.0000
  H   H1183     1.0  0.42731  0.90341  0.19986  1.0000
  H   H1184     1.0  0.05485  0.67701  0.07558  1.0000
  H   H1185     1.0  0.01484  0.71699  0.08824  1.0000
  H   H1186     1.0  0.12341  0.72580  0.05112  1.0000
  C   C991      1.0  0.10803  0.78847  0.04330  1.0000
  C   C992      1.0  0.09837  0.77682  0.05201  1.0000
  C   C993      1.0  0.08509  0.77556  0.04617  1.0000
  C   C994      1.0  0.08142  0.78572  0.03137  1.0000
  C   C995      1.0  0.09095  0.79754  0.02272  1.0000
  C   C996      1.0  0.10412  0.79902  0.02872  1.0000
  H   H1187     1.0  0.10132  0.76860  0.06327  1.0000
  H   H1188     1.0  0.07798  0.76644  0.05293  1.0000
  H   H1189     1.0  0.08824  0.80550  0.01126  1.0000
  H   H1190     1.0  0.11144  0.80808  0.02191  1.0000
  C   C997      1.0  0.19281  0.86637  0.99410  1.0000
  H   H1191     1.0  0.05298  0.85214  0.03883  1.0000
  H   H1192     1.0  0.07102  0.72694  0.03852  1.0000
  C   C998      1.0  0.04548  0.80467  0.06359  1.0000
  C   C999      1.0  0.20121  0.79615  0.99754  1.0000
  H   H1193     1.0  0.08560  0.73795  0.06167  1.0000
  H   H1194     1.0  0.43151  0.89228  0.21955  1.0000
  H   H1195     1.0  0.11691  0.77252  0.00337  1.0000
  C   C1000     1.0  0.21620  0.78444  0.99505  1.0000
  H   H1196     1.0  0.32749  0.96053  0.19558  1.0000
  C   C1001     1.0  0.13693  0.87880  0.00030  1.0000
  C   C1002     1.0  0.12132  0.88262  0.01056  1.0000
  C   C1003     1.0  0.10965  0.89650  0.00516  1.0000
  H   H1197     1.0  0.14597  0.86811  0.00436  1.0000
  H   H1198     1.0  0.09759  0.89949  0.01307  1.0000
  C   C1004     1.0  0.26138  0.93640  0.08915  1.0000
  C   C1005     1.0  0.27690  0.93461  0.09285  1.0000
  C   C1006     1.0  0.27850  0.94194  0.10505  1.0000
  C   C1007     1.0  0.26455  0.95121  0.11383  1.0000
  C   C1008     1.0  0.24906  0.95312  0.11003  1.0000
  C   C1009     1.0  0.24745  0.94577  0.09785  1.0000
  H   H1199     1.0  0.28782  0.92744  0.08628  1.0000
  H   H1200     1.0  0.29052  0.94028  0.10776  1.0000
  H   H1201     1.0  0.23814  0.96021  0.11670  1.0000
  H   H1202     1.0  0.23542  0.94736  0.09525  1.0000
  C   C1010     1.0  0.20225  0.86243  0.07622  1.0000
  C   C1011     1.0  0.19570  0.86589  0.06204  1.0000
  C   C1012     1.0  0.18746  0.85470  0.05979  1.0000
  C   C1013     1.0  0.18625  0.83987  0.07150  1.0000
  C   C1014     1.0  0.19298  0.83654  0.08543  1.0000
  C   C1015     1.0  0.20068  0.84779  0.08787  1.0000
  H   H1203     1.0  0.19674  0.87725  0.05301  1.0000
  H   H1204     1.0  0.18234  0.85737  0.04896  1.0000
  H   H1205     1.0  0.19215  0.82516  0.09450  1.0000
  H   H1206     1.0  0.20559  0.84500  0.09887  1.0000
  C   C1016     1.0  0.27399  0.87034  0.01521  1.0000
  C   C1017     1.0  0.26514  0.86168  0.02949  1.0000
  C   C1018     1.0  0.26545  0.84505  0.03094  1.0000
  C   C1019     1.0  0.27409  0.83726  0.01787  1.0000
  C   C1020     1.0  0.28277  0.84598  0.00352  1.0000
  C   C1021     1.0  0.28287  0.86249  0.00226  1.0000
  H   H1207     1.0  0.25830  0.86769  0.03955  1.0000
  H   H1208     1.0  0.25897  0.83825  0.04217  1.0000
  Fe  Fe146     1.0  0.28065  0.80936  0.99522  1.0000
  H   H1209     1.0  0.46674  0.82248  0.21273  1.0000
  C   C1022     1.0  0.20620  0.93892  0.99866  1.0000
  H   H1210     1.0  0.43665  0.89093  0.17638  1.0000
  C   C1023     1.0  0.29297  0.90737  0.03413  1.0000
  H   H1211     1.0  0.14131  0.90748  0.00694  1.0000
  S   S284      1.0  0.27790  0.97996  0.15959  1.0000
  N   N67       1.0  0.04543  0.82193  0.05436  1.0000
  N   N68       1.0  0.22785  0.89771  0.11501  1.0000
  C   C1024     1.0  0.21762  0.91074  0.10451  1.0000
  C   C1025     1.0  0.24101  0.88806  0.10399  1.0000
  C   C1026     1.0  0.21738  0.88633  0.12627  1.0000
  C   C1027     1.0  0.23436  0.90540  0.12467  1.0000
  C   C1028     1.0  0.22330  0.91464  0.13612  1.0000
  C   C1029     1.0  0.25158  0.90435  0.12282  1.0000
  C   C1030     1.0  0.22909  0.92241  0.14506  1.0000
  C   C1031     1.0  0.25722  0.91205  0.13194  1.0000
  C   C1032     1.0  0.24602  0.92113  0.14295  1.0000
  H   H1212     1.0  0.20681  0.91803  0.11181  1.0000
  H   H1213     1.0  0.22508  0.91957  0.09585  1.0000
  H   H1214     1.0  0.21251  0.90535  0.09706  1.0000
  H   H1215     1.0  0.24907  0.87782  0.11109  1.0000
  H   H1216     1.0  0.24882  0.89607  0.09455  1.0000
  H   H1217     1.0  0.23567  0.88234  0.09702  1.0000
  H   H1218     1.0  0.20607  0.89286  0.13374  1.0000
  H   H1219     1.0  0.21292  0.87982  0.11929  1.0000
  H   H1220     1.0  0.22440  0.87679  0.13494  1.0000
  H   H1221     1.0  0.21005  0.91620  0.13803  1.0000
  H   H1222     1.0  0.26096  0.89805  0.11410  1.0000
  H   H1223     1.0  0.22043  0.92970  0.15348  1.0000
  H   H1224     1.0  0.27036  0.91149  0.13006  1.0000
  H   H1225     1.0  0.25049  0.92757  0.14952  1.0000
  N   N69       1.0  0.30314  0.89460  0.04490  1.0000
  C   C1033     1.0  0.32025  0.89748  0.04017  1.0000
  H   H1226     1.0  0.05064  0.72694  0.09672  1.0000
  N   N70       1.0  0.37637  0.97971  0.17085  1.0000
  C   C1034     1.0  0.30330  0.87804  0.04280  1.0000
  C   C1035     1.0  0.29567  0.86632  0.05556  1.0000
  C   C1036     1.0  0.31093  0.87336  0.02746  1.0000
  C   C1037     1.0  0.29596  0.85086  0.05305  1.0000
  C   C1038     1.0  0.31127  0.85782  0.02515  1.0000
  H   H1227     1.0  0.10767  0.71272  0.02213  1.0000
  H   H1228     1.0  0.13952  0.76777  0.01791  1.0000
  H   H1229     1.0  0.32859  0.88745  0.04718  1.0000
  H   H1230     1.0  0.32568  0.89815  0.02681  1.0000
  C   C1039     1.0  0.22453  0.87432  0.98477  1.0000
  C   C1040     1.0  0.08814  0.82280  0.05940  1.0000
  H   H1231     1.0  0.00750  0.70466  0.14183  1.0000
  H   H1232     1.0  0.30325  0.88771  0.07090  1.0000
  H   H1233     1.0  0.29643  0.90941  0.06332  1.0000
  H   H1234     1.0  0.41324  0.88342  0.20026  1.0000
  H   H1235     1.0  0.28915  0.86887  0.06749  1.0000
  H   H1236     1.0  0.03210  0.83248  0.07537  1.0000
  H   H1237     1.0  0.03289  0.81781  0.03765  1.0000
  H   H1238     1.0  0.28970  0.86921  0.99120  1.0000
  S   S285      1.0  0.01519  0.78381  0.09313  1.0000
  C   C1041     1.0  0.02645  0.73306  0.11214  1.0000
  C   C1042     1.0  0.33718  0.96556  0.19707  1.0000
  C   C1043     1.0  0.04346  0.82305  0.03747  1.0000
  H   H1239     1.0  0.21727  0.77208  0.00258  1.0000
  H   H1240     1.0  0.44665  0.86966  0.17784  1.0000
  C   C1044     1.0  0.07396  0.81714  0.06065  1.0000
  C   C1045     1.0  0.43645  0.89355  0.20603  1.0000
  H   H1241     1.0  0.44827  0.84526  0.19828  1.0000
  C   C1046     1.0  0.19747  0.87403  0.00391  1.0000
  H   H1242     1.0  0.31679  0.85468  0.01320  1.0000
  C   C1047     1.0  0.40535  0.97631  0.21521  1.0000
  C   C1048     1.0  0.28564  0.97150  0.21342  1.0000
  C   C1049     1.0  0.30379  0.84660  0.03791  1.0000
  H   H1243     1.0  0.19064  0.79273  0.00676  1.0000
  C   C1050     1.0  0.47297  0.83755  0.22529  1.0000
  C   C1051     1.0  0.03137  0.69935  0.12642  1.0000
  C   C1052     1.0  0.99572  0.75528  0.12105  1.0000
  H   H1244     1.0  0.28011  0.90547  0.03718  1.0000
  H   H1245     1.0  0.41853  0.86941  0.21866  1.0000
  S   S286      1.0  0.28625  0.78272  0.99433  1.0000
  H   H1246     1.0  0.28292  0.89619  0.06610  1.0000
  H   H1247     1.0  0.15479  0.95724  0.00111  1.0000
  C   C1053     1.0  0.03311  0.67010  0.09251  1.0000
  H   H1248     1.0  0.18884  0.87712  0.01497  1.0000
  H   H1249     1.0  0.44801  0.89830  0.20265  1.0000
  H   H1250     1.0  0.30358  0.83479  0.03587  1.0000
  H   H1251     1.0  0.29215  0.92005  0.03553  1.0000
  C   C1054     1.0  0.10341  0.71164  0.03572  1.0000
  H   H1252     1.0  0.32721  0.96466  0.22298  1.0000
  H   H1253     1.0  0.42326  0.86263  0.19966  1.0000
  H   H1254     1.0  0.04635  0.80294  0.07664  1.0000
  H   H1255     1.0  0.31619  0.88188  0.01692  1.0000
  N   N71       1.0  0.15272  0.93607  0.99360  1.0000
  H   H1256     1.0  0.13165  0.95199  0.98407  1.0000
  C   C1055     1.0  0.09009  0.72584  0.05798  1.0000
  C   C1056     1.0  0.36286  0.97587  0.18522  1.0000
  H   H1257     1.0  0.21589  0.88396  0.00750  1.0000
  C   C1057     1.0  0.20770  0.95188  0.98487  1.0000
  C   C1058     1.0  0.13272  0.74628  0.03524  1.0000
  H   H1258     1.0  0.00056  0.73882  0.02471  1.0000
  H   H1259     1.0  0.23563  0.89876  0.99186  1.0000
  H   H1260     1.0  0.08317  0.73496  0.01929  1.0000
  H   H1261     1.0  0.39536  0.97690  0.18413  1.0000
  H   H1262     1.0  0.02884  0.84566  0.05593  1.0000
  S   S287      1.0  0.00598  0.66079  0.11379  1.0000
  H   H1263     1.0  0.39577  0.96676  0.15407  1.0000
  H   H1264     1.0  0.11440  0.70557  0.04131  1.0000
  C   C1059     1.0  0.13108  0.75942  0.02179  1.0000
  N   N72       1.0  0.22327  0.81786  0.03021  1.0000
  C   C1060     1.0  0.22789  0.82694  0.01293  1.0000
  C   C1061     1.0  0.20661  0.81449  0.03288  1.0000
  C   C1062     1.0  0.22217  0.82897  0.04113  1.0000
  C   C1063     1.0  0.23535  0.80202  0.03331  1.0000
  C   C1064     1.0  0.24375  0.79727  0.04657  1.0000
  C   C1065     1.0  0.23873  0.79059  0.02309  1.0000
  C   C1066     1.0  0.25517  0.78224  0.04897  1.0000
  C   C1067     1.0  0.25008  0.77557  0.02563  1.0000
  C   C1068     1.0  0.25839  0.77145  0.03847  1.0000
  H   H1265     1.0  0.21942  0.83921  0.01047  1.0000
  H   H1266     1.0  0.24073  0.82888  0.01025  1.0000
  H   H1267     1.0  0.22721  0.82036  0.00377  1.0000
  H   H1268     1.0  0.20600  0.80756  0.02398  1.0000
  H   H1269     1.0  0.19695  0.82608  0.03154  1.0000
  H   H1270     1.0  0.20296  0.80706  0.04553  1.0000
  H   H1271     1.0  0.23443  0.83172  0.03985  1.0000
  H   H1272     1.0  0.21355  0.84101  0.03805  1.0000
  H   H1273     1.0  0.21735  0.82357  0.05431  1.0000
  H   H1274     1.0  0.24202  0.80510  0.05504  1.0000
  H   H1275     1.0  0.23265  0.79326  0.01298  1.0000
  H   H1276     1.0  0.26177  0.77908  0.05886  1.0000
  H   H1277     1.0  0.25255  0.76722  0.01741  1.0000
  H   H1278     1.0  0.26741  0.75993  0.04024  1.0000
  C   C1069     1.0  0.34936  0.97424  0.21450  1.0000
  H   H1279     1.0  0.05482  0.69715  0.10915  1.0000
  S   S288      1.0  0.18165  0.82735  0.99048  1.0000
  C   C1070     1.0  0.38968  0.98165  0.22460  1.0000
  C   C1071     1.0  0.15608  0.92363  0.00867  1.0000
  C   C1072     1.0  0.14924  0.90936  0.01375  1.0000
  C   C1073     1.0  0.16622  0.92509  0.01859  1.0000
  C   C1074     1.0  0.15232  0.89730  0.02778  1.0000
  C   C1075     1.0  0.16939  0.91288  0.03252  1.0000
  C   C1076     1.0  0.16242  0.89905  0.03715  1.0000
  H   H1280     1.0  0.03822  0.65702  0.09355  1.0000
  H   H1281     1.0  0.14260  0.74439  0.04162  1.0000
  C   C1077     1.0  0.24458  0.88687  0.99060  1.0000
  H   H1282     1.0  0.09826  0.81468  0.06487  1.0000
  C   C1078     1.0  0.44533  0.88066  0.18284  1.0000
  C   C1079     1.0  0.10680  0.75196  0.01922  1.0000
  H   H1283     1.0  0.20864  0.96366  0.98629  1.0000
  H   H1284     1.0  0.12841  0.94650  0.00627  1.0000
  H   H1285     1.0  0.07389  0.80456  0.06721  1.0000
  H   H1286     1.0  0.37685  0.95993  0.15956  1.0000
  H   H1287     1.0  0.17195  0.93550  0.01586  1.0000
  H   H1288     1.0  0.14670  0.88663  0.03147  1.0000
  H   H1289     1.0  0.17727  0.91427  0.03980  1.0000
  H   H1290     1.0  0.16473  0.88973  0.04808  1.0000
  C   C1080     1.0  0.21313  0.87792  0.99943  1.0000
  H   H1291     1.0  0.09693  0.75516  0.01263  1.0000
  C   C1081     1.0  0.33694  0.96789  0.21250  1.0000
  C   C1082     1.0  0.38503  0.96459  0.16443  1.0000
  C   C1083     1.0  0.11348  0.90644  0.98945  1.0000
  H   H1292     1.0  0.29784  0.90707  0.02084  1.0000
  C   C1084     1.0  0.06252  0.84363  0.04476  1.0000
  H   H1293     1.0  0.45825  0.87837  0.22288  1.0000
  C   C1085     1.0  0.07681  0.84911  0.04352  1.0000
  C   C1086     1.0  0.08956  0.83871  0.05085  1.0000
  H   H1294     1.0  0.45765  0.88402  0.17926  1.0000
  H   H1295     1.0  0.09458  0.70318  0.04031  1.0000
  S   S289      1.0  0.36868  0.93359  0.22515  1.0000
  H   H1296     1.0  0.00510  0.76141  0.12217  1.0000
  C   C1087     1.0  0.29619  0.89694  0.06209  1.0000
  H   H1297     1.0  0.32064  0.90941  0.04260  1.0000
  C   C1088     1.0  0.46488  0.83486  0.21458  1.0000
  H   H1298     1.0  0.07982  0.71911  0.06295  1.0000
  C   C1089     1.0  0.45986  0.86656  0.21990  1.0000
  H   H1299     1.0  0.25707  0.88993  0.98616  1.0000
  H   H1300     1.0  0.05576  0.79580  0.05758  1.0000
  C   C1090     1.0  0.01662  0.71000  0.13198  1.0000
  H   H1301     1.0  0.07814  0.86146  0.03681  1.0000
  H   H1302     1.0  0.10062  0.84300  0.04982  1.0000
  H   H1303     1.0  0.25361  0.85444  0.98912  1.0000
  C   C1091     1.0  0.45114  0.86419  0.20912  1.0000
  H   H1304     1.0  0.03315  0.68622  0.13164  1.0000
  H   H1305     1.0  0.41158  0.96349  0.21775  1.0000
  C   C1092     1.0  0.45424  0.84797  0.20647  1.0000
  C   C1093     1.0  0.34986  0.96961  0.18357  1.0000
  N   N73       1.0  0.09557  0.72802  0.03975  1.0000
  C   C1094     1.0  0.03077  0.83263  0.06282  1.0000
  H   H1306     1.0  0.05479  0.81609  0.03036  1.0000
  H   H1307     1.0  0.99681  0.72624  0.15642  1.0000
  C   C1095     1.0  0.99951  0.65835  0.20038  1.0000
  H   H1308     1.0  0.34957  0.96757  0.17182  1.0000
  C   C1096     1.0  0.08046  0.73466  0.03273  1.0000
  H   H1309     1.0  0.07446  0.74735  0.03470  1.0000
  C   C1097     1.0  0.29174  0.96927  0.22757  1.0000
  C   C1098     1.0  0.04120  0.72230  0.10677  1.0000
  C   C1099     1.0  0.29721  0.91071  0.23181  1.0000
  C   C1100     1.0  0.20475  0.92377  0.99662  1.0000
  C   C1101     1.0  0.04362  0.70549  0.11381  1.0000
  N   N74       1.0  0.43921  0.87770  0.20098  1.0000
  H   H1310     1.0  0.24450  0.87868  0.00305  1.0000
  C   C1102     1.0  0.47065  0.85339  0.22774  1.0000
  H   H1311     1.0  0.37146  0.98275  0.20359  1.0000
  H   H1312     1.0  0.31534  0.93311  0.22499  1.0000
  C   C1103     1.0  0.13458  0.94188  0.99475  1.0000
  H   H1313     1.0  0.29500  0.92093  0.22098  1.0000
  H   H1314     1.0  0.10434  0.91707  0.98521  1.0000
  C   C1104     1.0  0.36217  0.97812  0.20113  1.0000
  C   C1105     1.0  0.14093  0.88907  0.98478  1.0000
  C   C1106     1.0  0.99658  0.73859  0.14805  1.0000
  C   C1107     1.0  0.38903  0.98610  0.17470  1.0000
  H   H1315     1.0  0.99665  0.67848  0.22074  1.0000
  H   H1316     1.0  0.17355  0.94746  0.98868  1.0000
  C   C1108     1.0  0.15980  0.95080  0.99064  1.0000
  H   H1317     1.0  0.00709  0.74317  0.14915  1.0000
  H   H1318     1.0  0.28347  0.98420  0.10621  1.0000
  H   H1319     1.0  0.00036  0.80622  0.06681  1.0000
  H   H1320     1.0  0.34929  0.97588  0.22658  1.0000
  H   H1321     1.0  0.99829  0.69690  0.10669  1.0000
  H   H1322     1.0  0.99671  0.75587  0.10776  1.0000
  C   C1109     1.0  0.23001  0.78900  0.98335  1.0000
  C   C1110     1.0  0.99580  0.79722  0.09314  1.0000
  C   C1111     1.0  0.27508  0.98647  0.20822  1.0000
  H   H1323     1.0  0.29926  0.73925  0.98529  1.0000
  H   H1324     1.0  0.01070  0.66359  0.19765  1.0000
  N   N75       1.0  0.99771  0.73806  0.13073  1.0000
  H   H1325     1.0  0.32796  0.91301  0.23063  1.0000
  H   H1326     1.0  0.29983  0.95783  0.23176  1.0000
  H   H1327     1.0  0.48090  0.82731  0.23188  1.0000
  C   C1112     1.0  0.47648  0.72128  0.35836  1.0000
  H   H1328     1.0  0.47391  0.74756  0.35182  1.0000
  Fe  Fe147     1.0  0.39682  0.70781  0.40433  1.0000
  S   S290      1.0  0.39864  0.72184  0.37812  1.0000
  S   S291      1.0  0.37617  0.69429  0.41809  1.0000
  Fe  Fe148     1.0  0.43022  0.71406  0.40597  1.0000
  S   S292      1.0  0.43424  0.72816  0.37986  1.0000
  S   S293      1.0  0.45019  0.70988  0.42020  1.0000
  Fe  Fe149     1.0  0.40734  0.74001  0.38631  1.0000
  S   S294      1.0  0.39719  0.76740  0.38147  1.0000
  Fe  Fe150     1.0  0.42525  0.70840  0.37474  1.0000
  S   S295      1.0  0.40364  0.72700  0.41294  1.0000
  Fe  Fe151     1.0  0.46494  0.80016  0.32403  1.0000
  S   S296      1.0  0.45174  0.79013  0.31122  1.0000
  S   S297      1.0  0.45037  0.81081  0.34592  1.0000
  H   H1329     1.0  0.39590  0.67885  0.39088  1.0000
  C   C1113     1.0  0.26623  0.95447  0.26593  1.0000
  Fe  Fe152     1.0  0.46618  0.80311  0.28793  1.0000
  S   S298      1.0  0.45108  0.81593  0.26848  1.0000
  Fe  Fe153     1.0  0.47381  0.76925  0.31043  1.0000
  S   S299      1.0  0.47790  0.81480  0.30087  1.0000
  C   C1114     1.0  0.30675  0.90147  0.25713  1.0000
  N   N76       1.0  0.30208  0.70572  0.42263  1.0000
  H   H1330     1.0  0.28773  0.72173  0.43907  1.0000
  S   S300      1.0  0.34862  0.90253  0.26304  1.0000
  Fe  Fe154     1.0  0.30040  0.98335  0.28946  1.0000
  C   C1115     1.0  0.34473  0.68259  0.38904  1.0000
  C   C1116     1.0  0.29930  0.69878  0.40987  1.0000
  S   S301      1.0  0.30508  0.95677  0.30277  1.0000
  C   C1117     1.0  0.33688  0.91768  0.27409  1.0000
  C   C1118     1.0  0.33666  0.93439  0.26704  1.0000
  C   C1119     1.0  0.32651  0.94652  0.27556  1.0000
  C   C1120     1.0  0.31715  0.94196  0.29141  1.0000
  C   C1121     1.0  0.31763  0.92524  0.29856  1.0000
  C   C1122     1.0  0.32728  0.91312  0.28981  1.0000
  H   H1331     1.0  0.34395  0.93802  0.25486  1.0000
  H   H1332     1.0  0.32600  0.95935  0.26988  1.0000
  H   H1333     1.0  0.31037  0.92168  0.31083  1.0000
  H   H1334     1.0  0.32741  0.90023  0.29530  1.0000
  C   C1123     1.0  0.44516  0.83760  0.26452  1.0000
  C   C1124     1.0  0.45367  0.84701  0.26877  1.0000
  C   C1125     1.0  0.44887  0.86430  0.26524  1.0000
  C   C1126     1.0  0.43545  0.87226  0.25761  1.0000
  C   C1127     1.0  0.42672  0.86285  0.25369  1.0000
  C   C1128     1.0  0.43169  0.84556  0.25697  1.0000
  H   H1335     1.0  0.46419  0.84101  0.27442  1.0000
  H   H1336     1.0  0.45569  0.87154  0.26827  1.0000
  C   C1129     1.0  0.22702  0.68282  0.43832  1.0000
  H   H1337     1.0  0.42505  0.83834  0.25367  1.0000
  C   C1130     1.0  0.41239  0.77908  0.37210  1.0000
  C   C1131     1.0  0.40944  0.79519  0.37438  1.0000
  C   C1132     1.0  0.42142  0.80474  0.36689  1.0000
  C   C1133     1.0  0.43620  0.79831  0.35679  1.0000
  C   C1134     1.0  0.43919  0.78218  0.35461  1.0000
  C   C1135     1.0  0.42731  0.77257  0.36226  1.0000
  H   H1338     1.0  0.39786  0.80027  0.38194  1.0000
  H   H1339     1.0  0.41904  0.81724  0.36853  1.0000
  H   H1340     1.0  0.45064  0.77707  0.34694  1.0000
  H   H1341     1.0  0.42952  0.76033  0.36010  1.0000
  C   C1136     1.0  0.46414  0.72336  0.41336  1.0000
  H   H1342     1.0  0.46698  0.72152  0.35213  1.0000
  H   H1343     1.0  0.28324  0.95128  0.28139  1.0000
  C   C1137     1.0  0.46053  0.73862  0.40266  1.0000
  Fe  Fe155     1.0  0.37054  0.91193  0.24640  1.0000
  H   H1344     1.0  0.26010  0.66381  0.46671  1.0000
  H   H1345     1.0  0.44953  0.74199  0.39772  1.0000
  C   C1138     1.0  0.36422  0.68991  0.40666  1.0000
  C   C1139     1.0  0.36326  0.69884  0.39064  1.0000
  C   C1140     1.0  0.35366  0.69510  0.38183  1.0000
  H   H1346     1.0  0.36974  0.70874  0.38507  1.0000
  H   H1347     1.0  0.35297  0.70207  0.36945  1.0000
  C   C1141     1.0  0.20991  0.67183  0.42760  1.0000
  C   C1142     1.0  0.29611  0.68137  0.44540  1.0000
  C   C1143     1.0  0.28973  0.92911  0.25162  1.0000
  H   H1348     1.0  0.48379  0.68992  0.40551  1.0000
  H   H1349     1.0  0.44277  0.73779  0.44594  1.0000
  S   S302      1.0  0.42299  0.69324  0.40051  1.0000
  C   C1144     1.0  0.23665  0.67038  0.36578  1.0000
  H   H1350     1.0  0.39103  0.77104  0.44232  1.0000
  N   N77       1.0  0.43041  0.73398  0.30958  1.0000
  C   C1145     1.0  0.41440  0.73464  0.30571  1.0000
  C   C1146     1.0  0.44033  0.71685  0.31010  1.0000
  C   C1147     1.0  0.42713  0.73726  0.32635  1.0000
  C   C1148     1.0  0.43866  0.74656  0.29721  1.0000
  H   H1351     1.0  0.41946  0.74971  0.32739  1.0000
  H   H1352     1.0  0.32671  0.70810  0.40903  1.0000
  C   C1149     1.0  0.23129  0.69667  0.47738  1.0000
  C   C1150     1.0  0.34563  0.67370  0.40509  1.0000
  Fe  Fe156     1.0  0.31427  0.66202  0.39058  1.0000
  H   H1353     1.0  0.41628  0.73289  0.29294  1.0000
  H   H1354     1.0  0.40816  0.72485  0.31433  1.0000
  H   H1355     1.0  0.40553  0.74658  0.30673  1.0000
  H   H1356     1.0  0.44298  0.71325  0.29804  1.0000
  H   H1357     1.0  0.43379  0.70768  0.31939  1.0000
  H   H1358     1.0  0.45225  0.71529  0.31375  1.0000
  C   C1151     1.0  0.37632  0.96516  0.28242  1.0000
  H   H1359     1.0  0.42053  0.72825  0.33584  1.0000
  H   H1360     1.0  0.43890  0.73619  0.33005  1.0000
  C   C1152     1.0  0.48057  0.66448  0.34347  1.0000
  N   N78       1.0  0.35813  0.96920  0.28880  1.0000
  C   C1153     1.0  0.40182  0.82919  0.32958  1.0000
  C   C1154     1.0  0.48001  0.81798  0.36828  1.0000
  H   H1361     1.0  0.48123  0.69523  0.36623  1.0000
  H   H1362     1.0  0.35659  0.94419  0.29025  1.0000
  H   H1363     1.0  0.24557  0.67820  0.36212  1.0000
  H   H1364     1.0  0.42742  0.84437  0.31875  1.0000
  C   C1155     1.0  0.46023  0.75265  0.44047  1.0000
  C   C1156     1.0  0.24127  0.67516  0.42843  1.0000
  H   H1365     1.0  0.40190  0.76256  0.41515  1.0000
  C   C1157     1.0  0.24793  0.67052  0.47145  1.0000
  C   C1158     1.0  0.28647  0.71691  0.42883  1.0000
  C   C1159     1.0  0.49254  0.73571  0.36622  1.0000
  C   C1160     1.0  0.41430  0.76405  0.41547  1.0000
  H   H1366     1.0  0.45932  0.78064  0.26433  1.0000
  H   H1367     1.0  0.48162  0.70731  0.42773  1.0000
  H   H1368     1.0  0.42983  0.78828  0.41857  1.0000
  H   H1369     1.0  0.29141  0.97934  0.24793  1.0000
  C   C1161     1.0  0.43799  0.77807  0.42481  1.0000
  C   C1162     1.0  0.45506  0.68181  0.35518  1.0000
  H   H1370     1.0  0.33887  0.96907  0.32115  1.0000
  H   H1371     1.0  0.41332  0.68111  0.37417  1.0000
  S   S303      1.0  0.48571  0.77803  0.32554  1.0000
  C   C1163     1.0  0.48040  0.73597  0.35817  1.0000
  Fe  Fe157     1.0  0.17300  0.66785  0.45202  1.0000
  C   C1164     1.0  0.45342  0.78047  0.42495  1.0000
  C   C1165     1.0  0.47876  0.71905  0.41936  1.0000
  C   C1166     1.0  0.40272  0.67486  0.37921  1.0000
  C   C1167     1.0  0.39838  0.87891  0.28869  1.0000
  C   C1168     1.0  0.37460  0.86658  0.29637  1.0000
  C   C1169     1.0  0.38187  0.88008  0.28875  1.0000
  H   H1372     1.0  0.40406  0.88939  0.28251  1.0000
  H   H1373     1.0  0.36177  0.86759  0.29617  1.0000
  H   H1374     1.0  0.37470  0.89144  0.28274  1.0000
  C   C1170     1.0  0.28078  0.94711  0.27164  1.0000
  H   H1375     1.0  0.41458  0.74080  0.45407  1.0000
  N   N79       1.0  0.30252  0.91623  0.24410  1.0000
  C   C1171     1.0  0.21135  0.68097  0.43809  1.0000
  H   H1376     1.0  0.25070  0.66043  0.40997  1.0000
  S   S304      1.0  0.48733  0.78108  0.28592  1.0000
  H   H1377     1.0  0.48929  0.66070  0.33282  1.0000
  H   H1378     1.0  0.31716  0.72189  0.42313  1.0000
  H   H1379     1.0  0.48302  0.67868  0.39121  1.0000
  C   C1172     1.0  0.27472  0.93688  0.24610  1.0000
  C   C1173     1.0  0.30053  0.66813  0.45806  1.0000
  C   C1174     1.0  0.41146  0.82149  0.30311  1.0000
  H   H1380     1.0  0.41765  0.82498  0.28990  1.0000
  H   H1381     1.0  0.47144  0.81425  0.38019  1.0000
  S   S305      1.0  0.33247  0.67861  0.37769  1.0000
  S   S306      1.0  0.37925  0.96761  0.23973  1.0000
  C   C1175     1.0  0.42737  0.83494  0.31216  1.0000
  H   H1382     1.0  0.32250  0.92712  0.24394  1.0000
  H   H1383     1.0  0.29656  0.70842  0.39882  1.0000
  H   H1384     1.0  0.31095  0.72571  0.40398  1.0000
  H   H1385     1.0  0.33833  0.67372  0.45737  1.0000
  C   C1176     1.0  0.32646  0.67594  0.45407  1.0000
  C   C1177     1.0  0.45817  0.67448  0.37094  1.0000
  H   H1386     1.0  0.35870  0.94796  0.30899  1.0000
  H   H1387     1.0  0.28285  0.72764  0.41892  1.0000
  H   H1388     1.0  0.25748  0.96443  0.27110  1.0000
  C   C1178     1.0  0.48965  0.72992  0.41471  1.0000
  H   H1389     1.0  0.31288  0.90398  0.26573  1.0000
  C   C1179     1.0  0.48395  0.72833  0.30940  1.0000
  N   N80       1.0  0.41661  0.76074  0.43261  1.0000
  C   C1180     1.0  0.40373  0.77261  0.44144  1.0000
  H   H1390     1.0  0.43407  0.82297  0.31851  1.0000
  C   C1181     1.0  0.26321  0.94936  0.25321  1.0000
  H   H1391     1.0  0.37766  0.84167  0.30959  1.0000
  H   H1392     1.0  0.31571  0.89122  0.25183  1.0000
  C   C1182     1.0  0.46614  0.67656  0.34145  1.0000
  C   C1183     1.0  0.45430  0.74247  0.28652  1.0000
  H   H1393     1.0  0.42054  0.86415  0.29540  1.0000
  H   H1394     1.0  0.43207  0.78855  0.28223  1.0000
  H   H1395     1.0  0.44990  0.67844  0.38158  1.0000
  H   H1396     1.0  0.38094  0.97565  0.27326  1.0000
  C   C1184     1.0  0.43078  0.76355  0.29524  1.0000
  H   H1397     1.0  0.48368  0.82929  0.36860  1.0000
  C   C1185     1.0  0.40067  0.85021  0.30427  1.0000
  C   C1186     1.0  0.44492  0.75005  0.44027  1.0000
  H   H1398     1.0  0.21885  0.68557  0.38142  1.0000
  H   H1399     1.0  0.40540  0.77094  0.45421  1.0000
  H   H1400     1.0  0.29548  0.89690  0.26458  1.0000
  C   C1187     1.0  0.29237  0.93467  0.26460  1.0000
  H   H1401     1.0  0.41890  0.76761  0.30290  1.0000
  H   H1402     1.0  0.35225  0.96633  0.26710  1.0000
  H   H1403     1.0  0.41623  0.86886  0.24804  1.0000
  H   H1404     1.0  0.28571  0.90588  0.23736  1.0000
  C   C1188     1.0  0.48460  0.70628  0.36664  1.0000
  C   C1189     1.0  0.24658  0.68700  0.47163  1.0000
  S   S307      1.0  0.43029  0.89397  0.25279  1.0000
  H   H1405     1.0  0.40001  0.83890  0.33658  1.0000
  C   C1190     1.0  0.46448  0.76780  0.43283  1.0000
  H   H1406     1.0  0.47683  0.70836  0.32909  1.0000
  H   H1407     1.0  0.42369  0.75544  0.40833  1.0000
  C   C1191     1.0  0.35297  0.95353  0.29807  1.0000
  C   C1192     1.0  0.47099  0.74979  0.39861  1.0000
  H   H1408     1.0  0.28873  0.69245  0.41444  1.0000
  H   H1409     1.0  0.47661  0.76951  0.43257  1.0000
  C   C1193     1.0  0.46156  0.75468  0.27479  1.0000
  H   H1410     1.0  0.33925  0.95544  0.30224  1.0000
  Fe  Fe158     1.0  0.40753  0.90737  0.24243  1.0000
  H   H1411     1.0  0.39439  0.67974  0.37032  1.0000
  H   H1412     1.0  0.42285  0.73439  0.43458  1.0000
  H   H1413     1.0  0.43494  0.83749  0.29944  1.0000
  H   H1414     1.0  0.31044  0.68962  0.40556  1.0000
  S   S308      1.0  0.11892  0.70131  0.47867  1.0000
  H   H1415     1.0  0.46382  0.68211  0.32921  1.0000
  S   S309      1.0  0.43742  0.69744  0.35245  1.0000
  H   H1416     1.0  0.40402  0.78562  0.43508  1.0000
  H   H1417     1.0  0.38952  0.82660  0.33080  1.0000
  C   C1194     1.0  0.40774  0.86422  0.29626  1.0000
  S   S310      1.0  0.26088  0.67644  0.42971  1.0000
  H   H1418     1.0  0.22809  0.69012  0.44623  1.0000
  C   C1195     1.0  0.32216  0.68922  0.44134  1.0000
  N   N81       1.0  0.41025  0.83432  0.31213  1.0000
  H   H1419     1.0  0.48091  0.78536  0.37552  1.0000
  S   S311      1.0  0.38565  0.92126  0.25785  1.0000
  H   H1420     1.0  0.49355  0.74533  0.28780  1.0000
  C   C1196     1.0  0.48563  0.74546  0.40455  1.0000
  H   H1421     1.0  0.39914  0.81948  0.30341  1.0000
  H   H1422     1.0  0.40918  0.81765  0.33600  1.0000
  H   H1423     1.0  0.46913  0.74265  0.44607  1.0000
  H   H1424     1.0  0.40122  0.74271  0.44068  1.0000
  H   H1425     1.0  0.46774  0.76175  0.39077  1.0000
  H   H1426     1.0  0.22317  0.65738  0.40935  1.0000
  S   S312      1.0  0.47012  0.74342  0.31948  1.0000
  H   H1427     1.0  0.48225  0.79322  0.35398  1.0000
  H   H1428     1.0  0.38312  0.96146  0.29260  1.0000
  H   H1429     1.0  0.28430  0.68287  0.44242  1.0000
  H   H1430     1.0  0.47366  0.75128  0.26703  1.0000
  C   C1197     1.0  0.30688  0.69218  0.43643  1.0000
  H   H1431     1.0  0.47685  0.85541  0.23621  1.0000
  C   C1198     1.0  0.45353  0.77120  0.27328  1.0000
  C   C1199     1.0  0.43815  0.77563  0.28344  1.0000
  H   H1432     1.0  0.41878  0.80938  0.30845  1.0000
  H   H1433     1.0  0.46146  0.72998  0.28725  1.0000
  C   C1200     1.0  0.43323  0.76278  0.43250  1.0000
  S   S313      1.0  0.14638  0.66792  0.45421  1.0000
  H   H1434     1.0  0.27584  0.71063  0.43350  1.0000
  H   H1435     1.0  0.33121  0.69674  0.43537  1.0000
  C   C1201     1.0  0.35548  0.67725  0.41378  1.0000
  C   C1202     1.0  0.41374  0.74393  0.44088  1.0000
  H   H1436     1.0  0.30358  0.92966  0.26921  1.0000
  H   H1437     1.0  0.41518  0.77676  0.40850  1.0000
  H   H1438     1.0  0.20039  0.68677  0.44588  1.0000
  C   C1203     1.0  0.48455  0.71174  0.31706  1.0000
  C   C1204     1.0  0.38381  0.85184  0.30403  1.0000
  H   H1439     1.0  0.19914  0.66762  0.39060  1.0000
  H   H1440     1.0  0.35637  0.67009  0.42606  1.0000
  H   H1441     1.0  0.25212  0.95550  0.24843  1.0000
  C   C1205     1.0  0.22162  0.67452  0.37658  1.0000
  H   H1442     1.0  0.38002  0.95491  0.27569  1.0000
  S   S314      1.0  0.28808  0.66967  0.38687  1.0000
  S   S315      1.0  0.16737  0.68254  0.47161  1.0000
  C   C1206     1.0  0.34989  0.97570  0.27461  1.0000
  S   S316      1.0  0.19051  0.66919  0.42721  1.0000
  C   C1207     1.0  0.31479  0.71578  0.41442  1.0000
  H   H1443     1.0  0.45694  0.79212  0.41877  1.0000
  H   H1444     1.0  0.48775  0.81656  0.33423  1.0000
  H   H1445     1.0  0.47250  0.82143  0.35871  1.0000
  C   C1208     1.0  0.48926  0.79016  0.36388  1.0000
  Fe  Fe159     1.0  0.14103  0.68009  0.47561  1.0000
  C   C1209     1.0  0.34385  0.97994  0.31511  1.0000
  C   C1210     1.0  0.35376  0.98189  0.29881  1.0000
  H   H1446     1.0  0.33630  0.97951  0.27888  1.0000
  C   C1211     1.0  0.49154  0.68166  0.39706  1.0000
  C   C1212     1.0  0.22415  0.66456  0.41740  1.0000
  C   C1213     1.0  0.23383  0.66324  0.47688  1.0000
  H   H1447     1.0  0.27184  0.93404  0.23588  1.0000
  C   C1214     1.0  0.23980  0.66613  0.41787  1.0000
  H   H1448     1.0  0.09953  0.66558  0.46823  1.0000
  C   C1215     1.0  0.28705  0.98159  0.23674  1.0000
  C   C1216     1.0  0.10600  0.65996  0.47864  1.0000
  Fe  Fe160     1.0  0.28101  0.66087  0.41421  1.0000
  C   C1217     1.0  0.31572  0.66535  0.46234  1.0000
  S   S317      1.0  0.30690  0.65513  0.41811  1.0000
  H   H1449     1.0  0.33902  0.66387  0.41072  1.0000
  H   H1450     1.0  0.25746  0.69231  0.46714  1.0000
  C   C1218     1.0  0.47225  0.66198  0.37301  1.0000
  H   H1451     1.0  0.29223  0.65982  0.46441  1.0000
  H   H1452     1.0  0.23027  0.70945  0.47745  1.0000
  H   H1453     1.0  0.49351  0.79572  0.39135  1.0000
  H   H1454     1.0  0.35436  0.98657  0.26603  1.0000
  C   C1219     1.0  0.31770  0.92266  0.23558  1.0000
  Fe  Fe161     1.0  0.38568  0.94181  0.23552  1.0000
  C   C1220     1.0  0.21036  0.66414  0.38171  1.0000
  H   H1455     1.0  0.38360  0.65972  0.36612  1.0000
  H   H1456     1.0  0.08257  0.68505  0.48166  1.0000
  C   C1221     1.0  0.48365  0.65726  0.35925  1.0000
  H   H1457     1.0  0.43069  0.65757  0.38864  1.0000
  H   H1458     1.0  0.10991  0.66981  0.48181  1.0000
  S   S318      1.0  0.39235  0.89617  0.23281  1.0000
  H   H1459     1.0  0.42965  0.65710  0.36186  1.0000
  H   H1460     1.0  0.47456  0.65628  0.38524  1.0000
  H   H1461     1.0  0.17965  0.65699  0.38713  1.0000
  H   H1462     1.0  0.41349  0.65595  0.40560  1.0000
  N   N82       1.0  0.40835  0.65668  0.38218  1.0000
  H   H1463     1.0  0.18579  0.65377  0.36633  1.0000
  H   H1464     1.0  0.31920  0.65492  0.47202  1.0000
  C   C1222     1.0  0.24038  0.65599  0.35990  1.0000
  H   H1465     1.0  0.41121  0.65695  0.35634  1.0000
  C   C1223     1.0  0.49391  0.73254  0.29376  1.0000
  Fe  Fe162     1.0  0.01630  0.74133  0.54891  1.0000
  S   S319      1.0  0.01446  0.74915  0.57219  1.0000
  H   H1466     1.0  0.05637  0.85757  0.63794  1.0000
  Fe  Fe163     1.0  0.04689  0.71440  0.55348  1.0000
  S   S320      1.0  0.04710  0.71976  0.57749  1.0000
  S   S321      1.0  0.06610  0.69262  0.54601  1.0000
  Fe  Fe164     1.0  0.01969  0.72210  0.58297  1.0000
  S   S322      1.0  0.00582  0.71407  0.60876  1.0000
  Fe  Fe165     1.0  0.04189  0.74622  0.56446  1.0000
  S   S323      1.0  0.05684  0.76300  0.56658  1.0000
  S   S324      1.0  0.01984  0.71428  0.56015  1.0000
  S   S325      1.0  0.04361  0.74084  0.53987  1.0000
  H   H1467     1.0  0.00192  0.72988  0.65912  1.0000
  C   C1224     1.0  0.14193  0.69725  0.52149  1.0000
  S   S326      1.0  0.02745  0.80908  0.61836  1.0000
  H   H1468     1.0  0.07539  0.73324  0.55591  1.0000
  C   C1225     1.0  0.04596  0.97150  0.66337  1.0000
  H   H1469     1.0  0.99504  0.70390  0.58465  1.0000
  H   H1470     1.0  0.06377  0.87217  0.65465  1.0000
  H   H1471     1.0  0.03109  0.75629  0.65067  1.0000
  C   C1226     1.0  0.13632  0.69680  0.53832  1.0000
  C   C1227     1.0  0.15224  0.89990  0.71050  1.0000
  H   H1472     1.0  0.03068  0.71431  0.62475  1.0000
  S   S327      1.0  0.14563  0.96388  0.65695  1.0000
  Fe  Fe166     1.0  0.03107  0.89091  0.71087  1.0000
  S   S328      1.0  0.05549  0.87898  0.71883  1.0000
  S   S329      1.0  0.01824  0.88086  0.69631  1.0000
  C   C1228     1.0  0.07534  0.67909  0.49289  1.0000
  S   S330      1.0  0.13484  0.98213  0.68869  1.0000
  Fe  Fe167     1.0  0.06330  0.90264  0.70478  1.0000
  S   S331      1.0  0.08840  0.90436  0.68861  1.0000
  H   H1473     1.0  0.02155  0.82198  0.66677  1.0000
  S   S332      1.0  0.03998  0.91390  0.69544  1.0000
  C   C1229     1.0  0.09403  0.95747  0.67748  1.0000
  C   C1230     1.0  0.10736  0.94527  0.67212  1.0000
  C   C1231     1.0  0.10539  0.92906  0.67482  1.0000
  C   C1232     1.0  0.09008  0.92504  0.68290  1.0000
  C   C1233     1.0  0.07651  0.93745  0.68742  1.0000
  C   C1234     1.0  0.07853  0.95360  0.68488  1.0000
  H   H1474     1.0  0.11915  0.94832  0.66590  1.0000
  H   H1475     1.0  0.11574  0.91962  0.67080  1.0000
  H   H1476     1.0  0.06452  0.93458  0.69329  1.0000
  H   H1477     1.0  0.06815  0.96298  0.68907  1.0000
  H   H1478     1.0  0.01953  0.84965  0.64639  1.0000
  Fe  Fe168     1.0  0.03106  0.92459  0.71814  1.0000
  C   C1235     1.0  0.17006  0.94704  0.71046  1.0000
  H   H1479     1.0  0.01327  0.84963  0.72007  1.0000
  C   C1236     1.0  0.03310  0.81733  0.65822  1.0000
  H   H1480     1.0  0.05760  0.70206  0.49441  1.0000
  H   H1481     1.0  0.14389  0.94792  0.71491  1.0000
  N   N83       1.0  0.09922  0.73312  0.53927  1.0000
  H   H1482     1.0  0.07879  0.93818  0.71857  1.0000
  H   H1483     1.0  0.12960  0.92450  0.69701  1.0000
  C   C1237     1.0  0.01122  0.86333  0.69556  1.0000
  H   H1484     1.0  0.14869  0.93104  0.69271  1.0000
  C   C1238     1.0  0.09309  0.96311  0.72125  1.0000
  C   C1239     1.0  0.05853  0.86137  0.66055  1.0000
  S   S333      1.0  0.01732  0.95128  0.71745  1.0000
  H   H1485     1.0  0.17598  0.89131  0.68543  1.0000
  C   C1240     1.0  0.16831  0.90393  0.68229  1.0000
  C   C1241     1.0  0.08077  0.69583  0.52745  1.0000
  C   C1242     1.0  0.09558  0.68407  0.52537  1.0000
  C   C1243     1.0  0.16154  0.90695  0.71701  1.0000
  S   S334      1.0  0.17419  0.94733  0.68925  1.0000
  C   C1244     1.0  0.48034  0.65995  0.71484  1.0000
  C   C1245     1.0  0.07798  0.70973  0.51480  1.0000
  H   H1486     1.0  0.09793  0.67348  0.53525  1.0000
  C   C1246     1.0  0.06111  0.74666  0.61033  1.0000
  H   H1487     1.0  0.06651  0.71883  0.51632  1.0000
  C   C1247     1.0  0.04762  0.77600  0.58073  1.0000
  C   C1248     1.0  0.05651  0.78696  0.58173  1.0000
  C   C1249     1.0  0.05006  0.79706  0.59325  1.0000
  C   C1250     1.0  0.03468  0.79628  0.60395  1.0000
  C   C1251     1.0  0.02566  0.78533  0.60305  1.0000
  C   C1252     1.0  0.03213  0.77521  0.59139  1.0000
  H   H1488     1.0  0.06846  0.78764  0.57357  1.0000
  H   H1489     1.0  0.05706  0.80551  0.59385  1.0000
  H   H1490     1.0  0.01381  0.78463  0.61135  1.0000
  H   H1491     1.0  0.02528  0.76666  0.59081  1.0000
  H   H1492     1.0  0.04674  0.83857  0.69870  1.0000
  C   C1253     1.0  0.05410  0.85300  0.65114  1.0000
  C   C1254     1.0  0.12259  0.70853  0.54398  1.0000
  C   C1255     1.0  0.14250  0.92285  0.68962  1.0000
  S   S335      1.0  0.14367  0.65620  0.49432  1.0000
  H   H1493     1.0  0.08336  0.71586  0.54634  1.0000
  H   H1494     1.0  0.03561  0.70990  0.64471  1.0000
  H   H1495     1.0  0.17495  0.91285  0.68350  1.0000
  H   H1496     1.0  0.99651  0.85040  0.66896  1.0000
  C   C1256     1.0  0.04905  0.84237  0.68536  1.0000
  H   H1497     1.0  0.03637  0.85231  0.62899  1.0000
  C   C1257     1.0  0.05887  0.97960  0.65527  1.0000
  H   H1498     1.0  0.19561  0.94536  0.71013  1.0000
  H   H1499     1.0  0.06561  0.81464  0.64411  1.0000
  C   C1258     1.0  0.02229  0.96632  0.72477  1.0000
  H   H1500     1.0  0.13624  0.88188  0.71811  1.0000
  S   S336      1.0  0.05505  0.91498  0.72623  1.0000
  C   C1259     1.0  0.12000  0.72116  0.51579  1.0000
  H   H1501     1.0  0.05449  0.76938  0.63893  1.0000
  H   H1502     1.0  0.04548  0.73187  0.60932  1.0000
  H   H1503     1.0  0.00265  0.82623  0.71811  1.0000
  H   H1504     1.0  0.12920  0.89722  0.69408  1.0000
  Fe  Fe169     1.0  0.15784  0.96793  0.67506  1.0000
  H   H1505     1.0  0.48727  0.66711  0.71854  1.0000
  C   C1260     1.0  0.00980  0.84981  0.70885  1.0000
  C   C1261     1.0  0.10749  0.68600  0.51065  1.0000
  N   N84       1.0  0.15135  0.90535  0.69285  1.0000
  H   H1506     1.0  0.02500  0.96986  0.68364  1.0000
  H   H1507     1.0  0.05331  0.81694  0.62936  1.0000
  C   C1262     1.0  0.05120  0.68275  0.51504  1.0000
  H   H1508     1.0  0.11386  0.75004  0.53852  1.0000
  C   C1263     1.0  0.10450  0.69942  0.49767  1.0000
  C   C1264     1.0  0.06369  0.75740  0.61842  1.0000
  H   H1509     1.0  0.05891  0.86291  0.68496  1.0000
  H   H1510     1.0  0.02937  0.81142  0.65021  1.0000
  H   H1511     1.0  0.08621  0.73734  0.51982  1.0000
  H   H1512     1.0  0.02114  0.73010  0.66361  1.0000
  H   H1513     1.0  0.14846  0.88229  0.68989  1.0000
  H   H1514     1.0  0.14197  0.92757  0.67637  1.0000
  H   H1515     1.0  0.14249  0.89971  0.67420  1.0000
  H   H1516     1.0  0.14260  0.68720  0.54701  1.0000
  H   H1517     1.0  0.06920  0.74477  0.59862  1.0000
  C   C1265     1.0  0.00648  0.86324  0.68113  1.0000
  C   C1266     1.0  0.03627  0.74189  0.63165  1.0000
  H   H1518     1.0  0.09372  0.75291  0.55207  1.0000
  C   C1267     1.0  0.01048  0.98106  0.72591  1.0000
  H   H1519     1.0  0.16835  0.91607  0.70924  1.0000
  H   H1520     1.0  0.99920  0.98322  0.72159  1.0000
  H   H1521     1.0  0.04808  0.66145  0.53438  1.0000
  C   C1268     1.0  0.00371  0.83653  0.70770  1.0000
  H   H1522     1.0  0.13818  0.70970  0.49717  1.0000
  C   C1269     1.0  0.04664  0.83919  0.65865  1.0000
  H   H1523     1.0  0.10987  0.73602  0.55807  1.0000
  C   C1270     1.0  0.09060  0.74437  0.52628  1.0000
  C   C1271     1.0  0.04435  0.83402  0.67612  1.0000
  C   C1272     1.0  0.18327  0.94549  0.71770  1.0000
  H   H1524     1.0  0.12002  0.92752  0.73022  1.0000
  C   C1273     1.0  0.08691  0.72445  0.55163  1.0000
  H   H1525     1.0  0.10093  0.93368  0.71063  1.0000
  C   C1274     1.0  0.03025  0.84296  0.63842  1.0000
  C   C1275     1.0  0.04750  0.73920  0.61667  1.0000
  H   H1526     1.0  0.09074  0.91751  0.72232  1.0000
  C   C1276     1.0  0.99898  0.83648  0.69327  1.0000
  H   H1527     1.0  0.07940  0.75303  0.53157  1.0000
  H   H1528     1.0  0.11879  0.70769  0.55715  1.0000
  H   H1529     1.0  0.11414  0.72993  0.50637  1.0000
  C   C1277     1.0  0.05593  0.85611  0.67763  1.0000
  H   H1530     1.0  0.02526  0.83690  0.63150  1.0000
  C   C1278     1.0  0.08979  0.71144  0.49985  1.0000
  H   H1531     1.0  0.04119  0.80732  0.66549  1.0000
  C   C1279     1.0  0.13390  0.70950  0.51027  1.0000
  H   H1532     1.0  0.04479  0.96117  0.65920  1.0000
  C   C1280     1.0  0.03485  0.97640  0.67714  1.0000
  H   H1533     1.0  0.16811  0.90672  0.66894  1.0000
  H   H1534     1.0  0.03853  0.82387  0.68305  1.0000
  H   H1535     1.0  0.09145  0.71717  0.56290  1.0000
  H   H1536     1.0  0.11904  0.67720  0.50952  1.0000
  H   H1537     1.0  0.04045  0.69076  0.52095  1.0000
  C   C1281     1.0  0.09085  0.93064  0.72137  1.0000
  N   N85       1.0  0.04167  0.83084  0.64841  1.0000
  Fe  Fe170     1.0  0.12312  0.98006  0.66924  1.0000
  C   C1282     1.0  0.14251  0.89566  0.68763  1.0000
  H   H1538     1.0  0.09870  0.75217  0.51702  1.0000
  C   C1283     1.0  0.05276  0.76058  0.63297  1.0000
  C   C1284     1.0  0.15413  0.94696  0.72040  1.0000
  H   H1539     1.0  0.00739  0.87363  0.67080  1.0000
  H   H1540     1.0  0.07386  0.76369  0.61308  1.0000
  C   C1285     1.0  0.14376  0.88791  0.72176  1.0000
  C   C1286     1.0  0.02600  0.71666  0.63741  1.0000
  C   C1287     1.0  0.10443  0.74345  0.54733  1.0000
  H   H1541     1.0  0.06780  0.97544  0.64485  1.0000
  H   H1542     1.0  0.06304  0.83311  0.62839  1.0000
  C   C1288     1.0  0.11384  0.72096  0.53291  1.0000
  C   C1289     1.0  0.03924  0.75296  0.63958  1.0000
  H   H1543     1.0  0.46989  0.66910  0.71010  1.0000
  H   H1544     1.0  0.20540  0.69729  0.48771  1.0000
  C   C1290     1.0  0.05657  0.82359  0.63709  1.0000
  H   H1545     1.0  0.15244  0.68799  0.51712  1.0000
  C   C1291     1.0  0.05557  0.66623  0.52262  1.0000
  N   N86       1.0  0.02147  0.73451  0.63767  1.0000
  H   H1546     1.0  0.09286  0.96063  0.70975  1.0000
  C   C1292     1.0  0.00037  0.85000  0.68001  1.0000
  H   H1547     1.0  0.08743  0.72194  0.48989  1.0000
  H   H1548     1.0  0.00585  0.75649  0.62667  1.0000
  Fe  Fe171     1.0  0.00293  0.80775  0.63586  1.0000
  H   H1549     1.0  0.01505  0.71083  0.64247  1.0000
  C   C1293     1.0  0.00970  0.74308  0.62670  1.0000
  H   H1550     1.0  0.20739  0.66866  0.48794  1.0000
  H   H1551     1.0  0.01517  0.74181  0.61373  1.0000
  S   S337      1.0  0.99612  0.75465  0.53500  1.0000
  C   C1294     1.0  0.06092  0.68910  0.50011  1.0000
  C   C1295     1.0  0.09341  0.97932  0.72098  1.0000
  S   S338      1.0  0.09669  0.97729  0.67607  1.0000
  H   H1552     1.0  0.44679  0.65850  0.71571  1.0000
  Fe  Fe172     1.0  0.17015  0.65783  0.48904  1.0000
  C   C1296     1.0  0.01275  0.73592  0.65482  1.0000
  H   H1553     1.0  0.16426  0.97908  0.73097  1.0000
  H   H1554     1.0  0.04617  0.95250  0.72944  1.0000
  C   C1297     1.0  0.08029  0.66218  0.50042  1.0000
  C   C1298     1.0  0.03686  0.96371  0.73043  1.0000
  C   C1299     1.0  0.06976  0.65600  0.51535  1.0000
  S   S339      1.0  0.00228  0.79004  0.66024  1.0000
  H   H1555     1.0  0.00743  0.74897  0.65583  1.0000
  H   H1556     1.0  0.48866  0.65451  0.70439  1.0000
  H   H1557     1.0  0.99827  0.73799  0.63067  1.0000
  H   H1558     1.0  0.12941  0.97898  0.73134  1.0000
  H   H1559     1.0  0.15572  0.98609  0.71311  1.0000
  C   C1300     1.0  0.21854  0.67339  0.48297  1.0000
  C   C1301     1.0  0.21730  0.68985  0.48308  1.0000
  Fe  Fe173     1.0  0.39225  0.73563  0.90032  1.0000
  S   S340      1.0  0.40402  0.75081  0.87671  1.0000
  S   S341      1.0  0.36435  0.74224  0.90644  1.0000
  Fe  Fe174     1.0  0.42511  0.71525  0.90765  1.0000
  S   S342      1.0  0.43940  0.72907  0.88513  1.0000
  S   S343      1.0  0.44058  0.69341  0.92162  1.0000
  Fe  Fe175     1.0  0.42140  0.75158  0.89146  1.0000
  S   S344      1.0  0.43103  0.77429  0.88725  1.0000
  Fe  Fe176     1.0  0.42101  0.72705  0.87225  1.0000
  S   S345      1.0  0.43258  0.72321  0.84660  1.0000
  S   S346      1.0  0.40860  0.73817  0.91557  1.0000
  S   S347      1.0  0.40770  0.71143  0.89437  1.0000
  H   H1560     1.0  0.10867  0.88074  0.74977  1.0000
  S   S348      1.0  0.49301  0.79121  0.77456  1.0000
  C   C1302     1.0  0.49360  0.70059  0.91011  1.0000
  H   H1561     1.0  0.48943  0.72377  0.79221  1.0000
  H   H1562     1.0  0.45889  0.76736  0.77037  1.0000
  S   S349      1.0  0.45337  0.79600  0.80987  1.0000
  Fe  Fe177     1.0  0.17782  0.91855  0.90956  1.0000
  S   S350      1.0  0.16705  0.89692  0.92466  1.0000
  S   S351      1.0  0.17495  0.92927  0.88293  1.0000
  Fe  Fe178     1.0  0.19256  0.91990  0.93847  1.0000
  S   S352      1.0  0.18270  0.89833  0.95522  1.0000
  S   S353      1.0  0.20754  0.93298  0.94675  1.0000
  Fe  Fe179     1.0  0.19133  0.88736  0.93269  1.0000
  S   S354      1.0  0.20415  0.86078  0.93339  1.0000
  Fe  Fe180     1.0  0.15968  0.91042  0.94525  1.0000
  S   S355      1.0  0.13363  0.91555  0.95987  1.0000
  S   S356      1.0  0.20278  0.90816  0.91633  1.0000
  S   S357      1.0  0.16891  0.93286  0.92979  1.0000
  C   C1303     1.0  0.34149  0.71471  0.93841  1.0000
  H   H1563     1.0  0.20013  0.85643  0.97226  1.0000
  H   H1564     1.0  0.04343  0.97308  0.78022  1.0000
  S   S358      1.0  0.48021  0.68718  0.76087  1.0000
  C   C1304     1.0  0.44565  0.72379  0.77372  1.0000
  C   C1305     1.0  0.20381  0.86237  0.97990  1.0000
  S   S359      1.0  0.27891  0.84384  0.93905  1.0000
  H   H1565     1.0  0.47312  0.74486  0.83837  1.0000
  S   S360      1.0  0.28803  0.79495  0.95421  1.0000
  Fe  Fe181     1.0  0.13670  0.90851  0.81888  1.0000
  S   S361      1.0  0.11127  0.90746  0.81680  1.0000
  S   S362      1.0  0.14608  0.89549  0.84256  1.0000
  Fe  Fe182     1.0  0.14347  0.93017  0.78442  1.0000
  S   S363      1.0  0.11879  0.93149  0.77983  1.0000
  S   S364      1.0  0.16212  0.94354  0.76580  1.0000
  Fe  Fe183     1.0  0.10910  0.93448  0.80590  1.0000
  S   S365      1.0  0.08541  0.95293  0.81089  1.0000
  Fe  Fe184     1.0  0.12288  0.90440  0.79078  1.0000
  S   S366      1.0  0.11844  0.88893  0.77536  1.0000
  S   S367      1.0  0.13343  0.93588  0.80966  1.0000
  S   S368      1.0  0.14871  0.90271  0.79372  1.0000
  C   C1306     1.0  0.05459  0.94736  0.78712  1.0000
  S   S369      1.0  0.04850  0.88496  0.76623  1.0000
  C   C1307     1.0  0.21944  0.86621  0.97530  1.0000
  H   H1566     1.0  0.21260  0.82883  0.96838  1.0000
  H   H1567     1.0  0.48040  0.72223  0.87981  1.0000
  N   N87       1.0  0.44560  0.75766  0.79472  1.0000
  C   C1308     1.0  0.22390  0.88464  0.87238  1.0000
  H   H1568     1.0  0.25647  0.82321  0.94218  1.0000
  H   H1569     1.0  0.45300  0.71813  0.76348  1.0000
  H   H1570     1.0  0.16489  0.82743  0.96170  1.0000
  C   C1309     1.0  0.45020  0.73678  0.77700  1.0000
  H   H1571     1.0  0.47123  0.67832  0.88847  1.0000
  C   C1310     1.0  0.48049  0.69262  0.83245  1.0000
  H   H1572     1.0  0.03977  0.91549  0.78531  1.0000
  H   H1573     1.0  0.20257  0.87956  0.90136  1.0000
  H   H1574     1.0  0.30168  0.72769  0.93436  1.0000
  S   S370      1.0  0.42642  0.65907  0.82934  1.0000
  H   H1575     1.0  0.26677  0.86670  0.97375  1.0000
  C   C1311     1.0  0.04007  0.92818  0.78427  1.0000
  H   H1576     1.0  0.22192  0.89835  0.86959  1.0000
  H   H1577     1.0  0.45805  0.74051  0.81316  1.0000
  H   H1578     1.0  0.11340  0.96870  0.79719  1.0000
  C   C1312     1.0  0.09885  0.88762  0.77338  1.0000
  C   C1313     1.0  0.08455  0.89043  0.78564  1.0000
  C   C1314     1.0  0.06928  0.88894  0.78365  1.0000
  C   C1315     1.0  0.06801  0.88548  0.76906  1.0000
  C   C1316     1.0  0.08232  0.88266  0.75683  1.0000
  C   C1317     1.0  0.09769  0.88335  0.75916  1.0000
  H   H1579     1.0  0.08538  0.89324  0.79685  1.0000
  H   H1580     1.0  0.05842  0.89051  0.79346  1.0000
  C   C1318     1.0  0.44561  0.67527  0.87986  1.0000
  H   H1581     1.0  0.09441  0.97486  0.76099  1.0000
  C   C1319     1.0  0.32519  0.72905  0.96007  1.0000
  H   H1582     1.0  0.44259  0.68466  0.88755  1.0000
  C   C1320     1.0  0.03896  0.97530  0.73818  1.0000
  C   C1321     1.0  0.16554  0.92054  0.87228  1.0000
  C   C1322     1.0  0.16537  0.92745  0.85553  1.0000
  C   C1323     1.0  0.15896  0.92027  0.84639  1.0000
  C   C1324     1.0  0.15280  0.90595  0.85386  1.0000
  C   C1325     1.0  0.15284  0.89913  0.87063  1.0000
  C   C1326     1.0  0.15899  0.90646  0.87984  1.0000
  H   H1583     1.0  0.17035  0.93836  0.84954  1.0000
  H   H1584     1.0  0.15910  0.92563  0.83347  1.0000
  H   H1585     1.0  0.14797  0.88816  0.87647  1.0000
  H   H1586     1.0  0.15868  0.90117  0.89276  1.0000
  C   C1327     1.0  0.46056  0.76288  0.78332  1.0000
  H   H1587     1.0  0.06276  0.92107  0.79317  1.0000
  H   H1588     1.0  0.15864  0.97969  0.75759  1.0000
  H   H1589     1.0  0.22746  0.86293  0.96412  1.0000
  H   H1590     1.0  0.20801  0.88491  0.84942  1.0000
  C   C1328     1.0  0.22542  0.85626  0.93322  1.0000
  C   C1329     1.0  0.23411  0.86882  0.92961  1.0000
  C   C1330     1.0  0.25087  0.86491  0.93050  1.0000
  C   C1331     1.0  0.25880  0.84849  0.93553  1.0000
  C   C1332     1.0  0.25026  0.83593  0.93864  1.0000
  C   C1333     1.0  0.23369  0.83979  0.93718  1.0000
  H   H1591     1.0  0.22792  0.88155  0.92643  1.0000
  H   H1592     1.0  0.25753  0.87464  0.92789  1.0000
  H   H1593     1.0  0.47197  0.67031  0.91972  1.0000
  H   H1594     1.0  0.22715  0.83001  0.93961  1.0000
  C   C1334     1.0  0.48550  0.70713  0.77932  1.0000
  N   N88       1.0  0.20812  0.87925  0.87542  1.0000
  S   S371      1.0  0.47223  0.66081  0.80674  1.0000
  C   C1335     1.0  0.00450  0.92710  0.78923  1.0000
  H   H1595     1.0  0.13834  0.87408  0.74687  1.0000
  H   H1596     1.0  0.13769  0.87575  0.90545  1.0000
  Fe  Fe185     1.0  0.48079  0.78814  0.80144  1.0000
  C   C1336     1.0  0.00077  0.95262  0.76939  1.0000
  C   C1337     1.0  0.14478  0.88330  0.73839  1.0000
  C   C1338     1.0  0.35533  0.75131  0.92365  1.0000
  C   C1339     1.0  0.36371  0.74827  0.93635  1.0000
  C   C1340     1.0  0.35608  0.75506  0.95032  1.0000
  C   C1341     1.0  0.34012  0.76509  0.95156  1.0000
  C   C1342     1.0  0.33190  0.76851  0.93866  1.0000
  C   C1343     1.0  0.33942  0.76147  0.92481  1.0000
  H   H1597     1.0  0.37580  0.74016  0.93574  1.0000
  H   H1598     1.0  0.36246  0.75234  0.96030  1.0000
  H   H1599     1.0  0.31979  0.77653  0.93935  1.0000
  H   H1600     1.0  0.33294  0.76391  0.91495  1.0000
  C   C1344     1.0  0.43726  0.78075  0.86581  1.0000
  C   C1345     1.0  0.45383  0.78142  0.85861  1.0000
  C   C1346     1.0  0.45891  0.78588  0.84138  1.0000
  C   C1347     1.0  0.44732  0.79016  0.83140  1.0000
  C   C1348     1.0  0.43074  0.78956  0.83862  1.0000
  C   C1349     1.0  0.42576  0.78468  0.85579  1.0000
  H   H1601     1.0  0.46278  0.77830  0.86632  1.0000
  H   H1602     1.0  0.47174  0.78629  0.83589  1.0000
  H   H1603     1.0  0.42177  0.79278  0.83093  1.0000
  H   H1604     1.0  0.41295  0.78418  0.86127  1.0000
  C   C1350     1.0  0.42991  0.70577  0.84190  1.0000
  C   C1351     1.0  0.41906  0.69612  0.85267  1.0000
  C   C1352     1.0  0.41756  0.68196  0.84861  1.0000
  C   C1353     1.0  0.42687  0.67756  0.83377  1.0000
  C   C1354     1.0  0.43725  0.68756  0.82284  1.0000
  C   C1355     1.0  0.43899  0.70147  0.82703  1.0000
  H   H1605     1.0  0.41183  0.69955  0.86408  1.0000
  H   H1606     1.0  0.40940  0.67430  0.85703  1.0000
  H   H1607     1.0  0.44377  0.68476  0.81101  1.0000
  H   H1608     1.0  0.44733  0.70896  0.81862  1.0000
  H   H1609     1.0  0.13169  0.87294  0.93502  1.0000
  H   H1610     1.0  0.49348  0.70402  0.87335  1.0000
  C   C1356     1.0  0.47423  0.68255  0.91742  1.0000
  C   C1357     1.0  0.46088  0.69613  0.91831  1.0000
  C   C1358     1.0  0.46391  0.71187  0.91573  1.0000
  C   C1359     1.0  0.48026  0.71402  0.91207  1.0000
  C   C1360     1.0  0.09308  0.95073  0.73601  1.0000
  H   H1611     1.0  0.35341  0.70862  0.93216  1.0000
  H   H1612     1.0  0.45366  0.72239  0.91666  1.0000
  H   H1613     1.0  0.16572  0.87103  0.95513  1.0000
  H   H1614     1.0  0.43749  0.75093  0.82125  1.0000
  C   C1361     1.0  0.09382  0.97171  0.74991  1.0000
  C   C1362     1.0  0.09339  0.95558  0.75033  1.0000
  H   H1615     1.0  0.20496  0.82958  0.86487  1.0000
  C   C1363     1.0  0.28248  0.73083  0.96820  1.0000
  H   H1616     1.0  0.48736  0.87891  0.76623  1.0000
  H   H1617     1.0  0.17952  0.83916  0.93669  1.0000
  H   H1618     1.0  0.41986  0.74230  0.81137  1.0000
  H   H1619     1.0  0.22795  0.82647  0.90439  1.0000
  S   S372      1.0  0.24951  0.77545  0.98178  1.0000
  N   N89       1.0  0.38105  0.79415  0.90904  1.0000
  C   C1364     1.0  0.38937  0.78310  0.92233  1.0000
  C   C1365     1.0  0.38177  0.78405  0.89732  1.0000
  C   C1366     1.0  0.39080  0.80699  0.90036  1.0000
  C   C1367     1.0  0.36362  0.80210  0.91512  1.0000
  C   C1368     1.0  0.35581  0.79976  0.93214  1.0000
  C   C1369     1.0  0.35396  0.81282  0.90384  1.0000
  C   C1370     1.0  0.33943  0.80775  0.93741  1.0000
  C   C1371     1.0  0.33752  0.82063  0.90927  1.0000
  C   C1372     1.0  0.33027  0.81811  0.92604  1.0000
  H   H1620     1.0  0.38995  0.78995  0.93133  1.0000
  H   H1621     1.0  0.38299  0.77280  0.92905  1.0000
  H   H1622     1.0  0.40243  0.77726  0.91729  1.0000
  H   H1623     1.0  0.37433  0.77442  0.90323  1.0000
  H   H1624     1.0  0.39473  0.77770  0.89283  1.0000
  H   H1625     1.0  0.37712  0.79147  0.88615  1.0000
  H   H1626     1.0  0.39011  0.81523  0.90859  1.0000
  H   H1627     1.0  0.40415  0.80143  0.89613  1.0000
  H   H1628     1.0  0.38646  0.81480  0.88914  1.0000
  H   H1629     1.0  0.36195  0.79165  0.94169  1.0000
  H   H1630     1.0  0.35904  0.81522  0.89072  1.0000
  H   H1631     1.0  0.33375  0.80569  0.95045  1.0000
  H   H1632     1.0  0.33033  0.82869  0.90045  1.0000
  H   H1633     1.0  0.31750  0.82415  0.93023  1.0000
  C   C1373     1.0  0.20897  0.83561  0.87219  1.0000
  H   H1634     1.0  0.46612  0.70395  0.85235  1.0000
  H   H1635     1.0  0.02722  0.91626  0.76459  1.0000
  C   C1374     1.0  0.07994  0.92768  0.75042  1.0000
  C   C1375     1.0  0.16998  0.84703  0.93033  1.0000
  H   H1636     1.0  0.48254  0.72623  0.91007  1.0000
  N   N90       1.0  0.29447  0.74177  0.96124  1.0000
  H   H1637     1.0  0.13769  0.97369  0.74950  1.0000
  H   H1638     1.0  0.42035  0.76994  0.80351  1.0000
  H   H1639     1.0  0.47159  0.68529  0.83369  1.0000
  H   H1640     1.0  0.44652  0.66021  0.85791  1.0000
  C   C1376     1.0  0.15994  0.92850  0.97901  1.0000
  H   H1641     1.0  0.16403  0.86066  0.89099  1.0000
  H   H1642     1.0  0.46794  0.74543  0.85983  1.0000
  C   C1377     1.0  0.07400  0.98186  0.79110  1.0000
  C   C1378     1.0  0.47402  0.66791  0.88217  1.0000
  C   C1379     1.0  0.20633  0.93483  0.96707  1.0000
  C   C1380     1.0  0.16483  0.85821  0.96169  1.0000
  N   N91       1.0  0.15182  0.85299  0.95725  1.0000
  H   H1643     1.0  0.45994  0.73223  0.85259  1.0000
  H   H1644     1.0  0.00909  0.92667  0.75668  1.0000
  C   C1381     1.0  0.05335  0.93124  0.78861  1.0000
  H   H1645     1.0  0.47836  0.89950  0.76960  1.0000
  H   H1646     1.0  0.13454  0.87608  0.95975  1.0000
  H   H1647     1.0  0.32853  0.71324  0.92099  1.0000
  H   H1648     1.0  0.32542  0.73354  0.97053  1.0000
  H   H1649     1.0  0.15738  0.93731  0.96740  1.0000
  C   C1382     1.0  0.20614  0.85284  0.86885  1.0000
  H   H1650     1.0  0.12508  0.85894  0.96204  1.0000
  H   H1651     1.0  0.01986  0.96835  0.77353  1.0000
  H   H1652     1.0  0.06223  0.97819  0.79489  1.0000
  H   H1653     1.0  0.30413  0.75743  0.97027  1.0000
  C   C1383     1.0  0.14667  0.86762  0.91245  1.0000
  C   C1384     1.0  0.08760  0.97171  0.79732  1.0000
  H   H1654     1.0  0.46344  0.77325  0.78666  1.0000
  C   C1385     1.0  0.44888  0.75246  0.81163  1.0000
  C   C1386     1.0  0.10960  0.92302  0.73968  1.0000
  H   H1655     1.0  0.14334  0.83060  0.96144  1.0000
  H   H1656     1.0  0.23199  0.90205  0.96361  1.0000
  C   C1387     1.0  0.31065  0.73230  0.95376  1.0000
  H   H1657     1.0  0.02697  0.93556  0.75017  1.0000
  H   H1658     1.0  0.23299  0.88011  0.86178  1.0000
  H   H1659     1.0  0.47175  0.75270  0.78370  1.0000
  H   H1660     1.0  0.23910  0.80846  0.96456  1.0000
  C   C1388     1.0  0.43165  0.77228  0.79408  1.0000
  H   H1661     1.0  0.28449  0.75138  0.93906  1.0000
  C   C1389     1.0  0.34030  0.72028  0.95250  1.0000
  H   H1662     1.0  0.29720  0.76332  0.94196  1.0000
  C   C1390     1.0  0.48268  0.71423  0.87089  1.0000
  H   H1663     1.0  0.01248  0.91476  0.79288  1.0000
  C   C1391     1.0  0.21922  0.85100  0.89111  1.0000
  Fe  Fe186     1.0  0.47262  0.66511  0.77990  1.0000
  N   N92       1.0  0.48583  0.72376  0.85363  1.0000
  C   C1392     1.0  0.31220  0.72593  0.93971  1.0000
  C   C1393     1.0  0.13552  0.86255  0.96453  1.0000
  C   C1394     1.0  0.04243  0.96048  0.78152  1.0000
  C   C1395     1.0  0.16153  0.85916  0.90428  1.0000
  C   C1396     1.0  0.15162  0.94495  0.73763  1.0000
  H   H1664     1.0  0.45372  0.76175  0.81467  1.0000
  H   H1665     1.0  0.15419  0.88735  0.75738  1.0000
  H   H1666     1.0  0.46941  0.66146  0.74725  1.0000
  Fe  Fe187     1.0  0.04517  0.89248  0.73977  1.0000
  H   H1667     1.0  0.18485  0.84255  0.90684  1.0000
  C   C1397     1.0  0.32745  0.71745  0.93208  1.0000
  C   C1398     1.0  0.20814  0.94974  0.96918  1.0000
  H   H1668     1.0  0.00639  0.96085  0.75816  1.0000
  C   C1399     1.0  0.29537  0.74894  0.97474  1.0000
  C   C1400     1.0  0.48977  0.89153  0.76374  1.0000
  C   C1401     1.0  0.19701  0.88458  0.89033  1.0000
  C   C1402     1.0  0.14334  0.86582  0.92958  1.0000
  H   H1669     1.0  0.42836  0.77614  0.78175  1.0000
  C   C1403     1.0  0.44109  0.74406  0.79064  1.0000
  H   H1670     1.0  0.47891  0.67249  0.86886  1.0000
  H   H1671     1.0  0.46109  0.74064  0.76883  1.0000
  H   H1672     1.0  0.22318  0.85636  0.89899  1.0000
  H   H1673     1.0  0.43477  0.78301  0.79648  1.0000
  H   H1674     1.0  0.07795  0.91571  0.74978  1.0000
  H   H1675     1.0  0.18776  0.88540  0.86300  1.0000
  H   H1676     1.0  0.28311  0.75622  0.97991  1.0000
  C   C1404     1.0  0.21127  0.86107  0.87823  1.0000
  C   C1405     1.0  0.16487  0.94387  0.74475  1.0000
  H   H1677     1.0  0.42876  0.70740  0.78140  1.0000
  H   H1678     1.0  0.20968  0.95982  0.95860  1.0000
  C   C1406     1.0  0.22859  0.80498  0.97375  1.0000
  C   C1407     1.0  0.42714  0.73767  0.80055  1.0000
  C   C1408     1.0  0.43197  0.71774  0.78376  1.0000
  H   H1679     1.0  0.11158  0.92294  0.75193  1.0000
  H   H1680     1.0  0.08157  0.87968  0.74567  1.0000
  C   C1409     1.0  0.02731  0.94125  0.77878  1.0000
  C   C1410     1.0  0.48908  0.71285  0.84196  1.0000
  H   H1681     1.0  0.06791  0.93672  0.75011  1.0000
  C   C1411     1.0  0.47759  0.70318  0.84321  1.0000
  C   C1412     1.0  0.18061  0.94431  0.73470  1.0000
  C   C1413     1.0  0.16218  0.90252  0.73370  1.0000
  C   C1414     1.0  0.01938  0.92864  0.76099  1.0000
  H   H1682     1.0  0.41223  0.71979  0.80511  1.0000
  C   C1415     1.0  0.21688  0.82612  0.88489  1.0000
  H   H1683     1.0  0.35134  0.71836  0.95720  1.0000
  H   H1684     1.0  0.17729  0.85020  0.95860  1.0000
  C   C1416     1.0  0.20018  0.88808  0.86119  1.0000
  C   C1417     1.0  0.22196  0.83381  0.89436  1.0000
  H   H1685     1.0  0.43395  0.67111  0.88154  1.0000
  H   H1686     1.0  0.19413  0.89820  0.88869  1.0000
  C   C1418     1.0  0.42264  0.72478  0.79706  1.0000
  H   H1687     1.0  0.45252  0.66412  0.73782  1.0000
  N   N93       1.0  0.01318  0.93762  0.77465  1.0000
  H   H1688     1.0  0.28702  0.72018  0.97773  1.0000
  C   C1419     1.0  0.24171  0.89055  0.96289  1.0000
  H   H1689     1.0  0.19799  0.90175  0.85949  1.0000
  C   C1420     1.0  0.15239  0.83530  0.96506  1.0000
  H   H1690     1.0  0.22975  0.88018  0.88328  1.0000
  H   H1691     1.0  0.04972  0.97272  0.74346  1.0000
  C   C1421     1.0  0.47109  0.73710  0.85103  1.0000
  Fe  Fe188     1.0  0.28233  0.82064  0.95849  1.0000
  C   C1422     1.0  0.12911  0.90273  0.97927  1.0000
  C   C1423     1.0  0.10284  0.97651  0.79237  1.0000
  H   H1692     1.0  0.25391  0.89419  0.95819  1.0000
  H   H1693     1.0  0.23986  0.88528  0.95330  1.0000
  H   H1694     1.0  0.06496  0.94966  0.79042  1.0000
  C   C1424     1.0  0.15491  0.85533  0.93909  1.0000
  H   H1695     1.0  0.25352  0.85803  0.96761  1.0000
  H   H1696     1.0  0.18509  0.88058  0.89330  1.0000
  H   H1697     1.0  0.47160  0.70886  0.87408  1.0000
  H   H1698     1.0  0.08277  0.92563  0.76276  1.0000
  H   H1699     1.0  0.21901  0.81278  0.88745  1.0000
  H   H1700     1.0  0.19985  0.85942  0.85891  1.0000
  H   H1701     1.0  0.48426  0.65849  0.88711  1.0000
  C   C1425     1.0  0.17319  0.84895  0.91320  1.0000
  C   C1426     1.0  0.02886  0.95755  0.77760  1.0000
  C   C1427     1.0  0.21357  0.81649  0.97591  1.0000
  S   S373      1.0  0.33074  0.77276  0.96956  1.0000
  C   C1428     1.0  0.49056  0.68484  0.91285  1.0000
  H   H1702     1.0  0.28029  0.72578  0.95859  1.0000
  H   H1703     1.0  0.44905  0.68183  0.86681  1.0000
  H   H1704     1.0  0.44959  0.66378  0.90996  1.0000
  C   C1429     1.0  0.15382  0.89070  0.74437  1.0000
  N   N94       1.0  0.24093  0.87886  0.97914  1.0000
  H   H1705     1.0  0.49019  0.88921  0.79525  1.0000
  H   H1706     1.0  0.27641  0.76381  0.95400  1.0000
  Fe  Fe189     1.0  0.30528  0.78929  0.97148  1.0000
  H   H1707     1.0  0.47846  0.70037  0.79018  1.0000
  S   S374      1.0  0.30125  0.81546  0.97384  1.0000
  H   H1708     1.0  0.09337  0.94687  0.76199  1.0000
  S   S375      1.0  0.26136  0.81675  0.98012  1.0000
  N   N95       1.0  0.45914  0.66122  0.88465  1.0000
  H   H1709     1.0  0.27018  0.73757  0.97410  1.0000
  H   H1710     1.0  0.15312  0.88646  0.97710  1.0000
  C   C1430     1.0  0.48804  0.70300  0.76395  1.0000
  N   N96       1.0  0.09333  0.93333  0.73674  1.0000
  C   C1431     1.0  0.25420  0.86387  0.97736  1.0000
  H   H1711     1.0  0.13940  0.94466  0.74533  1.0000
  C   C1432     1.0  0.28790  0.75562  0.94851  1.0000
  H   H1712     1.0  0.16915  0.90835  0.73840  1.0000
  C   C1433     1.0  0.45382  0.65414  0.90247  1.0000
  Fe  Fe190     1.0  0.26859  0.79051  0.97737  1.0000
  H   H1713     1.0  0.17358  0.92425  0.97739  1.0000
  S   S376      1.0  0.44819  0.65819  0.78314  1.0000
  H   H1714     1.0  0.15701  0.95993  0.97928  1.0000
  H   H1715     1.0  0.19087  0.94352  0.74012  1.0000
  C   C1434     1.0  0.46313  0.65485  0.74211  1.0000
  H   H1716     1.0  0.20318  0.91023  0.97941  1.0000
  H   H1717     1.0  0.00044  0.93301  0.80008  1.0000
  H   H1718     1.0  0.11076  0.90992  0.73950  1.0000
  H   H1719     1.0  0.16241  0.85756  0.97518  1.0000
  H   H1720     1.0  0.49157  0.89614  0.75017  1.0000
  C   C1435     1.0  0.49160  0.72047  0.78045  1.0000
  S   S377      1.0  0.49235  0.76128  0.80826  1.0000
  C   C1436     1.0  0.20457  0.92180  0.98089  1.0000
  H   H1721     1.0  0.13353  0.86041  0.97821  1.0000
  H   H1722     1.0  0.15490  0.91765  0.98000  1.0000
  H   H1723     1.0  0.14957  0.83320  0.97879  1.0000
  C   C1437     1.0  0.13144  0.98417  0.74095  1.0000
  H   H1724     1.0  0.06428  0.98221  0.82974  1.0000
  C   C1438     1.0  0.09372  0.98362  0.73532  1.0000
  H   H1725     1.0  0.99517  0.95975  0.77930  1.0000
  S   S378      1.0  0.02006  0.90278  0.73307  1.0000
  Fe  Fe191     1.0  0.53590  0.22291  0.06867  1.0000
  S   S379      1.0  0.54365  0.23927  0.04426  1.0000
  S   S380      1.0  0.53568  0.22723  0.09327  1.0000
  Fe  Fe192     1.0  0.52889  0.19892  0.05311  1.0000
  S   S381      1.0  0.53606  0.21318  0.02723  1.0000
  S   S382      1.0  0.52113  0.17489  0.05847  1.0000
  Fe  Fe193     1.0  0.55742  0.21586  0.03592  1.0000
  S   S383      1.0  0.58343  0.21543  0.02068  1.0000
  Fe  Fe194     1.0  0.52164  0.23520  0.03797  1.0000
  C   C1439     1.0  0.50208  0.17316  0.10706  1.0000
  S   S384      1.0  0.55142  0.19970  0.06098  1.0000
  S   S385      1.0  0.51272  0.22072  0.06313  1.0000
  H   H1726     1.0  0.61629  0.20461  0.00220  1.0000
  H   H1727     1.0  0.82807  0.07966  0.21058  1.0000
  S   S386      1.0  0.51523  0.30254  0.09619  1.0000
  H   H1728     1.0  0.88050  0.00679  0.21030  1.0000
  S   S387      1.0  0.88380  0.04623  0.22893  1.0000
  H   H1729     1.0  0.85763  0.05179  0.06552  1.0000
  N   N97       1.0  0.80180  0.06458  0.22573  1.0000
  C   C1440     1.0  0.61544  0.16396  0.01754  1.0000
  C   C1441     1.0  0.51172  0.14501  0.10347  1.0000
  Fe  Fe195     1.0  0.76019  0.03673  0.01263  1.0000
  S   S388      1.0  0.74224  0.06049  0.01509  1.0000
  H   H1730     1.0  0.88705  0.02651  0.13947  1.0000
  Fe  Fe196     1.0  0.76908  0.03347  0.04624  1.0000
  S   S389      1.0  0.75122  0.05701  0.05066  1.0000
  S   S390      1.0  0.78685  0.02031  0.06343  1.0000
  Fe  Fe197     1.0  0.73422  0.04786  0.04126  1.0000
  S   S391      1.0  0.70700  0.04991  0.05151  1.0000
  Fe  Fe198     1.0  0.76118  0.06705  0.02404  1.0000
  S   S392      1.0  0.76604  0.09274  0.01565  1.0000
  S   S393      1.0  0.75123  0.02337  0.03863  1.0000
  S   S394      1.0  0.78003  0.04405  0.01990  1.0000
  H   H1731     1.0  0.77235  0.12120  0.99011  1.0000
  S   S395      1.0  0.91779  0.06116  0.21775  1.0000
  S   S396      1.0  0.87958  0.08746  0.19746  1.0000
  H   H1732     1.0  0.81674  0.04040  0.22404  1.0000
  S   S397      1.0  0.92386  0.01537  0.21571  1.0000
  H   H1733     1.0  0.87026  0.02297  0.19587  1.0000
  Fe  Fe199     1.0  0.80610  0.04554  0.13596  1.0000
  S   S398      1.0  0.82602  0.05991  0.13026  1.0000
  S   S399      1.0  0.78487  0.05209  0.12282  1.0000
  Fe  Fe200     1.0  0.81998  0.02061  0.16398  1.0000
  S   S400      1.0  0.84159  0.03209  0.16021  1.0000
  S   S401      1.0  0.81730  0.99734  0.18318  1.0000
  Fe  Fe201     1.0  0.82302  0.05592  0.15777  1.0000
  S   S402      1.0  0.82233  0.07518  0.17144  1.0000
  Fe  Fe202     1.0  0.84295  0.03494  0.13330  1.0000
  S   S403      1.0  0.86682  0.02913  0.11533  1.0000
  S   S404      1.0  0.80108  0.04431  0.16325  1.0000
  S   S405      1.0  0.82339  0.02085  0.13721  1.0000
  H   H1734     1.0  0.51345  0.13189  0.10861  1.0000
  C   C1442     1.0  0.80667  0.00009  0.20306  1.0000
  C   C1443     1.0  0.79746  0.01559  0.20568  1.0000
  H   H1735     1.0  0.72888  0.04008  0.99720  1.0000
  C   C1444     1.0  0.79354  0.08135  0.99356  1.0000
  H   H1736     1.0  0.79587  0.02578  0.19537  1.0000
  H   H1737     1.0  0.83191  0.00848  0.20601  1.0000
  H   H1738     1.0  0.93032  0.99299  0.19422  1.0000
  C   C1445     1.0  0.87600  0.00833  0.12156  1.0000
  C   C1446     1.0  0.84815  0.01236  0.22584  1.0000
  H   H1739     1.0  0.89560  0.00802  0.09983  1.0000
  H   H1740     1.0  0.85804  0.00467  0.14441  1.0000
  C   C1447     1.0  0.86443  0.08292  0.18991  1.0000
  C   C1448     1.0  0.86261  0.06678  0.19165  1.0000
  C   C1449     1.0  0.85055  0.06401  0.18489  1.0000
  C   C1450     1.0  0.83984  0.07742  0.17703  1.0000
  C   C1451     1.0  0.84168  0.09342  0.17550  1.0000
  C   C1452     1.0  0.85409  0.09612  0.18155  1.0000
  H   H1741     1.0  0.87054  0.05649  0.19802  1.0000
  H   H1742     1.0  0.84918  0.05162  0.18623  1.0000
  H   H1743     1.0  0.83338  0.10387  0.16966  1.0000
  H   H1744     1.0  0.85539  0.10860  0.18010  1.0000
  H   H1745     1.0  0.54221  0.19842  0.12029  1.0000
  H   H1746     1.0  0.55817  0.28134  0.07930  1.0000
  H   H1747     1.0  0.63381  0.17657  0.00060  1.0000
  C   C1453     1.0  0.78598  0.02861  0.08043  1.0000
  C   C1454     1.0  0.77180  0.03949  0.08676  1.0000
  C   C1455     1.0  0.77163  0.04644  0.09982  1.0000
  C   C1456     1.0  0.78555  0.04246  0.10685  1.0000
  C   C1457     1.0  0.79966  0.03133  0.10075  1.0000
  C   C1458     1.0  0.79986  0.02445  0.08759  1.0000
  H   H1748     1.0  0.76088  0.04248  0.08169  1.0000
  H   H1749     1.0  0.76063  0.05495  0.10451  1.0000
  H   H1750     1.0  0.81051  0.02822  0.10597  1.0000
  H   H1751     1.0  0.81089  0.01602  0.08282  1.0000
  C   C1459     1.0  0.84422  0.01117  0.19973  1.0000
  C   C1460     1.0  0.68133  0.07098  0.00816  1.0000
  C   C1461     1.0  0.69320  0.07839  0.00981  1.0000
  C   C1462     1.0  0.70113  0.07182  0.02308  1.0000
  C   C1463     1.0  0.69729  0.05779  0.03470  1.0000
  C   C1464     1.0  0.68536  0.05040  0.03308  1.0000
  C   C1465     1.0  0.67750  0.05689  0.01968  1.0000
  H   H1752     1.0  0.50612  0.21911  0.12731  1.0000
  H   H1753     1.0  0.70993  0.07791  0.02451  1.0000
  H   H1754     1.0  0.68236  0.03956  0.04206  1.0000
  H   H1755     1.0  0.66827  0.05118  0.01843  1.0000
  H   H1756     1.0  0.49569  0.10527  0.14268  1.0000
  C   C1466     1.0  0.59962  0.16583  0.02782  1.0000
  C   C1467     1.0  0.58976  0.18158  0.02880  1.0000
  C   C1468     1.0  0.59574  0.19560  0.01960  1.0000
  C   C1469     1.0  0.61163  0.19378  0.00935  1.0000
  C   C1470     1.0  0.62148  0.17796  0.00829  1.0000
  H   H1757     1.0  0.56078  0.27742  0.03014  1.0000
  H   H1758     1.0  0.57750  0.18283  0.03662  1.0000
  S   S406      1.0  0.49705  0.14924  0.13492  1.0000
  H   H1759     1.0  0.73444  0.08999  0.99113  1.0000
  C   C1471     1.0  0.52978  0.24819  0.09401  1.0000
  C   C1472     1.0  0.52658  0.26026  0.08002  1.0000
  C   C1473     1.0  0.52236  0.27699  0.08064  1.0000
  C   C1474     1.0  0.52080  0.28166  0.09540  1.0000
  C   C1475     1.0  0.52345  0.26958  0.10954  1.0000
  C   C1476     1.0  0.52815  0.25287  0.10879  1.0000
  H   H1760     1.0  0.52747  0.25680  0.06867  1.0000
  H   H1761     1.0  0.52025  0.28633  0.06971  1.0000
  C   C1477     1.0  0.50846  0.20583  0.12702  1.0000
  N   N98       1.0  0.51949  0.19550  0.13823  1.0000
  C   C1478     1.0  0.51487  0.16771  0.07977  1.0000
  H   H1762     1.0  0.53047  0.17646  0.12403  1.0000
  H   H1763     1.0  0.50629  0.19193  0.08524  1.0000
  H   H1764     1.0  0.53003  0.16966  0.14584  1.0000
  H   H1765     1.0  0.52231  0.14209  0.07840  1.0000
  S   S407      1.0  0.50554  0.25710  0.02477  1.0000
  H   H1766     1.0  0.77074  0.99967  0.19637  1.0000
  C   C1479     1.0  0.89027  0.00091  0.11154  1.0000
  H   H1767     1.0  0.54380  0.19449  0.14146  1.0000
  C   C1480     1.0  0.90243  0.99401  0.23058  1.0000
  H   H1768     1.0  0.84871  0.00522  0.18889  1.0000
  H   H1769     1.0  0.78321  0.02993  0.22371  1.0000
  Fe  Fe203     1.0  0.50089  0.30436  0.12177  1.0000
  H   H1770     1.0  0.53372  0.21446  0.13114  1.0000
  H   H1771     1.0  0.50299  0.21991  0.01368  1.0000
  C   C1481     1.0  0.52309  0.17810  0.13650  1.0000
  H   H1772     1.0  0.49851  0.23924  0.09224  1.0000
  H   H1773     1.0  0.49622  0.20239  0.13055  1.0000
  Fe  Fe204     1.0  0.91070  0.03649  0.22903  1.0000
  C   C1482     1.0  0.53551  0.20091  0.13268  1.0000
  H   H1774     1.0  0.59391  0.16989  0.99011  1.0000
  C   C1483     1.0  0.50420  0.15624  0.11376  1.0000
  H   H1775     1.0  0.49743  0.19984  0.03945  1.0000
  C   C1484     1.0  0.49794  0.18892  0.16413  1.0000
  H   H1776     1.0  0.59490  0.15503  0.03500  1.0000
  C   C1485     1.0  0.51483  0.20762  0.16336  1.0000
  C   C1486     1.0  0.51672  0.15076  0.08641  1.0000
  Fe  Fe205     1.0  0.89043  0.07076  0.21893  1.0000
  S   S408      1.0  0.67142  0.11989  0.00464  1.0000
  H   H1777     1.0  0.86247  0.03153  0.21950  1.0000
  H   H1778     1.0  0.69626  0.08923  0.00089  1.0000
  H   H1779     1.0  0.84221  0.02477  0.19527  1.0000
  H   H1780     1.0  0.78817  0.08973  0.22097  1.0000
  Fe  Fe206     1.0  0.68691  0.13461  0.98373  1.0000
  C   C1487     1.0  0.81140  0.05198  0.21599  1.0000
  H   H1781     1.0  0.78662  0.99915  0.11562  1.0000
  C   C1488     1.0  0.91479  0.99874  0.21708  1.0000
  H   H1782     1.0  0.57590  0.22254  0.05234  1.0000
  H   H1783     1.0  0.82178  0.05630  0.20641  1.0000
  N   N99       1.0  0.85575  0.00513  0.21108  1.0000
  H   H1784     1.0  0.57833  0.24988  0.03478  1.0000
  H   H1785     1.0  0.52386  0.21514  0.15739  1.0000
  C   C1489     1.0  0.58030  0.22047  0.06386  1.0000
  C   C1490     1.0  0.83697  0.08046  0.23095  1.0000
  C   C1491     1.0  0.86913  0.99910  0.13668  1.0000
  C   C1492     1.0  0.85289  0.02594  0.22821  1.0000
  S   S409      1.0  0.62727  0.14390  0.01688  1.0000
  H   H1786     1.0  0.80359  0.04889  0.20933  1.0000
  C   C1493     1.0  0.73221  0.03772  0.98488  1.0000
  H   H1787     1.0  0.58759  0.20754  0.06598  1.0000
  C   C1494     1.0  0.79448  0.07947  0.21442  1.0000
  Fe  Fe207     1.0  0.64964  0.13842  0.99670  1.0000
  H   H1788     1.0  0.81059  0.98898  0.15563  1.0000
  H   H1789     1.0  0.87802  0.00284  0.19186  1.0000
  H   H1790     1.0  0.61356  0.21875  0.05108  1.0000
  C   C1495     1.0  0.78151  0.09504  0.99762  1.0000
  H   H1791     1.0  0.52215  0.27313  0.12102  1.0000
  C   C1496     1.0  0.57739  0.19276  0.99187  1.0000
  C   C1497     1.0  0.87181  0.00966  0.20194  1.0000
  C   C1498     1.0  0.79604  0.99135  0.12226  1.0000
  N   N100      1.0  0.91544  0.04476  0.16845  1.0000
  C   C1499     1.0  0.90782  0.04738  0.18539  1.0000
  C   C1500     1.0  0.92667  0.02818  0.16994  1.0000
  C   C1501     1.0  0.92575  0.05713  0.15983  1.0000
  C   C1502     1.0  0.90228  0.04676  0.15950  1.0000
  C   C1503     1.0  0.89067  0.06199  0.15699  1.0000
  C   C1504     1.0  0.90058  0.03392  0.15302  1.0000
  C   C1505     1.0  0.87820  0.06427  0.14848  1.0000
  C   C1506     1.0  0.88808  0.03637  0.14449  1.0000
  C   C1507     1.0  0.87695  0.05150  0.14218  1.0000
  H   H1792     1.0  0.89976  0.03851  0.19234  1.0000
  H   H1793     1.0  0.91741  0.04565  0.19253  1.0000
  H   H1794     1.0  0.90031  0.06005  0.18554  1.0000
  H   H1795     1.0  0.91970  0.01836  0.17682  1.0000
  H   H1796     1.0  0.93616  0.02697  0.17709  1.0000
  H   H1797     1.0  0.93346  0.02554  0.15765  1.0000
  H   H1798     1.0  0.91858  0.06998  0.15990  1.0000
  H   H1799     1.0  0.93621  0.05551  0.16588  1.0000
  H   H1800     1.0  0.93105  0.05618  0.14673  1.0000
  H   H1801     1.0  0.89104  0.07228  0.16172  1.0000
  H   H1802     1.0  0.90878  0.02190  0.15423  1.0000
  H   H1803     1.0  0.86936  0.07597  0.14687  1.0000
  C   C1508     1.0  0.79037  0.01796  0.22176  1.0000
  C   C1509     1.0  0.51111  0.19705  0.15537  1.0000
  N   N101      1.0  0.66554  0.10294  0.05543  1.0000
  C   C1510     1.0  0.66411  0.08921  0.04896  1.0000
  C   C1511     1.0  0.66259  0.09804  0.07370  1.0000
  C   C1512     1.0  0.65209  0.11732  0.05112  1.0000
  C   C1513     1.0  0.68240  0.10629  0.04869  1.0000
  C   C1514     1.0  0.68545  0.12152  0.03822  1.0000
  C   C1515     1.0  0.69648  0.09395  0.05232  1.0000
  C   C1516     1.0  0.70161  0.12397  0.03163  1.0000
  C   C1517     1.0  0.71256  0.09654  0.04566  1.0000
  C   C1518     1.0  0.71513  0.11146  0.03521  1.0000
  H   H1804     1.0  0.67260  0.07743  0.05319  1.0000
  H   H1805     1.0  0.65138  0.08678  0.05297  1.0000
  H   H1806     1.0  0.66722  0.09196  0.03522  1.0000
  H   H1807     1.0  0.67096  0.08620  0.07803  1.0000
  H   H1808     1.0  0.64975  0.09616  0.07925  1.0000
  H   H1809     1.0  0.66458  0.10761  0.07898  1.0000
  H   H1810     1.0  0.65238  0.12812  0.05567  1.0000
  H   H1811     1.0  0.65286  0.12109  0.03757  1.0000
  H   H1812     1.0  0.63959  0.11449  0.05653  1.0000
  H   H1813     1.0  0.67563  0.13162  0.03455  1.0000
  H   H1814     1.0  0.69523  0.08194  0.05992  1.0000
  H   H1815     1.0  0.70370  0.13551  0.02333  1.0000
  H   H1816     1.0  0.72309  0.08673  0.04828  1.0000
  H   H1817     1.0  0.72765  0.11325  0.02968  1.0000
  N   N102      1.0  0.59019  0.23252  0.06267  1.0000
  C   C1519     1.0  0.60472  0.23081  0.04868  1.0000
  C   C1520     1.0  0.59660  0.22808  0.07804  1.0000
  H   H1818     1.0  0.55071  0.29336  0.05221  1.0000
  C   C1521     1.0  0.57966  0.24937  0.05992  1.0000
  C   C1522     1.0  0.57475  0.25656  0.04461  1.0000
  C   C1523     1.0  0.57329  0.25873  0.07244  1.0000
  C   C1524     1.0  0.56456  0.27230  0.04185  1.0000
  C   C1525     1.0  0.56316  0.27449  0.06951  1.0000
  C   C1526     1.0  0.55885  0.28128  0.05425  1.0000
  H   H1819     1.0  0.61155  0.24081  0.04618  1.0000
  H   H1820     1.0  0.77936  0.05546  0.23138  1.0000
  H   H1821     1.0  0.60348  0.23724  0.07823  1.0000
  H   H1822     1.0  0.60523  0.21577  0.07933  1.0000
  H   H1823     1.0  0.58642  0.22717  0.08925  1.0000
  H   H1824     1.0  0.79400  0.06954  0.00189  1.0000
  H   H1825     1.0  0.56911  0.22144  0.07406  1.0000
  S   S410      1.0  0.51173  0.29724  0.14425  1.0000
  H   H1826     1.0  0.57566  0.25411  0.08471  1.0000
  C   C1527     1.0  0.50775  0.17887  0.09018  1.0000
  H   H1827     1.0  0.50884  0.21806  0.18488  1.0000
  H   H1828     1.0  0.80390  0.08406  0.20367  1.0000
  H   H1829     1.0  0.84217  0.05596  0.09324  1.0000
  N   N103      1.0  0.80954  0.06582  0.04462  1.0000
  C   C1528     1.0  0.79119  0.07008  0.04980  1.0000
  C   C1529     1.0  0.81460  0.07927  0.03080  1.0000
  C   C1530     1.0  0.81397  0.05033  0.03851  1.0000
  C   C1531     1.0  0.81823  0.06360  0.05803  1.0000
  C   C1532     1.0  0.80978  0.06619  0.07407  1.0000
  C   C1533     1.0  0.83578  0.05864  0.05521  1.0000
  C   C1534     1.0  0.81842  0.06363  0.08649  1.0000
  C   C1535     1.0  0.84426  0.05592  0.06780  1.0000
  C   C1536     1.0  0.83558  0.05832  0.08344  1.0000
  H   H1830     1.0  0.78677  0.08206  0.05378  1.0000
  H   H1831     1.0  0.78505  0.07133  0.03955  1.0000
  H   H1832     1.0  0.78649  0.06031  0.05997  1.0000
  H   H1833     1.0  0.81195  0.09099  0.03507  1.0000
  H   H1834     1.0  0.80781  0.08170  0.02074  1.0000
  H   H1835     1.0  0.82803  0.07638  0.02512  1.0000
  H   H1836     1.0  0.82727  0.04711  0.03257  1.0000
  H   H1837     1.0  0.81120  0.03974  0.04880  1.0000
  H   H1838     1.0  0.80694  0.05116  0.02911  1.0000
  H   H1839     1.0  0.79645  0.06983  0.07753  1.0000
  H   H1840     1.0  0.84307  0.05664  0.04329  1.0000
  H   H1841     1.0  0.81167  0.06543  0.09870  1.0000
  H   H1842     1.0  0.53042  0.24366  0.11973  1.0000
  H   H1843     1.0  0.60118  0.23111  0.03708  1.0000
  C   C1537     1.0  0.50627  0.20941  0.17930  1.0000
  H   H1844     1.0  0.78531  0.07695  0.20894  1.0000
  S   S411      1.0  0.49481  0.25628  0.16826  1.0000
  S   S412      1.0  0.67044  0.08012  0.99239  1.0000
  H   H1845     1.0  0.78949  0.00583  0.14067  1.0000
  H   H1846     1.0  0.56981  0.18750  0.00336  1.0000
  H   H1847     1.0  0.86735  0.05333  0.13547  1.0000
  H   H1848     1.0  0.51395  0.20466  0.11400  1.0000
  S   S413      1.0  0.76511  0.02899  0.98816  1.0000
  H   H1849     1.0  0.84697  0.08630  0.22319  1.0000
  H   H1850     1.0  0.56300  0.21741  0.99194  1.0000
  C   C1538     1.0  0.78155  0.11052  0.98694  1.0000
  H   H1851     1.0  0.49631  0.18188  0.11491  1.0000
  C   C1539     1.0  0.82607  0.07659  0.22386  1.0000
  C   C1540     1.0  0.80846  0.98689  0.21659  1.0000
  H   H1852     1.0  0.51172  0.17369  0.13789  1.0000
  C   C1541     1.0  0.59138  0.18275  0.98405  1.0000
  H   H1853     1.0  0.75069  0.10045  0.98691  1.0000
  S   S414      1.0  0.71032  0.13767  0.98829  1.0000
  H   H1854     1.0  0.75884  0.99339  0.22565  1.0000
  C   C1542     1.0  0.57352  0.20965  0.98545  1.0000
  C   C1543     1.0  0.92039  0.98980  0.20444  1.0000
  C   C1544     1.0  0.79765  0.99504  0.13643  1.0000
  Fe  Fe208     1.0  0.67049  0.10696  0.98586  1.0000
  C   C1545     1.0  0.77399  0.98723  0.20346  1.0000
  C   C1546     1.0  0.80149  0.98933  0.23269  1.0000
  C   C1547     1.0  0.85862  0.98682  0.21576  1.0000
  H   H1855     1.0  0.65246  0.05861  0.98310  1.0000
  Fe  Fe209     1.0  0.88152  0.05143  0.25360  1.0000
  S   S415      1.0  0.90793  0.03945  0.25492  1.0000
  S   S416      1.0  0.85927  0.04804  0.27398  1.0000
  Fe  Fe210     1.0  0.78510  0.30227  0.43975  1.0000
  S   S417      1.0  0.92900  0.07264  0.25663  1.0000
  Fe  Fe211     1.0  0.91268  0.06521  0.24372  1.0000
  S   S418      1.0  0.78518  0.00879  0.25529  1.0000
  H   H1856     1.0  0.87523  0.98987  0.27093  1.0000
  H   H1857     1.0  0.83343  0.03315  0.29653  1.0000
  H   H1858     1.0  0.82032  0.31267  0.40796  1.0000
  H   H1859     1.0  0.93598  0.15872  0.39360  1.0000
  H   H1860     1.0  0.83446  0.30043  0.42116  1.0000
  S   S419      1.0  0.79607  0.27707  0.45285  1.0000
  Fe  Fe212     1.0  0.92086  0.22604  0.37828  1.0000
  S   S420      1.0  0.90166  0.23280  0.36316  1.0000
  S   S421      1.0  0.94628  0.21536  0.36535  1.0000
  Fe  Fe213     1.0  0.89632  0.23782  0.40744  1.0000
  S   S422      1.0  0.87503  0.24516  0.39488  1.0000
  S   S423      1.0  0.89448  0.24164  0.43267  1.0000
  Fe  Fe214     1.0  0.88595  0.22143  0.38630  1.0000
  S   S424      1.0  0.87021  0.20505  0.38538  1.0000
  Fe  Fe215     1.0  0.89279  0.25584  0.37288  1.0000
  S   S425      1.0  0.88412  0.27995  0.35623  1.0000
  S   S426      1.0  0.90579  0.21286  0.40093  1.0000
  S   S427      1.0  0.91348  0.25022  0.38603  1.0000
  Fe  Fe216     1.0  0.94927  0.14785  0.28640  1.0000
  S   S428      1.0  0.94671  0.13684  0.31357  1.0000
  S   S429      1.0  0.94355  0.13844  0.26637  1.0000
  Fe  Fe217     1.0  0.95262  0.18112  0.29149  1.0000
  S   S430      1.0  0.94917  0.17274  0.31889  1.0000
  S   S431      1.0  0.95553  0.20714  0.27867  1.0000
  Fe  Fe218     1.0  0.96674  0.14962  0.31283  1.0000
  Fe  Fe219     1.0  0.92959  0.16094  0.31727  1.0000
  S   S432      1.0  0.90417  0.16009  0.33308  1.0000
  S   S433      1.0  0.76089  0.30426  0.45803  1.0000
  S   S434      1.0  0.93120  0.17157  0.29036  1.0000
  H   H1861     1.0  0.88438  0.30668  0.32804  1.0000
  C   C1548     1.0  0.98563  0.23489  0.29391  1.0000
  H   H1862     1.0  0.88672  0.15170  0.28015  1.0000
  C   C1549     1.0  0.82347  0.25538  0.39947  1.0000
  H   H1863     1.0  0.92572  0.13297  0.24514  1.0000
  C   C1550     1.0  0.94299  0.27821  0.38405  1.0000
  C   C1551     1.0  0.90002  0.28986  0.34394  1.0000
  C   C1552     1.0  0.91600  0.28480  0.34706  1.0000
  C   C1553     1.0  0.92872  0.29235  0.33660  1.0000
  C   C1554     1.0  0.92557  0.30480  0.32284  1.0000
  C   C1555     1.0  0.84868  0.21868  0.43029  1.0000
  C   C1556     1.0  0.89673  0.30270  0.33050  1.0000
  H   H1864     1.0  0.91863  0.27504  0.35746  1.0000
  H   H1865     1.0  0.94092  0.28860  0.33928  1.0000
  Fe  Fe220     1.0  0.99333  0.26805  0.30454  1.0000
  C   C1557     1.0  0.73279  0.29090  0.44032  1.0000
  C   C1558     1.0  0.88031  0.19230  0.37117  1.0000
  C   C1559     1.0  0.87139  0.18283  0.36760  1.0000
  C   C1560     1.0  0.87897  0.17290  0.35602  1.0000
  C   C1561     1.0  0.89552  0.17240  0.34784  1.0000
  C   C1562     1.0  0.90459  0.18172  0.35148  1.0000
  C   C1563     1.0  0.89701  0.19159  0.36323  1.0000
  H   H1866     1.0  0.85854  0.18325  0.37374  1.0000
  H   H1867     1.0  0.87192  0.16568  0.35330  1.0000
  H   H1868     1.0  0.91732  0.18152  0.34511  1.0000
  H   H1869     1.0  0.90407  0.19866  0.36609  1.0000
  S   S435      1.0  0.98230  0.30743  0.32270  1.0000
  S   S436      1.0  0.83072  0.28337  0.47173  1.0000
  C   C1564     1.0  0.97729  0.20070  0.37032  1.0000
  C   C1565     1.0  0.96088  0.20656  0.37778  1.0000
  C   C1566     1.0  0.95638  0.20496  0.39492  1.0000
  C   C1567     1.0  0.96854  0.19808  0.40446  1.0000
  H   H1870     1.0  0.97208  0.19875  0.30641  1.0000
  C   C1568     1.0  0.84535  0.03259  0.24221  1.0000
  H   H1871     1.0  0.94363  0.20915  0.40078  1.0000
  H   H1872     1.0  0.87018  0.14250  0.30737  1.0000
  C   C1569     1.0  0.79276  0.00498  0.23530  1.0000
  C   C1570     1.0  0.87696  0.25817  0.45677  1.0000
  C   C1571     1.0  0.87642  0.25378  0.44250  1.0000
  C   C1572     1.0  0.86159  0.25879  0.43680  1.0000
  C   C1573     1.0  0.84738  0.26809  0.44549  1.0000
  C   C1574     1.0  0.83157  0.22017  0.43412  1.0000
  C   C1575     1.0  0.72138  0.30641  0.43890  1.0000
  H   H1873     1.0  0.86095  0.25520  0.42598  1.0000
  H   H1874     1.0  0.79243  0.04576  0.24569  1.0000
  C   C1576     1.0  0.82216  0.22366  0.44929  1.0000
  C   C1577     1.0  0.96680  0.21764  0.28517  1.0000
  H   H1875     1.0  0.96323  0.18172  0.35985  1.0000
  C   C1578     1.0  0.93245  0.09123  0.25936  1.0000
  S   S437      1.0  0.98650  0.29354  0.28926  1.0000
  C   C1579     1.0  0.93004  0.12105  0.25258  1.0000
  C   C1580     1.0  0.93917  0.11999  0.26434  1.0000
  C   C1581     1.0  0.94479  0.10441  0.27372  1.0000
  C   C1582     1.0  0.94163  0.09016  0.27108  1.0000
  C   C1583     1.0  0.94130  0.26557  0.39854  1.0000
  H   H1876     1.0  0.78031  0.06661  0.24567  1.0000
  H   H1877     1.0  0.95197  0.10327  0.28267  1.0000
  H   H1878     1.0  0.94636  0.07818  0.27817  1.0000
  C   C1584     1.0  0.85675  0.02765  0.27958  1.0000
  C   C1585     1.0  0.86851  0.01542  0.27235  1.0000
  H   H1879     1.0  0.86980  0.21961  0.43856  1.0000
  C   C1586     1.0  0.98319  0.21937  0.30342  1.0000
  C   C1587     1.0  0.83995  0.00758  0.29487  1.0000
  C   C1588     1.0  0.84253  0.02370  0.29092  1.0000
  H   H1880     1.0  0.87947  0.01844  0.26353  1.0000
  S   S438      1.0  0.80023  0.99229  0.29750  1.0000
  C   C1589     1.0  0.85648  0.22064  0.44163  1.0000
  S   S439      1.0  0.78665  0.31094  0.41257  1.0000
  C   C1590     1.0  0.98508  0.19265  0.39686  1.0000
  H   H1881     1.0  0.83891  0.31875  0.40697  1.0000
  C   C1591     1.0  0.85182  0.99531  0.28782  1.0000
  H   H1882     1.0  0.95508  0.14505  0.35257  1.0000
  C   C1592     1.0  0.90950  0.31013  0.31995  1.0000
  C   C1593     1.0  0.91451  0.29240  0.39192  1.0000
  H   H1883     1.0  0.82709  0.03125  0.26492  1.0000
  H   H1884     1.0  0.84389  0.07940  0.25347  1.0000
  C   C1594     1.0  0.84809  0.27246  0.45979  1.0000
  H   H1885     1.0  0.96838  0.25240  0.37593  1.0000
  H   H1886     1.0  0.87969  0.12739  0.32291  1.0000
  C   C1595     1.0  0.83605  0.25989  0.38626  1.0000
  C   C1596     1.0  0.97674  0.13568  0.37428  1.0000
  C   C1597     1.0  0.88179  0.13770  0.31208  1.0000
  H   H1887     1.0  0.90697  0.31982  0.30938  1.0000
  C   C1598     1.0  0.83273  0.02621  0.25398  1.0000
  C   C1599     1.0  0.82278  0.27872  0.41037  1.0000
  H   H1888     1.0  0.80688  0.26140  0.42164  1.0000
  C   C1600     1.0  0.83566  0.28364  0.39710  1.0000
  C   C1601     1.0  0.71293  0.27813  0.46236  1.0000
  H   H1889     1.0  0.94142  0.17857  0.38484  1.0000
  Fe  Fe221     1.0  0.96677  0.29813  0.31169  1.0000
  H   H1890     1.0  0.97228  0.23279  0.38901  1.0000
  H   H1891     1.0  0.74209  0.30904  0.40783  1.0000
  H   H1892     1.0  0.98901  0.21376  0.31388  1.0000
  C   C1602     1.0  0.82739  0.01330  0.25175  1.0000
  C   C1603     1.0  0.96709  0.15120  0.37742  1.0000
  C   C1604     1.0  0.82254  0.06901  0.25802  1.0000
  H   H1893     1.0  0.88831  0.25431  0.46130  1.0000
  H   H1894     1.0  0.95261  0.24061  0.38297  1.0000
  H   H1895     1.0  0.88594  0.08250  0.27876  1.0000
  H   H1896     1.0  0.80217  0.05897  0.25957  1.0000
  H   H1897     1.0  0.93123  0.30056  0.36940  1.0000
  S   S440      1.0  0.94160  0.31355  0.30894  1.0000
  Fe  Fe222     1.0  0.80545  0.29073  0.46584  1.0000
  C   C1605     1.0  0.99069  0.12783  0.38108  1.0000
  H   H1898     1.0  0.80899  0.22460  0.45143  1.0000
  C   C1606     1.0  0.89819  0.14614  0.28497  1.0000
  C   C1607     1.0  0.97260  0.15846  0.38734  1.0000
  H   H1899     1.0  0.81694  0.28557  0.41994  1.0000
  C   C1608     1.0  0.83362  0.30785  0.40852  1.0000
  C   C1609     1.0  0.92971  0.29129  0.38076  1.0000
  H   H1900     1.0  0.85196  0.27663  0.37467  1.0000
  H   H1901     1.0  0.89815  0.00062  0.24051  1.0000
  C   C1610     1.0  0.96845  0.25763  0.40487  1.0000
  H   H1902     1.0  0.96518  0.19703  0.41768  1.0000
  C   C1611     1.0  0.91260  0.28055  0.40655  1.0000
  H   H1903     1.0  0.82879  0.31281  0.37725  1.0000
  H   H1904     1.0  0.99089  0.17146  0.31587  1.0000
  H   H1905     1.0  0.70975  0.26737  0.47142  1.0000
  H   H1906     1.0  0.92329  0.25854  0.42139  1.0000
  H   H1907     1.0  0.86352  0.27077  0.47638  1.0000
  H   H1908     1.0  0.90422  0.30245  0.38921  1.0000
  C   C1612     1.0  0.92578  0.26737  0.40994  1.0000
  C   C1613     1.0  0.70578  0.30718  0.45012  1.0000
  H   H1909     1.0  0.81888  0.24458  0.40035  1.0000
  H   H1910     1.0  0.82160  0.06571  0.27128  1.0000
  C   C1614     1.0  0.86008  0.29249  0.39715  1.0000
  H   H1911     1.0  0.90925  0.07747  0.29222  1.0000
  S   S441      1.0  0.97227  0.27205  0.32598  1.0000
  H   H1912     1.0  0.83589  0.27165  0.44130  1.0000
  H   H1913     1.0  0.97932  0.24748  0.40724  1.0000
  C   C1615     1.0  0.95795  0.17342  0.35588  1.0000
  H   H1914     1.0  0.92726  0.17298  0.37705  1.0000
  H   H1915     1.0  0.96368  0.26344  0.41578  1.0000
  H   H1916     1.0  0.98078  0.20158  0.35711  1.0000
  H   H1917     1.0  0.86719  0.11002  0.27488  1.0000
  S   S442      1.0  0.88584  0.07710  0.24373  1.0000
  C   C1616     1.0  0.80209  0.23125  0.47983  1.0000
  H   H1918     1.0  0.74514  0.28912  0.43274  1.0000
  C   C1617     1.0  0.97376  0.21076  0.29909  1.0000
  H   H1919     1.0  0.93468  0.15612  0.35875  1.0000
  H   H1920     1.0  0.90812  0.14209  0.27462  1.0000
  H   H1921     1.0  0.96365  0.23868  0.26510  1.0000
  N   N104      1.0  0.95271  0.16020  0.36981  1.0000
  Fe  Fe223     1.0  0.77306  0.31610  0.47034  1.0000
  C   C1618     1.0  0.92650  0.10684  0.25026  1.0000
  C   C1619     1.0  0.83521  0.07668  0.24800  1.0000
  H   H1922     1.0  0.69668  0.31864  0.45020  1.0000
  H   H1923     1.0  0.86585  0.30302  0.39574  1.0000
  H   H1924     1.0  0.94317  0.13858  0.37307  1.0000
  H   H1925     1.0  0.95460  0.27806  0.37512  1.0000
  C   C1620     1.0  0.84204  0.27381  0.38503  1.0000
  H   H1926     1.0  0.97317  0.26708  0.39429  1.0000
  H   H1927     1.0  0.86777  0.28548  0.38764  1.0000
  H   H1928     1.0  0.90077  0.28133  0.41527  1.0000
  H   H1929     1.0  0.86124  0.28422  0.40935  1.0000
  C   C1621     1.0  0.94617  0.14946  0.36335  1.0000
  H   H1930     1.0  0.97406  0.12952  0.36625  1.0000
  C   C1622     1.0  0.86611  0.99923  0.27658  1.0000
  C   C1623     1.0  0.70164  0.29320  0.46160  1.0000
  C   C1624     1.0  0.72855  0.27703  0.45195  1.0000
  H   H1931     1.0  0.84998  0.30383  0.36896  1.0000
  H   H1932     1.0  0.81745  0.00851  0.26091  1.0000
  H   H1933     1.0  0.96147  0.22750  0.41719  1.0000
  H   H1934     1.0  0.68974  0.29407  0.47022  1.0000
  H   H1935     1.0  0.91947  0.10794  0.24118  1.0000
  H   H1936     1.0  0.85592  0.21594  0.41852  1.0000
  H   H1937     1.0  0.84138  0.25242  0.37701  1.0000
  C   C1625     1.0  0.93882  0.16786  0.38189  1.0000
  C   C1626     1.0  0.86291  0.26750  0.46531  1.0000
  C   C1627     1.0  0.96895  0.23330  0.27592  1.0000
  N   N105      1.0  0.95540  0.25155  0.40151  1.0000
  H   H1938     1.0  0.73752  0.26539  0.45313  1.0000
  H   H1939     1.0  0.75189  0.31358  0.42165  1.0000
  S   S443      1.0  0.79649  0.31571  0.45103  1.0000
  C   C1628     1.0  0.81682  0.26480  0.41147  1.0000
  H   H1940     1.0  0.82899  0.00456  0.30369  1.0000
  N   N106      1.0  0.92351  0.24533  0.31380  1.0000
  C   C1629     1.0  0.92949  0.24972  0.29567  1.0000
  C   C1630     1.0  0.91757  0.26093  0.31987  1.0000
  C   C1631     1.0  0.93767  0.23549  0.32147  1.0000
  C   C1632     1.0  0.91069  0.23551  0.31764  1.0000
  C   C1633     1.0  0.91471  0.22001  0.31308  1.0000
  C   C1634     1.0  0.89409  0.24081  0.32596  1.0000
  C   C1635     1.0  0.90301  0.21025  0.31701  1.0000
  C   C1636     1.0  0.88255  0.23081  0.33005  1.0000
  C   C1637     1.0  0.88702  0.21556  0.32564  1.0000
  H   H1941     1.0  0.93478  0.23866  0.29018  1.0000
  H   H1942     1.0  0.91921  0.25727  0.28951  1.0000
  H   H1943     1.0  0.93940  0.25687  0.29227  1.0000
  H   H1944     1.0  0.90731  0.26939  0.31420  1.0000
  H   H1945     1.0  0.92757  0.26790  0.31693  1.0000
  H   H1946     1.0  0.91324  0.25849  0.33353  1.0000
  H   H1947     1.0  0.93359  0.23171  0.33510  1.0000
  H   H1948     1.0  0.94370  0.22405  0.31680  1.0000
  H   H1949     1.0  0.94755  0.24249  0.31904  1.0000
  H   H1950     1.0  0.92700  0.21522  0.30652  1.0000
  H   H1951     1.0  0.88981  0.25240  0.32993  1.0000
  H   H1952     1.0  0.90646  0.19831  0.31368  1.0000
  H   H1953     1.0  0.87015  0.23476  0.33699  1.0000
  H   H1954     1.0  0.87815  0.20769  0.32914  1.0000
  N   N107      1.0  0.89621  0.13213  0.29931  1.0000
  N   N108      1.0  0.84252  0.29811  0.39567  1.0000
  S   S444      1.0  0.97114  0.15847  0.28518  1.0000
  C   C1638     1.0  0.91118  0.12779  0.30641  1.0000
  C   C1639     1.0  0.89344  0.11828  0.29405  1.0000
  C   C1640     1.0  0.88000  0.12066  0.28639  1.0000
  C   C1641     1.0  0.90377  0.10220  0.29629  1.0000
  C   C1642     1.0  0.87730  0.10788  0.28101  1.0000
  C   C1643     1.0  0.90088  0.08950  0.29096  1.0000
  C   C1644     1.0  0.88778  0.09234  0.28323  1.0000
  H   H1955     1.0  0.88371  0.14782  0.31669  1.0000
  C   C1645     1.0  0.96239  0.24407  0.38677  1.0000
  H   H1956     1.0  0.90170  0.15626  0.28812  1.0000
  H   H1957     1.0  0.94062  0.23342  0.41416  1.0000
  C   C1646     1.0  0.95081  0.23817  0.41575  1.0000
  H   H1958     1.0  0.91297  0.13852  0.31003  1.0000
  H   H1959     1.0  0.92261  0.12388  0.29731  1.0000
  H   H1960     1.0  0.94690  0.24234  0.42762  1.0000
  H   H1961     1.0  0.91030  0.11786  0.31776  1.0000
  H   H1962     1.0  0.87159  0.13251  0.28432  1.0000
  H   H1963     1.0  0.91447  0.09917  0.30170  1.0000
  H   H1964     1.0  0.94737  0.18131  0.35033  1.0000
  H   H1965     1.0  0.71133  0.31910  0.41039  1.0000
  H   H1966     1.0  0.82564  0.21847  0.42526  1.0000
  C   C1647     1.0  0.97825  0.24193  0.28030  1.0000
  H   H1967     1.0  0.96637  0.17048  0.38978  1.0000
  C   C1648     1.0  0.81150  0.06514  0.25105  1.0000
  C   C1649     1.0  0.84167  0.30939  0.37934  1.0000
  Fe  Fe224     1.0  0.79533  0.98817  0.27478  1.0000
  H   H1968     1.0  0.96776  0.16821  0.34609  1.0000
  C   C1650     1.0  0.74154  0.31819  0.41502  1.0000
  C   C1651     1.0  0.98922  0.19339  0.37989  1.0000
  H   H1969     1.0  0.98037  0.25371  0.27267  1.0000
  H   H1970     1.0  0.84945  0.04261  0.24415  1.0000
  Fe  Fe225     1.0  0.77287  0.28053  0.47253  1.0000
  H   H1971     1.0  0.99325  0.19767  0.26384  1.0000
  Fe  Fe226     1.0  0.98972  0.28102  0.33492  1.0000
  S   S445      1.0  0.98632  0.13741  0.32805  1.0000
  C   C1652     1.0  0.83485  0.00653  0.23783  1.0000
  H   H1972     1.0  0.99133  0.18314  0.28314  1.0000
  C   C1653     1.0  0.98666  0.15060  0.39392  1.0000
  C   C1654     1.0  0.84722  0.22410  0.45683  1.0000
  C   C1655     1.0  0.82975  0.22572  0.46117  1.0000
  H   H1973     1.0  0.79708  0.24173  0.47042  1.0000
  C   C1656     1.0  0.78791  0.05785  0.23770  1.0000
  H   H1974     1.0  0.82073  0.25467  0.46974  1.0000
  H   H1975     1.0  0.99076  0.15655  0.40124  1.0000
  H   H1976     1.0  0.85393  0.22559  0.46511  1.0000
  H   H1977     1.0  0.83004  0.99673  0.23654  1.0000
  S   S446      1.0  0.99096  0.27353  0.36153  1.0000
  H   H1978     1.0  0.79857  0.21993  0.47931  1.0000
  N   N109      1.0  0.82031  0.22895  0.47756  1.0000
  C   C1657     1.0  0.82346  0.24410  0.48003  1.0000
  H   H1979     1.0  0.83652  0.24285  0.48069  1.0000
  C   C1658     1.0  0.81296  0.06882  0.23365  1.0000
  Fe  Fe227     1.0  0.54772  0.05982  0.71373  1.0000
  S   S447      1.0  0.57438  0.05952  0.70132  1.0000
  C   C1659     1.0  0.74427  0.30706  0.51429  1.0000
  C   C1660     1.0  0.61322  0.01149  0.65542  1.0000
  H   H1980     1.0  0.60895  0.31869  0.54837  1.0000
  C   C1661     1.0  0.52330  0.18676  0.66550  1.0000
  Fe  Fe228     1.0  0.56946  0.04728  0.68394  1.0000
  S   S448      1.0  0.57959  0.05444  0.65670  1.0000
  S   S449      1.0  0.54245  0.04939  0.69494  1.0000
  Fe  Fe229     1.0  0.52411  0.24618  0.58541  1.0000
  S   S450      1.0  0.51837  0.26952  0.56676  1.0000
  Fe  Fe230     1.0  0.53928  0.22569  0.55999  1.0000
  S   S451      1.0  0.53522  0.24709  0.53871  1.0000
  S   S452      1.0  0.55169  0.19987  0.55718  1.0000
  Fe  Fe231     1.0  0.54396  0.26064  0.55263  1.0000
  S   S453      1.0  0.56149  0.27770  0.53888  1.0000
  H   H1981     1.0  0.63176  0.25440  0.56089  1.0000
  S   S454      1.0  0.54006  0.00277  0.71267  1.0000
  S   S455      1.0  0.55031  0.23847  0.57238  1.0000
  S   S456      1.0  0.51342  0.23168  0.57465  1.0000
  C   C1662     1.0  0.59177  0.23370  0.54553  1.0000
  H   H1982     1.0  0.61346  0.99862  0.66070  1.0000
  H   H1983     1.0  0.58189  0.22874  0.54357  1.0000
  H   H1984     1.0  0.52509  0.14974  0.69266  1.0000
  H   H1985     1.0  0.58752  0.01916  0.66630  1.0000
  C   C1663     1.0  0.72136  0.29617  0.53233  1.0000
  H   H1986     1.0  0.54365  0.21673  0.62460  1.0000
  H   H1987     1.0  0.51015  0.20954  0.63911  1.0000
  S   S457      1.0  0.61639  0.28664  0.57083  1.0000
  Fe  Fe232     1.0  0.66899  0.29330  0.52751  1.0000
  S   S458      1.0  0.68232  0.27603  0.51033  1.0000
  S   S459      1.0  0.66507  0.28437  0.55498  1.0000
  C   C1664     1.0  0.73001  0.25200  0.49987  1.0000
  H   H1988     1.0  0.50130  0.10612  0.65272  1.0000
  C   C1665     1.0  0.54055  0.98744  0.73085  1.0000
  C   C1666     1.0  0.71278  0.28476  0.49853  1.0000
  C   C1667     1.0  0.70412  0.27199  0.50508  1.0000
  C   C1668     1.0  0.71281  0.25564  0.50568  1.0000
  H   H1989     1.0  0.75977  0.30459  0.57953  1.0000
  Fe  Fe233     1.0  0.63845  0.29749  0.55527  1.0000
  C   C1669     1.0  0.55642  0.31933  0.55103  1.0000
  H   H1990     1.0  0.51703  0.19948  0.66541  1.0000
  C   C1670     1.0  0.61776  0.24378  0.53219  1.0000
  C   C1671     1.0  0.57697  0.27941  0.54793  1.0000
  C   C1672     1.0  0.58946  0.28758  0.53804  1.0000
  C   C1673     1.0  0.60180  0.28950  0.54481  1.0000
  C   C1674     1.0  0.60160  0.28357  0.56165  1.0000
  C   C1675     1.0  0.58923  0.27517  0.57152  1.0000
  C   C1676     1.0  0.57701  0.27297  0.56468  1.0000
  H   H1991     1.0  0.62041  0.22297  0.51229  1.0000
  H   H1992     1.0  0.58898  0.27048  0.58455  1.0000
  H   H1993     1.0  0.56740  0.26670  0.57246  1.0000
  C   C1677     1.0  0.54168  0.18524  0.57204  1.0000
  C   C1678     1.0  0.54483  0.16917  0.56966  1.0000
  C   C1679     1.0  0.53662  0.15750  0.58121  1.0000
  C   C1680     1.0  0.52512  0.16188  0.59513  1.0000
  C   C1681     1.0  0.52203  0.17787  0.59763  1.0000
  C   C1682     1.0  0.53050  0.18945  0.58622  1.0000
  H   H1994     1.0  0.55353  0.16579  0.55879  1.0000
  C   C1683     1.0  0.64323  0.25446  0.52002  1.0000
  H   H1995     1.0  0.52246  0.04567  0.66564  1.0000
  H   H1996     1.0  0.52867  0.20148  0.58863  1.0000
  C   C1684     1.0  0.51751  0.09370  0.70874  1.0000
  H   H1997     1.0  0.63419  0.00447  0.67991  1.0000
  C   C1685     1.0  0.59573  0.24902  0.51757  1.0000
  Fe  Fe234     1.0  0.57910  0.03444  0.71757  1.0000
  C   C1686     1.0  0.63146  0.25244  0.54906  1.0000
  C   C1687     1.0  0.51381  0.11086  0.70299  1.0000
  H   H1998     1.0  0.62844  0.00508  0.70147  1.0000
  H   H1999     1.0  0.55350  0.20277  0.64067  1.0000
  H   H2000     1.0  0.61781  0.03502  0.69217  1.0000
  H   H2001     1.0  0.52076  0.11839  0.70538  1.0000
  C   C1688     1.0  0.59779  0.03986  0.65156  1.0000
  C   C1689     1.0  0.61180  0.04487  0.64076  1.0000
  C   C1690     1.0  0.62668  0.03321  0.63773  1.0000
  C   C1691     1.0  0.62744  0.01652  0.64526  1.0000
  C   C1692     1.0  0.59850  0.02316  0.65868  1.0000
  H   H2002     1.0  0.61130  0.05779  0.63514  1.0000
  H   H2003     1.0  0.63764  0.03714  0.62975  1.0000
  H   H2004     1.0  0.52101  0.27726  0.59823  1.0000
  Fe  Fe235     1.0  0.50999  0.25408  0.55458  1.0000
  S   S460      1.0  0.78301  0.29237  0.48664  1.0000
  H   H2005     1.0  0.66196  0.03427  0.66922  1.0000
  C   C1693     1.0  0.54247  0.00489  0.67061  1.0000
  H   H2006     1.0  0.81569  0.24770  0.49166  1.0000
  C   C1694     1.0  0.75410  0.30525  0.56949  1.0000
  C   C1695     1.0  0.64576  0.03790  0.72318  1.0000
  C   C1696     1.0  0.56350  0.02237  0.64380  1.0000
  H   H2007     1.0  0.54277  0.14028  0.66773  1.0000
  C   C1697     1.0  0.54601  0.18713  0.62095  1.0000
  H   H2008     1.0  0.53518  0.00893  0.66080  1.0000
  H   H2009     1.0  0.54226  0.30210  0.56771  1.0000
  H   H2010     1.0  0.71502  0.29815  0.52211  1.0000
  H   H2011     1.0  0.54770  0.15966  0.64154  1.0000
  C   C1698     1.0  0.58491  0.99754  0.64192  1.0000
  H   H2012     1.0  0.51327  0.18122  0.60843  1.0000
  H   H2013     1.0  0.72924  0.28348  0.53342  1.0000
  H   H2014     1.0  0.55196  0.02943  0.64946  1.0000
  H   H2015     1.0  0.81875  0.21666  0.50316  1.0000
  H   H2016     1.0  0.53727  0.12307  0.64585  1.0000
  H   H2017     1.0  0.65340  0.02251  0.66059  1.0000
  C   C1699     1.0  0.57094  0.31643  0.57732  1.0000
  H   H2018     1.0  0.51239  0.17938  0.69123  1.0000
  H   H2019     1.0  0.60370  0.25042  0.50497  1.0000
  S   S461      1.0  0.68845  0.31130  0.56770  1.0000
  C   C1700     1.0  0.73871  0.26468  0.49312  1.0000
  H   H2020     1.0  0.73108  0.28498  0.55932  1.0000
  C   C1701     1.0  0.61174  0.22134  0.52451  1.0000
  C   C1702     1.0  0.64044  0.03673  0.70963  1.0000
  C   C1703     1.0  0.52932  0.06928  0.65814  1.0000
  N   N110      1.0  0.53588  0.09741  0.65114  1.0000
  C   C1704     1.0  0.66758  0.01384  0.72004  1.0000
  C   C1705     1.0  0.50848  0.08399  0.70572  1.0000
  N   N111      1.0  0.60443  0.23709  0.53013  1.0000
  H   H2021     1.0  0.58454  0.24529  0.51684  1.0000
  H   H2022     1.0  0.73655  0.23930  0.50032  1.0000
  C   C1706     1.0  0.50671  0.09307  0.65514  1.0000
  H   H2023     1.0  0.54225  0.06358  0.65790  1.0000
  H   H2024     1.0  0.62534  0.03357  0.67120  1.0000
  H   H2025     1.0  0.75290  0.29478  0.51601  1.0000
  H   H2026     1.0  0.56779  0.00227  0.68299  1.0000
  C   C1707     1.0  0.56836  0.99125  0.67843  1.0000
  H   H2027     1.0  0.51161  0.19146  0.63202  1.0000
  H   H2028     1.0  0.82409  0.20313  0.48896  1.0000
  C   C1708     1.0  0.54155  0.20766  0.63654  1.0000
  C   C1709     1.0  0.52807  0.11529  0.64843  1.0000
  H   H2029     1.0  0.66920  0.00245  0.70052  1.0000
  C   C1710     1.0  0.82581  0.21488  0.49063  1.0000
  C   C1711     1.0  0.51827  0.20127  0.63084  1.0000
  H   H2030     1.0  0.60676  0.00035  0.62282  1.0000
  C   C1712     1.0  0.58864  0.02314  0.62262  1.0000
  C   C1713     1.0  0.62900  0.03526  0.68197  1.0000
  C   C1714     1.0  0.64868  0.02398  0.70081  1.0000
  C   C1715     1.0  0.66245  0.01259  0.70643  1.0000
  C   C1716     1.0  0.65725  0.02282  0.67184  1.0000
  H   H2031     1.0  0.61137  0.29565  0.53693  1.0000
  S   S462      1.0  0.53376  0.08452  0.71921  1.0000
  H   H2032     1.0  0.54719  0.19671  0.60928  1.0000
  H   H2033     1.0  0.53491  0.09448  0.67693  1.0000
  H   H2034     1.0  0.58536  0.24514  0.55017  1.0000
  H   H2035     1.0  0.63896  0.04737  0.73007  1.0000
  H   H2036     1.0  0.71139  0.29663  0.54364  1.0000
  S   S463      1.0  0.51498  0.14709  0.60936  1.0000
  H   H2037     1.0  0.60201  0.21570  0.52326  1.0000
  H   H2038     1.0  0.55873  0.18176  0.62323  1.0000
  H   H2039     1.0  0.60937  0.24362  0.55873  1.0000
  C   C1717     1.0  0.54019  0.16467  0.65203  1.0000
  N   N112      1.0  0.73123  0.30881  0.52938  1.0000
  C   C1718     1.0  0.63858  0.00609  0.69029  1.0000
  H   H2040     1.0  0.59149  0.26146  0.52058  1.0000
  N   N113      1.0  0.53481  0.19414  0.63500  1.0000
  C   C1719     1.0  0.59447  0.00638  0.62840  1.0000
  N   N114      1.0  0.64337  0.02220  0.68650  1.0000
  H   H2041     1.0  0.55261  0.10182  0.66349  1.0000
  H   H2042     1.0  0.51861  0.11832  0.65953  1.0000
  C   C1720     1.0  0.65923  0.02642  0.72843  1.0000
  C   C1721     1.0  0.51812  0.05891  0.66246  1.0000
  C   C1722     1.0  0.61861  0.24618  0.54761  1.0000
  H   H2043     1.0  0.61333  0.98854  0.72710  1.0000
  H   H2044     1.0  0.58960  0.29249  0.52505  1.0000
  H   H2045     1.0  0.51909  0.20895  0.61810  1.0000
  C   C1723     1.0  0.64369  0.25663  0.53530  1.0000
  H   H2046     1.0  0.52205  0.11931  0.63762  1.0000
  S   S464      1.0  0.55283  0.03531  0.73162  1.0000
  C   C1724     1.0  0.52390  0.08671  0.65471  1.0000
  H   H2047     1.0  0.56902  0.04427  0.62613  1.0000
  C   C1725     1.0  0.74532  0.29348  0.57050  1.0000
  H   H2048     1.0  0.65352  0.26167  0.53646  1.0000
  H   H2049     1.0  0.55754  0.10271  0.63274  1.0000
  H   H2050     1.0  0.55612  0.08164  0.63771  1.0000
  C   C1726     1.0  0.53307  0.18182  0.65081  1.0000
  H   H2051     1.0  0.53906  0.14510  0.57927  1.0000
  H   H2052     1.0  0.63072  0.24663  0.50632  1.0000
  Fe  Fe236     1.0  0.54995  0.02486  0.71153  1.0000
  C   C1727     1.0  0.73789  0.29437  0.55760  1.0000
  H   H2053     1.0  0.53290  0.21500  0.64541  1.0000
  H   H2054     1.0  0.51111  0.07079  0.71030  1.0000
  C   C1728     1.0  0.63052  0.24809  0.51844  1.0000
  H   H2055     1.0  0.59729  0.22436  0.55542  1.0000
  S   S465      1.0  0.51725  0.24398  0.61271  1.0000
  H   H2056     1.0  0.54259  0.01581  0.67510  1.0000
  C   C1729     1.0  0.52050  0.17530  0.68037  1.0000
  C   C1730     1.0  0.54860  0.09449  0.63610  1.0000
  C   C1731     1.0  0.49563  0.08260  0.65942  1.0000
  H   H2057     1.0  0.55189  0.08074  0.66704  1.0000
  H   H2058     1.0  0.67791  0.00479  0.72437  1.0000
  H   H2059     1.0  0.61878  0.21222  0.53344  1.0000
  H   H2060     1.0  0.74409  0.28368  0.58142  1.0000
  S   S466      1.0  0.57664  0.02211  0.69899  1.0000
  C   C1732     1.0  0.54418  0.09345  0.66521  1.0000
  H   H2061     1.0  0.54275  0.09679  0.62539  1.0000
  C   C1733     1.0  0.73901  0.30730  0.54326  1.0000
  C   C1734     1.0  0.51064  0.31147  0.54667  1.0000
  H   H2062     1.0  0.66782  0.01212  0.67337  1.0000
  H   H2063     1.0  0.54123  0.17748  0.61847  1.0000
  C   C1735     1.0  0.73008  0.28111  0.49253  1.0000
  C   C1736     1.0  0.50898  0.27758  0.60647  1.0000
  H   H2064     1.0  0.70617  0.24573  0.51044  1.0000
  S   S467      1.0  0.64213  0.30464  0.52780  1.0000
  N   N115      1.0  0.55952  0.99572  0.66473  1.0000
  S   S468      1.0  0.60305  0.02179  0.72538  1.0000
  H   H2065     1.0  0.65282  0.25783  0.50939  1.0000
  H   H2066     1.0  0.50136  0.30406  0.60027  1.0000
  S   S469      1.0  0.64639  0.00223  0.64269  1.0000
  Fe  Fe237     1.0  0.66956  0.30896  0.55502  1.0000
  H   H2067     1.0  0.62953  0.04564  0.70669  1.0000
  C   C1737     1.0  0.57320  0.03110  0.63028  1.0000
  H   H2068     1.0  0.83914  0.21320  0.49059  1.0000
  C   C1738     1.0  0.50443  0.26288  0.61585  1.0000
  H   H2069     1.0  0.73892  0.30849  0.50345  1.0000
  H   H2070     1.0  0.50913  0.31835  0.56930  1.0000
  C   C1739     1.0  0.49557  0.09142  0.69728  1.0000
  H   H2071     1.0  0.59635  0.03008  0.61253  1.0000
  H   H2072     1.0  0.49833  0.13150  0.68974  1.0000
  C   C1740     1.0  0.52753  0.15861  0.68115  1.0000
  H   H2073     1.0  0.55486  0.29973  0.59106  1.0000
  H   H2074     1.0  0.79528  0.23422  0.49203  1.0000
  S   S470      1.0  0.76019  0.25946  0.48503  1.0000
  H   H2075     1.0  0.50887  0.30328  0.52592  1.0000
  C   C1741     1.0  0.53744  0.15332  0.66704  1.0000
  H   H2076     1.0  0.63182  0.04774  0.67857  1.0000
  C   C1742     1.0  0.56906  0.00523  0.64999  1.0000
  C   C1743     1.0  0.50121  0.11827  0.69408  1.0000
  H   H2077     1.0  0.49523  0.24630  0.52097  1.0000
  H   H2078     1.0  0.57634  0.31430  0.58786  1.0000
  C   C1744     1.0  0.49789  0.29271  0.60760  1.0000
  S   S471      1.0  0.67541  0.31674  0.52744  1.0000
  H   H2079     1.0  0.58085  0.98816  0.71878  1.0000
  H   H2080     1.0  0.70604  0.29745  0.49742  1.0000
  C   C1745     1.0  0.74811  0.31902  0.54265  1.0000
  H   H2081     1.0  0.52331  0.31285  0.54155  1.0000
  C   C1746     1.0  0.55853  0.30792  0.57937  1.0000
  H   H2082     1.0  0.53558  0.99716  0.68144  1.0000
  S   S472      1.0  0.49866  0.15355  0.65427  1.0000
  C   C1747     1.0  0.50247  0.30611  0.53785  1.0000
  C   C1748     1.0  0.50129  0.06557  0.66321  1.0000
  C   C1749     1.0  0.50268  0.31448  0.56228  1.0000
  H   H2083     1.0  0.75183  0.31653  0.51082  1.0000
  H   H2084     1.0  0.49757  0.19798  0.57264  1.0000
  H   H2085     1.0  0.64903  0.99545  0.69259  1.0000
  C   C1750     1.0  0.55134  0.30930  0.56625  1.0000
  C   C1751     1.0  0.75551  0.31798  0.55559  1.0000
  H   H2086     1.0  0.73665  0.29096  0.48702  1.0000
  H   H2087     1.0  0.55121  0.31990  0.54070  1.0000
  H   H2088     1.0  0.60249  0.32000  0.57763  1.0000
  H   H2089     1.0  0.94603  0.31936  0.73156  1.0000
  H   H2090     1.0  0.80063  0.07117  0.94622  1.0000
  H   H2091     1.0  0.88675  0.30558  0.83456  1.0000
  H   H2092     1.0  0.53134  0.00453  0.74705  1.0000
  Fe  Fe238     1.0  0.64010  0.00203  0.79604  1.0000
  S   S473      1.0  0.66666  0.00294  0.78534  1.0000
  S   S474      1.0  0.61943  0.02418  0.79163  1.0000
  C   C1752     1.0  0.95025  0.25409  0.89310  1.0000
  C   C1753     1.0  0.64166  0.05757  0.80686  1.0000
  C   C1754     1.0  0.97538  0.24343  0.84529  1.0000
  Fe  Fe239     1.0  0.90354  0.20031  0.91063  1.0000
  S   S475      1.0  0.90453  0.21385  0.88432  1.0000
  S   S476      1.0  0.88209  0.18800  0.92551  1.0000
  Fe  Fe240     1.0  0.93887  0.20397  0.90976  1.0000
  S   S477      1.0  0.94234  0.21706  0.88333  1.0000
  S   S478      1.0  0.95966  0.19799  0.92350  1.0000
  Fe  Fe241     1.0  0.91632  0.23094  0.89058  1.0000
  S   S479      1.0  0.91255  0.25833  0.88137  1.0000
  Fe  Fe242     1.0  0.93030  0.19865  0.87986  1.0000
  S   S480      1.0  0.93905  0.18702  0.85791  1.0000
  S   S481      1.0  0.91326  0.21893  0.91751  1.0000
  S   S482      1.0  0.92890  0.18402  0.90578  1.0000
  Fe  Fe243     1.0  0.95906  0.28722  0.79709  1.0000
  H   H2093     1.0  0.98493  0.22488  0.95032  1.0000
  S   S483      1.0  0.93832  0.27381  0.80406  1.0000
  H   H2094     1.0  0.81221  0.02058  0.92489  1.0000
  C   C1755     1.0  0.61984  0.16161  0.96893  1.0000
  H   H2095     1.0  0.61377  0.19281  0.93595  1.0000
  C   C1756     1.0  0.60730  0.02375  0.74344  1.0000
  C   C1757     1.0  0.71976  0.03999  0.97612  1.0000
  H   H2096     1.0  0.76553  0.02368  0.95672  1.0000
  H   H2097     1.0  0.96425  0.25129  0.84159  1.0000
  S   S484      1.0  0.68801  0.11990  0.96548  1.0000
  H   H2098     1.0  0.60866  0.99265  0.80423  1.0000
  Fe  Fe244     1.0  0.66496  0.13846  0.96058  1.0000
  S   S485      1.0  0.65960  0.14899  0.93530  1.0000
  H   H2099     1.0  0.66803  0.01202  0.87480  1.0000
  Fe  Fe245     1.0  0.81966  0.14888  0.90271  1.0000
  S   S486      1.0  0.82492  0.12176  0.90322  1.0000
  S   S487      1.0  0.83786  0.16573  0.89033  1.0000
  Fe  Fe246     1.0  0.78337  0.14963  0.91924  1.0000
  S   S488      1.0  0.78556  0.12257  0.92196  1.0000
  S   S489      1.0  0.75881  0.16700  0.92446  1.0000
  Fe  Fe247     1.0  0.80960  0.12013  0.92899  1.0000
  S   S490      1.0  0.81865  0.09924  0.94855  1.0000
  Fe  Fe248     1.0  0.80041  0.12632  0.89614  1.0000
  S   S491      1.0  0.79697  0.11587  0.87616  1.0000
  S   S492      1.0  0.80591  0.14685  0.92907  1.0000
  S   S493      1.0  0.79668  0.15371  0.89282  1.0000
  Fe  Fe249     1.0  0.70715  0.03962  0.88911  1.0000
  S   S494      1.0  0.71560  0.06272  0.87380  1.0000
  S   S495      1.0  0.69271  0.02516  0.88095  1.0000
  Fe  Fe250     1.0  0.71197  0.04655  0.92121  1.0000
  S   S496      1.0  0.71979  0.07034  0.90799  1.0000
  S   S497      1.0  0.70790  0.04020  0.94927  1.0000
  Fe  Fe251     1.0  0.69970  0.07502  0.89425  1.0000
  S   S498      1.0  0.68325  0.09976  0.88675  1.0000
  Fe  Fe252     1.0  0.73507  0.05613  0.88897  1.0000
  S   S499      1.0  0.76134  0.05950  0.87781  1.0000
  S   S500      1.0  0.69026  0.05261  0.90903  1.0000
  S   S501      1.0  0.72832  0.03168  0.90275  1.0000
  C   C1758     1.0  0.70416  0.01044  0.83667  1.0000
  H   H2100     1.0  0.68289  0.06953  0.94390  1.0000
  N   N116      1.0  0.61668  0.17928  0.96050  1.0000
  C   C1759     1.0  0.99064  0.15464  0.85755  1.0000
  C   C1760     1.0  0.72384  0.03723  0.96000  1.0000
  C   C1761     1.0  0.74045  0.03154  0.95298  1.0000
  C   C1762     1.0  0.75282  0.02870  0.96196  1.0000
  H   H2101     1.0  0.95937  0.20969  0.85191  1.0000
  C   C1763     1.0  0.94558  0.25270  0.92213  1.0000
  H   H2102     1.0  0.74360  0.02876  0.94087  1.0000
  C   C1764     1.0  0.80482  0.09815  0.96766  1.0000
  H   H2103     1.0  0.67287  0.04519  0.94482  1.0000
  H   H2104     1.0  0.63555  0.10671  0.90437  1.0000
  H   H2105     1.0  0.58562  0.99921  0.83566  1.0000
  H   H2106     1.0  0.97102  0.26303  0.92143  1.0000
  H   H2107     1.0  0.90448  0.30852  0.83912  1.0000
  S   S502      1.0  0.97354  0.29527  0.77152  1.0000
  N   N117      1.0  0.65488  0.04378  0.81265  1.0000
  H   H2108     1.0  0.66299  0.02701  0.73925  1.0000
  H   H2109     1.0  0.79289  0.12393  0.96339  1.0000
  C   C1765     1.0  0.78645  0.10022  0.87804  1.0000
  C   C1766     1.0  0.77395  0.09576  0.89167  1.0000
  C   C1767     1.0  0.76549  0.08374  0.89170  1.0000
  C   C1768     1.0  0.76990  0.07586  0.87831  1.0000
  C   C1769     1.0  0.78257  0.08021  0.86501  1.0000
  C   C1770     1.0  0.79055  0.09245  0.86475  1.0000
  H   H2110     1.0  0.77072  0.10167  0.90203  1.0000
  H   H2111     1.0  0.75580  0.08042  0.90214  1.0000
  H   H2112     1.0  0.78621  0.07415  0.85470  1.0000
  H   H2113     1.0  0.80014  0.09580  0.85418  1.0000
  C   C1771     1.0  0.66630  0.13483  0.92227  1.0000
  C   C1772     1.0  0.67417  0.11840  0.92760  1.0000
  C   C1773     1.0  0.67941  0.10745  0.91678  1.0000
  C   C1774     1.0  0.67664  0.11289  0.90073  1.0000
  C   C1775     1.0  0.66866  0.12922  0.89550  1.0000
  C   C1776     1.0  0.66356  0.14016  0.90620  1.0000
  H   H2114     1.0  0.67607  0.11407  0.94006  1.0000
  H   H2115     1.0  0.68527  0.09475  0.92086  1.0000
  H   H2116     1.0  0.66647  0.13345  0.88309  1.0000
  H   H2117     1.0  0.65748  0.15280  0.90201  1.0000
  H   H2118     1.0  0.98367  0.22707  0.77871  1.0000
  C   C1777     1.0  0.57528  0.00046  0.77613  1.0000
  C   C1778     1.0  0.75172  0.14727  0.95510  1.0000
  C   C1779     1.0  0.74541  0.15887  0.94224  1.0000
  C   C1780     1.0  0.72825  0.16407  0.94354  1.0000
  C   C1781     1.0  0.71738  0.15727  0.95750  1.0000
  H   H2119     1.0  0.95775  0.24410  0.92247  1.0000
  H   H2120     1.0  0.76497  0.14325  0.95415  1.0000
  H   H2121     1.0  0.72338  0.17305  0.93357  1.0000
  H   H2122     1.0  0.70414  0.16106  0.95834  1.0000
  C   C1782     1.0  0.86925  0.18238  0.91584  1.0000
  C   C1783     1.0  0.85974  0.17062  0.92486  1.0000
  C   C1784     1.0  0.85007  0.16531  0.91726  1.0000
  C   C1785     1.0  0.84979  0.17180  0.90057  1.0000
  C   C1786     1.0  0.85909  0.18372  0.89165  1.0000
  C   C1787     1.0  0.86869  0.18905  0.89925  1.0000
  H   H2123     1.0  0.86005  0.16542  0.93773  1.0000
  H   H2124     1.0  0.84292  0.15615  0.92429  1.0000
  H   H2125     1.0  0.85885  0.18891  0.87876  1.0000
  H   H2126     1.0  0.87572  0.19828  0.89220  1.0000
  C   C1788     1.0  0.91969  0.26253  0.85993  1.0000
  C   C1789     1.0  0.91633  0.25371  0.85021  1.0000
  C   C1790     1.0  0.92191  0.25734  0.83301  1.0000
  C   C1791     1.0  0.93137  0.26933  0.82558  1.0000
  C   C1792     1.0  0.93520  0.27772  0.83541  1.0000
  C   C1793     1.0  0.92905  0.27460  0.85250  1.0000
  H   H2127     1.0  0.90912  0.24434  0.85591  1.0000
  H   H2128     1.0  0.91902  0.25072  0.82549  1.0000
  H   H2129     1.0  0.94282  0.28669  0.82989  1.0000
  H   H2130     1.0  0.93184  0.28132  0.85997  1.0000
  C   C1794     1.0  0.95890  0.17467  0.85786  1.0000
  H   H2131     1.0  0.81674  0.08418  0.89378  1.0000
  C   C1795     1.0  0.96583  0.17078  0.87175  1.0000
  H   H2132     1.0  0.64618  0.09887  0.95180  1.0000
  H   H2133     1.0  0.95906  0.17558  0.88257  1.0000
  C   C1796     1.0  0.95721  0.27528  0.90166  1.0000
  Fe  Fe253     1.0  0.98031  0.29741  0.81379  1.0000
  H   H2134     1.0  0.94949  0.23051  0.84420  1.0000
  C   C1797     1.0  0.97229  0.21144  0.92296  1.0000
  H   H2135     1.0  0.71438  0.00990  0.82610  1.0000
  H   H2136     1.0  0.67640  0.05824  0.85944  1.0000
  C   C1798     1.0  0.96783  0.16857  0.84383  1.0000
  C   C1799     1.0  0.97171  0.23497  0.81561  1.0000
  H   H2137     1.0  0.98185  0.21634  0.89665  1.0000
  H   H2138     1.0  0.90557  0.30019  0.80755  1.0000
  H   H2139     1.0  0.74570  0.13259  0.97961  1.0000
  C   C1800     1.0  0.70525  0.01666  0.84988  1.0000
  C   C1801     1.0  0.69224  0.01734  0.86377  1.0000
  C   C1802     1.0  0.67816  0.01168  0.86414  1.0000
  C   C1803     1.0  0.67703  0.00554  0.85089  1.0000
  H   H2140     1.0  0.71622  0.02083  0.84934  1.0000
  C   C1804     1.0  0.58028  0.00025  0.82490  1.0000
  H   H2141     1.0  0.96626  0.20800  0.94941  1.0000
  C   C1805     1.0  0.66314  0.04765  0.95593  1.0000
  H   H2142     1.0  0.96248  0.17155  0.83309  1.0000
  C   C1806     1.0  0.60038  0.03493  0.76807  1.0000
  C   C1807     1.0  0.61515  0.02519  0.77252  1.0000
  C   C1808     1.0  0.62617  0.01530  0.76208  1.0000
  C   C1809     1.0  0.72367  0.14595  0.97053  1.0000
  H   H2143     1.0  0.63703  0.05487  0.79716  1.0000
  H   H2144     1.0  0.59184  0.04269  0.77606  1.0000
  H   H2145     1.0  0.63797  0.00846  0.76487  1.0000
  H   H2146     1.0  0.96331  0.24709  0.89210  1.0000
  C   C1810     1.0  0.96806  0.29900  0.88332  1.0000
  N   N118      1.0  0.97427  0.22222  0.83071  1.0000
  N   N119      1.0  0.72964  0.12292  0.87277  1.0000
  C   C1811     1.0  0.72636  0.10611  0.87682  1.0000
  C   C1812     1.0  0.71641  0.13458  0.86476  1.0000
  C   C1813     1.0  0.74559  0.12288  0.86050  1.0000
  C   C1814     1.0  0.72957  0.12761  0.88812  1.0000
  C   C1815     1.0  0.71494  0.12899  0.90069  1.0000
  C   C1816     1.0  0.74374  0.13093  0.89113  1.0000
  C   C1817     1.0  0.71449  0.13327  0.91535  1.0000
  C   C1818     1.0  0.74315  0.13522  0.90585  1.0000
  C   C1819     1.0  0.72861  0.13625  0.91796  1.0000
  H   H2147     1.0  0.71432  0.10521  0.88554  1.0000
  H   H2148     1.0  0.72596  0.10217  0.86567  1.0000
  H   H2149     1.0  0.73608  0.09686  0.88262  1.0000
  H   H2150     1.0  0.70378  0.13365  0.87223  1.0000
  H   H2151     1.0  0.71680  0.13207  0.85263  1.0000
  H   H2152     1.0  0.71761  0.14756  0.86268  1.0000
  H   H2153     1.0  0.75597  0.11373  0.86543  1.0000
  H   H2154     1.0  0.74523  0.11933  0.84911  1.0000
  H   H2155     1.0  0.74875  0.13525  0.85667  1.0000
  H   H2156     1.0  0.70369  0.12673  0.89928  1.0000
  H   H2157     1.0  0.75546  0.13031  0.88234  1.0000
  H   H2158     1.0  0.70313  0.13425  0.92475  1.0000
  H   H2159     1.0  0.75400  0.13794  0.90783  1.0000
  H   H2160     1.0  0.72827  0.13942  0.92940  1.0000
  N   N120      1.0  0.90982  0.14656  0.89278  1.0000
  C   C1820     1.0  0.90999  0.16356  0.88290  1.0000
  C   C1821     1.0  0.89533  0.14174  0.89062  1.0000
  C   C1822     1.0  0.90747  0.14707  0.91036  1.0000
  C   C1823     1.0  0.92523  0.13443  0.88806  1.0000
  C   C1824     1.0  0.93911  0.13895  0.87590  1.0000
  C   C1825     1.0  0.92690  0.11754  0.89613  1.0000
  C   C1826     1.0  0.95375  0.12731  0.87230  1.0000
  C   C1827     1.0  0.94156  0.10596  0.89233  1.0000
  C   C1828     1.0  0.95498  0.11086  0.88048  1.0000
  H   H2161     1.0  0.92004  0.16832  0.88463  1.0000
  H   H2162     1.0  0.91154  0.16425  0.86949  1.0000
  H   H2163     1.0  0.89833  0.17241  0.88661  1.0000
  H   H2164     1.0  0.88365  0.15105  0.89345  1.0000
  H   H2165     1.0  0.89312  0.12986  0.89891  1.0000
  H   H2166     1.0  0.89694  0.14060  0.87768  1.0000
  H   H2167     1.0  0.91833  0.15022  0.91258  1.0000
  H   H2168     1.0  0.89639  0.15652  0.91426  1.0000
  H   H2169     1.0  0.90567  0.13516  0.91885  1.0000
  H   H2170     1.0  0.93906  0.15143  0.86904  1.0000
  H   H2171     1.0  0.91692  0.11322  0.90557  1.0000
  H   H2172     1.0  0.96425  0.13115  0.86315  1.0000
  H   H2173     1.0  0.94257  0.09314  0.89870  1.0000
  H   H2174     1.0  0.96639  0.10191  0.87765  1.0000
  N   N121      1.0  0.79718  0.19909  0.92092  1.0000
  C   C1829     1.0  0.78324  0.21356  0.92269  1.0000
  C   C1830     1.0  0.81272  0.20535  0.91434  1.0000
  C   C1831     1.0  0.79528  0.19112  0.90851  1.0000
  C   C1832     1.0  0.79701  0.18707  0.93692  1.0000
  C   C1833     1.0  0.78249  0.18103  0.94553  1.0000
  C   C1834     1.0  0.81117  0.18058  0.94412  1.0000
  C   C1835     1.0  0.78213  0.16932  0.96039  1.0000
  H   H2175     1.0  0.98691  0.15748  0.88247  1.0000
  C   C1836     1.0  0.60181  0.18945  0.96925  1.0000
  H   H2176     1.0  0.78348  0.21909  0.93287  1.0000
  H   H2177     1.0  0.78369  0.22331  0.91117  1.0000
  H   H2178     1.0  0.77096  0.21031  0.92534  1.0000
  H   H2179     1.0  0.81510  0.21129  0.92319  1.0000
  H   H2180     1.0  0.81236  0.21462  0.90252  1.0000
  H   H2181     1.0  0.82359  0.19529  0.91144  1.0000
  H   H2182     1.0  0.78345  0.18683  0.91208  1.0000
  H   H2183     1.0  0.79556  0.19958  0.89618  1.0000
  H   H2184     1.0  0.80549  0.18014  0.90689  1.0000
  H   H2185     1.0  0.77138  0.18496  0.94062  1.0000
  H   H2186     1.0  0.82287  0.18418  0.93845  1.0000
  H   H2187     1.0  0.60465  0.21265  0.95173  1.0000
  H   H2188     1.0  0.99153  0.15444  0.77032  1.0000
  C   C1837     1.0  0.98236  0.21841  0.90833  1.0000
  H   H2189     1.0  0.79329  0.02350  0.94012  1.0000
  C   C1838     1.0  0.97973  0.29658  0.89273  1.0000
  C   C1839     1.0  0.80946  0.07887  0.92019  1.0000
  H   H2190     1.0  0.97759  0.26136  0.85735  1.0000
  H   H2191     1.0  0.87817  0.31842  0.80962  1.0000
  C   C1840     1.0  0.74187  0.09780  0.98111  1.0000
  C   C1841     1.0  0.74083  0.14118  0.96944  1.0000
  S   S503      1.0  0.95691  0.31045  0.80505  1.0000
  H   H2192     1.0  0.75177  0.06494  0.98071  1.0000
  H   H2193     1.0  0.76878  0.07353  0.97997  1.0000
  C   C1842     1.0  0.65115  0.07630  0.94272  1.0000
  H   H2194     1.0  0.63066  0.00634  0.73999  1.0000
  C   C1843     1.0  0.64546  0.09349  0.94211  1.0000
  S   S504      1.0  0.66513  0.15454  0.97722  1.0000
  C   C1844     1.0  0.63962  0.10425  0.92855  1.0000
  C   C1845     1.0  0.63940  0.09826  0.91517  1.0000
  C   C1846     1.0  0.98223  0.22791  0.84078  1.0000
  H   H2195     1.0  0.65449  0.05771  0.92829  1.0000
  H   H2196     1.0  0.77093  0.16477  0.96657  1.0000
  C   C1847     1.0  0.81070  0.16879  0.95895  1.0000
  C   C1848     1.0  0.91097  0.31078  0.80693  1.0000
  H   H2197     1.0  0.64629  0.06918  0.80160  1.0000
  H   H2198     1.0  0.60937  0.15583  0.97004  1.0000
  H   H2199     1.0  0.63110  0.19825  0.95145  1.0000
  C   C1849     1.0  0.67407  0.07038  0.95592  1.0000
  C   C1850     1.0  0.99357  0.22756  0.90891  1.0000
  H   H2200     1.0  0.98883  0.25514  0.77409  1.0000
  C   C1851     1.0  0.64788  0.02884  0.82003  1.0000
  H   H2201     1.0  0.63707  0.03060  0.83040  1.0000
  H   H2202     1.0  0.66293  0.03742  0.78869  1.0000
  N   N122      1.0  0.94557  0.26414  0.90578  1.0000
  H   H2203     1.0  0.58044  0.22979  0.96614  1.0000
  H   H2204     1.0  0.81096  0.03213  0.89443  1.0000
  H   H2205     1.0  0.67793  0.02957  0.80127  1.0000
  C   C1852     1.0  0.65034  0.07053  0.92905  1.0000
  H   H2206     1.0  0.58310  0.99489  0.73597  1.0000
  H   H2207     1.0  0.63597  0.11741  0.92810  1.0000
  H   H2208     1.0  0.64354  0.02510  0.81081  1.0000
  H   H2209     1.0  0.58404  0.01101  0.81540  1.0000
  H   H2210     1.0  0.96678  0.23059  0.80725  1.0000
  N   N123      1.0  0.65868  0.06543  0.95651  1.0000
  C   C1853     1.0  0.62210  0.01431  0.74780  1.0000
  C   C1854     1.0  0.81113  0.07606  0.90461  1.0000
  H   H2211     1.0  0.92640  0.28085  0.89359  1.0000
  C   C1855     1.0  0.64998  0.05149  0.84002  1.0000
  C   C1856     1.0  0.98053  0.28351  0.90636  1.0000
  H   H2212     1.0  0.72336  0.07593  0.98065  1.0000
  H   H2213     1.0  0.94890  0.29029  0.87933  1.0000
  H   H2214     1.0  0.56653  0.00327  0.82881  1.0000
  C   C1857     1.0  0.79793  0.05231  0.91683  1.0000
  C   C1858     1.0  0.98378  0.15874  0.84361  1.0000
  C   C1859     1.0  0.66100  0.04799  0.82518  1.0000
  H   H2215     1.0  0.63709  0.05100  0.84250  1.0000
  H   H2216     1.0  0.96800  0.30869  0.87222  1.0000
  C   C1860     1.0  0.95793  0.21921  0.84048  1.0000
  H   H2217     1.0  0.64311  0.17773  0.95309  1.0000
  H   H2218     1.0  0.68048  0.06225  0.96582  1.0000
  H   H2219     1.0  0.63316  0.18571  0.97142  1.0000
  C   C1861     1.0  0.92833  0.27381  0.90603  1.0000
  H   H2220     1.0  0.67361  0.05125  0.79149  1.0000
  H   H2221     1.0  0.96254  0.24627  0.81830  1.0000
  C   C1862     1.0  0.59647  0.03427  0.75343  1.0000
  H   H2222     1.0  0.64701  0.05737  0.86361  1.0000
  H   H2223     1.0  0.66617  0.00113  0.85158  1.0000
  H   H2224     1.0  0.65733  0.01826  0.82488  1.0000
  H   H2225     1.0  0.97801  0.20309  0.81735  1.0000
  H   H2226     1.0  0.95147  0.21475  0.83349  1.0000
  S   S505      1.0  0.64753  0.12417  0.97942  1.0000
  C   C1863     1.0  0.67782  0.04865  0.82322  1.0000
  H   H2227     1.0  0.91922  0.26567  0.91031  1.0000
  C   C1864     1.0  0.68311  0.05269  0.83533  1.0000
  C   C1865     1.0  0.65548  0.05527  0.85214  1.0000
  C   C1866     1.0  0.67201  0.05587  0.84980  1.0000
  H   H2228     1.0  0.93648  0.24468  0.92509  1.0000
  C   C1867     1.0  0.69006  0.00483  0.83702  1.0000
  H   H2229     1.0  0.79518  0.01191  0.92537  1.0000
  C   C1868     1.0  0.79594  0.05587  0.93252  1.0000
  S   S506      1.0  0.98074  0.29525  0.84021  1.0000
  H   H2230     1.0  0.63068  0.05996  0.81693  1.0000
  H   H2231     1.0  0.68729  0.04559  0.81271  1.0000
  C   C1869     1.0  0.80182  0.06886  0.93413  1.0000
  H   H2232     1.0  0.69608  0.05261  0.83386  1.0000
  H   H2233     1.0  0.59141  0.00555  0.78798  1.0000
  S   S507      1.0  0.68948  0.99720  0.81975  1.0000
  N   N124      1.0  0.79202  0.03820  0.91546  1.0000
  C   C1870     1.0  0.79847  0.02295  0.92694  1.0000
  C   C1871     1.0  0.77369  0.04176  0.91987  1.0000
  C   C1872     1.0  0.79724  0.03466  0.89863  1.0000
  H   H2234     1.0  0.65216  0.04304  0.95619  1.0000
  H   H2235     1.0  0.76870  0.03109  0.91996  1.0000
  H   H2236     1.0  0.76833  0.05233  0.91084  1.0000
  H   H2237     1.0  0.76875  0.04505  0.93213  1.0000
  H   H2238     1.0  0.79175  0.04503  0.88944  1.0000
  C   C1873     1.0  0.97363  0.21363  0.93802  1.0000
  H   H2239     1.0  0.79291  0.02380  0.89808  1.0000
  H   H2240     1.0  0.80690  0.06182  0.89036  1.0000
  H   H2241     1.0  0.94250  0.25951  0.93222  1.0000
  H   H2242     1.0  0.62213  0.15994  0.98148  1.0000
  N   N125      1.0  0.75044  0.08999  0.96679  1.0000
  C   C1874     1.0  0.79313  0.11207  0.97184  1.0000
  C   C1875     1.0  0.76243  0.10001  0.95600  1.0000
  H   H2243     1.0  0.94897  0.26176  0.88068  1.0000
  C   C1876     1.0  0.73811  0.08867  0.95839  1.0000
  C   C1877     1.0  0.73914  0.09438  0.94110  1.0000
  C   C1878     1.0  0.63160  0.18555  0.95906  1.0000
  C   C1879     1.0  0.72716  0.09293  0.93369  1.0000
  C   C1880     1.0  0.71262  0.08008  0.96008  1.0000
  C   C1881     1.0  0.71387  0.08593  0.94320  1.0000
  H   H2244     1.0  0.76711  0.06724  0.96227  1.0000
  H   H2245     1.0  0.79599  0.15382  0.97840  1.0000
  C   C1882     1.0  0.66795  0.04041  0.79791  1.0000
  H   H2246     1.0  0.77027  0.09428  0.94557  1.0000
  H   H2247     1.0  0.77118  0.10111  0.96283  1.0000
  H   H2248     1.0  0.75598  0.11278  0.95110  1.0000
  H   H2249     1.0  0.63097  0.15437  0.96191  1.0000
  H   H2250     1.0  0.94223  0.24503  0.89610  1.0000
  C   C1883     1.0  0.58344  0.21660  0.97098  1.0000
  H   H2251     1.0  0.74905  0.10002  0.93303  1.0000
  C   C1884     1.0  0.64466  0.08143  0.91546  1.0000
  H   H2252     1.0  0.72819  0.09724  0.92051  1.0000
  C   C1885     1.0  0.75997  0.07326  0.97270  1.0000
  H   H2253     1.0  0.70463  0.08480  0.93748  1.0000
  H   H2254     1.0  0.78989  0.04861  0.94370  1.0000
  H   H2255     1.0  0.64482  0.07686  0.90486  1.0000
  H   H2256     1.0  0.62557  0.17220  0.93692  1.0000
  C   C1886     1.0  0.80543  0.06304  0.90285  1.0000
  H   H2257     1.0  0.92484  0.28263  0.91434  1.0000
  H   H2258     1.0  0.57885  0.00907  0.76473  1.0000
  C   C1887     1.0  0.59733  0.20668  0.96291  1.0000
  C   C1888     1.0  0.98161  0.16054  0.87169  1.0000
  C   C1889     1.0  0.96946  0.27301  0.91086  1.0000
  C   C1890     1.0  0.95712  0.28839  0.88752  1.0000
  H   H2259     1.0  0.58503  0.04167  0.75003  1.0000
  C   C1891     1.0  0.72465  0.08118  0.96757  1.0000
  H   H2260     1.0  0.91539  0.31620  0.79371  1.0000
  H   H2261     1.0  0.81408  0.08887  0.92144  1.0000
  C   C1892     1.0  0.79623  0.16315  0.96705  1.0000
  S   S508      1.0  0.98125  0.27369  0.80756  1.0000
  H   H2262     1.0  0.60343  0.17587  0.94421  1.0000
  H   H2263     1.0  0.70243  0.07440  0.96745  1.0000
  H   H2264     1.0  0.82172  0.16381  0.96407  1.0000
  C   C1893     1.0  0.74885  0.03203  0.97781  1.0000
  H   H2265     1.0  0.70692  0.04404  0.98187  1.0000
  H   H2266     1.0  0.63509  0.06434  0.97318  1.0000
  C   C1894     1.0  0.61474  0.18012  0.94368  1.0000
  H   H2267     1.0  0.66865  0.03988  0.96659  1.0000
  H   H2268     1.0  0.73323  0.10962  0.97733  1.0000
  H   H2269     1.0  0.98351  0.23862  0.80855  1.0000
  Fe  Fe254     1.0  0.67130  0.98827  0.81032  1.0000
  H   H2270     1.0  0.99002  0.28122  0.91335  1.0000
  C   C1895     1.0  0.98435  0.22310  0.93854  1.0000
  H   H2271     1.0  0.81438  0.07217  0.97553  1.0000
  S   S509      1.0  0.64419  0.98893  0.82134  1.0000
  C   C1896     1.0  0.58252  0.99821  0.78949  1.0000
  C   C1897     1.0  0.53569  0.99170  0.74624  1.0000
  H   H2272     1.0  0.98857  0.30448  0.88907  1.0000
  H   H2273     1.0  0.67175  0.08320  0.95760  1.0000
  H   H2274     1.0  0.64481  0.07962  0.97505  1.0000
  H   H2275     1.0  0.92216  0.30547  0.81225  1.0000
  C   C1898     1.0  0.98403  0.20676  0.82535  1.0000
  C   C1899     1.0  0.98279  0.24922  0.85455  1.0000
  C   C1900     1.0  0.64718  0.06710  0.97258  1.0000
  H   H2276     1.0  0.55784  0.99360  0.76700  1.0000
  C   C1901     1.0  0.80522  0.08290  0.97868  1.0000
  H   H2277     1.0  0.99061  0.15409  0.83273  1.0000
  C   C1902     1.0  0.56339  0.99175  0.77741  1.0000
  C   C1903     1.0  0.57831  0.98685  0.80449  1.0000
  H   H2278     1.0  0.99379  0.27673  0.86840  1.0000
  H   H2279     1.0  0.98526  0.19612  0.83600  1.0000
  Fe  Fe255     1.0  0.97348  0.31748  0.78054  1.0000
  C   C1904     1.0  0.89378  0.31515  0.83322  1.0000
  Fe  Fe256     1.0  0.69048  0.57187  0.03248  1.0000
  S   S510      1.0  0.70337  0.54611  0.04218  1.0000
  S   S511      1.0  0.66598  0.57653  0.02566  1.0000
  Fe  Fe257     1.0  0.71659  0.58731  0.03619  1.0000
  S   S512      1.0  0.73179  0.56301  0.04641  1.0000
  S   S513      1.0  0.72221  0.61242  0.03064  1.0000
  Fe  Fe258     1.0  0.72642  0.55421  0.02658  1.0000
  S   S514      1.0  0.74690  0.53793  0.01200  1.0000
  Fe  Fe259     1.0  0.70741  0.55703  0.06123  1.0000
  S   S515      1.0  0.70487  0.54546  0.08834  1.0000
  S   S516      1.0  0.71316  0.57913  0.01504  1.0000
  S   S517      1.0  0.69261  0.58229  0.05274  1.0000
  S   S518      1.0  0.52611  0.36269  0.21067  1.0000
  S   S519      1.0  0.79648  0.61928  0.01613  1.0000
  H   H2280     1.0  0.74903  0.58794  0.00825  1.0000
  Fe  Fe260     1.0  0.53183  0.41848  0.22153  1.0000
  C   C1905     1.0  0.69406  0.64198  0.01085  1.0000
  H   H2281     1.0  0.83261  0.62277  0.04615  1.0000
  H   H2282     1.0  0.74770  0.51753  0.06860  1.0000
  C   C1906     1.0  0.54593  0.33946  0.14992  1.0000
  H   H2283     1.0  0.55470  0.59843  0.21121  1.0000
  H   H2284     1.0  0.58076  0.36532  0.18888  1.0000
  Fe  Fe261     1.0  0.56430  0.40095  0.20422  1.0000
  S   S520      1.0  0.58690  0.40420  0.18430  1.0000
  S   S521      1.0  0.53897  0.40810  0.19858  1.0000
  Fe  Fe262     1.0  0.63919  0.50503  0.17492  1.0000
  S   S522      1.0  0.66446  0.48972  0.16726  1.0000
  S   S523      1.0  0.63659  0.52955  0.18065  1.0000
  Fe  Fe263     1.0  0.62150  0.48027  0.17210  1.0000
  S   S524      1.0  0.64524  0.46293  0.16394  1.0000
  S   S525      1.0  0.59555  0.47625  0.17781  1.0000
  Fe  Fe264     1.0  0.65376  0.46848  0.18391  1.0000
  S   S526      1.0  0.66811  0.44794  0.20047  1.0000
  Fe  Fe265     1.0  0.65364  0.48584  0.14801  1.0000
  S   S527      1.0  0.66666  0.48736  0.12127  1.0000
  S   S528      1.0  0.62936  0.48418  0.19325  1.0000
  S   S529      1.0  0.62901  0.50276  0.15454  1.0000
  N   N126      1.0  0.82308  0.64864  0.03662  1.0000
  H   H2285     1.0  0.59760  0.43031  0.21109  1.0000
  H   H2286     1.0  0.76608  0.64283  0.01230  1.0000
  H   H2287     1.0  0.74382  0.52471  0.04831  1.0000
  H   H2288     1.0  0.59378  0.35867  0.15399  1.0000
  C   C1907     1.0  0.97667  0.61571  0.19531  1.0000
  C   C1908     1.0  0.66389  0.62425  0.00274  1.0000
  H   H2289     1.0  0.68938  0.64514  0.99935  1.0000
  C   C1909     1.0  0.94946  0.65126  0.21503  1.0000
  H   H2290     1.0  0.70614  0.47182  0.12143  1.0000
  H   H2291     1.0  0.59249  0.57545  0.19643  1.0000
  C   C1910     1.0  0.66304  0.44743  0.22178  1.0000
  C   C1911     1.0  0.94771  0.63663  0.22647  1.0000
  C   C1912     1.0  0.63036  0.41915  0.22961  1.0000
  C   C1913     1.0  0.53992  0.47145  0.17127  1.0000
  H   H2292     1.0  0.71079  0.45997  0.09710  1.0000
  C   C1914     1.0  0.67286  0.43562  0.23192  1.0000
  C   C1915     1.0  0.50739  0.34662  0.17279  1.0000
  C   C1916     1.0  0.51554  0.36796  0.18112  1.0000
  C   C1917     1.0  0.68303  0.47739  0.22217  1.0000
  S   S530      1.0  0.50010  0.34096  0.15790  1.0000
  H   H2293     1.0  0.55447  0.39005  0.15951  1.0000
  H   H2294     1.0  0.58240  0.37831  0.14485  1.0000
  H   H2295     1.0  0.51730  0.38043  0.17854  1.0000
  H   H2296     1.0  0.63702  0.40935  0.22254  1.0000
  H   H2297     1.0  0.66712  0.63989  0.03662  1.0000
  H   H2298     1.0  0.68296  0.60241  0.00673  1.0000
  C   C1918     1.0  0.58918  0.42451  0.18124  1.0000
  C   C1919     1.0  0.57592  0.43631  0.18747  1.0000
  C   C1920     1.0  0.57800  0.45219  0.18617  1.0000
  C   C1921     1.0  0.59325  0.45648  0.17836  1.0000
  C   C1922     1.0  0.60643  0.44483  0.17172  1.0000
  C   C1923     1.0  0.60440  0.42882  0.17320  1.0000
  H   H2299     1.0  0.56399  0.43326  0.19328  1.0000
  H   H2300     1.0  0.56777  0.46110  0.19138  1.0000
  H   H2301     1.0  0.61817  0.44811  0.16546  1.0000
  H   H2302     1.0  0.61467  0.41976  0.16827  1.0000
  C   C1924     1.0  0.58339  0.55329  0.20127  1.0000
  C   C1925     1.0  0.51620  0.34092  0.19883  1.0000
  C   C1926     1.0  0.61195  0.55526  0.18924  1.0000
  C   C1927     1.0  0.61599  0.53872  0.18802  1.0000
  C   C1928     1.0  0.60368  0.52950  0.19329  1.0000
  C   C1929     1.0  0.58745  0.53672  0.20019  1.0000
  S   S531      1.0  0.56144  0.37601  0.21960  1.0000
  H   H2303     1.0  0.69204  0.63712  0.04354  1.0000
  H   H2304     1.0  0.60669  0.51679  0.19220  1.0000
  H   H2305     1.0  0.57802  0.52957  0.20439  1.0000
  C   C1930     1.0  0.69252  0.53063  0.09715  1.0000
  C   C1931     1.0  0.68760  0.52629  0.11436  1.0000
  C   C1932     1.0  0.67900  0.51352  0.12181  1.0000
  C   C1933     1.0  0.67567  0.50468  0.11211  1.0000
  C   C1934     1.0  0.68038  0.50917  0.09486  1.0000
  C   C1935     1.0  0.68856  0.52228  0.08739  1.0000
  H   H2306     1.0  0.69057  0.53274  0.12198  1.0000
  H   H2307     1.0  0.67537  0.51024  0.13508  1.0000
  H   H2308     1.0  0.67777  0.50241  0.08730  1.0000
  H   H2309     1.0  0.69215  0.52561  0.07415  1.0000
  C   C1936     1.0  0.74282  0.61383  0.02783  1.0000
  C   C1937     1.0  0.74688  0.62921  0.02078  1.0000
  C   C1938     1.0  0.76327  0.63082  0.01764  1.0000
  C   C1939     1.0  0.77580  0.61709  0.02143  1.0000
  C   C1940     1.0  0.77175  0.60168  0.02878  1.0000
  C   C1941     1.0  0.75523  0.60005  0.03200  1.0000
  H   H2310     1.0  0.69442  0.46842  0.21935  1.0000
  C   C1942     1.0  0.62618  0.43951  0.20510  1.0000
  H   H2311     1.0  0.78137  0.59101  0.03182  1.0000
  H   H2312     1.0  0.75213  0.58816  0.03768  1.0000
  C   C1943     1.0  0.65871  0.59764  0.01859  1.0000
  C   C1944     1.0  0.66982  0.60761  0.00927  1.0000
  C   C1945     1.0  0.65789  0.57623  0.98385  1.0000
  C   C1946     1.0  0.60635  0.42236  0.21892  1.0000
  C   C1947     1.0  0.63585  0.62141  0.01600  1.0000
  C   C1948     1.0  0.64170  0.60450  0.02181  1.0000
  C   C1949     1.0  0.55000  0.60826  0.21855  1.0000
  C   C1950     1.0  0.74555  0.54351  0.99113  1.0000
  H   H2313     1.0  0.63307  0.59681  0.02906  1.0000
  C   C1951     1.0  0.71857  0.49154  0.10803  1.0000
  C   C1952     1.0  0.54945  0.35454  0.14073  1.0000
  C   C1953     1.0  0.71543  0.47086  0.09580  1.0000
  C   C1954     1.0  0.55809  0.38234  0.17110  1.0000
  H   H2314     1.0  0.70757  0.64175  0.00710  1.0000
  H   H2315     1.0  0.81916  0.63395  0.06131  1.0000
  C   C1955     1.0  0.57443  0.35794  0.18473  1.0000
  N   N127      1.0  0.56970  0.36655  0.16871  1.0000
  H   H2316     1.0  0.53728  0.46148  0.16769  1.0000
  N   N128      1.0  0.61756  0.43147  0.22142  1.0000
  C   C1956     1.0  0.65993  0.49794  0.21322  1.0000
  H   H2317     1.0  0.62669  0.50815  0.21340  1.0000
  C   C1957     1.0  0.58498  0.37022  0.15671  1.0000
  C   C1958     1.0  0.59560  0.56263  0.19562  1.0000
  S   S532      1.0  0.96303  0.62555  0.18188  1.0000
  C   C1959     1.0  0.64696  0.63126  0.00630  1.0000
  H   H2318     1.0  0.83829  0.63658  0.01688  1.0000
  H   H2319     1.0  0.70698  0.64873  0.03200  1.0000
  N   N129      1.0  0.55160  0.50951  0.18728  1.0000
  C   C1960     1.0  0.56431  0.51795  0.17516  1.0000
  C   C1961     1.0  0.53661  0.52243  0.19134  1.0000
  C   C1962     1.0  0.55812  0.50139  0.20240  1.0000
  C   C1963     1.0  0.54741  0.49692  0.18126  1.0000
  C   C1964     1.0  0.55658  0.49156  0.16653  1.0000
  C   C1965     1.0  0.53443  0.48885  0.19079  1.0000
  C   C1966     1.0  0.55280  0.47903  0.16166  1.0000
  C   C1967     1.0  0.53073  0.47638  0.18577  1.0000
  H   H2320     1.0  0.64191  0.46769  0.22114  1.0000
  H   H2321     1.0  0.98390  0.58531  0.18333  1.0000
  H   H2322     1.0  0.50742  0.37138  0.15853  1.0000
  H   H2323     1.0  0.57653  0.50928  0.17277  1.0000
  H   H2324     1.0  0.53056  0.52796  0.18061  1.0000
  H   H2325     1.0  0.53965  0.53258  0.19493  1.0000
  H   H2326     1.0  0.52725  0.51763  0.20201  1.0000
  H   H2327     1.0  0.56878  0.49093  0.20013  1.0000
  H   H2328     1.0  0.56246  0.51010  0.20679  1.0000
  H   H2329     1.0  0.54859  0.49641  0.21269  1.0000
  H   H2330     1.0  0.56715  0.49639  0.15884  1.0000
  H   H2331     1.0  0.52728  0.49178  0.20243  1.0000
  H   H2332     1.0  0.59121  0.45648  0.21389  1.0000
  H   H2333     1.0  0.54577  0.35969  0.12898  1.0000
  H   H2334     1.0  0.56012  0.33613  0.18378  1.0000
  H   H2335     1.0  0.68095  0.55525  0.00211  1.0000
  C   C1968     1.0  0.55783  0.34159  0.17154  1.0000
  C   C1969     1.0  0.55727  0.36319  0.14682  1.0000
  C   C1970     1.0  0.73543  0.60927  0.98290  1.0000
  C   C1971     1.0  0.75846  0.58034  0.00008  1.0000
  H   H2336     1.0  0.58315  0.34586  0.18389  1.0000
  H   H2337     1.0  0.62147  0.56241  0.18508  1.0000
  H   H2338     1.0  0.72498  0.49260  0.04702  1.0000
  S   S533      1.0  0.56323  0.56215  0.21029  1.0000
  C   C1972     1.0  0.51881  0.35704  0.19576  1.0000
  H   H2339     1.0  0.75291  0.57023  0.99976  1.0000
  H   H2340     1.0  0.53774  0.61500  0.21573  1.0000
  H   H2341     1.0  0.72961  0.51083  0.09230  1.0000
  C   C1973     1.0  0.97224  0.60319  0.20878  1.0000
  H   H2342     1.0  0.73739  0.63995  0.01756  1.0000
  H   H2343     1.0  0.96058  0.59966  0.21073  1.0000
  C   C1974     1.0  0.55015  0.33299  0.16525  1.0000
  H   H2344     1.0  0.63467  0.44649  0.20650  1.0000
  H   H2345     1.0  0.71237  0.51026  0.05484  1.0000
  H   H2346     1.0  0.65829  0.57336  0.99711  1.0000
  H   H2347     1.0  0.76920  0.57467  0.00614  1.0000
  H   H2348     1.0  0.64175  0.52954  0.21117  1.0000
  C   C1975     1.0  0.51721  0.46024  0.22911  1.0000
  H   H2349     1.0  0.97864  0.58665  0.23098  1.0000
  C   C1976     1.0  0.72334  0.47859  0.08033  1.0000
  C   C1977     1.0  0.64959  0.45861  0.22878  1.0000
  H   H2350     1.0  0.61746  0.44845  0.19780  1.0000
  H   H2351     1.0  0.71619  0.49684  0.11874  1.0000
  C   C1978     1.0  0.71292  0.47741  0.10959  1.0000
  C   C1979     1.0  0.59453  0.45638  0.22517  1.0000
  H   H2352     1.0  0.59151  0.37692  0.16150  1.0000
  H   H2353     1.0  0.72685  0.52658  0.06564  1.0000
  H   H2354     1.0  0.63373  0.43039  0.19749  1.0000
  H   H2355     1.0  0.81094  0.62809  0.04709  1.0000
  Fe  Fe266     1.0  0.53536  0.38361  0.21526  1.0000
  H   H2356     1.0  0.56370  0.38995  0.17574  1.0000
  H   H2357     1.0  0.72498  0.47303  0.07003  1.0000
  C   C1980     1.0  0.50984  0.36279  0.16979  1.0000
  C   C1981     1.0  0.51060  0.33572  0.18746  1.0000
  C   C1982     1.0  0.77081  0.60338  0.98428  1.0000
  H   H2358     1.0  0.72964  0.51230  0.03762  1.0000
  H   H2359     1.0  0.56669  0.52785  0.17970  1.0000
  H   H2360     1.0  0.68317  0.42682  0.22662  1.0000
  H   H2361     1.0  0.75854  0.49766  0.04303  1.0000
  H   H2362     1.0  0.52091  0.47023  0.19338  1.0000
  H   H2363     1.0  0.75141  0.47934  0.05467  1.0000
  H   H2364     1.0  0.76093  0.48949  0.06405  1.0000
  H   H2365     1.0  0.76247  0.61134  0.99272  1.0000
  N   N130      1.0  0.73613  0.50188  0.06150  1.0000
  C   C1983     1.0  0.75247  0.49162  0.05555  1.0000
  C   C1984     1.0  0.72533  0.50433  0.04978  1.0000
  C   C1985     1.0  0.73873  0.51836  0.06106  1.0000
  C   C1986     1.0  0.72860  0.49344  0.07817  1.0000
  C   C1987     1.0  0.72628  0.49952  0.09260  1.0000
  C   C1988     1.0  0.73062  0.55246  0.98674  1.0000
  H   H2366     1.0  0.62273  0.62677  0.01876  1.0000
  H   H2367     1.0  0.73591  0.61310  0.99369  1.0000
  C   C1989     1.0  0.98248  0.59578  0.22019  1.0000
  H   H2368     1.0  0.67245  0.63169  0.99515  1.0000
  H   H2369     1.0  0.54650  0.38012  0.18021  1.0000
  H   H2370     1.0  0.71977  0.55542  0.99614  1.0000
  H   H2371     1.0  0.68029  0.48538  0.19702  1.0000
  C   C1990     1.0  0.69336  0.64958  0.03588  1.0000
  H   H2372     1.0  0.69263  0.62920  0.01731  1.0000
  H   H2373     1.0  0.61098  0.51422  0.23016  1.0000
  C   C1991     1.0  0.97634  0.64945  0.22111  1.0000
  H   H2374     1.0  0.56028  0.47482  0.15065  1.0000
  H   H2375     1.0  0.56335  0.35589  0.19474  1.0000
  H   H2376     1.0  0.55850  0.61701  0.21383  1.0000
  H   H2377     1.0  0.78233  0.59828  0.98924  1.0000
  C   C1992     1.0  0.56177  0.35695  0.16240  1.0000
  H   H2378     1.0  0.56041  0.52381  0.16323  1.0000
  C   C1993     1.0  0.69728  0.53427  0.99399  1.0000
  H   H2379     1.0  0.81669  0.64172  0.01730  1.0000
  Fe  Fe267     1.0  0.96613  0.65062  0.16626  1.0000
  H   H2380     1.0  0.68474  0.58271  0.98967  1.0000
  H   H2381     1.0  0.55945  0.37498  0.13936  1.0000
  C   C1994     1.0  0.82142  0.63270  0.04832  1.0000
  H   H2382     1.0  0.51867  0.33232  0.21008  1.0000
  C   C1995     1.0  0.68692  0.54992  0.99141  1.0000
  C   C1996     1.0  0.67501  0.48690  0.20961  1.0000
  N   N131      1.0  0.76338  0.59011  0.98324  1.0000
  H   H2383     1.0  0.53941  0.33301  0.14540  1.0000
  H   H2384     1.0  0.61333  0.41214  0.21248  1.0000
  Fe  Fe268     1.0  0.79692  0.64309  0.99752  1.0000
  H   H2385     1.0  0.85585  0.63287  0.03422  1.0000
  C   C1997     1.0  0.82681  0.64605  0.01957  1.0000
  C   C1998     1.0  0.99128  0.57557  0.17640  1.0000
  H   H2386     1.0  0.65417  0.50491  0.20301  1.0000
  H   H2387     1.0  0.69891  0.52798  0.00635  1.0000
  H   H2388     1.0  0.93702  0.63149  0.22815  1.0000
  H   H2389     1.0  0.64009  0.42490  0.23064  1.0000
  H   H2390     1.0  0.50889  0.32323  0.19000  1.0000
  H   H2391     1.0  0.66165  0.65247  0.01825  1.0000
  H   H2392     1.0  0.59892  0.41690  0.23089  1.0000
  C   C1999     1.0  0.63741  0.52816  0.22474  1.0000
  S   S534      1.0  0.55747  0.41319  0.22574  1.0000
  C   C2000     1.0  0.85307  0.64484  0.03722  1.0000
  S   S535      1.0  0.51465  0.44344  0.22254  1.0000
  H   H2393     1.0  0.98815  0.60481  0.15915  1.0000
  C   C2001     1.0  0.66794  0.65206  0.02807  1.0000
  H   H2394     1.0  0.54293  0.45153  0.23062  1.0000
  H   H2395     1.0  0.98654  0.57761  0.16504  1.0000
  C   C2002     1.0  0.99185  0.62007  0.19275  1.0000
  C   C2003     1.0  0.62361  0.50646  0.22703  1.0000
  C   C2004     1.0  0.65228  0.49967  0.22966  1.0000
  H   H2396     1.0  0.62527  0.53703  0.22670  1.0000
  H   H2397     1.0  0.57546  0.47800  0.22896  1.0000
  H   H2398     1.0  0.98860  0.56364  0.18430  1.0000
  H   H2399     1.0  0.87869  0.64288  0.03724  1.0000
  C   C2005     1.0  0.60789  0.44429  0.23087  1.0000
  C   C2006     1.0  0.86623  0.65041  0.03895  1.0000
  H   H2400     1.0  0.54688  0.32149  0.17258  1.0000
  H   H2401     1.0  0.64644  0.53214  0.22913  1.0000
  H   H2402     1.0  0.56935  0.58076  0.23142  1.0000
  H   H2403     1.0  0.49456  0.32768  0.07560  1.0000
  S   S536      1.0  0.63979  0.65231  0.99857  1.0000
  C   C2007     1.0  0.50333  0.47307  0.23121  1.0000
  C   C2008     1.0  0.53210  0.46137  0.23224  1.0000
  H   H2404     1.0  0.62280  0.49335  0.23238  1.0000
  Fe  Fe269     1.0  0.53605  0.54605  0.26848  1.0000
  S   S537      1.0  0.56242  0.54581  0.25577  1.0000
  S   S538      1.0  0.52279  0.56377  0.28553  1.0000
  Fe  Fe270     1.0  0.53468  0.51887  0.25185  1.0000
  C   C2009     1.0  0.97558  0.34210  0.29005  1.0000
  S   S539      1.0  0.51726  0.50508  0.24840  1.0000
  Fe  Fe271     1.0  0.56571  0.51844  0.26190  1.0000
  S   S540      1.0  0.58893  0.50439  0.27046  1.0000
  H   H2405     1.0  0.49815  0.45725  0.26878  1.0000
  S   S541      1.0  0.53969  0.51845  0.27634  1.0000
  H   H2406     1.0  0.71571  0.34230  0.47383  1.0000
  H   H2407     1.0  0.72787  0.34560  0.42657  1.0000
  S   S542      1.0  0.55836  0.37998  0.26593  1.0000
  C   C2010     1.0  0.95099  0.36375  0.28984  1.0000
  Fe  Fe272     1.0  0.64175  0.42731  0.29226  1.0000
  S   S543      1.0  0.61871  0.42483  0.28695  1.0000
  S   S544      1.0  0.65382  0.44789  0.27634  1.0000
  Fe  Fe273     1.0  0.64103  0.39886  0.32200  1.0000
  S   S545      1.0  0.61754  0.39376  0.31908  1.0000
  S   S546      1.0  0.65595  0.38468  0.34156  1.0000
  Fe  Fe274     1.0  0.62909  0.39774  0.29188  1.0000
  S   S547      1.0  0.62846  0.38595  0.27167  1.0000
  Fe  Fe275     1.0  0.60907  0.42139  0.31416  1.0000
  S   S548      1.0  0.58362  0.43684  0.32075  1.0000
  S   S549      1.0  0.65332  0.40041  0.29511  1.0000
  S   S550      1.0  0.63145  0.42609  0.31923  1.0000
  Fe  Fe276     1.0  0.68862  0.40690  0.40755  1.0000
  S   S551      1.0  0.70352  0.38123  0.40764  1.0000
  S   S552      1.0  0.67290  0.42051  0.38862  1.0000
  Fe  Fe277     1.0  0.69797  0.40766  0.43973  1.0000
  S   S553      1.0  0.71322  0.38184  0.44214  1.0000
  S   S554      1.0  0.69353  0.42450  0.45729  1.0000
  Fe  Fe278     1.0  0.72257  0.38964  0.41481  1.0000
  S   S555      1.0  0.74906  0.38558  0.40112  1.0000
  Fe  Fe279     1.0  0.69240  0.37647  0.43472  1.0000
  S   S556      1.0  0.68169  0.35394  0.44538  1.0000
  S   S557      1.0  0.70858  0.41589  0.41271  1.0000
  S   S558      1.0  0.67628  0.40168  0.43436  1.0000
  C   C2011     1.0  0.64637  0.45837  0.24570  1.0000
  C   C2012     1.0  0.72573  0.33387  0.43534  1.0000
  H   H2408     1.0  0.75063  0.42608  0.43607  1.0000
  H   H2409     1.0  0.76050  0.37349  0.45263  1.0000
  H   H2410     1.0  0.54905  0.57776  0.33400  1.0000
  Fe  Fe280     1.0  0.54750  0.63225  0.31222  1.0000
  S   S559      1.0  0.54806  0.63466  0.33752  1.0000
  S   S560      1.0  0.56090  0.60947  0.30170  1.0000
  C   C2013     1.0  0.77932  0.38898  0.48223  1.0000
  H   H2411     1.0  0.68213  0.47120  0.24820  1.0000
  H   H2412     1.0  0.63621  0.46727  0.25100  1.0000
  C   C2014     1.0  0.71249  0.32840  0.41656  1.0000
  H   H2413     1.0  0.62726  0.49832  0.25805  1.0000
  H   H2414     1.0  0.74685  0.42521  0.46394  1.0000
  H   H2415     1.0  0.67753  0.42642  0.25650  1.0000
  H   H2416     1.0  0.56552  0.58464  0.25158  1.0000
  H   H2417     1.0  0.95466  0.36767  0.27621  1.0000
  H   H2418     1.0  0.74285  0.41316  0.42825  1.0000
  H   H2419     1.0  0.58366  0.41787  0.26550  1.0000
  H   H2420     1.0  0.63759  0.51465  0.25648  1.0000
  C   C2015     1.0  0.66848  0.35426  0.46475  1.0000
  C   C2016     1.0  0.77496  0.38829  0.46796  1.0000
  C   C2017     1.0  0.66346  0.36852  0.47119  1.0000
  C   C2018     1.0  0.74602  0.41447  0.43950  1.0000
  H   H2421     1.0  0.66773  0.37957  0.46428  1.0000
  C   C2019     1.0  0.75953  0.36490  0.40422  1.0000
  C   C2020     1.0  0.76929  0.35815  0.39075  1.0000
  H   H2422     1.0  0.56661  0.41502  0.25946  1.0000
  C   C2021     1.0  0.76767  0.33894  0.42266  1.0000
  C   C2022     1.0  0.69901  0.43918  0.47883  1.0000
  C   C2023     1.0  0.75860  0.35520  0.42016  1.0000
  H   H2423     1.0  0.77009  0.36568  0.37838  1.0000
  C   C2024     1.0  0.61252  0.36664  0.39555  1.0000
  C   C2025     1.0  0.77337  0.39837  0.43211  1.0000
  H   H2424     1.0  0.75113  0.36023  0.43064  1.0000
  H   H2425     1.0  0.70009  0.33274  0.42401  1.0000
  C   C2026     1.0  0.95914  0.34943  0.31533  1.0000
  H   H2426     1.0  0.55854  0.51514  0.34628  1.0000
  H   H2427     1.0  0.60562  0.36259  0.38910  1.0000
  H   H2428     1.0  0.99153  0.38797  0.31511  1.0000
  H   H2429     1.0  0.63887  0.36434  0.44339  1.0000
  H   H2430     1.0  0.51954  0.62414  0.23822  1.0000
  C   C2027     1.0  0.66096  0.39500  0.35412  1.0000
  C   C2028     1.0  0.65234  0.41090  0.35594  1.0000
  C   C2029     1.0  0.65641  0.41870  0.36624  1.0000
  C   C2030     1.0  0.66895  0.41058  0.37504  1.0000
  C   C2031     1.0  0.67756  0.39466  0.37326  1.0000
  C   C2032     1.0  0.67354  0.38688  0.36289  1.0000
  H   H2431     1.0  0.64227  0.41708  0.34973  1.0000
  H   H2432     1.0  0.64957  0.43096  0.36764  1.0000
  H   H2433     1.0  0.68737  0.38833  0.37980  1.0000
  H   H2434     1.0  0.68024  0.37455  0.36162  1.0000
  C   C2033     1.0  0.65662  0.44696  0.25565  1.0000
  H   H2435     1.0  0.95087  0.35927  0.32170  1.0000
  C   C2034     1.0  0.53403  0.42846  0.27045  1.0000
  N   N132      1.0  0.72532  0.32136  0.42664  1.0000
  C   C2035     1.0  0.60915  0.38373  0.27020  1.0000
  C   C2036     1.0  0.60604  0.38518  0.25463  1.0000
  C   C2037     1.0  0.59053  0.38395  0.25314  1.0000
  C   C2038     1.0  0.57832  0.38049  0.26730  1.0000
  C   C2039     1.0  0.58176  0.37819  0.28288  1.0000
  C   C2040     1.0  0.59695  0.38026  0.28433  1.0000
  H   H2436     1.0  0.61562  0.38734  0.24369  1.0000
  H   H2437     1.0  0.95866  0.61686  0.24416  1.0000
  H   H2438     1.0  0.57248  0.37517  0.29388  1.0000
  H   H2439     1.0  0.59938  0.37877  0.29639  1.0000
  C   C2041     1.0  0.53349  0.57655  0.28981  1.0000
  C   C2042     1.0  0.52449  0.58947  0.29780  1.0000
  C   C2043     1.0  0.53267  0.59981  0.30134  1.0000
  C   C2044     1.0  0.54995  0.59728  0.29695  1.0000
  C   C2045     1.0  0.55894  0.58438  0.28894  1.0000
  C   C2046     1.0  0.55077  0.57404  0.28545  1.0000
  C   C2047     1.0  0.98872  0.38485  0.30492  1.0000
  H   H2440     1.0  0.52559  0.60961  0.30761  1.0000
  H   H2441     1.0  0.57231  0.58222  0.28566  1.0000
  H   H2442     1.0  0.55794  0.56400  0.27963  1.0000
  C   C2048     1.0  0.58684  0.48625  0.28526  1.0000
  C   C2049     1.0  0.57142  0.48199  0.29204  1.0000
  C   C2050     1.0  0.57018  0.46728  0.30383  1.0000
  C   C2051     1.0  0.58448  0.45648  0.30821  1.0000
  C   C2052     1.0  0.59980  0.46093  0.30151  1.0000
  C   C2053     1.0  0.60097  0.47584  0.29023  1.0000
  H   H2443     1.0  0.56047  0.48988  0.28820  1.0000
  H   H2444     1.0  0.55825  0.46403  0.30911  1.0000
  H   H2445     1.0  0.61088  0.45286  0.30486  1.0000
  H   H2446     1.0  0.61295  0.47902  0.28503  1.0000
  H   H2447     1.0  0.66079  0.36138  0.41887  1.0000
  H   H2448     1.0  0.74418  0.32964  0.40597  1.0000
  Fe  Fe281     1.0  0.55481  0.54455  0.23345  1.0000
  C   C2054     1.0  0.52199  0.63832  0.25379  1.0000
  N   N133      1.0  0.68223  0.43275  0.31326  1.0000
  H   H2449     1.0  0.56567  0.50285  0.31390  1.0000
  C   C2055     1.0  0.75613  0.41489  0.46836  1.0000
  H   H2450     1.0  0.60059  0.35523  0.41961  1.0000
  N   N134      1.0  0.55743  0.52646  0.32099  1.0000
  H   H2451     1.0  0.58271  0.47961  0.25429  1.0000
  C   C2056     1.0  0.54970  0.51872  0.33791  1.0000
  C   C2057     1.0  0.56350  0.54078  0.32155  1.0000
  C   C2058     1.0  0.58036  0.54208  0.31557  1.0000
  C   C2059     1.0  0.55238  0.55401  0.32831  1.0000
  C   C2060     1.0  0.58564  0.55573  0.31652  1.0000
  C   C2061     1.0  0.55782  0.56753  0.32925  1.0000
  C   C2062     1.0  0.57441  0.56839  0.32338  1.0000
  C   C2063     1.0  0.63648  0.37798  0.43886  1.0000
  H   H2452     1.0  0.98678  0.33637  0.29532  1.0000
  N   N135      1.0  0.63596  0.51101  0.23319  1.0000
  H   H2453     1.0  0.94283  0.35487  0.29221  1.0000
  S   S561      1.0  0.50213  0.64308  0.36189  1.0000
  H   H2454     1.0  0.55017  0.53791  0.29783  1.0000
  H   H2455     1.0  0.58969  0.53283  0.30996  1.0000
  H   H2456     1.0  0.53930  0.55420  0.33264  1.0000
  H   H2457     1.0  0.59847  0.55666  0.31171  1.0000
  H   H2458     1.0  0.61602  0.36391  0.43436  1.0000
  H   H2459     1.0  0.65605  0.49009  0.25509  1.0000
  N   N136      1.0  0.55977  0.42832  0.27916  1.0000
  C   C2064     1.0  0.57083  0.42391  0.26376  1.0000
  C   C2065     1.0  0.56769  0.43855  0.28473  1.0000
  C   C2066     1.0  0.55871  0.41310  0.29214  1.0000
  C   C2067     1.0  0.54296  0.43658  0.27626  1.0000
  C   C2068     1.0  0.63846  0.40087  0.41584  1.0000
  H   H2460     1.0  0.69825  0.40080  0.32740  1.0000
  C   C2069     1.0  0.62427  0.37593  0.38662  1.0000
  C   C2070     1.0  0.54483  0.53205  0.31067  1.0000
  H   H2461     1.0  0.56065  0.44128  0.29692  1.0000
  H   H2462     1.0  0.56887  0.45031  0.27563  1.0000
  H   H2463     1.0  0.58042  0.43207  0.28652  1.0000
  H   H2464     1.0  0.56503  0.60982  0.25664  1.0000
  H   H2465     1.0  0.57096  0.40685  0.29533  1.0000
  H   H2466     1.0  0.54996  0.41590  0.30369  1.0000
  H   H2467     1.0  0.54057  0.45967  0.28385  1.0000
  H   H2468     1.0  0.65811  0.44650  0.30889  1.0000
  C   C2071     1.0  0.70896  0.41802  0.35264  1.0000
  H   H2469     1.0  0.67199  0.42314  0.29845  1.0000
  C   C2072     1.0  0.69178  0.44232  0.29857  1.0000
  C   C2073     1.0  0.70175  0.43452  0.34738  1.0000
  H   H2470     1.0  0.74725  0.38431  0.43865  1.0000
  C   C2074     1.0  0.57064  0.51347  0.31399  1.0000
  H   H2471     1.0  0.67231  0.41094  0.31883  1.0000
  C   C2075     1.0  0.66577  0.44340  0.31832  1.0000
  H   H2472     1.0  0.69109  0.41089  0.30291  1.0000
  H   H2473     1.0  0.60588  0.45899  0.26480  1.0000
  H   H2474     1.0  0.77016  0.39781  0.42058  1.0000
  C   C2076     1.0  0.75143  0.38519  0.44944  1.0000
  H   H2475     1.0  0.66661  0.45542  0.32000  1.0000
  C   C2077     1.0  0.53480  0.45248  0.27949  1.0000
  H   H2476     1.0  0.70425  0.43479  0.29435  1.0000
  S   S562      1.0  0.56106  0.51692  0.23806  1.0000
  C   C2078     1.0  0.53274  0.47520  0.23785  1.0000
  C   C2079     1.0  0.67933  0.41877  0.30824  1.0000
  H   H2477     1.0  0.54400  0.47584  0.24076  1.0000
  C   C2080     1.0  0.66322  0.33988  0.47401  1.0000
  H   H2478     1.0  0.57145  0.43504  0.25359  1.0000
  C   C2081     1.0  0.56553  0.59079  0.23844  1.0000
  H   H2479     1.0  0.55433  0.40400  0.28829  1.0000
  N   N137      1.0  0.75850  0.39999  0.44570  1.0000
  C   C2082     1.0  0.69908  0.41071  0.33234  1.0000
  N   N138      1.0  0.64075  0.38263  0.42055  1.0000
  C   C2083     1.0  0.76318  0.40122  0.46059  1.0000
  H   H2480     1.0  0.54119  0.57955  0.23599  1.0000
  H   H2481     1.0  0.62481  0.41282  0.24218  1.0000
  H   H2482     1.0  0.64423  0.38243  0.44452  1.0000
  C   C2084     1.0  0.61870  0.36763  0.42108  1.0000
  C   C2085     1.0  0.60259  0.45815  0.25381  1.0000
  C   C2086     1.0  0.70783  0.40619  0.34499  1.0000
  H   H2483     1.0  0.62517  0.40701  0.41900  1.0000
  C   C2087     1.0  0.71332  0.41066  0.48090  1.0000
  C   C2088     1.0  0.97565  0.36850  0.29486  1.0000
  H   H2484     1.0  0.55482  0.63221  0.27109  1.0000
  S   S563      1.0  0.52802  0.54671  0.24551  1.0000
  C   C2089     1.0  0.65847  0.37508  0.41522  1.0000
  C   C2090     1.0  0.67610  0.47902  0.23840  1.0000
  H   H2485     1.0  0.78490  0.33623  0.38277  1.0000
  H   H2486     1.0  0.57841  0.57919  0.32368  1.0000
  H   H2487     1.0  0.66293  0.37838  0.40170  1.0000
  C   C2091     1.0  0.63320  0.38118  0.39483  1.0000
  H   H2488     1.0  0.51112  0.59151  0.30127  1.0000
  C   C2092     1.0  0.95990  0.62842  0.23548  1.0000
  H   H2489     1.0  0.78276  0.38691  0.43513  1.0000
  C   C2093     1.0  0.69331  0.43925  0.33448  1.0000
  C   C2094     1.0  0.51874  0.45969  0.27698  1.0000
  H   H2490     1.0  0.52456  0.59658  0.23967  1.0000
  H   H2491     1.0  0.64299  0.40538  0.40244  1.0000
  C   C2095     1.0  0.51849  0.48781  0.24030  1.0000
  H   H2492     1.0  0.58047  0.50836  0.32131  1.0000
  H   H2493     1.0  0.69093  0.44994  0.47311  1.0000
  H   H2494     1.0  0.61701  0.51943  0.25320  1.0000
  H   H2495     1.0  0.53398  0.54130  0.31539  1.0000
  H   H2496     1.0  0.77942  0.40900  0.42926  1.0000
  C   C2096     1.0  0.61167  0.44558  0.24548  1.0000
  H   H2497     1.0  0.94340  0.37479  0.29473  1.0000
  H   H2498     1.0  0.73414  0.41601  0.44878  1.0000
  Fe  Fe282     1.0  0.55206  0.38893  0.24073  1.0000
  H   H2499     1.0  0.64549  0.40552  0.42209  1.0000
  H   H2500     1.0  0.71522  0.41437  0.36286  1.0000
  S   S564      1.0  0.52025  0.64278  0.31412  1.0000
  H   H2501     1.0  0.68531  0.44640  0.28805  1.0000
  H   H2502     1.0  0.70250  0.44364  0.35353  1.0000
  H   H2503     1.0  0.62659  0.37904  0.37321  1.0000
  H   H2504     1.0  0.53845  0.52710  0.34338  1.0000
  H   H2505     1.0  0.68817  0.45223  0.33072  1.0000
  H   H2506     1.0  0.69362  0.45360  0.30111  1.0000
  H   H2507     1.0  0.66649  0.37921  0.42075  1.0000
  H   H2508     1.0  0.71329  0.39333  0.34928  1.0000
  C   C2097     1.0  0.69140  0.42745  0.32677  1.0000
  N   N139      1.0  0.54898  0.60121  0.23644  1.0000
  H   H2509     1.0  0.74062  0.38558  0.46001  1.0000
  H   H2510     1.0  0.57645  0.51820  0.30091  1.0000
  H   H2511     1.0  0.73573  0.32937  0.44243  1.0000
  C   C2098     1.0  0.66096  0.48998  0.24219  1.0000
  C   C2099     1.0  0.58955  0.46977  0.24790  1.0000
  N   N140      1.0  0.96551  0.35619  0.29761  1.0000
  C   C2100     1.0  0.54334  0.61467  0.24565  1.0000
  H   H2512     1.0  0.58809  0.38546  0.24108  1.0000
  C   C2101     1.0  0.51038  0.45139  0.27121  1.0000
  H   H2513     1.0  0.62333  0.38344  0.44384  1.0000
  H   H2514     1.0  0.57532  0.59813  0.23376  1.0000
  H   H2515     1.0  0.96946  0.34310  0.32186  1.0000
  C   C2102     1.0  0.62928  0.51078  0.25103  1.0000
  C   C2103     1.0  0.51803  0.43583  0.26790  1.0000
  C   C2104     1.0  0.60973  0.36251  0.41273  1.0000
  C   C2105     1.0  0.66966  0.43537  0.24883  1.0000
  H   H2516     1.0  0.54569  0.50741  0.33807  1.0000
  H   H2517     1.0  0.50990  0.64638  0.25339  1.0000
  C   C2106     1.0  0.52763  0.62554  0.24518  1.0000
  H   H2518     1.0  0.53986  0.52166  0.31002  1.0000
  S   S565      1.0  0.75816  0.34002  0.47701  1.0000
  H   H2519     1.0  0.65871  0.43716  0.33009  1.0000
  H   H2520     1.0  0.64219  0.38830  0.38732  1.0000
  H   H2521     1.0  0.53935  0.41631  0.26778  1.0000
  C   C2107     1.0  0.63075  0.37718  0.41230  1.0000
  H   H2522     1.0  0.71543  0.33934  0.40684  1.0000
  H   H2523     1.0  0.62184  0.43723  0.25056  1.0000
  C   C2108     1.0  0.53700  0.59022  0.24217  1.0000
  C   C2109     1.0  0.70279  0.42449  0.47336  1.0000
  C   C2110     1.0  0.53182  0.64074  0.26304  1.0000
  C   C2111     1.0  0.77696  0.33194  0.40923  1.0000
  H   H2524     1.0  0.71635  0.39933  0.47663  1.0000
  H   H2525     1.0  0.76725  0.33185  0.43505  1.0000
  Fe  Fe283     1.0  0.52125  0.64684  0.33848  1.0000
  C   C2112     1.0  0.55305  0.61750  0.25522  1.0000
  C   C2113     1.0  0.50393  0.48660  0.23685  1.0000
  H   H2526     1.0  0.95176  0.34005  0.31698  1.0000
  C   C2114     1.0  0.99245  0.38758  0.27565  1.0000
  C   C2115     1.0  0.77774  0.34155  0.39322  1.0000
  S   S566      1.0  0.52564  0.39476  0.23797  1.0000
  C   C2116     1.0  0.54731  0.63040  0.26368  1.0000
  H   H2527     1.0  0.96852  0.33234  0.29222  1.0000
  H   H2528     1.0  0.97992  0.34573  0.27649  1.0000
  H   H2529     1.0  0.52740  0.65059  0.26981  1.0000
  H   H2530     1.0  0.66710  0.32881  0.46910  1.0000
  H   H2531     1.0  0.51167  0.42962  0.26293  1.0000
  H   H2532     1.0  0.71400  0.33702  0.44428  1.0000
  H   H2533     1.0  0.98320  0.62725  0.23992  1.0000
  H   H2534     1.0  0.84559  0.32099  0.37825  1.0000
  C   C2117     1.0  0.97901  0.37325  0.30801  1.0000
  C   C2118     1.0  0.58549  0.46885  0.23364  1.0000
  C   C2119     1.0  0.98267  0.37606  0.27858  1.0000
  H   H2535     1.0  0.97456  0.36801  0.32083  1.0000
  H   H2536     1.0  0.53536  0.58520  0.25568  1.0000
  H   H2537     1.0  0.78062  0.37735  0.46299  1.0000
  H   H2538     1.0  0.98083  0.37296  0.26797  1.0000
  H   H2539     1.0  0.51288  0.47203  0.27902  1.0000
  H   H2540     1.0  0.72753  0.36307  0.47877  1.0000
  C   C2120     1.0  0.76060  0.41541  0.48264  1.0000
  C   C2121     1.0  0.97406  0.63462  0.23286  1.0000
  H   H2541     1.0  0.89517  0.60865  0.69597  1.0000
  H   H2542     1.0  0.83107  0.50223  0.72505  1.0000
  Fe  Fe284     1.0  0.88009  0.57153  0.65743  1.0000
  S   S567      1.0  0.85292  0.57703  0.65783  1.0000
  S   S568      1.0  0.89506  0.59134  0.64586  1.0000
  Fe  Fe285     1.0  0.88114  0.53481  0.67211  1.0000
  S   S569      1.0  0.85408  0.53740  0.67419  1.0000
  S   S570      1.0  0.89747  0.50949  0.67680  1.0000
  Fe  Fe286     1.0  0.85804  0.55354  0.64903  1.0000
  S   S571      1.0  0.84775  0.55194  0.62827  1.0000
  Fe  Fe287     1.0  0.85147  0.56044  0.68286  1.0000
  S   S572      1.0  0.83138  0.56705  0.70407  1.0000
  S   S573      1.0  0.88549  0.54948  0.64613  1.0000
  S   S574      1.0  0.87826  0.55642  0.68329  1.0000
  H   H2543     1.0  0.80929  0.42887  0.72177  1.0000
  C   C2122     1.0  0.71999  0.32526  0.52628  1.0000
  H   H2544     1.0  0.83071  0.42052  0.71470  1.0000
  Fe  Fe288     1.0  0.87800  0.41511  0.71388  1.0000
  S   S575      1.0  0.88805  0.41245  0.68765  1.0000
  H   H2545     1.0  0.93795  0.36883  0.68242  1.0000
  Fe  Fe289     1.0  0.81372  0.45355  0.64713  1.0000
  S   S576      1.0  0.79299  0.44150  0.66284  1.0000
  S   S577      1.0  0.83936  0.43941  0.63832  1.0000
  Fe  Fe290     1.0  0.79239  0.48783  0.64512  1.0000
  S   S578      1.0  0.76974  0.47856  0.66056  1.0000
  S   S579      1.0  0.79140  0.51488  0.63432  1.0000
  Fe  Fe291     1.0  0.78718  0.46206  0.67651  1.0000
  S   S580      1.0  0.78428  0.45643  0.70436  1.0000
  Fe  Fe292     1.0  0.77755  0.45896  0.64522  1.0000
  S   S581      1.0  0.75799  0.45260  0.63545  1.0000
  S   S582      1.0  0.80923  0.47260  0.66197  1.0000
  S   S583      1.0  0.79888  0.46976  0.62863  1.0000
  Fe  Fe293     1.0  0.75406  0.37753  0.54669  1.0000
  S   S584      1.0  0.75831  0.40316  0.54087  1.0000
  S   S585      1.0  0.77355  0.35680  0.53734  1.0000
  Fe  Fe294     1.0  0.71925  0.38684  0.56673  1.0000
  S   S586      1.0  0.72081  0.41337  0.56251  1.0000
  S   S587      1.0  0.69521  0.37864  0.57942  1.0000
  Fe  Fe295     1.0  0.73242  0.41059  0.53630  1.0000
  S   S588      1.0  0.72481  0.42967  0.51434  1.0000
  Fe  Fe296     1.0  0.74655  0.40339  0.56774  1.0000
  S   S589      1.0  0.76056  0.40929  0.58419  1.0000
  S   S590      1.0  0.72904  0.38498  0.54042  1.0000
  S   S591      1.0  0.74401  0.37686  0.57369  1.0000
  C   C2123     1.0  0.60306  0.33201  0.54556  1.0000
  C   C2124     1.0  0.56862  0.32810  0.54890  1.0000
  H   H2546     1.0  0.70419  0.38237  0.52590  1.0000
  H   H2547     1.0  0.92114  0.35876  0.69335  1.0000
  H   H2548     1.0  0.86062  0.51252  0.59931  1.0000
  H   H2549     1.0  0.78780  0.41810  0.71807  1.0000
  S   S592      1.0  0.63833  0.35267  0.51713  1.0000
  H   H2550     1.0  0.93220  0.55905  0.64762  1.0000
  C   C2125     1.0  0.96189  0.33527  0.73019  1.0000
  H   H2551     1.0  0.60627  0.34035  0.57161  1.0000
  C   C2126     1.0  0.83389  0.39808  0.66726  1.0000
  H   H2552     1.0  0.78889  0.33017  0.52041  1.0000
  C   C2127     1.0  0.69341  0.36033  0.57522  1.0000
  C   C2128     1.0  0.70733  0.34768  0.57245  1.0000
  C   C2129     1.0  0.70556  0.33275  0.57024  1.0000
  H   H2553     1.0  0.65854  0.37169  0.52562  1.0000
  H   H2554     1.0  0.76234  0.32716  0.55482  1.0000
  C   C2130     1.0  0.67782  0.35818  0.57502  1.0000
  H   H2555     1.0  0.71940  0.34916  0.57264  1.0000
  C   C2131     1.0  0.58194  0.35425  0.55515  1.0000
  H   H2556     1.0  0.84721  0.39542  0.70749  1.0000
  H   H2557     1.0  0.66698  0.36789  0.57726  1.0000
  C   C2132     1.0  0.77060  0.35297  0.51947  1.0000
  C   C2133     1.0  0.77630  0.33473  0.50053  1.0000
  C   C2134     1.0  0.82190  0.40333  0.68049  1.0000
  S   S593      1.0  0.86683  0.39525  0.73245  1.0000
  S   S594      1.0  0.89582  0.41516  0.72874  1.0000
  C   C2135     1.0  0.75884  0.36387  0.51098  1.0000
  C   C2136     1.0  0.70764  0.36900  0.49913  1.0000
  H   H2558     1.0  0.80953  0.40837  0.67837  1.0000
  C   C2137     1.0  0.71979  0.41162  0.49406  1.0000
  H   H2559     1.0  0.75262  0.37547  0.51442  1.0000
  H   H2560     1.0  0.92627  0.34111  0.71772  1.0000
  H   H2561     1.0  0.83733  0.46653  0.70698  1.0000
  C   C2138     1.0  0.65321  0.36836  0.48694  1.0000
  H   H2562     1.0  0.79509  0.42417  0.69659  1.0000
  C   C2139     1.0  0.75959  0.44174  0.61982  1.0000
  C   C2140     1.0  0.74559  0.44380  0.61327  1.0000
  C   C2141     1.0  0.74573  0.43437  0.60207  1.0000
  C   C2142     1.0  0.75987  0.42255  0.59734  1.0000
  C   C2143     1.0  0.77392  0.42064  0.60373  1.0000
  C   C2144     1.0  0.77385  0.43020  0.61478  1.0000
  H   H2563     1.0  0.73446  0.45262  0.61707  1.0000
  H   H2564     1.0  0.73482  0.43614  0.59729  1.0000
  H   H2565     1.0  0.78497  0.41161  0.60017  1.0000
  H   H2566     1.0  0.78471  0.42836  0.61968  1.0000
  C   C2145     1.0  0.78168  0.47222  0.71498  1.0000
  H   H2567     1.0  0.78312  0.32347  0.49653  1.0000
  H   H2568     1.0  0.82738  0.61344  0.70621  1.0000
  H   H2569     1.0  0.59914  0.33467  0.53368  1.0000
  H   H2570     1.0  0.95228  0.53941  0.68404  1.0000
  C   C2146     1.0  0.77374  0.48847  0.70930  1.0000
  H   H2571     1.0  0.71627  0.32278  0.56895  1.0000
  C   C2147     1.0  0.91435  0.56086  0.69574  1.0000
  H   H2572     1.0  0.68730  0.38211  0.54294  1.0000
  C   C2148     1.0  0.87436  0.42114  0.67412  1.0000
  C   C2149     1.0  0.87968  0.41866  0.65798  1.0000
  C   C2150     1.0  0.86884  0.42444  0.64712  1.0000
  C   C2151     1.0  0.85258  0.43276  0.65230  1.0000
  C   C2152     1.0  0.84729  0.43568  0.66832  1.0000
  C   C2153     1.0  0.85820  0.42985  0.67926  1.0000
  H   H2573     1.0  0.89216  0.41200  0.65392  1.0000
  H   H2574     1.0  0.87300  0.42226  0.63471  1.0000
  H   H2575     1.0  0.83476  0.44218  0.67232  1.0000
  H   H2576     1.0  0.85401  0.43182  0.69169  1.0000
  C   C2154     1.0  0.83099  0.54235  0.63213  1.0000
  C   C2155     1.0  0.82891  0.52841  0.64482  1.0000
  C   C2156     1.0  0.81683  0.51970  0.64572  1.0000
  C   C2157     1.0  0.80644  0.52532  0.63436  1.0000
  C   C2158     1.0  0.80815  0.53962  0.62222  1.0000
  C   C2159     1.0  0.82053  0.54789  0.62093  1.0000
  H   H2577     1.0  0.83700  0.52399  0.65349  1.0000
  H   H2578     1.0  0.81565  0.50861  0.65507  1.0000
  H   H2579     1.0  0.80015  0.54408  0.61344  1.0000
  H   H2580     1.0  0.82209  0.55859  0.61107  1.0000
  C   C2160     1.0  0.82610  0.40244  0.69563  1.0000
  C   C2161     1.0  0.76390  0.34530  0.49262  1.0000
  H   H2581     1.0  0.71336  0.37795  0.50081  1.0000
  H   H2582     1.0  0.66226  0.37717  0.54258  1.0000
  C   C2162     1.0  0.75541  0.36002  0.49766  1.0000
  S   S595      1.0  0.91005  0.63706  0.68452  1.0000
  H   H2583     1.0  0.69970  0.36291  0.53809  1.0000
  H   H2584     1.0  0.86764  0.38591  0.68438  1.0000
  H   H2585     1.0  0.68810  0.39915  0.50590  1.0000
  H   H2586     1.0  0.70294  0.45193  0.49522  1.0000
  C   C2163     1.0  0.89064  0.49567  0.69496  1.0000
  C   C2164     1.0  0.88061  0.50127  0.70897  1.0000
  S   S596      1.0  0.85821  0.43568  0.72275  1.0000
  H   H2587     1.0  0.88175  0.65054  0.66575  1.0000
  C   C2165     1.0  0.89104  0.46730  0.70998  1.0000
  C   C2166     1.0  0.89581  0.47869  0.69550  1.0000
  H   H2588     1.0  0.87646  0.51437  0.70859  1.0000
  C   C2167     1.0  0.64854  0.35377  0.49646  1.0000
  H   H2589     1.0  0.89518  0.45422  0.71031  1.0000
  H   H2590     1.0  0.90361  0.47432  0.68471  1.0000
  C   C2168     1.0  0.90634  0.62401  0.67381  1.0000
  C   C2169     1.0  0.91061  0.62682  0.65660  1.0000
  C   C2170     1.0  0.90708  0.61667  0.64828  1.0000
  C   C2171     1.0  0.89913  0.60369  0.65704  1.0000
  C   C2172     1.0  0.89488  0.60078  0.67429  1.0000
  C   C2173     1.0  0.89857  0.61087  0.68264  1.0000
  C   C2174     1.0  0.87629  0.48984  0.72366  1.0000
  H   H2591     1.0  0.91051  0.61893  0.63494  1.0000
  H   H2592     1.0  0.88865  0.59087  0.68115  1.0000
  H   H2593     1.0  0.82873  0.48847  0.61201  1.0000
  N   N141      1.0  0.68308  0.37612  0.52176  1.0000
  H   H2594     1.0  0.95632  0.54818  0.66221  1.0000
  C   C2175     1.0  0.59646  0.33327  0.57404  1.0000
  C   C2176     1.0  0.83532  0.48671  0.62206  1.0000
  C   C2177     1.0  0.94702  0.54880  0.67401  1.0000
  C   C2178     1.0  0.71607  0.42660  0.49926  1.0000
  H   H2595     1.0  0.86237  0.51580  0.62421  1.0000
  H   H2596     1.0  0.89607  0.52289  0.72111  1.0000
  H   H2597     1.0  0.94010  0.51961  0.67663  1.0000
  H   H2598     1.0  0.85959  0.38801  0.65829  1.0000
  H   H2599     1.0  0.80997  0.54991  0.69213  1.0000
  N   N142      1.0  0.93101  0.54602  0.67310  1.0000
  H   H2600     1.0  0.65000  0.32823  0.49727  1.0000
  N   N143      1.0  0.83032  0.49300  0.70430  1.0000
  C   C2179     1.0  0.93684  0.34440  0.71951  1.0000
  H   H2601     1.0  0.81576  0.47493  0.70832  1.0000
  H   H2602     1.0  0.85682  0.48340  0.70001  1.0000
  C   C2180     1.0  0.81851  0.50772  0.69758  1.0000
  C   C2181     1.0  0.80610  0.50681  0.68997  1.0000
  C   C2182     1.0  0.81937  0.52367  0.69836  1.0000
  C   C2183     1.0  0.80879  0.53785  0.69163  1.0000
  C   C2184     1.0  0.78685  0.46814  0.72998  1.0000
  C   C2185     1.0  0.84293  0.39585  0.69667  1.0000
  C   C2186     1.0  0.95326  0.36400  0.71739  1.0000
  H   H2603     1.0  0.81509  0.49115  0.72880  1.0000
  H   H2604     1.0  0.78801  0.37876  0.48791  1.0000
  H   H2605     1.0  0.95590  0.37614  0.71425  1.0000
  H   H2606     1.0  0.67378  0.35159  0.51254  1.0000
  N   N144      1.0  0.92663  0.37409  0.70646  1.0000
  H   H2607     1.0  0.85087  0.50497  0.69899  1.0000
  H   H2608     1.0  0.80439  0.49528  0.68878  1.0000
  H   H2609     1.0  0.57765  0.35783  0.54335  1.0000
  H   H2610     1.0  0.92287  0.52770  0.66635  1.0000
  N   N145      1.0  0.72028  0.39246  0.62108  1.0000
  C   C2187     1.0  0.70602  0.38497  0.63087  1.0000
  C   C2188     1.0  0.71566  0.40369  0.60588  1.0000
  C   C2189     1.0  0.73410  0.37888  0.61604  1.0000
  C   C2190     1.0  0.72454  0.40193  0.63078  1.0000
  C   C2191     1.0  0.74076  0.39921  0.63358  1.0000
  C   C2192     1.0  0.71235  0.41466  0.63741  1.0000
  C   C2193     1.0  0.74432  0.40844  0.64275  1.0000
  C   C2194     1.0  0.71609  0.42390  0.64646  1.0000
  C   C2195     1.0  0.73204  0.42076  0.64916  1.0000
  H   H2611     1.0  0.69450  0.39437  0.63362  1.0000
  H   H2612     1.0  0.70301  0.37720  0.62409  1.0000
  H   H2613     1.0  0.70869  0.37705  0.64281  1.0000
  H   H2614     1.0  0.70474  0.41375  0.60853  1.0000
  H   H2615     1.0  0.71251  0.39697  0.59816  1.0000
  H   H2616     1.0  0.72603  0.40966  0.59822  1.0000
  H   H2617     1.0  0.73841  0.37009  0.62689  1.0000
  H   H2618     1.0  0.73033  0.37161  0.60933  1.0000
  H   H2619     1.0  0.74483  0.38371  0.60744  1.0000
  H   H2620     1.0  0.75111  0.39049  0.62830  1.0000
  H   H2621     1.0  0.69992  0.41786  0.63530  1.0000
  H   H2622     1.0  0.81214  0.38428  0.72367  1.0000
  C   C2196     1.0  0.82122  0.54238  0.72874  1.0000
  C   C2197     1.0  0.83634  0.61839  0.69581  1.0000
  H   H2623     1.0  0.94249  0.39115  0.69313  1.0000
  H   H2624     1.0  0.67035  0.40135  0.52230  1.0000
  C   C2198     1.0  0.96451  0.35128  0.72513  1.0000
  C   C2199     1.0  0.69214  0.36624  0.50914  1.0000
  H   H2625     1.0  0.91682  0.63672  0.64966  1.0000
  C   C2200     1.0  0.93050  0.39073  0.70216  1.0000
  C   C2201     1.0  0.85485  0.61627  0.66952  1.0000
  H   H2626     1.0  0.94312  0.53038  0.65553  1.0000
  H   H2627     1.0  0.85744  0.48112  0.59416  1.0000
  C   C2202     1.0  0.91252  0.53257  0.69898  1.0000
  H   H2628     1.0  0.93090  0.39462  0.71334  1.0000
  H   H2629     1.0  0.72672  0.33551  0.52198  1.0000
  C   C2203     1.0  0.93898  0.36093  0.71440  1.0000
  H   H2630     1.0  0.83011  0.47744  0.68855  1.0000
  C   C2204     1.0  0.82813  0.49161  0.72228  1.0000
  H   H2631     1.0  0.79255  0.40319  0.70544  1.0000
  C   C2205     1.0  0.92562  0.37029  0.69102  1.0000
  H   H2632     1.0  0.76368  0.51272  0.71474  1.0000
  H   H2633     1.0  0.67158  0.35694  0.53876  1.0000
  H   H2634     1.0  0.91533  0.52103  0.69508  1.0000
  C   C2206     1.0  0.84868  0.54612  0.72679  1.0000
  C   C2207     1.0  0.79662  0.41364  0.70726  1.0000
  H   H2635     1.0  0.97502  0.35392  0.72788  1.0000
  N   N146      1.0  0.81396  0.40874  0.70958  1.0000
  C   C2208     1.0  0.81833  0.42345  0.71162  1.0000
  H   H2636     1.0  0.75690  0.40665  0.64419  1.0000
  H   H2637     1.0  0.90563  0.36345  0.72105  1.0000
  C   C2209     1.0  0.84327  0.61010  0.68293  1.0000
  C   C2210     1.0  0.85477  0.39037  0.68346  1.0000
  H   H2638     1.0  0.58694  0.33697  0.58480  1.0000
  H   H2639     1.0  0.81838  0.43329  0.70018  1.0000
  C   C2211     1.0  0.79687  0.53654  0.68413  1.0000
  C   C2212     1.0  0.71590  0.36052  0.48649  1.0000
  N   N147      1.0  0.58922  0.33635  0.55936  1.0000
  H   H2640     1.0  0.83971  0.59882  0.68338  1.0000
  H   H2641     1.0  0.83642  0.47358  0.62849  1.0000
  C   C2213     1.0  0.67751  0.39344  0.51333  1.0000
  C   C2214     1.0  0.84754  0.49467  0.69607  1.0000
  H   H2642     1.0  0.87576  0.51221  0.64664  1.0000
  H   H2643     1.0  0.57113  0.35794  0.56498  1.0000
  H   H2644     1.0  0.85589  0.65004  0.70824  1.0000
  H   H2645     1.0  0.91896  0.57185  0.68908  1.0000
  C   C2215     1.0  0.88159  0.47284  0.72418  1.0000
  C   C2216     1.0  0.79543  0.52106  0.68344  1.0000
  C   C2217     1.0  0.87508  0.48657  0.65586  1.0000
  C   C2218     1.0  0.84880  0.50834  0.60521  1.0000
  H   H2646     1.0  0.66957  0.39425  0.50472  1.0000
  C   C2219     1.0  0.92418  0.55929  0.66013  1.0000
  H   H2647     1.0  0.90054  0.38487  0.71216  1.0000
  C   C2220     1.0  0.89657  0.54796  0.71993  1.0000
  H   H2648     1.0  0.89930  0.57298  0.71529  1.0000
  C   C2221     1.0  0.91931  0.54636  0.68926  1.0000
  H   H2649     1.0  0.91176  0.55812  0.65961  1.0000
  C   C2222     1.0  0.65351  0.33956  0.48996  1.0000
  C   C2223     1.0  0.77961  0.33855  0.51400  1.0000
  H   H2650     1.0  0.86890  0.63454  0.65830  1.0000
  H   H2651     1.0  0.82705  0.49418  0.63092  1.0000
  H   H2652     1.0  0.78621  0.52011  0.67746  1.0000
  H   H2653     1.0  0.88767  0.54865  0.73149  1.0000
  H   H2654     1.0  0.66410  0.34182  0.57214  1.0000
  H   H2655     1.0  0.92276  0.57184  0.66215  1.0000
  C   C2224     1.0  0.86250  0.48011  0.60510  1.0000
  C   C2225     1.0  0.66824  0.37017  0.53260  1.0000
  H   H2656     1.0  0.78880  0.54755  0.67874  1.0000
  H   H2657     1.0  0.86040  0.60969  0.65958  1.0000
  C   C2226     1.0  0.93442  0.53021  0.66776  1.0000
  C   C2227     1.0  0.85027  0.39159  0.66875  1.0000
  C   C2228     1.0  0.91012  0.37508  0.71774  1.0000
  H   H2658     1.0  0.87513  0.48277  0.60061  1.0000
  H   H2659     1.0  0.74627  0.36858  0.49125  1.0000
  C   C2229     1.0  0.90132  0.53346  0.71407  1.0000
  C   C2230     1.0  0.86234  0.47496  0.64108  1.0000
  H   H2660     1.0  0.88129  0.48521  0.66571  1.0000
  C   C2231     1.0  0.87205  0.50177  0.64503  1.0000
  C   C2232     1.0  0.86433  0.50363  0.63207  1.0000
  H   H2661     1.0  0.84044  0.51741  0.61248  1.0000
  N   N148      1.0  0.85161  0.49148  0.61573  1.0000
  C   C2233     1.0  0.85925  0.49020  0.62966  1.0000
  C   C2234     1.0  0.87015  0.47320  0.65395  1.0000
  H   H2662     1.0  0.86381  0.46695  0.61174  1.0000
  H   H2663     1.0  0.87254  0.46133  0.66235  1.0000
  H   H2664     1.0  0.71054  0.32740  0.53764  1.0000
  H   H2665     1.0  0.85891  0.46422  0.63997  1.0000
  H   H2666     1.0  0.84272  0.50902  0.59508  1.0000
  H   H2667     1.0  0.76964  0.49177  0.69779  1.0000
  C   C2235     1.0  0.82825  0.47732  0.70189  1.0000
  H   H2668     1.0  0.94571  0.56116  0.67646  1.0000
  H   H2669     1.0  0.91681  0.38029  0.68446  1.0000
  C   C2236     1.0  0.83399  0.55076  0.72097  1.0000
  H   H2670     1.0  0.83056  0.39955  0.65558  1.0000
  C   C2237     1.0  0.90310  0.56163  0.71080  1.0000
  H   H2671     1.0  0.92088  0.40035  0.69637  1.0000
  C   C2238     1.0  0.69406  0.37579  0.53257  1.0000
  C   C2239     1.0  0.70921  0.34884  0.48363  1.0000
  H   H2672     1.0  0.72807  0.40107  0.49976  1.0000
  H   H2673     1.0  0.82843  0.52533  0.70401  1.0000
  C   C2240     1.0  0.77034  0.50033  0.71895  1.0000
  C   C2241     1.0  0.67617  0.34346  0.57208  1.0000
  C   C2242     1.0  0.57636  0.32685  0.56195  1.0000
  H   H2674     1.0  0.61287  0.33906  0.54323  1.0000
  H   H2675     1.0  0.85863  0.55253  0.72065  1.0000
  C   C2243     1.0  0.70577  0.44030  0.49145  1.0000
  C   C2244     1.0  0.94811  0.33181  0.72737  1.0000
  C   C2245     1.0  0.69004  0.33057  0.56995  1.0000
  H   H2676     1.0  0.59114  0.36182  0.55359  1.0000
  C   C2246     1.0  0.68560  0.35432  0.50580  1.0000
  H   H2677     1.0  0.49880  0.63057  0.72597  1.0000
  H   H2678     1.0  0.84927  0.49711  0.68242  1.0000
  Fe  Fe297     1.0  0.64811  0.32726  0.53058  1.0000
  H   H2679     1.0  0.70674  0.43387  0.65102  1.0000
  H   H2680     1.0  0.71326  0.32643  0.51654  1.0000
  C   C2247     1.0  0.84096  0.63289  0.69533  1.0000
  C   C2248     1.0  0.69411  0.34570  0.49331  1.0000
  H   H2681     1.0  0.57213  0.33567  0.53685  1.0000
  C   C2249     1.0  0.81429  0.39594  0.72506  1.0000
  C   C2250     1.0  0.85961  0.63073  0.66893  1.0000
  H   H2682     1.0  0.80996  0.54575  0.72411  1.0000
  S   S597      1.0  0.64259  0.32121  0.55818  1.0000
  H   H2683     1.0  0.73512  0.42838  0.65557  1.0000
  H   H2684     1.0  0.73179  0.49493  0.72579  1.0000
  H   H2685     1.0  0.74307  0.46814  0.71743  1.0000
  H   H2686     1.0  0.75481  0.42579  0.48859  1.0000
  C   C2251     1.0  0.85277  0.63952  0.68188  1.0000
  H   H2687     1.0  0.83534  0.63883  0.70566  1.0000
  H   H2688     1.0  0.91039  0.37796  0.72946  1.0000
  C   C2252     1.0  0.77207  0.40246  0.48962  1.0000
  H   H2689     1.0  0.64963  0.37930  0.49204  1.0000
  H   H2690     1.0  0.83640  0.48034  0.72796  1.0000
  H   H2691     1.0  0.87536  0.64085  0.69675  1.0000
  H   H2692     1.0  0.74953  0.32917  0.53218  1.0000
  H   H2693     1.0  0.82622  0.39304  0.72906  1.0000
  C   C2253     1.0  0.74267  0.46903  0.72986  1.0000
  H   H2694     1.0  0.77514  0.40276  0.50093  1.0000
  H   H2695     1.0  0.68882  0.33670  0.49098  1.0000
  C   C2254     1.0  0.86502  0.65194  0.69638  1.0000
  Fe  Fe298     1.0  0.76171  0.56599  0.91826  1.0000
  S   S598      1.0  0.76434  0.59095  0.91837  1.0000
  S   S599      1.0  0.74052  0.55725  0.93745  1.0000
  Fe  Fe299     1.0  0.78902  0.56331  0.88734  1.0000
  S   S600      1.0  0.79412  0.58831  0.88530  1.0000
  S   S601      1.0  0.80258  0.54664  0.86915  1.0000
  Fe  Fe300     1.0  0.79158  0.58094  0.91292  1.0000
  S   S602      1.0  0.80496  0.58523  0.93028  1.0000
  Fe  Fe301     1.0  0.76637  0.59610  0.89117  1.0000
  S   S603      1.0  0.75022  0.62017  0.88187  1.0000
  S   S604      1.0  0.78895  0.55516  0.91463  1.0000
  S   S605      1.0  0.76147  0.57186  0.89133  1.0000
  C   C2255     1.0  0.72129  0.61626  0.97626  1.0000
  S   S606      1.0  0.87682  0.45860  0.74275  1.0000
  C   C2256     1.0  0.50431  0.64225  0.83608  1.0000
  C   C2257     1.0  0.67214  0.58247  0.95569  1.0000
  C   C2258     1.0  0.64853  0.64345  0.88622  1.0000
  C   C2259     1.0  0.55318  0.64124  0.82250  1.0000
  S   S607      1.0  0.68598  0.61846  0.93834  1.0000
  S   S608      1.0  0.78236  0.64875  0.97801  1.0000
  H   H2696     1.0  0.81594  0.45121  0.83893  1.0000
  S   S609      1.0  0.89286  0.37167  0.76291  1.0000
  N   N149      1.0  0.67459  0.57575  0.97285  1.0000
  H   H2697     1.0  0.75517  0.44560  0.76445  1.0000
  H   H2698     1.0  0.86886  0.49420  0.73460  1.0000
  C   C2260     1.0  0.68275  0.58684  0.97683  1.0000
  C   C2261     1.0  0.84841  0.46948  0.77545  1.0000
  Fe  Fe302     1.0  0.79165  0.48119  0.79694  1.0000
  S   S610      1.0  0.76771  0.49964  0.79542  1.0000
  S   S611      1.0  0.78984  0.45487  0.80808  1.0000
  Fe  Fe303     1.0  0.81220  0.50643  0.77825  1.0000
  S   S612      1.0  0.78973  0.52656  0.77500  1.0000
  S   S613      1.0  0.83773  0.51146  0.76787  1.0000
  Fe  Fe304     1.0  0.78011  0.51636  0.80173  1.0000
  S   S614      1.0  0.76745  0.53456  0.81839  1.0000
  Fe  Fe305     1.0  0.78018  0.50753  0.76891  1.0000
  H   H2699     1.0  0.72100  0.60791  0.86786  1.0000
  S   S615      1.0  0.80317  0.49711  0.80531  1.0000
  S   S616      1.0  0.80339  0.48839  0.77020  1.0000
  H   H2700     1.0  0.77315  0.62629  0.93846  1.0000
  H   H2701     1.0  0.94062  0.34281  0.82493  1.0000
  H   H2702     1.0  0.77181  0.64234  0.87823  1.0000
  H   H2703     1.0  0.67111  0.64113  0.91377  1.0000
  C   C2262     1.0  0.76052  0.46852  0.78095  1.0000
  H   H2704     1.0  0.73564  0.48940  0.79539  1.0000
  H   H2705     1.0  0.74212  0.49874  0.77428  1.0000
  S   S617      1.0  0.51791  0.63675  0.87926  1.0000
  C   C2263     1.0  0.92506  0.36141  0.81022  1.0000
  H   H2706     1.0  0.66394  0.59502  0.95434  1.0000
  S   S618      1.0  0.96833  0.34377  0.76622  1.0000
  C   C2264     1.0  0.51672  0.63369  0.86025  1.0000
  C   C2265     1.0  0.52300  0.61797  0.85678  1.0000
  C   C2266     1.0  0.52012  0.61441  0.84300  1.0000
  H   H2707     1.0  0.71179  0.53004  0.95431  1.0000
  H   H2708     1.0  0.87467  0.33832  0.81423  1.0000
  H   H2709     1.0  0.67525  0.59971  0.97556  1.0000
  H   H2710     1.0  0.52981  0.60837  0.86500  1.0000
  C   C2267     1.0  0.77652  0.57903  0.97362  1.0000
  H   H2711     1.0  0.79303  0.45562  0.73450  1.0000
  H   H2712     1.0  0.66642  0.57444  0.95177  1.0000
  H   H2713     1.0  0.75630  0.63563  0.90638  1.0000
  N   N150      1.0  0.66260  0.64603  0.89144  1.0000
  H   H2714     1.0  0.54132  0.63740  0.82892  1.0000
  C   C2268     1.0  0.93652  0.34100  0.76919  1.0000
  C   C2269     1.0  0.94748  0.35160  0.76479  1.0000
  C   C2270     1.0  0.94182  0.36853  0.75887  1.0000
  H   H2715     1.0  0.87846  0.44837  0.79668  1.0000
  C   C2271     1.0  0.73539  0.48915  0.78260  1.0000
  C   C2272     1.0  0.66001  0.64094  0.90964  1.0000
  H   H2716     1.0  0.95033  0.37673  0.75536  1.0000
  H   H2717     1.0  0.60475  0.63566  0.93012  1.0000
  C   C2273     1.0  0.81316  0.42542  0.76781  1.0000
  C   C2274     1.0  0.79901  0.42181  0.77951  1.0000
  C   C2275     1.0  0.79211  0.43052  0.79224  1.0000
  C   C2276     1.0  0.79909  0.44313  0.79296  1.0000
  C   C2277     1.0  0.81318  0.44670  0.78125  1.0000
  C   C2278     1.0  0.82028  0.43783  0.76872  1.0000
  H   H2718     1.0  0.79357  0.41212  0.77888  1.0000
  H   H2719     1.0  0.78125  0.42767  0.80134  1.0000
  H   H2720     1.0  0.81883  0.45604  0.78213  1.0000
  C   C2279     1.0  0.70745  0.63267  0.86893  1.0000
  S   S619      1.0  0.76912  0.51104  0.74670  1.0000
  H   H2721     1.0  0.86118  0.53050  0.74599  1.0000
  H   H2722     1.0  0.77238  0.56791  0.97350  1.0000
  C   C2280     1.0  0.69393  0.55098  0.96201  1.0000
  H   H2723     1.0  0.89223  0.35670  0.79902  1.0000
  N   N151      1.0  0.85562  0.46338  0.79032  1.0000
  C   C2281     1.0  0.69239  0.64274  0.87484  1.0000
  C   C2282     1.0  0.79200  0.54273  0.85603  1.0000
  C   C2283     1.0  0.79922  0.52948  0.84803  1.0000
  C   C2284     1.0  0.79150  0.52643  0.83699  1.0000
  C   C2285     1.0  0.77665  0.53683  0.83354  1.0000
  C   C2286     1.0  0.76934  0.54998  0.84165  1.0000
  C   C2287     1.0  0.77697  0.55292  0.85284  1.0000
  H   H2724     1.0  0.81080  0.52149  0.85049  1.0000
  H   H2725     1.0  0.79713  0.51611  0.83107  1.0000
  H   H2726     1.0  0.75785  0.55810  0.83911  1.0000
  H   H2727     1.0  0.77135  0.56327  0.85874  1.0000
  C   C2288     1.0  0.80552  0.60518  0.93153  1.0000
  C   C2289     1.0  0.80691  0.60763  0.94651  1.0000
  C   C2290     1.0  0.80794  0.62317  0.94792  1.0000
  C   C2291     1.0  0.80819  0.63629  0.93417  1.0000
  C   C2292     1.0  0.80696  0.63381  0.91913  1.0000
  C   C2293     1.0  0.80529  0.61841  0.91788  1.0000
  H   H2728     1.0  0.80740  0.59740  0.95704  1.0000
  H   H2729     1.0  0.84828  0.45930  0.76990  1.0000
  C   C2294     1.0  0.68485  0.55877  0.97534  1.0000
  H   H2730     1.0  0.80440  0.61661  0.90622  1.0000
  C   C2295     1.0  0.73180  0.62022  0.89684  1.0000
  C   C2296     1.0  0.72275  0.63471  0.90202  1.0000
  C   C2297     1.0  0.70880  0.63420  0.91503  1.0000
  C   C2298     1.0  0.70360  0.61935  0.92243  1.0000
  C   C2299     1.0  0.71255  0.60496  0.91711  1.0000
  C   C2300     1.0  0.72667  0.60539  0.90444  1.0000
  H   H2731     1.0  0.67071  0.61244  0.89430  1.0000
  H   H2732     1.0  0.73211  0.49778  0.75283  1.0000
  H   H2733     1.0  0.70874  0.59338  0.92285  1.0000
  H   H2734     1.0  0.73343  0.59419  0.90044  1.0000
  H   H2735     1.0  0.75488  0.44377  0.73675  1.0000
  H   H2736     1.0  0.86121  0.47424  0.80742  1.0000
  C   C2301     1.0  0.75825  0.54405  0.96210  1.0000
  C   C2302     1.0  0.74312  0.55266  0.95784  1.0000
  C   C2303     1.0  0.84548  0.45247  0.80282  1.0000
  H   H2737     1.0  0.92074  0.38800  0.75362  1.0000
  C   C2304     1.0  0.72945  0.55705  0.97017  1.0000
  H   H2738     1.0  0.76888  0.54061  0.95260  1.0000
  H   H2739     1.0  0.71791  0.56396  0.96685  1.0000
  C   C2305     1.0  0.75954  0.63034  0.93937  1.0000
  C   C2306     1.0  0.82444  0.44711  0.82824  1.0000
  C   C2307     1.0  0.73634  0.48412  0.73459  1.0000
  H   H2740     1.0  0.76734  0.47807  0.77295  1.0000
  N   N152      1.0  0.75482  0.64837  0.93290  1.0000
  C   C2308     1.0  0.69569  0.60861  0.88096  1.0000
  H   H2741     1.0  0.73051  0.59532  0.94562  1.0000
  C   C2309     1.0  0.74311  0.47171  0.76186  1.0000
  C   C2310     1.0  0.74934  0.45529  0.74078  1.0000
  C   C2311     1.0  0.74957  0.45654  0.75656  1.0000
  H   H2742     1.0  0.88093  0.46244  0.77682  1.0000
  C   C2312     1.0  0.85015  0.53366  0.74103  1.0000
  C   C2313     1.0  0.76355  0.64491  0.90350  1.0000
  H   H2743     1.0  0.65778  0.62823  0.91441  1.0000
  H   H2744     1.0  0.72220  0.49295  0.78151  1.0000
  H   H2745     1.0  0.69378  0.55691  0.94928  1.0000
  H   H2746     1.0  0.84392  0.48641  0.79808  1.0000
  H   H2747     1.0  0.65174  0.56726  0.98201  1.0000
  H   H2748     1.0  0.81349  0.52249  0.74773  1.0000
  H   H2749     1.0  0.90788  0.37719  0.79552  1.0000
  C   C2314     1.0  0.84512  0.43709  0.80004  1.0000
  C   C2315     1.0  0.90240  0.35304  0.80528  1.0000
  C   C2316     1.0  0.79044  0.57006  0.75954  1.0000
  H   H2750     1.0  0.69508  0.58735  0.96842  1.0000
  H   H2751     1.0  0.64677  0.63057  0.89069  1.0000
  C   C2317     1.0  0.78399  0.48013  0.73930  1.0000
  H   H2752     1.0  0.70862  0.61674  0.95771  1.0000
  H   H2753     1.0  0.75335  0.62680  0.95249  1.0000
  C   C2318     1.0  0.87294  0.45421  0.78565  1.0000
  H   H2754     1.0  0.85550  0.47791  0.76565  1.0000
  C   C2319     1.0  0.71963  0.61139  0.96275  1.0000
  C   C2320     1.0  0.75942  0.53932  0.97879  1.0000
  C   C2321     1.0  0.92090  0.33360  0.82188  1.0000
  H   H2755     1.0  0.78784  0.57435  0.97890  1.0000
  H   H2756     1.0  0.73339  0.64617  0.92570  1.0000
  H   H2757     1.0  0.78828  0.47672  0.75066  1.0000
  H   H2758     1.0  0.71817  0.63796  0.86246  1.0000
  H   H2759     1.0  0.81586  0.42468  0.83325  1.0000
  H   H2760     1.0  0.76103  0.46783  0.79390  1.0000
  H   H2761     1.0  0.76765  0.45650  0.77794  1.0000
  C   C2322     1.0  0.92514  0.37489  0.75776  1.0000
  C   C2323     1.0  0.92974  0.34574  0.81969  1.0000
  C   C2324     1.0  0.83711  0.52559  0.74903  1.0000
  H   H2762     1.0  0.73321  0.46155  0.80391  1.0000
  C   C2325     1.0  0.83477  0.42708  0.81105  1.0000
  H   H2763     1.0  0.77415  0.61140  0.97193  1.0000
  C   C2326     1.0  0.70439  0.53538  0.96472  1.0000
  H   H2764     1.0  0.83116  0.44071  0.75969  1.0000
  N   N153      1.0  0.74323  0.47261  0.77875  1.0000
  H   H2765     1.0  0.85225  0.43302  0.78891  1.0000
  C   C2327     1.0  0.73418  0.46055  0.79104  1.0000
  C   C2328     1.0  0.91132  0.36509  0.80318  1.0000
  H   H2766     1.0  0.82731  0.57906  0.73777  1.0000
  H   H2767     1.0  0.69721  0.59532  0.88368  1.0000
  H   H2768     1.0  0.93226  0.37063  0.80809  1.0000
  H   H2769     1.0  0.88738  0.33399  0.79475  1.0000
  C   C2329     1.0  0.73662  0.48556  0.75029  1.0000
  C   C2330     1.0  0.73201  0.59941  0.95591  1.0000
  H   H2770     1.0  0.86437  0.48567  0.78639  1.0000
  C   C2331     1.0  0.90715  0.33676  0.81446  1.0000
  H   H2771     1.0  0.72140  0.46255  0.78914  1.0000
  C   C2332     1.0  0.67843  0.63594  0.88406  1.0000
  H   H2772     1.0  0.77861  0.56958  0.75765  1.0000
  H   H2773     1.0  0.80918  0.62481  0.95950  1.0000
  Fe  Fe306     1.0  0.67385  0.64314  0.94423  1.0000
  H   H2774     1.0  0.83381  0.46884  0.82034  1.0000
  C   C2333     1.0  0.82439  0.43212  0.82509  1.0000
  H   H2775     1.0  0.53432  0.63937  0.80514  1.0000
  Fe  Fe307     1.0  0.88298  0.39678  0.74828  1.0000
  Fe  Fe308     1.0  0.87506  0.43439  0.73907  1.0000
  H   H2776     1.0  0.56005  0.63330  0.81350  1.0000
  C   C2334     1.0  0.74625  0.59239  0.96240  1.0000
  H   H2777     1.0  0.56044  0.63840  0.83224  1.0000
  H   H2778     1.0  0.94088  0.32791  0.77345  1.0000
  H   H2779     1.0  0.75519  0.58298  0.95663  1.0000
  Fe  Fe309     1.0  0.84876  0.41578  0.74298  1.0000
  S   S620      1.0  0.50696  0.62095  0.81593  1.0000
  S   S621      1.0  0.86394  0.41605  0.76023  1.0000
  C   C2335     1.0  0.68057  0.61855  0.88694  1.0000
  C   C2336     1.0  0.82305  0.52944  0.74239  1.0000
  H   H2780     1.0  0.91152  0.33910  0.77122  1.0000
  S   S622      1.0  0.58222  0.64425  0.90842  1.0000
  H   H2781     1.0  0.78426  0.56020  0.78529  1.0000
  C   C2337     1.0  0.74850  0.59729  0.97600  1.0000
  H   H2782     1.0  0.78046  0.58552  0.96063  1.0000
  H   H2783     1.0  0.52497  0.60215  0.84052  1.0000
  H   H2784     1.0  0.83425  0.41571  0.80829  1.0000
  H   H2785     1.0  0.80744  0.64378  0.90836  1.0000
  H   H2786     1.0  0.75600  0.62298  0.93262  1.0000
  H   H2787     1.0  0.83547  0.47650  0.77842  1.0000
  N   N154      1.0  0.81296  0.55808  0.79493  1.0000
  C   C2338     1.0  0.79973  0.56602  0.80728  1.0000
  C   C2339     1.0  0.81369  0.54011  0.79932  1.0000
  C   C2340     1.0  0.82895  0.56063  0.79626  1.0000
  C   C2341     1.0  0.80936  0.56471  0.77821  1.0000
  C   C2342     1.0  0.82139  0.57011  0.76418  1.0000
  C   C2343     1.0  0.79379  0.56480  0.77537  1.0000
  C   C2344     1.0  0.81786  0.57540  0.74841  1.0000
  C   C2345     1.0  0.80246  0.57533  0.74609  1.0000
  H   H2788     1.0  0.80244  0.56165  0.81989  1.0000
  H   H2789     1.0  0.79814  0.57967  0.80394  1.0000
  H   H2790     1.0  0.78751  0.56316  0.80862  1.0000
  H   H2791     1.0  0.80151  0.53731  0.80033  1.0000
  H   H2792     1.0  0.81733  0.53431  0.81138  1.0000
  H   H2793     1.0  0.82280  0.53383  0.78982  1.0000
  H   H2794     1.0  0.82941  0.57394  0.79250  1.0000
  H   H2795     1.0  0.83083  0.55628  0.80918  1.0000
  H   H2796     1.0  0.83969  0.55351  0.78865  1.0000
  H   H2797     1.0  0.83374  0.57000  0.76495  1.0000
  C   C2346     1.0  0.83478  0.45721  0.81733  1.0000
  H   H2798     1.0  0.70235  0.64524  0.91945  1.0000
  C   C2347     1.0  0.85631  0.47797  0.79595  1.0000
  H   H2799     1.0  0.74053  0.44760  0.79037  1.0000
  C   C2348     1.0  0.70910  0.61567  0.87198  1.0000
  C   C2349     1.0  0.51048  0.62637  0.83280  1.0000
  H   H2800     1.0  0.72679  0.64618  0.89633  1.0000
  C   C2350     1.0  0.91994  0.34733  0.76791  1.0000
  H   H2801     1.0  0.68404  0.58399  0.94681  1.0000
  H   H2802     1.0  0.87390  0.44445  0.77905  1.0000
  C   C2351     1.0  0.91414  0.36428  0.76253  1.0000
  S   S623      1.0  0.82213  0.41418  0.75228  1.0000
  N   N155      1.0  0.89902  0.32324  0.81567  1.0000
  C   C2352     1.0  0.77522  0.49620  0.73413  1.0000
  H   H2803     1.0  0.92539  0.32150  0.82888  1.0000
  H   H2804     1.0  0.49567  0.64425  0.73938  1.0000
  C   C2353     1.0  0.88415  0.32880  0.80826  1.0000
  H   H2805     1.0  0.80470  0.40010  0.73560  1.0000
  S   S624      1.0  0.64658  0.64816  0.95425  1.0000
  H   H2806     1.0  0.65038  0.64645  0.87253  1.0000
  H   H2807     1.0  0.51822  0.64766  0.78419  1.0000
  H   H2808     1.0  0.72927  0.65011  0.94586  1.0000
  C   C2354     1.0  0.50749  0.64591  0.84976  1.0000
  H   H2809     1.0  0.64931  0.64929  0.91587  1.0000
  C   C2355     1.0  0.77236  0.64873  0.88726  1.0000
  H   H2810     1.0  0.88581  0.32433  0.84057  1.0000
  S   S625      1.0  0.81930  0.65174  0.98052  1.0000
  H   H2811     1.0  0.97038  0.32563  0.73673  1.0000
  C   C2356     1.0  0.60523  0.64805  0.92307  1.0000
  H   H2812     1.0  0.71144  0.62530  0.98177  1.0000
  H   H2813     1.0  0.80005  0.57890  0.73374  1.0000
  S   S626      1.0  0.56196  0.64959  0.86990  1.0000
  C   C2357     1.0  0.70606  0.52705  0.98066  1.0000
  H   H2814     1.0  0.49696  0.65159  0.82821  1.0000
  H   H2815     1.0  0.77104  0.53244  0.98211  1.0000
  S   S627      1.0  0.68028  0.65107  0.96385  1.0000
  C   C2358     1.0  0.53356  0.65186  0.79803  1.0000
  C   C2359     1.0  0.76418  0.65278  0.91575  1.0000
  H   H2816     1.0  0.75103  0.65288  0.95731  1.0000
  C   C2360     1.0  0.73682  0.65292  0.93313  1.0000
  H   H2817     1.0  0.64970  0.58873  0.98171  1.0000
  H   H2818     1.0  0.63655  0.65135  0.89123  1.0000
  H   H2819     1.0  0.62247  0.65112  0.93554  1.0000
  Fe  Fe310     1.0  0.53446  0.65284  0.87976  1.0000
  H   H2820     1.0  0.71456  0.51519  0.98262  1.0000
  H   H2821     1.0  0.85401  0.70858  0.08843  1.0000
  S   S628      1.0  0.92559  0.69802  0.13844  1.0000
  S   S629      1.0  0.89309  0.95422  0.22076  1.0000
  Fe  Fe311     1.0  0.92721  0.78879  0.14866  1.0000
  S   S630      1.0  0.93044  0.78509  0.12312  1.0000
  S   S631      1.0  0.94236  0.77517  0.16785  1.0000
  Fe  Fe312     1.0  0.89966  0.81966  0.14451  1.0000
  S   S632      1.0  0.89967  0.81821  0.11877  1.0000
  S   S633      1.0  0.88305  0.84025  0.15699  1.0000
  Fe  Fe313     1.0  0.90261  0.79081  0.12828  1.0000
  S   S634      1.0  0.88988  0.77346  0.12316  1.0000
  Fe  Fe314     1.0  0.92725  0.81261  0.11552  1.0000
  S   S635      1.0  0.94272  0.82488  0.09263  1.0000
  S   S636      1.0  0.89953  0.79270  0.15460  1.0000
  S   S637      1.0  0.92708  0.81584  0.14039  1.0000
  Fe  Fe315     1.0  0.97282  0.68417  0.16384  1.0000
  S   S638      1.0  0.97080  0.69315  0.13745  1.0000
  S   S639      1.0  0.81720  0.69354  0.99653  1.0000
  H   H2822     1.0  0.87292  0.70074  0.09557  1.0000
  Fe  Fe316     1.0  0.90459  0.69973  0.06068  1.0000
  S   S640      1.0  0.91661  0.69494  0.03553  1.0000
  S   S641      1.0  0.90457  0.67875  0.08283  1.0000
  Fe  Fe317     1.0  0.89444  0.73627  0.04809  1.0000
  S   S642      1.0  0.90504  0.73435  0.02142  1.0000
  S   S643      1.0  0.88328  0.76066  0.05631  1.0000
  Fe  Fe318     1.0  0.89356  0.71190  0.02781  1.0000
  S   S644      1.0  0.88405  0.70058  0.01156  1.0000
  Fe  Fe319     1.0  0.92694  0.71743  0.03124  1.0000
  S   S645      1.0  0.95438  0.71715  0.02115  1.0000
  S   S646      1.0  0.88107  0.71547  0.05362  1.0000
  S   S647      1.0  0.91690  0.72060  0.05717  1.0000
  Fe  Fe320     1.0  0.86304  0.93410  0.19203  1.0000
  S   S648      1.0  0.87939  0.92036  0.20983  1.0000
  S   S649      1.0  0.83602  0.93395  0.19838  1.0000
  Fe  Fe321     1.0  0.89155  0.94417  0.16512  1.0000
  S   S650      1.0  0.91030  0.93144  0.18083  1.0000
  S   S651      1.0  0.90001  0.95427  0.13810  1.0000
  Fe  Fe322     1.0  0.89663  0.91078  0.18811  1.0000
  S   S652      1.0  0.91031  0.88441  0.18757  1.0000
  Fe  Fe323     1.0  0.89120  0.94251  0.20083  1.0000
  H   H2823     1.0  0.88540  0.69121  0.14669  1.0000
  S   S653      1.0  0.87928  0.92293  0.17106  1.0000
  S   S654      1.0  0.87342  0.95682  0.18449  1.0000
  C   C2361     1.0  0.87237  0.70469  0.12726  1.0000
  N   N156      1.0  0.89545  0.80649  0.20093  1.0000
  H   H2824     1.0  0.98490  0.74691  0.15290  1.0000
  H   H2825     1.0  0.84659  0.95941  0.16728  1.0000
  C   C2362     1.0  0.86421  0.73404  0.08937  1.0000
  C   C2363     1.0  0.97696  0.75342  0.03423  1.0000
  C   C2364     1.0  0.89980  0.79292  0.21490  1.0000
  C   C2365     1.0  0.83439  0.67039  0.04260  1.0000
  H   H2826     1.0  0.87008  0.80377  0.20691  1.0000
  C   C2366     1.0  0.81828  0.92183  0.22871  1.0000
  C   C2367     1.0  0.92340  0.88164  0.11392  1.0000
  C   C2368     1.0  0.91992  0.69226  0.12317  1.0000
  C   C2369     1.0  0.96294  0.73122  0.02617  1.0000
  C   C2370     1.0  0.98024  0.72930  0.02314  1.0000
  H   H2827     1.0  0.88387  0.79149  0.19297  1.0000
  C   C2371     1.0  0.93033  0.86577  0.11094  1.0000
  C   C2372     1.0  0.95973  0.75513  0.03738  1.0000
  C   C2373     1.0  0.95274  0.74406  0.03354  1.0000
  H   H2828     1.0  0.94116  0.69827  0.07739  1.0000
  H   H2829     1.0  0.95166  0.76508  0.04278  1.0000
  H   H2830     1.0  0.81416  0.91491  0.22241  1.0000
  C   C2374     1.0  0.87688  0.83417  0.20569  1.0000
  C   C2375     1.0  0.91011  0.68384  0.09862  1.0000
  C   C2376     1.0  0.90798  0.70037  0.09898  1.0000
  C   C2377     1.0  0.91290  0.70458  0.11120  1.0000
  H   H2831     1.0  0.90224  0.70995  0.09005  1.0000
  H   H2832     1.0  0.91111  0.71739  0.11150  1.0000
  C   C2378     1.0  0.89125  0.85322  0.16409  1.0000
  C   C2379     1.0  0.88057  0.86711  0.16957  1.0000
  C   C2380     1.0  0.88637  0.87704  0.17636  1.0000
  C   C2381     1.0  0.90288  0.87303  0.17792  1.0000
  C   C2382     1.0  0.91359  0.85928  0.17227  1.0000
  C   C2383     1.0  0.90789  0.84959  0.16515  1.0000
  H   H2833     1.0  0.86766  0.87000  0.16890  1.0000
  H   H2834     1.0  0.87788  0.88739  0.18098  1.0000
  H   H2835     1.0  0.92636  0.85604  0.17350  1.0000
  H   H2836     1.0  0.91637  0.83915  0.16082  1.0000
  C   C2384     1.0  0.88724  0.76462  0.07391  1.0000
  C   C2385     1.0  0.89669  0.75258  0.08428  1.0000
  C   C2386     1.0  0.89818  0.75571  0.09897  1.0000
  C   C2387     1.0  0.89076  0.77107  0.10319  1.0000
  C   C2388     1.0  0.88183  0.78330  0.09256  1.0000
  C   C2389     1.0  0.87999  0.78004  0.07807  1.0000
  H   H2837     1.0  0.90244  0.74067  0.08130  1.0000
  H   H2838     1.0  0.90485  0.74612  0.10728  1.0000
  H   H2839     1.0  0.87562  0.79502  0.09593  1.0000
  H   H2840     1.0  0.87257  0.78941  0.07023  1.0000
  C   C2390     1.0  0.96343  0.81548  0.09299  1.0000
  C   C2391     1.0  0.96797  0.80681  0.10791  1.0000
  H   H2841     1.0  0.70686  0.70196  0.00314  1.0000
  H   H2842     1.0  0.89512  0.91857  0.13660  1.0000
  H   H2843     1.0  0.93031  0.79541  0.00503  1.0000
  C   C2392     1.0  0.97528  0.81568  0.07822  1.0000
  H   H2844     1.0  0.95892  0.80672  0.11938  1.0000
  S   S655      1.0  0.96265  0.65718  0.14017  1.0000
  H   H2845     1.0  0.82259  0.67901  0.04361  1.0000
  H   H2846     1.0  0.97184  0.82253  0.06668  1.0000
  C   C2393     1.0  0.95037  0.75374  0.17138  1.0000
  C   C2394     1.0  0.96071  0.74700  0.18270  1.0000
  C   C2395     1.0  0.96852  0.73028  0.18512  1.0000
  C   C2396     1.0  0.96598  0.72005  0.17635  1.0000
  C   C2397     1.0  0.95499  0.72654  0.16556  1.0000
  C   C2398     1.0  0.94729  0.74345  0.16295  1.0000
  H   H2847     1.0  0.96307  0.75486  0.18930  1.0000
  H   H2848     1.0  0.97692  0.72538  0.19350  1.0000
  H   H2849     1.0  0.95272  0.71864  0.15894  1.0000
  H   H2850     1.0  0.93912  0.74854  0.15435  1.0000
  C   C2399     1.0  0.85088  0.68343  0.99777  1.0000
  H   H2851     1.0  0.81546  0.97483  0.21462  1.0000
  C   C2400     1.0  0.86538  0.68535  0.00119  1.0000
  C   C2401     1.0  0.86502  0.69809  0.00875  1.0000
  C   C2402     1.0  0.84983  0.70883  0.01298  1.0000
  C   C2403     1.0  0.88691  0.85314  0.21481  1.0000
  H   H2852     1.0  0.96456  0.70575  0.05254  1.0000
  H   H2853     1.0  0.93999  0.65750  0.20794  1.0000
  N   N157      1.0  0.93396  0.79220  0.06745  1.0000
  C   C2404     1.0  0.97939  0.68033  0.08525  1.0000
  H   H2854     1.0  0.86262  0.85799  0.20998  1.0000
  H   H2855     1.0  0.92731  0.66610  0.13230  1.0000
  H   H2856     1.0  0.79902  0.95013  0.19875  1.0000
  C   C2405     1.0  0.68863  0.70200  0.99028  1.0000
  H   H2857     1.0  0.97786  0.68199  0.21407  1.0000
  C   C2406     1.0  0.81910  0.96794  0.12480  1.0000
  H   H2858     1.0  0.90655  0.81523  0.17567  1.0000
  C   C2407     1.0  0.89228  0.82260  0.20555  1.0000
  S   S656      1.0  0.74462  0.68219  0.98962  1.0000
  C   C2408     1.0  0.80671  0.66021  0.03921  1.0000
  S   S657      1.0  0.78547  0.66686  0.00574  1.0000
  H   H2859     1.0  0.94727  0.68313  0.09483  1.0000
  H   H2860     1.0  0.89742  0.89686  0.14572  1.0000
  C   C2409     1.0  0.95127  0.68798  0.08142  1.0000
  C   C2410     1.0  0.67663  0.67787  0.99901  1.0000
  N   N158      1.0  0.83498  0.96130  0.14728  1.0000
  C   C2411     1.0  0.90117  0.90598  0.13427  1.0000
  H   H2861     1.0  0.83433  0.72070  0.12120  1.0000
  C   C2412     1.0  0.85107  0.96125  0.13526  1.0000
  Fe  Fe324     1.0  0.98509  0.66794  0.13438  1.0000
  S   S658      1.0  0.94974  0.67426  0.17251  1.0000
  C   C2413     1.0  0.78311  0.95537  0.22163  1.0000
  C   C2414     1.0  0.94557  0.79855  0.03638  1.0000
  C   C2415     1.0  0.76734  0.98344  0.22041  1.0000
  H   H2862     1.0  0.90168  0.78059  0.21205  1.0000
  H   H2863     1.0  0.97368  0.74729  0.07160  1.0000
  H   H2864     1.0  0.98244  0.72002  0.13924  1.0000
  H   H2865     1.0  0.97400  0.68436  0.05470  1.0000
  C   C2416     1.0  0.86769  0.73444  0.12239  1.0000
  H   H2866     1.0  0.84244  0.93618  0.16018  1.0000
  C   C2417     1.0  0.85957  0.70663  0.09925  1.0000
  N   N159      1.0  0.85765  0.72235  0.10430  1.0000
  H   H2867     1.0  0.86178  0.95463  0.14119  1.0000
  H   H2868     1.0  0.82838  0.65771  0.01039  1.0000
  C   C2418     1.0  0.69680  0.68008  0.01284  1.0000
  C   C2419     1.0  0.87561  0.73285  0.13511  1.0000
  H   H2869     1.0  0.84334  0.94871  0.22113  1.0000
  H   H2870     1.0  0.86676  0.83220  0.20180  1.0000
  H   H2871     1.0  0.84572  0.68793  0.04683  1.0000
  H   H2872     1.0  0.80540  0.97506  0.10538  1.0000
  C   C2420     1.0  0.91698  0.67144  0.11071  1.0000
  H   H2873     1.0  0.84702  0.98220  0.21873  1.0000
  H   H2874     1.0  0.89583  0.90435  0.12458  1.0000
  C   C2421     1.0  0.94091  0.85461  0.12056  1.0000
  H   H2875     1.0  0.92744  0.86195  0.10121  1.0000
  H   H2876     1.0  0.87705  0.67702  0.99777  1.0000
  C   C2422     1.0  0.88007  0.70328  0.14010  1.0000
  C   C2423     1.0  0.98585  0.67300  0.22222  1.0000
  N   N160      1.0  0.96714  0.69350  0.07723  1.0000
  C   C2424     1.0  0.87429  0.84914  0.21038  1.0000
  H   H2877     1.0  0.98139  0.66850  0.08139  1.0000
  C   C2425     1.0  0.68599  0.67081  0.01151  1.0000
  C   C2426     1.0  0.96477  0.70873  0.08324  1.0000
  C   C2427     1.0  0.95631  0.70973  0.09966  1.0000
  C   C2428     1.0  0.97118  0.72266  0.07336  1.0000
  C   C2429     1.0  0.95364  0.72402  0.10556  1.0000
  C   C2430     1.0  0.96874  0.73680  0.07947  1.0000
  C   C2431     1.0  0.95986  0.73755  0.09548  1.0000
  H   H2878     1.0  0.83744  0.74133  0.11283  1.0000
  H   H2879     1.0  0.86690  0.98085  0.20566  1.0000
  H   H2880     1.0  0.82054  0.94375  0.16253  1.0000
  H   H2881     1.0  0.96424  0.66908  0.20338  1.0000
  H   H2882     1.0  0.66052  0.66189  0.03483  1.0000
  H   H2883     1.0  0.88508  0.86505  0.21776  1.0000
  H   H2884     1.0  0.91213  0.84565  0.21754  1.0000
  C   C2432     1.0  0.80669  0.97778  0.11649  1.0000
  H   H2885     1.0  0.91849  0.91552  0.10404  1.0000
  H   H2886     1.0  0.95167  0.69942  0.10811  1.0000
  H   H2887     1.0  0.88987  0.79368  0.22624  1.0000
  H   H2888     1.0  0.94664  0.72452  0.11804  1.0000
  H   H2889     1.0  0.70496  0.67549  0.02142  1.0000
  H   H2890     1.0  0.95780  0.74860  0.10010  1.0000
  C   C2433     1.0  0.98368  0.73158  0.12993  1.0000
  C   C2434     1.0  0.91345  0.97653  0.20506  1.0000
  C   C2435     1.0  0.82918  0.93217  0.21977  1.0000
  C   C2436     1.0  0.94986  0.79470  0.06903  1.0000
  H   H2891     1.0  0.91514  0.88976  0.10622  1.0000
  H   H2892     1.0  0.79090  0.97845  0.18269  1.0000
  C   C2437     1.0  0.98725  0.74027  0.02729  1.0000
  C   C2438     1.0  0.83577  0.69441  0.00165  1.0000
  H   H2893     1.0  0.98772  0.79137  0.11959  1.0000
  H   H2894     1.0  0.85338  0.69768  0.10925  1.0000
  C   C2439     1.0  0.87662  0.98257  0.14187  1.0000
  H   H2895     1.0  0.82381  0.71567  0.01237  1.0000
  C   C2440     1.0  0.92204  0.67566  0.12294  1.0000
  Fe  Fe325     1.0  0.94861  0.68170  0.14585  1.0000
  H   H2896     1.0  0.92116  0.80661  0.18880  1.0000
  N   N161      1.0  0.99110  0.65649  0.21805  1.0000
  C   C2441     1.0  0.98427  0.79801  0.10802  1.0000
  H   H2897     1.0  0.93748  0.91431  0.10977  1.0000
  H   H2898     1.0  0.93941  0.74567  0.03598  1.0000
  C   C2442     1.0  0.90947  0.80543  0.18651  1.0000
  H   H2899     1.0  0.90725  0.78873  0.02840  1.0000
  H   H2900     1.0  0.86170  0.74680  0.09122  1.0000
  H   H2901     1.0  0.66866  0.67134  0.99671  1.0000
  H   H2902     1.0  0.85857  0.73519  0.07879  1.0000
  H   H2903     1.0  0.95243  0.85033  0.14097  1.0000
  C   C2443     1.0  0.90486  0.82709  0.21017  1.0000
  C   C2444     1.0  0.86352  0.66585  0.04256  1.0000
  H   H2904     1.0  0.97158  0.74034  0.13257  1.0000
  H   H2905     1.0  0.85276  0.97410  0.12951  1.0000
  C   C2445     1.0  0.96348  0.65767  0.21241  1.0000
  H   H2906     1.0  0.94239  0.76585  0.07120  1.0000
  H   H2907     1.0  0.79670  0.65513  0.03770  1.0000
  H   H2908     1.0  0.95681  0.80092  0.03771  1.0000
  C   C2446     1.0  0.92497  0.90750  0.14276  1.0000
  Fe  Fe326     1.0  0.77240  0.67328  0.98482  1.0000
  C   C2447     1.0  0.88105  0.80364  0.19647  1.0000
  C   C2448     1.0  0.92036  0.80425  0.07534  1.0000
  Fe  Fe327     1.0  0.80684  0.67632  0.98752  1.0000
  H   H2909     1.0  0.91793  0.96973  0.19529  1.0000
  C   C2449     1.0  0.93242  0.77530  0.07678  1.0000
  H   H2910     1.0  0.94066  0.87763  0.14667  1.0000
  H   H2911     1.0  0.92049  0.77258  0.07695  1.0000
  H   H2912     1.0  0.95046  0.79279  0.08218  1.0000
  C   C2450     1.0  0.67794  0.69325  0.98863  1.0000
  H   H2913     1.0  0.93300  0.77340  0.08993  1.0000
  C   C2451     1.0  0.83974  0.72901  0.10986  1.0000
  C   C2452     1.0  0.90133  0.97162  0.21870  1.0000
  H   H2914     1.0  0.87115  0.97556  0.15344  1.0000
  C   C2453     1.0  0.77195  0.96740  0.23011  1.0000
  H   H2915     1.0  0.85155  0.67370  0.99176  1.0000
  H   H2916     1.0  0.92109  0.80341  0.08825  1.0000
  H   H2917     1.0  0.91901  0.92898  0.11623  1.0000
  H   H2918     1.0  0.87195  0.69325  0.12470  1.0000
  H   H2919     1.0  0.87715  0.74376  0.13801  1.0000
  C   C2454     1.0  0.83617  0.96724  0.16148  1.0000
  H   H2920     1.0  0.90793  0.80225  0.07595  1.0000
  C   C2455     1.0  0.92693  0.88684  0.12667  1.0000
  C   C2456     1.0  0.88190  0.71731  0.14385  1.0000
  C   C2457     1.0  0.93280  0.79422  0.05014  1.0000
  C   C2458     1.0  0.94457  0.79901  0.02032  1.0000
  H   H2921     1.0  0.95476  0.80165  0.01010  1.0000
  H   H2922     1.0  0.82487  0.96681  0.17153  1.0000
  C   C2459     1.0  0.93084  0.79544  0.01744  1.0000
  C   C2460     1.0  0.83259  0.94413  0.15356  1.0000
  C   C2461     1.0  0.91789  0.79168  0.03058  1.0000
  H   H2923     1.0  0.94623  0.84233  0.11817  1.0000
  H   H2924     1.0  0.87782  0.72995  0.08525  1.0000
  H   H2925     1.0  0.91926  0.92034  0.14450  1.0000
  H   H2926     1.0  0.72353  0.66158  0.98895  1.0000
  H   H2927     1.0  0.93862  0.90629  0.13993  1.0000
  C   C2462     1.0  0.83537  0.70704  0.00936  1.0000
  H   H2928     1.0  0.88858  0.71611  0.15330  1.0000
  S   S659      1.0  0.97802  0.69978  0.17807  1.0000
  H   H2929     1.0  0.92090  0.81712  0.06851  1.0000
  H   H2930     1.0  0.92127  0.89932  0.15489  1.0000
  C   C2463     1.0  0.91875  0.79125  0.04666  1.0000
  H   H2931     1.0  0.91156  0.79313  0.21786  1.0000
  H   H2932     1.0  0.87755  0.81310  0.18555  1.0000
  H   H2933     1.0  0.83275  0.73052  0.10020  1.0000
  H   H2934     1.0  0.84930  0.71877  0.01865  1.0000
  C   C2464     1.0  0.93760  0.87505  0.13641  1.0000
  H   H2935     1.0  0.97807  0.72299  0.06083  1.0000
  C   C2465     1.0  0.94446  0.85920  0.13331  1.0000
  H   H2936     1.0  0.90860  0.97851  0.10882  1.0000
  H   H2937     1.0  0.95145  0.80752  0.06314  1.0000
  H   H2938     1.0  0.96067  0.78590  0.06346  1.0000
  N   N162      1.0  0.91944  0.90376  0.12951  1.0000
  H   H2939     1.0  0.90844  0.78815  0.05639  1.0000
  C   C2466     1.0  0.86616  0.72039  0.11778  1.0000
  C   C2467     1.0  0.92380  0.91612  0.11421  1.0000
  H   H2940     1.0  0.86299  0.74684  0.11612  1.0000
  C   C2468     1.0  0.97318  0.69563  0.05908  1.0000
  H   H2941     1.0  0.97543  0.67777  0.09894  1.0000
  H   H2942     1.0  0.80670  0.67215  0.03002  1.0000
  S   S660      1.0  0.98489  0.76840  0.03858  1.0000
  S   S661      1.0  0.98953  0.65986  0.16008  1.0000
  H   H2943     1.0  0.99142  0.66677  0.19213  1.0000
  H   H2944     1.0  0.91227  0.79337  0.18288  1.0000
  H   H2945     1.0  0.98583  0.69827  0.05493  1.0000
  C   C2469     1.0  0.78537  0.97527  0.19569  1.0000
  C   C2470     1.0  0.99140  0.80634  0.07828  1.0000
  H   H2946     1.0  0.98823  0.71935  0.01749  1.0000
  C   C2471     1.0  0.90218  0.84217  0.21464  1.0000
  C   C2472     1.0  0.69800  0.69545  0.00238  1.0000
  C   C2473     1.0  0.78994  0.95938  0.20476  1.0000
  H   H2947     1.0  0.87383  0.67037  0.04341  1.0000
  H   H2948     1.0  0.78681  0.94275  0.22786  1.0000
  H   H2949     1.0  0.85218  0.95512  0.12512  1.0000
  H   H2950     1.0  0.91858  0.65861  0.11048  1.0000
  C   C2474     1.0  0.84763  0.67574  0.04449  1.0000
  H   H2951     1.0  0.83278  0.93822  0.14353  1.0000
  H   H2952     1.0  0.95207  0.67776  0.07544  1.0000
  H   H2953     1.0  0.82708  0.95760  0.11980  1.0000
  C   C2475     1.0  0.82130  0.97152  0.13913  1.0000
  H   H2954     1.0  0.98526  0.72904  0.11753  1.0000
  H   H2955     1.0  0.80301  0.66268  0.05186  1.0000
  C   C2476     1.0  0.89595  0.98036  0.23149  1.0000
  C   C2477     1.0  0.89084  0.97510  0.13187  1.0000
  H   H2956     1.0  0.91698  0.81908  0.21008  1.0000
  H   H2957     1.0  0.98342  0.76300  0.12550  1.0000
  H   H2958     1.0  0.68786  0.65862  0.04400  1.0000
  H   H2959     1.0  0.83830  0.98004  0.15765  1.0000
  C   C2478     1.0  0.83478  0.94083  0.22799  1.0000
  H   H2960     1.0  0.86444  0.98193  0.22666  1.0000
  H   H2961     1.0  0.99161  0.68383  0.08209  1.0000
  C   C2479     1.0  0.83671  0.65467  0.03896  1.0000
  N   N163      1.0  0.68537  0.65396  0.02151  1.0000
  C   C2480     1.0  0.89761  0.98425  0.11663  1.0000
  C   C2481     1.0  0.80997  0.98525  0.14487  1.0000
  Fe  Fe328     1.0  0.72104  0.90435  0.42817  1.0000
  S   S662      1.0  0.73546  0.87997  0.43935  1.0000
  S   S663      1.0  0.70228  0.92198  0.44249  1.0000
  Fe  Fe329     1.0  0.73593  0.90015  0.39300  1.0000
  S   S664      1.0  0.75142  0.87523  0.40122  1.0000
  S   S665      1.0  0.73840  0.90890  0.36550  1.0000
  Fe  Fe330     1.0  0.72893  0.87064  0.42057  1.0000
  S   S666      1.0  0.72356  0.84528  0.42839  1.0000
  Fe  Fe331     1.0  0.75666  0.88671  0.41903  1.0000
  S   S667      1.0  0.78318  0.88079  0.42109  1.0000
  S   S668      1.0  0.71269  0.89454  0.41088  1.0000
  S   S669      1.0  0.74298  0.91212  0.40942  1.0000
  C   C2482     1.0  0.54912  0.72640  0.26742  1.0000
  Fe  Fe332     1.0  0.64780  0.81722  0.45056  1.0000
  S   S670      1.0  0.65990  0.79294  0.44351  1.0000
  S   S671      1.0  0.65058  0.84093  0.43225  1.0000
  H   H2962     1.0  0.51672  0.77744  0.33058  1.0000
  H   H2963     1.0  0.78810  0.79799  0.43528  1.0000
  C   C2483     1.0  0.50035  0.81621  0.33454  1.0000
  S   S672      1.0  0.62438  0.80918  0.46573  1.0000
  C   C2484     1.0  0.50611  0.81023  0.34949  1.0000
  S   S673      1.0  0.80107  0.80633  0.45770  1.0000
  C   C2485     1.0  0.75637  0.75487  0.46829  1.0000
  H   H2964     1.0  0.81158  0.87834  0.45774  1.0000
  S   S674      1.0  0.64938  0.77611  0.48239  1.0000
  S   S675      1.0  0.81310  0.95164  0.30742  1.0000
  H   H2965     1.0  0.77214  0.94897  0.27076  1.0000
  C   C2486     1.0  0.59785  0.77858  0.44348  1.0000
  Fe  Fe333     1.0  0.80718  0.95121  0.28378  1.0000
  S   S676      1.0  0.81026  0.92783  0.27537  1.0000
  H   H2966     1.0  0.75504  0.94359  0.24483  1.0000
  Fe  Fe334     1.0  0.55757  0.75033  0.41021  1.0000
  S   S677      1.0  0.57365  0.73672  0.39054  1.0000
  S   S678      1.0  0.56615  0.76445  0.42456  1.0000
  Fe  Fe335     1.0  0.52550  0.75093  0.39922  1.0000
  S   S679      1.0  0.53958  0.73831  0.37855  1.0000
  H   H2967     1.0  0.75777  0.82694  0.43880  1.0000
  Fe  Fe336     1.0  0.55404  0.72177  0.39706  1.0000
  S   S680      1.0  0.55700  0.69466  0.39817  1.0000
  Fe  Fe337     1.0  0.55749  0.75439  0.37394  1.0000
  S   S681      1.0  0.56843  0.76839  0.34920  1.0000
  S   S682      1.0  0.53897  0.73371  0.41838  1.0000
  S   S683      1.0  0.54229  0.76867  0.39292  1.0000
  C   C2487     1.0  0.86561  0.94965  0.26259  1.0000
  S   S684      1.0  0.55484  0.65657  0.29986  1.0000
  S   S685      1.0  0.51806  0.68771  0.28396  1.0000
  C   C2488     1.0  0.71368  0.72460  0.47878  1.0000
  H   H2968     1.0  0.52652  0.69657  0.38539  1.0000
  C   C2489     1.0  0.54700  0.73433  0.32326  1.0000
  C   C2490     1.0  0.82905  0.93954  0.24508  1.0000
  Fe  Fe338     1.0  0.63743  0.78405  0.46016  1.0000
  C   C2491     1.0  0.55885  0.67012  0.36329  1.0000
  H   H2969     1.0  0.85356  0.94574  0.26648  1.0000
  H   H2970     1.0  0.74434  0.81467  0.45373  1.0000
  C   C2492     1.0  0.54632  0.74145  0.27186  1.0000
  C   C2493     1.0  0.50245  0.79955  0.37974  1.0000
  C   C2494     1.0  0.87298  0.93093  0.28719  1.0000
  S   S686      1.0  0.62906  0.76500  0.45156  1.0000
  C   C2495     1.0  0.55607  0.77370  0.33448  1.0000
  C   C2496     1.0  0.56303  0.77964  0.31798  1.0000
  C   C2497     1.0  0.55340  0.78458  0.30600  1.0000
  C   C2498     1.0  0.53666  0.78385  0.31043  1.0000
  C   C2499     1.0  0.52964  0.77782  0.32696  1.0000
  C   C2500     1.0  0.53938  0.77261  0.33897  1.0000
  H   H2971     1.0  0.57592  0.78047  0.31442  1.0000
  H   H2972     1.0  0.55892  0.78920  0.29327  1.0000
  N   N164      1.0  0.76459  0.96292  0.24796  1.0000
  H   H2973     1.0  0.53386  0.76826  0.35174  1.0000
  C   C2501     1.0  0.56045  0.68915  0.37900  1.0000
  C   C2502     1.0  0.55692  0.67434  0.37849  1.0000
  H   H2974     1.0  0.51401  0.74374  0.33423  1.0000
  C   C2503     1.0  0.61238  0.81482  0.38880  1.0000
  C   C2504     1.0  0.54207  0.71311  0.29621  1.0000
  H   H2975     1.0  0.88300  0.96026  0.28280  1.0000
  C   C2505     1.0  0.65511  0.88184  0.44381  1.0000
  C   C2506     1.0  0.58423  0.77808  0.43747  1.0000
  H   H2976     1.0  0.57372  0.78840  0.43741  1.0000
  C   C2507     1.0  0.56629  0.69954  0.36423  1.0000
  H   H2977     1.0  0.51992  0.75498  0.31380  1.0000
  H   H2978     1.0  0.55893  0.72527  0.32086  1.0000
  H   H2979     1.0  0.61616  0.76754  0.40063  1.0000
  H   H2980     1.0  0.74474  0.95131  0.26322  1.0000
  C   C2508     1.0  0.81809  0.92925  0.25404  1.0000
  C   C2509     1.0  0.71462  0.83168  0.47514  1.0000
  C   C2510     1.0  0.69837  0.73201  0.47446  1.0000
  C   C2511     1.0  0.90742  0.96297  0.27062  1.0000
  H   H2981     1.0  0.83340  0.94625  0.25129  1.0000
  H   H2982     1.0  0.80470  0.91199  0.25275  1.0000
  Fe  Fe339     1.0  0.67062  0.78711  0.46604  1.0000
  C   C2512     1.0  0.61147  0.76524  0.44395  1.0000
  C   C2513     1.0  0.61131  0.75156  0.43802  1.0000
  C   C2514     1.0  0.59775  0.75113  0.43186  1.0000
  C   C2515     1.0  0.58400  0.76436  0.43165  1.0000
  H   H2983     1.0  0.68683  0.94357  0.46445  1.0000
  H   H2984     1.0  0.76549  0.81158  0.45507  1.0000
  H   H2985     1.0  0.62171  0.74114  0.43829  1.0000
  H   H2986     1.0  0.59781  0.74042  0.42758  1.0000
  H   H2987     1.0  0.54650  0.81379  0.33282  1.0000
  H   H2988     1.0  0.55261  0.66614  0.38987  1.0000
  S   S687      1.0  0.52506  0.79095  0.29488  1.0000
  C   C2516     1.0  0.74609  0.92699  0.35673  1.0000
  C   C2517     1.0  0.74470  0.93826  0.36627  1.0000
  C   C2518     1.0  0.75208  0.95194  0.35941  1.0000
  C   C2519     1.0  0.76119  0.95419  0.34310  1.0000
  C   C2520     1.0  0.76234  0.94308  0.33345  1.0000
  C   C2521     1.0  0.75450  0.92969  0.34018  1.0000
  H   H2989     1.0  0.73790  0.93649  0.37893  1.0000
  H   H2990     1.0  0.75111  0.96056  0.36688  1.0000
  H   H2991     1.0  0.76942  0.94467  0.32089  1.0000
  H   H2992     1.0  0.75543  0.92109  0.33270  1.0000
  C   C2522     1.0  0.78804  0.86020  0.43148  1.0000
  C   C2523     1.0  0.77722  0.85400  0.44578  1.0000
  C   C2524     1.0  0.78133  0.83755  0.45416  1.0000
  C   C2525     1.0  0.79604  0.82717  0.44800  1.0000
  C   C2526     1.0  0.80678  0.83337  0.43366  1.0000
  C   C2527     1.0  0.80293  0.84993  0.42556  1.0000
  H   H2993     1.0  0.76587  0.86197  0.45061  1.0000
  H   H2994     1.0  0.77403  0.75836  0.47984  1.0000
  H   H2995     1.0  0.81819  0.82537  0.42888  1.0000
  H   H2996     1.0  0.81135  0.85469  0.41455  1.0000
  C   C2528     1.0  0.70406  0.84382  0.42687  1.0000
  C   C2529     1.0  0.69326  0.85732  0.41937  1.0000
  C   C2530     1.0  0.67707  0.85618  0.42000  1.0000
  C   C2531     1.0  0.67165  0.84159  0.42827  1.0000
  C   C2532     1.0  0.68290  0.82782  0.43465  1.0000
  C   C2533     1.0  0.69897  0.82895  0.43412  1.0000
  H   H2997     1.0  0.69725  0.86870  0.41327  1.0000
  H   H2998     1.0  0.66864  0.86673  0.41452  1.0000
  H   H2999     1.0  0.67926  0.81623  0.44020  1.0000
  H   H3000     1.0  0.70729  0.81834  0.43969  1.0000
  H   H3001     1.0  0.66785  0.71151  0.45933  1.0000
  C   C2534     1.0  0.66486  0.88734  0.45133  1.0000
  C   C2535     1.0  0.69974  0.91847  0.46399  1.0000
  N   N165      1.0  0.49477  0.80457  0.36513  1.0000
  Fe  Fe340     1.0  0.82373  0.97349  0.29261  1.0000
  H   H3002     1.0  0.52015  0.66640  0.37967  1.0000
  H   H3003     1.0  0.82042  0.85762  0.46641  1.0000
  H   H3004     1.0  0.62760  0.81037  0.40641  1.0000
  S   S688      1.0  0.84914  0.97494  0.29332  1.0000
  C   C2536     1.0  0.61494  0.78073  0.39668  1.0000
  H   H3005     1.0  0.75289  0.82023  0.41580  1.0000
  C   C2537     1.0  0.66970  0.72392  0.45204  1.0000
  H   H3006     1.0  0.51289  0.78863  0.37879  1.0000
  C   C2538     1.0  0.53886  0.72832  0.30118  1.0000
  H   H3007     1.0  0.73336  0.84606  0.46769  1.0000
  H   H3008     1.0  0.78733  0.84524  0.48108  1.0000
  C   C2539     1.0  0.71932  0.78771  0.47550  1.0000
  C   C2540     1.0  0.56895  0.69494  0.34911  1.0000
  H   H3009     1.0  0.61134  0.82806  0.38588  1.0000
  C   C2541     1.0  0.75141  0.80781  0.42345  1.0000
  N   N166      1.0  0.67500  0.87605  0.46296  1.0000
  C   C2542     1.0  0.70036  0.70896  0.46253  1.0000
  C   C2543     1.0  0.67607  0.74950  0.45122  1.0000
  H   H3010     1.0  0.68654  0.74896  0.44031  1.0000
  H   H3011     1.0  0.73801  0.80923  0.42943  1.0000
  Fe  Fe341     1.0  0.52762  0.66721  0.30377  1.0000
  C   C2544     1.0  0.67044  0.88175  0.47872  1.0000
  H   H3012     1.0  0.50699  0.80977  0.38142  1.0000
  H   H3013     1.0  0.67759  0.85318  0.45579  1.0000
  C   C2545     1.0  0.50411  0.72008  0.28565  1.0000
  H   H3014     1.0  0.51173  0.72328  0.27351  1.0000
  C   C2546     1.0  0.76027  0.78550  0.44648  1.0000
  C   C2547     1.0  0.76940  0.77832  0.45914  1.0000
  C   C2548     1.0  0.74935  0.77642  0.44499  1.0000
  C   C2549     1.0  0.67310  0.85870  0.46690  1.0000
  C   C2550     1.0  0.74747  0.76136  0.45580  1.0000
  H   H3015     1.0  0.65755  0.73072  0.44875  1.0000
  H   H3016     1.0  0.77792  0.78447  0.46109  1.0000
  H   H3017     1.0  0.66450  0.75577  0.44663  1.0000
  H   H3018     1.0  0.73853  0.75503  0.45489  1.0000
  C   C2551     1.0  0.69127  0.72450  0.46609  1.0000
  H   H3019     1.0  0.67875  0.72260  0.44023  1.0000
  H   H3020     1.0  0.78113  0.81355  0.41887  1.0000
  N   N167      1.0  0.67510  0.73280  0.46153  1.0000
  S   S689      1.0  0.66005  0.81199  0.47181  1.0000
  H   H3021     1.0  0.63975  0.88809  0.42601  1.0000
  C   C2552     1.0  0.62286  0.78791  0.40424  1.0000
  S   S690      1.0  0.82002  0.97141  0.26863  1.0000
  H   H3022     1.0  0.75457  0.79937  0.41480  1.0000
  H   H3023     1.0  0.59770  0.78922  0.44790  1.0000
  H   H3024     1.0  0.78350  0.79207  0.41895  1.0000
  C   C2553     1.0  0.51623  0.69104  0.39389  1.0000
  S   S691      1.0  0.52581  0.67234  0.32836  1.0000
  N   N168      1.0  0.76195  0.80191  0.43589  1.0000
  C   C2554     1.0  0.75720  0.81428  0.44634  1.0000
  C   C2555     1.0  0.75073  0.95494  0.24997  1.0000
  N   N169      1.0  0.87892  0.93660  0.26915  1.0000
  H   H3025     1.0  0.67227  0.90952  0.45176  1.0000
  H   H3026     1.0  0.88490  0.92605  0.24764  1.0000
  H   H3027     1.0  0.54162  0.70408  0.32992  1.0000
  S   S692      1.0  0.69817  0.77681  0.46393  1.0000
  H   H3028     1.0  0.87027  0.91741  0.26428  1.0000
  H   H3029     1.0  0.54919  0.70054  0.27611  1.0000
  C   C2556     1.0  0.77939  0.80134  0.42685  1.0000
  H   H3030     1.0  0.74165  0.78094  0.43599  1.0000
  H   H3031     1.0  0.50637  0.82550  0.30822  1.0000
  H   H3032     1.0  0.78847  0.95586  0.25444  1.0000
  H   H3033     1.0  0.69595  0.70224  0.45630  1.0000
  H   H3034     1.0  0.72240  0.68973  0.46417  1.0000
  H   H3035     1.0  0.73672  0.90697  0.47118  1.0000
  C   C2557     1.0  0.89391  0.94335  0.26598  1.0000
  C   C2558     1.0  0.51375  0.67852  0.37321  1.0000
  H   H3036     1.0  0.54919  0.74665  0.31609  1.0000
  H   H3037     1.0  0.61933  0.89006  0.46300  1.0000
  C   C2559     1.0  0.49504  0.69936  0.30916  1.0000
  H   H3038     1.0  0.69534  0.88855  0.45242  1.0000
  H   H3039     1.0  0.86255  0.92457  0.28995  1.0000
  H   H3040     1.0  0.74105  0.96336  0.24341  1.0000
  H   H3041     1.0  0.57417  0.70266  0.33781  1.0000
  H   H3042     1.0  0.62308  0.86820  0.44776  1.0000
  C   C2560     1.0  0.69136  0.93161  0.47174  1.0000
  C   C2561     1.0  0.88167  0.92239  0.26136  1.0000
  Fe  Fe342     1.0  0.55259  0.66011  0.32535  1.0000
  H   H3043     1.0  0.80295  0.97909  0.24302  1.0000
  H   H3044     1.0  0.65423  0.86909  0.44645  1.0000
  S   S693      1.0  0.78201  0.96783  0.28836  1.0000
  H   H3045     1.0  0.55607  0.65871  0.36299  1.0000
  H   H3046     1.0  0.49539  0.68656  0.31509  1.0000
  H   H3047     1.0  0.54406  0.73480  0.33656  1.0000
  N   N170      1.0  0.79559  0.90893  0.36703  1.0000
  C   C2562     1.0  0.78129  0.90421  0.38001  1.0000
  C   C2563     1.0  0.81091  0.89910  0.37262  1.0000
  C   C2564     1.0  0.79464  0.92667  0.36582  1.0000
  C   C2565     1.0  0.79595  0.90607  0.35073  1.0000
  C   C2566     1.0  0.78491  0.89767  0.34834  1.0000
  C   C2567     1.0  0.80783  0.91151  0.33662  1.0000
  C   C2568     1.0  0.78541  0.89548  0.33269  1.0000
  C   C2569     1.0  0.80818  0.90929  0.32103  1.0000
  C   C2570     1.0  0.79691  0.90143  0.31905  1.0000
  H   H3048     1.0  0.78085  0.90722  0.39192  1.0000
  H   H3049     1.0  0.76934  0.91088  0.37640  1.0000
  H   H3050     1.0  0.78188  0.89071  0.38278  1.0000
  H   H3051     1.0  0.81085  0.90053  0.38512  1.0000
  H   H3052     1.0  0.82220  0.90279  0.36412  1.0000
  H   H3053     1.0  0.81216  0.88572  0.37341  1.0000
  H   H3054     1.0  0.78406  0.93450  0.36030  1.0000
  H   H3055     1.0  0.79287  0.92954  0.37810  1.0000
  H   H3056     1.0  0.80594  0.93092  0.35809  1.0000
  H   H3057     1.0  0.77538  0.89311  0.35825  1.0000
  H   H3058     1.0  0.81680  0.91774  0.33748  1.0000
  H   H3059     1.0  0.77649  0.88953  0.33112  1.0000
  H   H3060     1.0  0.81704  0.91393  0.31032  1.0000
  H   H3061     1.0  0.79703  0.90010  0.30685  1.0000
  N   N171      1.0  0.59702  0.78335  0.37643  1.0000
  C   C2571     1.0  0.59987  0.76508  0.38116  1.0000
  C   C2572     1.0  0.57890  0.78993  0.38066  1.0000
  C   C2573     1.0  0.60283  0.78786  0.35826  1.0000
  C   C2574     1.0  0.60556  0.79048  0.38475  1.0000
  C   C2575     1.0  0.60447  0.80777  0.38110  1.0000
  H   H3062     1.0  0.59460  0.76076  0.39452  1.0000
  H   H3063     1.0  0.59379  0.76016  0.37418  1.0000
  H   H3064     1.0  0.61327  0.75921  0.37840  1.0000
  H   H3065     1.0  0.57202  0.78434  0.37512  1.0000
  H   H3066     1.0  0.57547  0.80348  0.37620  1.0000
  H   H3067     1.0  0.57414  0.78722  0.39428  1.0000
  H   H3068     1.0  0.61650  0.78360  0.35462  1.0000
  H   H3069     1.0  0.59699  0.78217  0.35170  1.0000
  H   H3070     1.0  0.59970  0.80135  0.35330  1.0000
  H   H3071     1.0  0.59737  0.81599  0.37235  1.0000
  C   C2576     1.0  0.54710  0.71227  0.27957  1.0000
  C   C2577     1.0  0.56506  0.68034  0.34855  1.0000
  H   H3072     1.0  0.56927  0.71086  0.36449  1.0000
  H   H3073     1.0  0.73415  0.70367  0.47847  1.0000
  H   H3074     1.0  0.54803  0.75244  0.26242  1.0000
  S   S694      1.0  0.77201  0.97021  0.33554  1.0000
  H   H3075     1.0  0.65726  0.92805  0.43134  1.0000
  C   C2578     1.0  0.70557  0.90300  0.47349  1.0000
  H   H3076     1.0  0.55287  0.72564  0.25454  1.0000
  H   H3077     1.0  0.90988  0.92947  0.24739  1.0000
  S   S695      1.0  0.56857  0.67512  0.32927  1.0000
  C   C2579     1.0  0.52308  0.80966  0.34849  1.0000
  Fe  Fe343     1.0  0.78908  0.97022  0.31065  1.0000
  C   C2580     1.0  0.77719  0.88781  0.46136  1.0000
  C   C2581     1.0  0.53030  0.71415  0.33030  1.0000
  H   H3078     1.0  0.86366  0.96125  0.26675  1.0000
  H   H3079     1.0  0.54075  0.70162  0.30488  1.0000
  C   C2582     1.0  0.72230  0.70941  0.47506  1.0000
  C   C2583     1.0  0.62156  0.80490  0.40034  1.0000
  C   C2584     1.0  0.65645  0.91517  0.43497  1.0000
  N   N172      1.0  0.53369  0.72969  0.31870  1.0000
  H   H3080     1.0  0.52882  0.80472  0.35901  1.0000
  H   H3081     1.0  0.88312  0.92231  0.29293  1.0000
  N   N173      1.0  0.79576  0.86702  0.47958  1.0000
  H   H3082     1.0  0.71231  0.89285  0.46763  1.0000
  C   C2585     1.0  0.51085  0.82145  0.31959  1.0000
  H   H3083     1.0  0.67787  0.75781  0.45812  1.0000
  H   H3084     1.0  0.53968  0.75436  0.29128  1.0000
  C   C2586     1.0  0.92223  0.94583  0.25109  1.0000
  H   H3085     1.0  0.88671  0.97660  0.24220  1.0000
  H   H3086     1.0  0.72071  0.79643  0.46381  1.0000
  H   H3087     1.0  0.52616  0.71562  0.34332  1.0000
  C   C2587     1.0  0.51830  0.74257  0.32114  1.0000
  H   H3088     1.0  0.69674  0.87147  0.44394  1.0000
  H   H3089     1.0  0.70086  0.86808  0.46409  1.0000
  C   C2588     1.0  0.69273  0.87602  0.45560  1.0000
  C   C2589     1.0  0.75810  0.97746  0.25581  1.0000
  H   H3090     1.0  0.62984  0.78027  0.41342  1.0000
  H   H3091     1.0  0.93191  0.96411  0.25606  1.0000
  H   H3092     1.0  0.86802  0.94135  0.29369  1.0000
  H   H3093     1.0  0.86862  0.95295  0.24891  1.0000
  H   H3094     1.0  0.76030  0.90551  0.44729  1.0000
  H   H3095     1.0  0.89171  0.91215  0.26560  1.0000
  H   H3096     1.0  0.52037  0.71000  0.32743  1.0000
  H   H3097     1.0  0.75445  0.74351  0.47701  1.0000
  H   H3098     1.0  0.77302  0.83292  0.46527  1.0000
  C   C2590     1.0  0.54139  0.74243  0.28848  1.0000
  H   H3099     1.0  0.80443  0.86135  0.45542  1.0000
  C   C2591     1.0  0.77954  0.87766  0.47693  1.0000
  H   H3100     1.0  0.50811  0.73965  0.31751  1.0000
  H   H3101     1.0  0.78697  0.88801  0.45043  1.0000
  C   C2592     1.0  0.64658  0.89271  0.43203  1.0000
  C   C2593     1.0  0.90869  0.93845  0.25448  1.0000
  C   C2594     1.0  0.70781  0.77765  0.47932  1.0000
  H   H3102     1.0  0.52338  0.68415  0.36353  1.0000
  H   H3103     1.0  0.90679  0.97273  0.27664  1.0000
  H   H3104     1.0  0.67340  0.89394  0.47716  1.0000
  H   H3105     1.0  0.64093  0.91764  0.41823  1.0000
  H   H3106     1.0  0.74698  0.98576  0.25154  1.0000
  C   C2595     1.0  0.71564  0.70159  0.46699  1.0000
  C   C2596     1.0  0.81298  0.92014  0.24586  1.0000
  C   C2597     1.0  0.80854  0.86612  0.46408  1.0000
  H   H3107     1.0  0.93311  0.94236  0.24180  1.0000
  H   H3108     1.0  0.53559  0.82427  0.30731  1.0000
  H   H3109     1.0  0.50995  0.69870  0.40325  1.0000
  C   C2598     1.0  0.92157  0.95811  0.25907  1.0000
  H   H3110     1.0  0.78033  0.93871  0.25442  1.0000
  C   C2599     1.0  0.77692  0.95119  0.25717  1.0000
  C   C2600     1.0  0.89381  0.95571  0.27407  1.0000
  C   C2601     1.0  0.64729  0.90932  0.42758  1.0000
  C   C2602     1.0  0.76737  0.76329  0.46989  1.0000
  N   N174      1.0  0.50448  0.68955  0.38477  1.0000
  C   C2603     1.0  0.50052  0.72079  0.37485  1.0000
  C   C2604     1.0  0.66506  0.90440  0.44669  1.0000
  H   H3111     1.0  0.71503  0.83104  0.46264  1.0000
  H   H3112     1.0  0.50556  0.67563  0.36682  1.0000
  H   H3113     1.0  0.76776  0.98472  0.25335  1.0000
  H   H3114     1.0  0.52213  0.67882  0.40062  1.0000
  C   C2605     1.0  0.53346  0.81491  0.33344  1.0000
  H   H3115     1.0  0.50940  0.72159  0.38124  1.0000
  H   H3116     1.0  0.69215  0.74376  0.47769  1.0000
  H   H3117     1.0  0.49703  0.66983  0.40471  1.0000
  C   C2606     1.0  0.50478  0.70346  0.29346  1.0000
  C   C2607     1.0  0.66210  0.73438  0.47672  1.0000
  C   C2608     1.0  0.76183  0.89806  0.45937  1.0000
  H   H3118     1.0  0.64976  0.74090  0.47379  1.0000
  H   H3119     1.0  0.75407  0.97382  0.26946  1.0000
  C   C2609     1.0  0.72492  0.84016  0.47797  1.0000
  C   C2610     1.0  0.52736  0.82080  0.31904  1.0000
  C   C2611     1.0  0.49664  0.70557  0.37545  1.0000
  H   H3120     1.0  0.50083  0.72652  0.41947  1.0000
  C   C2612     1.0  0.61556  0.86744  0.46018  1.0000
  C   C2613     1.0  0.74848  0.89874  0.47278  1.0000
  H   H3121     1.0  0.50003  0.77986  0.36133  1.0000
  S   S696      1.0  0.49803  0.76014  0.39990  1.0000
  H   H3122     1.0  0.97871  0.67232  0.23518  1.0000
  H   H3123     1.0  0.60975  0.84466  0.46073  1.0000
  Fe  Fe344     1.0  0.49779  0.79151  0.30117  1.0000
  C   C2614     1.0  0.60805  0.85408  0.46756  1.0000
  H   H3124     1.0  0.49543  0.74717  0.36626  1.0000
  C   C2615     1.0  0.61342  0.87967  0.46877  1.0000
  H   H3125     1.0  0.66001  0.85773  0.47212  1.0000
  H   H3126     1.0  0.68035  0.85073  0.47615  1.0000
  Fe  Fe345     1.0  0.90651  0.77606  0.58257  1.0000
  S   S697      1.0  0.89776  0.78778  0.60458  1.0000
  S   S698      1.0  0.92714  0.75368  0.58506  1.0000
  Fe  Fe346     1.0  0.87996  0.79878  0.56479  1.0000
  S   S699      1.0  0.86956  0.81291  0.58503  1.0000
  S   S700      1.0  0.86704  0.80627  0.54323  1.0000
  Fe  Fe347     1.0  0.89587  0.81148  0.58584  1.0000
  S   S701      1.0  0.90237  0.83409  0.58879  1.0000
  Fe  Fe348     1.0  0.87249  0.78806  0.60192  1.0000
  S   S702      1.0  0.85168  0.78160  0.62279  1.0000
  S   S703      1.0  0.90632  0.79984  0.56369  1.0000
  S   S704      1.0  0.88124  0.77395  0.58181  1.0000
  Fe  Fe349     1.0  0.96588  0.82239  0.64432  1.0000
  S   S705      1.0  0.96261  0.80590  0.66950  1.0000
  S   S706      1.0  0.94422  0.84143  0.63618  1.0000
  C   C2616     1.0  0.98848  0.70647  0.60987  1.0000
  H   H3127     1.0  0.63874  0.96400  0.55836  1.0000
  C   C2617     1.0  0.94929  0.77314  0.60363  1.0000
  H   H3128     1.0  0.59805  0.87678  0.51895  1.0000
  Fe  Fe350     1.0  0.92835  0.68460  0.63913  1.0000
  Fe  Fe351     1.0  0.97880  0.78585  0.65642  1.0000
  Fe  Fe352     1.0  0.89313  0.69544  0.65665  1.0000
  S   S707      1.0  0.89939  0.68446  0.68142  1.0000
  S   S708      1.0  0.86626  0.70605  0.65624  1.0000
  Fe  Fe353     1.0  0.92197  0.69559  0.67095  1.0000
  S   S709      1.0  0.92818  0.71093  0.68535  1.0000
  H   H3129     1.0  0.61100  0.89422  0.70042  1.0000
  S   S710      1.0  0.91438  0.70822  0.64693  1.0000
  Fe  Fe354     1.0  0.64406  0.97631  0.65562  1.0000
  Fe  Fe355     1.0  0.65438  0.94085  0.65224  1.0000
  S   S711      1.0  0.63387  0.96160  0.64448  1.0000
  S   S712      1.0  0.66906  0.92380  0.63493  1.0000
  Fe  Fe356     1.0  0.64889  0.94936  0.68626  1.0000
  S   S713      1.0  0.62804  0.97057  0.68074  1.0000
  S   S714      1.0  0.65071  0.94230  0.71320  1.0000
  Fe  Fe357     1.0  0.62001  0.95379  0.67024  1.0000
  S   S715      1.0  0.59326  0.95272  0.67726  1.0000
  H   H3130     1.0  0.80348  0.88645  0.48479  1.0000
  C   C2618     1.0  0.66929  0.93045  0.55264  1.0000
  S   S716      1.0  0.63966  0.93191  0.67742  1.0000
  S   S717      1.0  0.66589  0.95622  0.66165  1.0000
  Fe  Fe358     1.0  0.67562  0.89595  0.53473  1.0000
  S   S718      1.0  0.67483  0.87194  0.53013  1.0000
  S   S719      1.0  0.69301  0.91220  0.51949  1.0000
  Fe  Fe359     1.0  0.64841  0.89415  0.56565  1.0000
  S   S720      1.0  0.64460  0.86983  0.56379  1.0000
  S   S721      1.0  0.63432  0.90820  0.58585  1.0000
  Fe  Fe360     1.0  0.67234  0.86317  0.55745  1.0000
  S   S722      1.0  0.68741  0.83876  0.56733  1.0000
  Fe  Fe361     1.0  0.64730  0.88042  0.53653  1.0000
  S   S723      1.0  0.63389  0.87713  0.51883  1.0000
  S   S724      1.0  0.67595  0.88635  0.56150  1.0000
  S   S725      1.0  0.64816  0.90553  0.53890  1.0000
  C   C2619     1.0  0.84297  0.66856  0.68273  1.0000
  S   S726      1.0  0.62981  0.80750  0.51200  1.0000
  H   H3131     1.0  0.71187  0.79422  0.52327  1.0000
  Fe  Fe362     1.0  0.79595  0.78353  0.51839  1.0000
  S   S727      1.0  0.79638  0.80889  0.50295  1.0000
  S   S728      1.0  0.81540  0.77015  0.53383  1.0000
  Fe  Fe363     1.0  0.76320  0.78335  0.50954  1.0000
  H   H3132     1.0  0.65829  0.88430  0.73014  1.0000
  S   S729      1.0  0.74251  0.76980  0.51437  1.0000
  H   H3133     1.0  0.89712  0.81809  0.64742  1.0000
  Fe  Fe364     1.0  0.76927  0.81469  0.51383  1.0000
  S   S730      1.0  0.75811  0.83898  0.52118  1.0000
  S   S731      1.0  0.79021  0.77425  0.49884  1.0000
  S   S732      1.0  0.76903  0.78989  0.53064  1.0000
  H   H3134     1.0  0.92237  0.85995  0.68155  1.0000
  H   H3135     1.0  0.73880  0.79339  0.48313  1.0000
  C   C2620     1.0  0.71670  0.76435  0.50514  1.0000
  C   C2621     1.0  0.72876  0.77383  0.50100  1.0000
  C   C2622     1.0  0.94386  0.81986  0.56964  1.0000
  C   C2623     1.0  0.55794  0.98039  0.66111  1.0000
  H   H3136     1.0  0.71581  0.75508  0.51650  1.0000
  C   C2624     1.0  0.89204  0.74736  0.55216  1.0000
  C   C2625     1.0  0.64452  0.95109  0.55702  1.0000
  C   C2626     1.0  0.70760  0.83878  0.55574  1.0000
  C   C2627     1.0  0.71944  0.82403  0.55555  1.0000
  C   C2628     1.0  0.73511  0.82402  0.54508  1.0000
  C   C2629     1.0  0.73902  0.83877  0.53504  1.0000
  C   C2630     1.0  0.72737  0.85357  0.53568  1.0000
  C   C2631     1.0  0.71166  0.85355  0.54590  1.0000
  H   H3137     1.0  0.71640  0.81258  0.56319  1.0000
  H   H3138     1.0  0.74412  0.81260  0.54491  1.0000
  H   H3139     1.0  0.73033  0.86503  0.52797  1.0000
  H   H3140     1.0  0.70274  0.86503  0.54601  1.0000
  C   C2632     1.0  0.63611  0.85688  0.51662  1.0000
  C   C2633     1.0  0.63580  0.85445  0.50131  1.0000
  C   C2634     1.0  0.63513  0.83895  0.49953  1.0000
  C   C2635     1.0  0.63429  0.82584  0.51324  1.0000
  C   C2636     1.0  0.63532  0.82805  0.52847  1.0000
  C   C2637     1.0  0.63643  0.84350  0.53012  1.0000
  H   H3141     1.0  0.54928  0.96743  0.71805  1.0000
  C   C2638     1.0  0.58537  0.87656  0.51806  1.0000
  H   H3142     1.0  0.63461  0.81796  0.53915  1.0000
  H   H3143     1.0  0.63653  0.84530  0.54205  1.0000
  C   C2639     1.0  0.72967  0.78591  0.48638  1.0000
  H   H3144     1.0  0.88933  0.75670  0.68310  1.0000
  N   N175      1.0  0.94691  0.86384  0.67840  1.0000
  C   C2640     1.0  0.65920  0.91986  0.62124  1.0000
  C   C2641     1.0  0.66879  0.91129  0.60893  1.0000
  C   C2642     1.0  0.66135  0.90787  0.59791  1.0000
  C   C2643     1.0  0.64421  0.91280  0.59917  1.0000
  C   C2644     1.0  0.63462  0.92149  0.61140  1.0000
  C   C2645     1.0  0.64207  0.92504  0.62237  1.0000
  H   H3145     1.0  0.68204  0.90734  0.60791  1.0000
  H   H3146     1.0  0.66893  0.90140  0.58850  1.0000
  H   H3147     1.0  0.62135  0.92536  0.61253  1.0000
  H   H3148     1.0  0.63452  0.93155  0.63187  1.0000
  H   H3149     1.0  0.68313  0.93991  0.49461  1.0000
  C   C2646     1.0  0.92945  0.86492  0.68748  1.0000
  C   C2647     1.0  0.56867  0.86377  0.50919  1.0000
  C   C2648     1.0  0.61214  0.97808  0.72265  1.0000
  C   C2649     1.0  0.66187  0.95571  0.59700  1.0000
  H   H3150     1.0  0.55215  0.98321  0.65030  1.0000
  C   C2650     1.0  0.59176  0.93471  0.69234  1.0000
  C   C2651     1.0  0.60253  0.91983  0.68971  1.0000
  H   H3151     1.0  0.90112  0.74306  0.64277  1.0000
  H   H3152     1.0  0.61091  0.91921  0.67789  1.0000
  H   H3153     1.0  0.87125  0.77446  0.66308  1.0000
  C   C2652     1.0  0.96096  0.69371  0.61224  1.0000
  C   C2653     1.0  0.96182  0.74835  0.66161  1.0000
  C   C2654     1.0  0.95366  0.74677  0.67819  1.0000
  C   C2655     1.0  0.94358  0.73509  0.68537  1.0000
  C   C2656     1.0  0.94145  0.72502  0.67603  1.0000
  C   C2657     1.0  0.94949  0.72675  0.65942  1.0000
  C   C2658     1.0  0.95975  0.73822  0.65231  1.0000
  H   H3154     1.0  0.69653  0.81721  0.48520  1.0000
  H   H3155     1.0  0.93737  0.73386  0.69823  1.0000
  H   H3156     1.0  0.94792  0.71913  0.65208  1.0000
  H   H3157     1.0  0.96604  0.73924  0.63948  1.0000
  C   C2659     1.0  0.85291  0.79587  0.54078  1.0000
  C   C2660     1.0  0.84228  0.80410  0.52988  1.0000
  C   C2661     1.0  0.83072  0.79641  0.52772  1.0000
  C   C2662     1.0  0.82980  0.78028  0.53626  1.0000
  C   C2663     1.0  0.84051  0.77199  0.54713  1.0000
  C   C2664     1.0  0.85193  0.77978  0.54948  1.0000
  H   H3158     1.0  0.84294  0.81653  0.52309  1.0000
  H   H3159     1.0  0.82265  0.80296  0.51932  1.0000
  H   H3160     1.0  0.83993  0.75950  0.55378  1.0000
  H   H3161     1.0  0.86003  0.77330  0.55792  1.0000
  C   C2665     1.0  0.91394  0.83482  0.60267  1.0000
  C   C2666     1.0  0.91336  0.85031  0.60526  1.0000
  C   C2667     1.0  0.92264  0.85197  0.61557  1.0000
  C   C2668     1.0  0.93311  0.83823  0.62312  1.0000
  C   C2669     1.0  0.93400  0.82262  0.62042  1.0000
  C   C2670     1.0  0.92410  0.82086  0.61051  1.0000
  H   H3162     1.0  0.90561  0.86116  0.59924  1.0000
  H   H3163     1.0  0.92184  0.86406  0.61753  1.0000
  H   H3164     1.0  0.94218  0.81192  0.62604  1.0000
  H   H3165     1.0  0.92465  0.80886  0.60854  1.0000
  C   C2671     1.0  0.85560  0.76034  0.63094  1.0000
  C   C2672     1.0  0.87119  0.75036  0.62626  1.0000
  C   C2673     1.0  0.87456  0.73360  0.63395  1.0000
  C   C2674     1.0  0.86224  0.72677  0.64602  1.0000
  C   C2675     1.0  0.84652  0.73665  0.65024  1.0000
  C   C2676     1.0  0.84325  0.75345  0.64284  1.0000
  H   H3166     1.0  0.88081  0.75564  0.61711  1.0000
  H   H3167     1.0  0.88665  0.72596  0.63054  1.0000
  H   H3168     1.0  0.83698  0.73138  0.65956  1.0000
  H   H3169     1.0  0.83122  0.76114  0.64651  1.0000
  C   C2677     1.0  0.68506  0.94605  0.56981  1.0000
  C   C2678     1.0  0.58068  0.93542  0.70750  1.0000
  H   H3170     1.0  0.68766  0.83364  0.53421  1.0000
  H   H3171     1.0  0.93911  0.78274  0.66233  1.0000
  C   C2679     1.0  0.97509  0.74146  0.56258  1.0000
  C   C2680     1.0  0.95971  0.74132  0.57356  1.0000
  C   C2681     1.0  0.94573  0.75340  0.57015  1.0000
  C   C2682     1.0  0.94698  0.76523  0.55535  1.0000
  C   C2683     1.0  0.96237  0.76518  0.54419  1.0000
  C   C2684     1.0  0.59629  0.86482  0.49292  1.0000
  H   H3172     1.0  0.95880  0.73211  0.58497  1.0000
  H   H3173     1.0  0.93620  0.77448  0.55254  1.0000
  H   H3174     1.0  0.95426  0.69626  0.63751  1.0000
  H   H3175     1.0  0.81438  0.86594  0.49261  1.0000
  N   N176      1.0  0.67058  0.85793  0.61291  1.0000
  C   C2685     1.0  0.67367  0.84004  0.62036  1.0000
  C   C2686     1.0  0.65837  0.86135  0.60240  1.0000
  C   C2687     1.0  0.68625  0.86193  0.60190  1.0000
  C   C2688     1.0  0.66490  0.86738  0.62618  1.0000
  C   C2689     1.0  0.64844  0.87675  0.62999  1.0000
  C   C2690     1.0  0.67588  0.86715  0.63600  1.0000
  C   C2691     1.0  0.64356  0.88561  0.64254  1.0000
  C   C2692     1.0  0.67093  0.87630  0.64832  1.0000
  C   C2693     1.0  0.65482  0.88555  0.65154  1.0000
  H   H3176     1.0  0.66223  0.83650  0.62876  1.0000
  H   H3177     1.0  0.67788  0.83251  0.61071  1.0000
  H   H3178     1.0  0.68342  0.83635  0.62772  1.0000
  H   H3179     1.0  0.66319  0.85456  0.59218  1.0000
  H   H3180     1.0  0.65526  0.87472  0.59666  1.0000
  H   H3181     1.0  0.64671  0.85733  0.60949  1.0000
  H   H3182     1.0  0.69692  0.85728  0.60807  1.0000
  H   H3183     1.0  0.68996  0.85626  0.59089  1.0000
  H   H3184     1.0  0.68500  0.87546  0.59738  1.0000
  H   H3185     1.0  0.63917  0.87786  0.62320  1.0000
  H   H3186     1.0  0.68846  0.86007  0.63411  1.0000
  H   H3187     1.0  0.63112  0.89308  0.64490  1.0000
  H   H3188     1.0  0.67968  0.87651  0.65523  1.0000
  H   H3189     1.0  0.65116  0.89303  0.66075  1.0000
  H   H3190     1.0  0.89232  0.76031  0.54714  1.0000
  H   H3191     1.0  0.84645  0.68036  0.68197  1.0000
  Fe  Fe365     1.0  0.78871  0.80037  0.48442  1.0000
  H   H3192     1.0  0.97867  0.70728  0.63551  1.0000
  H   H3193     1.0  0.87277  0.71846  0.55074  1.0000
  H   H3194     1.0  0.68986  0.79714  0.50802  1.0000
  H   H3195     1.0  0.87024  0.66255  0.69608  1.0000
  H   H3196     1.0  0.94582  0.84457  0.56806  1.0000
  H   H3197     1.0  0.86523  0.66292  0.65547  1.0000
  H   H3198     1.0  0.63417  0.83747  0.48778  1.0000
  C   C2694     1.0  0.70264  0.80320  0.53014  1.0000
  H   H3199     1.0  0.61068  0.98312  0.70970  1.0000
  H   H3200     1.0  0.69759  0.75830  0.49742  1.0000
  H   H3201     1.0  0.97925  0.88831  0.70894  1.0000
  N   N177      1.0  0.85768  0.65472  0.68186  1.0000
  C   C2695     1.0  0.97244  0.69601  0.59729  1.0000
  C   C2696     1.0  0.65820  0.95306  0.72351  1.0000
  C   C2697     1.0  0.87005  0.66003  0.66691  1.0000
  H   H3202     1.0  0.83363  0.66642  0.69439  1.0000
  H   H3203     1.0  0.68272  0.95297  0.60752  1.0000
  H   H3204     1.0  0.94151  0.77973  0.61349  1.0000
  H   H3205     1.0  0.63900  0.89380  0.72355  1.0000
  H   H3206     1.0  0.96782  0.78260  0.61814  1.0000
  S   S733      1.0  0.98082  0.80249  0.63119  1.0000
  N   N178      1.0  0.91282  0.71112  0.58166  1.0000
  C   C2698     1.0  0.91265  0.69326  0.58629  1.0000
  C   C2699     1.0  0.93028  0.71256  0.57432  1.0000
  C   C2700     1.0  0.90718  0.71751  0.59704  1.0000
  C   C2701     1.0  0.90208  0.72088  0.56994  1.0000
  C   C2702     1.0  0.90209  0.73785  0.56318  1.0000
  C   C2703     1.0  0.89111  0.71414  0.56521  1.0000
  H   H3207     1.0  0.56369  0.87522  0.50069  1.0000
  C   C2704     1.0  0.88105  0.72381  0.55422  1.0000
  S   S734      1.0  0.94405  0.68534  0.61377  1.0000
  H   H3208     1.0  0.91674  0.68765  0.57525  1.0000
  H   H3209     1.0  0.92125  0.68627  0.59470  1.0000
  H   H3210     1.0  0.90020  0.69100  0.59313  1.0000
  H   H3211     1.0  0.93881  0.70480  0.58251  1.0000
  H   H3212     1.0  0.93207  0.72526  0.57231  1.0000
  H   H3213     1.0  0.93472  0.70878  0.56224  1.0000
  H   H3214     1.0  0.91530  0.71088  0.60599  1.0000
  H   H3215     1.0  0.90735  0.73076  0.59472  1.0000
  H   H3216     1.0  0.89428  0.71622  0.60320  1.0000
  H   H3217     1.0  0.90981  0.74396  0.56645  1.0000
  H   H3218     1.0  0.89004  0.70145  0.56984  1.0000
  H   H3219     1.0  0.92400  0.81174  0.65557  1.0000
  H   H3220     1.0  0.63873  0.94248  0.56787  1.0000
  N   N179      1.0  0.81822  0.79456  0.59099  1.0000
  C   C2705     1.0  0.83240  0.80288  0.58456  1.0000
  C   C2706     1.0  0.80958  0.79812  0.60747  1.0000
  C   C2707     1.0  0.82509  0.77649  0.59336  1.0000
  C   C2708     1.0  0.80667  0.80084  0.57956  1.0000
  C   C2709     1.0  0.79925  0.81791  0.57592  1.0000
  C   C2710     1.0  0.80248  0.79047  0.57171  1.0000
  C   C2711     1.0  0.78835  0.82418  0.56511  1.0000
  C   C2712     1.0  0.79151  0.79687  0.56100  1.0000
  C   C2713     1.0  0.78449  0.81366  0.55765  1.0000
  H   H3221     1.0  0.82874  0.81629  0.58439  1.0000
  H   H3222     1.0  0.84192  0.79760  0.59218  1.0000
  H   H3223     1.0  0.83854  0.80152  0.57174  1.0000
  H   H3224     1.0  0.80542  0.81155  0.60712  1.0000
  H   H3225     1.0  0.81786  0.79313  0.61648  1.0000
  H   H3226     1.0  0.79852  0.79251  0.61252  1.0000
  H   H3227     1.0  0.83234  0.77300  0.58155  1.0000
  H   H3228     1.0  0.83376  0.77221  0.60199  1.0000
  H   H3229     1.0  0.81515  0.76936  0.59867  1.0000
  H   H3230     1.0  0.80199  0.82657  0.58128  1.0000
  H   H3231     1.0  0.80773  0.77740  0.57330  1.0000
  H   H3232     1.0  0.78295  0.83727  0.56236  1.0000
  H   H3233     1.0  0.78872  0.78872  0.55500  1.0000
  H   H3234     1.0  0.77616  0.81853  0.54915  1.0000
  H   H3235     1.0  0.76641  0.87130  0.50257  1.0000
  S   S735      1.0  0.76148  0.80877  0.49370  1.0000
  C   C2714     1.0  0.66995  0.96264  0.71519  1.0000
  C   C2715     1.0  0.60254  0.90571  0.70240  1.0000
  H   H3236     1.0  0.95342  0.83824  0.69108  1.0000
  C   C2716     1.0  0.96311  0.69798  0.62595  1.0000
  H   H3237     1.0  0.56293  0.98229  0.68911  1.0000
  C   C2717     1.0  0.89608  0.79256  0.65124  1.0000
  H   H3238     1.0  0.58169  0.98571  0.67466  1.0000
  H   H3239     1.0  0.96839  0.84480  0.67331  1.0000
  H   H3240     1.0  0.67352  0.83786  0.52082  1.0000
  C   C2718     1.0  0.95487  0.84625  0.67851  1.0000
  H   H3241     1.0  0.60469  0.84694  0.52217  1.0000
  C   C2719     1.0  0.95958  0.79772  0.58782  1.0000
  C   C2720     1.0  0.80209  0.87352  0.49038  1.0000
  H   H3242     1.0  0.58589  0.95228  0.73177  1.0000
  N   N180      1.0  0.89674  0.76181  0.65657  1.0000
  C   C2721     1.0  0.59728  0.95721  0.72598  1.0000
  H   H3243     1.0  0.60815  0.94681  0.72754  1.0000
  Fe  Fe366     1.0  0.91405  0.66262  0.67044  1.0000
  H   H3244     1.0  0.87376  0.74781  0.53914  1.0000
  C   C2722     1.0  0.68204  0.80700  0.51463  1.0000
  H   H3245     1.0  0.89064  0.73979  0.67389  1.0000
  C   C2723     1.0  0.68921  0.92954  0.48880  1.0000
  C   C2724     1.0  0.87948  0.76708  0.65403  1.0000
  C   C2725     1.0  0.88156  0.74035  0.54767  1.0000
  H   H3246     1.0  0.57238  0.94693  0.70950  1.0000
  H   H3247     1.0  0.65255  0.90626  0.72286  1.0000
  C   C2726     1.0  0.71375  0.83309  0.50731  1.0000
  C   C2727     1.0  0.65647  0.95411  0.58370  1.0000
  C   C2728     1.0  0.69495  0.91415  0.49832  1.0000
  C   C2729     1.0  0.70324  0.82417  0.50490  1.0000
  C   C2730     1.0  0.89638  0.75027  0.67292  1.0000
  H   H3248     1.0  0.90893  0.74439  0.67537  1.0000
  H   H3249     1.0  0.64324  0.95643  0.58496  1.0000
  C   C2731     1.0  0.92697  0.78548  0.65946  1.0000
  H   H3250     1.0  0.92701  0.76023  0.66225  1.0000
  H   H3251     1.0  0.67438  0.96399  0.70199  1.0000
  C   C2732     1.0  0.90326  0.80533  0.65119  1.0000
  C   C2733     1.0  0.91992  0.77266  0.65947  1.0000
  C   C2734     1.0  0.91851  0.80179  0.65562  1.0000
  S   S736      1.0  0.90633  0.67314  0.64624  1.0000
  H   H3252     1.0  0.93497  0.82378  0.56173  1.0000
  C   C2735     1.0  0.97653  0.75349  0.54795  1.0000
  C   C2736     1.0  0.90405  0.77574  0.65589  1.0000
  H   H3253     1.0  0.66564  0.97194  0.54185  1.0000
  H   H3254     1.0  0.56786  0.85310  0.50476  1.0000
  C   C2737     1.0  0.68095  0.82782  0.52876  1.0000
  H   H3255     1.0  0.87888  0.77443  0.64132  1.0000
  C   C2738     1.0  0.90697  0.75273  0.64363  1.0000
  H   H3256     1.0  0.90870  0.76114  0.63127  1.0000
  H   H3257     1.0  0.87394  0.75632  0.65566  1.0000
  H   H3258     1.0  0.88436  0.79620  0.64746  1.0000
  H   H3259     1.0  0.67395  0.80080  0.52567  1.0000
  H   H3260     1.0  0.68303  0.92681  0.55025  1.0000
  H   H3261     1.0  0.91950  0.74640  0.64605  1.0000
  C   C2739     1.0  0.94684  0.87238  0.66092  1.0000
  C   C2740     1.0  0.97692  0.70425  0.62480  1.0000
  H   H3262     1.0  0.94362  0.79457  0.57343  1.0000
  H   H3263     1.0  0.80606  0.84122  0.48836  1.0000
  C   C2741     1.0  0.79388  0.84993  0.48776  1.0000
  C   C2742     1.0  0.97400  0.77114  0.58205  1.0000
  H   H3264     1.0  0.92307  0.87795  0.68793  1.0000
  H   H3265     1.0  0.92846  0.85777  0.70043  1.0000
  H   H3266     1.0  0.64106  0.94943  0.54610  1.0000
  C   C2743     1.0  0.59191  0.90656  0.71776  1.0000
  H   H3267     1.0  0.67359  0.81570  0.50678  1.0000
  H   H3268     1.0  0.96846  0.86313  0.72299  1.0000
  C   C2744     1.0  0.98616  0.70243  0.59612  1.0000
  N   N181      1.0  0.66279  0.94754  0.55520  1.0000
  H   H3269     1.0  0.95251  0.75975  0.60932  1.0000
  H   H3270     1.0  0.57791  0.87477  0.53094  1.0000
  H   H3271     1.0  0.57257  0.92197  0.73216  1.0000
  C   C2745     1.0  0.66957  0.95898  0.54017  1.0000
  C   C2746     1.0  0.67670  0.96969  0.72414  1.0000
  H   H3272     1.0  0.94142  0.77407  0.59499  1.0000
  H   H3273     1.0  0.58414  0.84547  0.53310  1.0000
  H   H3274     1.0  0.67214  0.82199  0.53933  1.0000
  H   H3275     1.0  0.98532  0.77600  0.57542  1.0000
  C   C2747     1.0  0.66797  0.94924  0.56962  1.0000
  H   H3276     1.0  0.66432  0.92150  0.56357  1.0000
  N   N182      1.0  0.69235  0.81566  0.51924  1.0000
  H   H3277     1.0  0.68334  0.95588  0.53690  1.0000
  C   C2748     1.0  0.59221  0.84735  0.52053  1.0000
  H   H3278     1.0  0.97531  0.90249  0.68089  1.0000
  H   H3279     1.0  0.57970  0.88891  0.51141  1.0000
  H   H3280     1.0  0.66577  0.92883  0.54177  1.0000
  C   C2749     1.0  0.96631  0.86951  0.71080  1.0000
  H   H3281     1.0  0.96341  0.77449  0.53288  1.0000
  H   H3282     1.0  0.56020  0.86343  0.52156  1.0000
  H   H3283     1.0  0.70758  0.88890  0.49806  1.0000
  H   H3284     1.0  0.97780  0.75763  0.58693  1.0000
  H   H3285     1.0  0.59744  0.96118  0.71251  1.0000
  H   H3286     1.0  0.59035  0.98474  0.64640  1.0000
  C   C2750     1.0  0.70628  0.76624  0.49438  1.0000
  H   H3287     1.0  0.97084  0.69272  0.58667  1.0000
  C   C2751     1.0  0.97020  0.89165  0.68704  1.0000
  C   C2752     1.0  0.95802  0.86319  0.70283  1.0000
  C   C2753     1.0  0.60391  0.87849  0.48489  1.0000
  H   H3288     1.0  0.71400  0.83387  0.51955  1.0000
  C   C2754     1.0  0.95569  0.87086  0.68657  1.0000
  S   S737      1.0  0.97499  0.76244  0.65183  1.0000
  H   H3289     1.0  0.62396  0.96870  0.72247  1.0000
  Fe  Fe367     1.0  0.98637  0.81208  0.67070  1.0000
  H   H3290     1.0  0.66539  0.95847  0.52918  1.0000
  C   C2755     1.0  0.58089  0.92137  0.72031  1.0000
  H   H3291     1.0  0.70337  0.94467  0.58333  1.0000
  N   N183      1.0  0.96431  0.77996  0.59529  1.0000
  C   C2756     1.0  0.94865  0.80317  0.57672  1.0000
  H   H3292     1.0  0.67727  0.87313  0.48807  1.0000
  H   H3293     1.0  0.68633  0.97646  0.71772  1.0000
  C   C2757     1.0  0.64775  0.89517  0.73033  1.0000
  H   H3294     1.0  0.97748  0.76289  0.61333  1.0000
  H   H3295     1.0  0.69502  0.79609  0.54082  1.0000
  H   H3296     1.0  0.94958  0.84101  0.67111  1.0000
  H   H3297     1.0  0.96684  0.77269  0.57261  1.0000
  H   H3298     1.0  0.73260  0.84734  0.49632  1.0000
  C   C2758     1.0  0.97237  0.88372  0.70293  1.0000
  H   H3299     1.0  0.94048  0.86656  0.65503  1.0000
  H   H3300     1.0  0.59328  0.83642  0.51552  1.0000
  H   H3301     1.0  0.95522  0.75441  0.68553  1.0000
  S   S738      1.0  0.93748  0.67242  0.66256  1.0000
  H   H3302     1.0  0.70972  0.80882  0.53536  1.0000
  H   H3303     1.0  0.87352  0.67138  0.66738  1.0000
  H   H3304     1.0  0.95371  0.85204  0.70944  1.0000
  H   H3305     1.0  0.69452  0.94225  0.55958  1.0000
  H   H3306     1.0  0.98587  0.73239  0.56560  1.0000
  N   N184      1.0  0.58588  0.86326  0.50986  1.0000
  C   C2759     1.0  0.94999  0.83160  0.57317  1.0000
  C   C2760     1.0  0.69028  0.94748  0.58329  1.0000
  C   C2761     1.0  0.96118  0.82665  0.58355  1.0000
  H   H3307     1.0  0.94011  0.88549  0.65983  1.0000
  H   H3308     1.0  0.79361  0.87351  0.50270  1.0000
  H   H3309     1.0  0.59307  0.84204  0.48880  1.0000
  H   H3310     1.0  0.65695  0.88289  0.48419  1.0000
  C   C2762     1.0  0.67870  0.95228  0.59687  1.0000
  C   C2763     1.0  0.96197  0.88541  0.67891  1.0000
  C   C2764     1.0  0.59854  0.85273  0.48366  1.0000
  S   S739      1.0  0.98833  0.82982  0.64631  1.0000
  C   C2765     1.0  0.97454  0.77634  0.60776  1.0000
  H   H3311     1.0  0.73984  0.88947  0.49863  1.0000
  H   H3312     1.0  0.95968  0.87177  0.65335  1.0000
  H   H3313     1.0  0.96091  0.89209  0.66656  1.0000
  Fe  Fe368     1.0  0.63803  0.80186  0.48655  1.0000
  H   H3314     1.0  0.96581  0.83585  0.58638  1.0000
  C   C2766     1.0  0.70393  0.82376  0.48833  1.0000
  H   H3315     1.0  0.83681  0.67061  0.67229  1.0000
  C   C2767     1.0  0.96605  0.80996  0.59071  1.0000
  H   H3316     1.0  0.60308  0.88826  0.49089  1.0000
  H   H3317     1.0  0.57005  0.97174  0.65848  1.0000
  H   H3318     1.0  0.55035  0.97325  0.67183  1.0000
  C   C2768     1.0  0.75031  0.88895  0.48821  1.0000
  H   H3319     1.0  0.63547  0.86478  0.49092  1.0000
  H   H3320     1.0  0.66084  0.72206  0.48470  1.0000
  C   C2769     1.0  0.70294  0.90078  0.49072  1.0000
  H   H3321     1.0  0.78682  0.84890  0.50071  1.0000
  C   C2770     1.0  0.54580  0.97076  0.72993  1.0000
  S   S740      1.0  0.99128  0.81936  0.69252  1.0000
  H   H3322     1.0  0.65295  0.95902  0.60783  1.0000
  C   C2771     1.0  0.58266  0.98395  0.73169  1.0000
  C   C2772     1.0  0.72443  0.84093  0.49404  1.0000
  C   C2773     1.0  0.76560  0.87856  0.49032  1.0000
  H   H3323     1.0  0.98666  0.78000  0.60227  1.0000
  H   H3324     1.0  0.97474  0.80702  0.59858  1.0000
  H   H3325     1.0  0.71884  0.73074  0.48504  1.0000
  H   H3326     1.0  0.66484  0.74148  0.48428  1.0000
  S   S741      1.0  0.79249  0.68511  0.96703  1.0000
  H   H3327     1.0  0.51506  0.67585  0.76677  1.0000
  C   C2774     1.0  0.58220  0.97090  0.83236  1.0000
  Fe  Fe369     1.0  0.64648  0.67311  0.93774  1.0000
  S   S742      1.0  0.62826  0.68451  0.92084  1.0000
  C   C2775     1.0  0.55871  0.98069  0.79203  1.0000
  N   N185      1.0  0.55039  0.65901  0.81431  1.0000
  H   H3328     1.0  0.54637  0.70562  0.90810  1.0000
  S   S743      1.0  0.65064  0.68445  0.95665  1.0000
  Fe  Fe370     1.0  0.55758  0.92185  0.77705  1.0000
  S   S744      1.0  0.58447  0.91758  0.76487  1.0000
  S   S745      1.0  0.54271  0.94769  0.77817  1.0000
  Fe  Fe371     1.0  0.55849  0.88518  0.79050  1.0000
  S   S746      1.0  0.58574  0.87808  0.78031  1.0000
  S   S747      1.0  0.54258  0.86645  0.80428  1.0000
  Fe  Fe372     1.0  0.58839  0.89978  0.78845  1.0000
  S   S748      1.0  0.61233  0.89848  0.79570  1.0000
  Fe  Fe373     1.0  0.57981  0.89647  0.75777  1.0000
  H   H3329     1.0  0.73279  0.66637  0.92806  1.0000
  S   S749      1.0  0.56159  0.90505  0.80130  1.0000
  S   S750      1.0  0.55232  0.90253  0.76729  1.0000
  H   H3330     1.0  0.81795  0.70898  0.96231  1.0000
  C   C2776     1.0  0.54711  0.67787  0.92945  1.0000
  C   C2777     1.0  0.85235  0.70555  0.95345  1.0000
  Fe  Fe374     1.0  0.51251  0.77073  0.81224  1.0000
  C   C2778     1.0  0.56557  0.68775  0.94055  1.0000
  Fe  Fe375     1.0  0.67800  0.67588  0.94685  1.0000
  Fe  Fe376     1.0  0.55588  0.67689  0.86011  1.0000
  S   S751      1.0  0.56590  0.68875  0.83407  1.0000
  S   S752      1.0  0.55852  0.68383  0.88235  1.0000
  H   H3331     1.0  0.50211  0.74016  0.83958  1.0000
  H   H3332     1.0  0.55114  0.94555  0.74359  1.0000
  H   H3333     1.0  0.64997  0.67129  0.89234  1.0000
  C   C2779     1.0  0.59540  0.65539  0.91129  1.0000
  H   H3334     1.0  0.53159  0.98267  0.77256  1.0000
  S   S753      1.0  0.52761  0.81817  0.76829  1.0000
  C   C2780     1.0  0.67298  0.90982  0.75923  1.0000
  S   S754      1.0  0.52462  0.76088  0.83380  1.0000
  H   H3335     1.0  0.59433  0.81944  0.83058  1.0000
  S   S755      1.0  0.52730  0.77184  0.78642  1.0000
  Fe  Fe377     1.0  0.51310  0.79815  0.78202  1.0000
  H   H3336     1.0  0.74200  0.70359  0.95787  1.0000
  H   H3337     1.0  0.66264  0.88202  0.79443  1.0000
  C   C2781     1.0  0.57234  0.67114  0.94763  1.0000
  H   H3338     1.0  0.50236  0.65800  0.85252  1.0000
  H   H3339     1.0  0.64408  0.87902  0.77930  1.0000
  H   H3340     1.0  0.51233  0.71917  0.82646  1.0000
  C   C2782     1.0  0.55646  0.70959  0.83256  1.0000
  C   C2783     1.0  0.55492  0.71705  0.84557  1.0000
  C   C2784     1.0  0.54549  0.73303  0.84564  1.0000
  C   C2785     1.0  0.53751  0.74155  0.83272  1.0000
  C   C2786     1.0  0.53938  0.73431  0.81943  1.0000
  C   C2787     1.0  0.54897  0.71832  0.81930  1.0000
  H   H3341     1.0  0.56098  0.71049  0.85563  1.0000
  H   H3342     1.0  0.54406  0.73862  0.85592  1.0000
  H   H3343     1.0  0.53307  0.74079  0.80950  1.0000
  H   H3344     1.0  0.55004  0.71253  0.80928  1.0000
  S   S756      1.0  0.52833  0.67963  0.86814  1.0000
  C   C2788     1.0  0.50318  0.71192  0.82876  1.0000
  C   C2789     1.0  0.50643  0.90838  0.76756  1.0000
  Fe  Fe378     1.0  0.53152  0.68369  0.89154  1.0000
  H   H3345     1.0  0.66411  0.66869  0.87326  1.0000
  C   C2790     1.0  0.58653  0.95688  0.76190  1.0000
  C   C2791     1.0  0.53872  0.85305  0.79407  1.0000
  C   C2792     1.0  0.54787  0.85094  0.77838  1.0000
  C   C2793     1.0  0.54423  0.84035  0.77057  1.0000
  C   C2794     1.0  0.53148  0.83171  0.77836  1.0000
  C   C2795     1.0  0.52228  0.83395  0.79398  1.0000
  C   C2796     1.0  0.52601  0.84440  0.80186  1.0000
  H   H3346     1.0  0.55776  0.85746  0.77227  1.0000
  H   H3347     1.0  0.55142  0.83875  0.75846  1.0000
  H   H3348     1.0  0.51232  0.82756  0.80007  1.0000
  H   H3349     1.0  0.51889  0.84591  0.81402  1.0000
  C   C2797     1.0  0.61612  0.91408  0.80310  1.0000
  C   C2798     1.0  0.62949  0.92167  0.79453  1.0000
  C   C2799     1.0  0.63434  0.93221  0.80144  1.0000
  C   C2800     1.0  0.62610  0.93492  0.81720  1.0000
  C   C2801     1.0  0.61263  0.92750  0.82567  1.0000
  C   C2802     1.0  0.60757  0.91724  0.81861  1.0000
  H   H3350     1.0  0.63629  0.91923  0.78260  1.0000
  H   H3351     1.0  0.64481  0.93776  0.79483  1.0000
  H   H3352     1.0  0.60635  0.92932  0.83795  1.0000
  H   H3353     1.0  0.59759  0.91110  0.82555  1.0000
  H   H3354     1.0  0.56810  0.66080  0.94671  1.0000
  C   C2803     1.0  0.71290  0.67318  0.96747  1.0000
  H   H3355     1.0  0.58602  0.95906  0.82809  1.0000
  H   H3356     1.0  0.59056  0.65457  0.96084  1.0000
  C   C2804     1.0  0.67137  0.96772  0.74136  1.0000
  S   S757      1.0  0.49952  0.79725  0.80825  1.0000
  Fe  Fe379     1.0  0.66873  0.97887  0.77870  1.0000
  C   C2805     1.0  0.52235  0.67236  0.77615  1.0000
  C   C2806     1.0  0.58697  0.95114  0.77858  1.0000
  C   C2807     1.0  0.53916  0.67927  0.79069  1.0000
  H   H3357     1.0  0.83629  0.68115  0.96712  1.0000
  H   H3358     1.0  0.51143  0.72231  0.85339  1.0000
  C   C2808     1.0  0.54134  0.66315  0.80083  1.0000
  H   H3359     1.0  0.72316  0.70693  0.93933  1.0000
  C   C2809     1.0  0.60624  0.68016  0.90532  1.0000
  H   H3360     1.0  0.60662  0.69259  0.89835  1.0000
  H   H3361     1.0  0.99337  0.92472  0.78677  1.0000
  H   H3362     1.0  0.61059  0.97930  0.82350  1.0000
  H   H3363     1.0  0.62259  0.88432  0.76732  1.0000
  C   C2810     1.0  0.71240  0.68629  0.95370  1.0000
  C   C2811     1.0  0.72342  0.69680  0.94998  1.0000
  C   C2812     1.0  0.73422  0.69484  0.96038  1.0000
  C   C2813     1.0  0.59884  0.96485  0.75060  1.0000
  S   S758      1.0  0.51393  0.70384  0.90343  1.0000
  C   C2814     1.0  0.61582  0.67295  0.91733  1.0000
  N   N186      1.0  0.56062  0.78869  0.80801  1.0000
  C   C2815     1.0  0.56348  0.79352  0.78973  1.0000
  C   C2816     1.0  0.56482  0.77037  0.81254  1.0000
  C   C2817     1.0  0.54275  0.79407  0.81500  1.0000
  C   C2818     1.0  0.57026  0.79675  0.81411  1.0000
  C   C2819     1.0  0.58172  0.78782  0.82431  1.0000
  C   C2820     1.0  0.56799  0.81420  0.81019  1.0000
  C   C2821     1.0  0.50706  0.91522  0.78061  1.0000
  C   C2822     1.0  0.57656  0.82224  0.81607  1.0000
  H   H3364     1.0  0.51625  0.70168  0.80752  1.0000
  H   H3365     1.0  0.55903  0.80693  0.78523  1.0000
  H   H3366     1.0  0.57688  0.79032  0.78399  1.0000
  H   H3367     1.0  0.55669  0.78738  0.78467  1.0000
  H   H3368     1.0  0.57809  0.76536  0.80756  1.0000
  H   H3369     1.0  0.55739  0.76482  0.80758  1.0000
  H   H3370     1.0  0.56190  0.76574  0.82617  1.0000
  H   H3371     1.0  0.53989  0.79000  0.82870  1.0000
  H   H3372     1.0  0.53843  0.80763  0.81210  1.0000
  H   H3373     1.0  0.53500  0.78893  0.81010  1.0000
  H   H3374     1.0  0.58417  0.77454  0.82810  1.0000
  H   H3375     1.0  0.55935  0.82182  0.80267  1.0000
  H   H3376     1.0  0.54438  0.68865  0.79232  1.0000
  H   H3377     1.0  0.57436  0.83563  0.81300  1.0000
  H   H3378     1.0  0.64390  0.94362  0.74734  1.0000
  S   S759      1.0  0.67562  0.96383  0.80274  1.0000
  H   H3379     1.0  0.59966  0.94911  0.79753  1.0000
  H   H3380     1.0  0.56794  0.71304  0.93758  1.0000
  H   H3381     1.0  0.87438  0.68781  0.94460  1.0000
  C   C2823     1.0  0.59615  0.67139  0.90224  1.0000
  H   H3382     1.0  0.51225  0.88128  0.79320  1.0000
  C   C2824     1.0  0.58582  0.69613  0.95027  1.0000
  H   H3383     1.0  0.49725  0.73933  0.86107  1.0000
  H   H3384     1.0  0.50861  0.91408  0.74086  1.0000
  H   H3385     1.0  0.57138  0.97960  0.73925  1.0000
  H   H3386     1.0  0.62171  0.96258  0.77851  1.0000
  S   S760      1.0  0.53577  0.65699  0.90401  1.0000
  C   C2825     1.0  0.58535  0.66732  0.95583  1.0000
  C   C2826     1.0  0.55612  0.70295  0.91534  1.0000
  H   H3387     1.0  0.58907  0.67700  0.89278  1.0000
  C   C2827     1.0  0.49980  0.73164  0.85177  1.0000
  H   H3388     1.0  0.57745  0.94496  0.78692  1.0000
  H   H3389     1.0  0.57417  0.65737  0.79751  1.0000
  H   H3390     1.0  0.59899  0.78898  0.83789  1.0000
  H   H3391     1.0  0.55780  0.67035  0.92218  1.0000
  H   H3392     1.0  0.53894  0.71323  0.94306  1.0000
  C   C2828     1.0  0.58774  0.81315  0.82599  1.0000
  C   C2829     1.0  0.51927  0.88156  0.76113  1.0000
  C   C2830     1.0  0.82386  0.71062  0.94892  1.0000
  C   C2831     1.0  0.61177  0.96118  0.77386  1.0000
  H   H3393     1.0  0.58902  0.96910  0.84226  1.0000
  C   C2832     1.0  0.59033  0.79599  0.83009  1.0000
  H   H3394     1.0  0.50077  0.67437  0.91155  1.0000
  C   C2833     1.0  0.53592  0.97931  0.76066  1.0000
  C   C2834     1.0  0.73419  0.68223  0.97455  1.0000
  Fe  Fe380     1.0  0.50580  0.76459  0.78188  1.0000
  H   H3395     1.0  0.70449  0.66500  0.97049  1.0000
  C   C2835     1.0  0.66244  0.90821  0.75018  1.0000
  C   C2836     1.0  0.87448  0.71400  0.96746  1.0000
  H   H3396     1.0  0.52604  0.70507  0.93551  1.0000
  S   S761      1.0  0.64177  0.97914  0.78764  1.0000
  C   C2837     1.0  0.54064  0.66854  0.82702  1.0000
  H   H3397     1.0  0.54957  0.97376  0.79288  1.0000
  N   N187      1.0  0.55169  0.69232  0.93190  1.0000
  H   H3398     1.0  0.68104  0.90184  0.78223  1.0000
  S   S762      1.0  0.69802  0.69034  0.94103  1.0000
  H   H3399     1.0  0.77535  0.67152  0.91901  1.0000
  H   H3400     1.0  0.85339  0.73118  0.97739  1.0000
  H   H3401     1.0  0.85258  0.67465  0.95069  1.0000
  H   H3402     1.0  0.51224  0.94223  0.73628  1.0000
  C   C2838     1.0  0.49459  0.69182  0.81981  1.0000
  C   C2839     1.0  0.56601  0.97821  0.80543  1.0000
  Fe  Fe381     1.0  0.64799  0.96581  0.81198  1.0000
  H   H3403     1.0  0.57640  0.95505  0.75793  1.0000
  N   N188      1.0  0.58606  0.98488  0.81852  1.0000
  H   H3404     1.0  0.68076  0.91880  0.75403  1.0000
  C   C2840     1.0  0.67314  0.90030  0.77509  1.0000
  C   C2841     1.0  0.61151  0.96692  0.75712  1.0000
  H   H3405     1.0  0.83409  0.72425  0.96583  1.0000
  C   C2842     1.0  0.84037  0.68316  0.95345  1.0000
  H   H3406     1.0  0.59139  0.70572  0.95100  1.0000
  H   H3407     1.0  0.99043  0.94955  0.76613  1.0000
  C   C2843     1.0  0.50573  0.70167  0.81782  1.0000
  H   H3408     1.0  0.65525  0.95667  0.76285  1.0000
  H   H3409     1.0  0.63953  0.87084  0.75646  1.0000
  C   C2844     1.0  0.49683  0.71211  0.74998  1.0000
  H   H3410     1.0  0.89310  0.69530  0.95688  1.0000
  H   H3411     1.0  0.75354  0.67037  0.94100  1.0000
  H   H3412     1.0  0.49984  0.86987  0.78931  1.0000
  H   H3413     1.0  0.82344  0.72399  0.94365  1.0000
  C   C2845     1.0  0.86937  0.69756  0.95137  1.0000
  H   H3414     1.0  0.49887  0.70914  0.73807  1.0000
  H   H3415     1.0  0.56794  0.69691  0.90810  1.0000
  H   H3416     1.0  0.52810  0.69621  0.77105  1.0000
  C   C2846     1.0  0.62687  0.91240  0.74705  1.0000
  H   H3417     1.0  0.54627  0.66492  0.83804  1.0000
  S   S763      1.0  0.63247  0.94709  0.82693  1.0000
  H   H3418     1.0  0.67157  0.66709  0.89155  1.0000
  S   S764      1.0  0.67357  0.66740  0.92628  1.0000
  C   C2847     1.0  0.54185  0.96269  0.75977  1.0000
  C   C2848     1.0  0.50147  0.88263  0.78775  1.0000
  C   C2849     1.0  0.65219  0.88744  0.77297  1.0000
  H   H3419     1.0  0.62221  0.88257  0.74745  1.0000
  C   C2850     1.0  0.63067  0.88297  0.75506  1.0000
  H   H3420     1.0  0.85955  0.69430  0.92478  1.0000
  C   C2851     1.0  0.59947  0.95344  0.78457  1.0000
  H   H3421     1.0  0.53693  0.68169  0.92260  1.0000
  C   C2852     1.0  0.65927  0.95853  0.74959  1.0000
  C   C2853     1.0  0.50919  0.93135  0.77766  1.0000
  H   H3422     1.0  0.53047  0.88152  0.76532  1.0000
  H   H3423     1.0  0.84878  0.71553  0.92219  1.0000
  C   C2854     1.0  0.85788  0.72206  0.96976  1.0000
  H   H3424     1.0  0.53313  0.69409  0.95417  1.0000
  H   H3425     1.0  0.62067  0.91425  0.75976  1.0000
  N   N189      1.0  0.63947  0.89676  0.74754  1.0000
  C   C2855     1.0  0.65160  0.89707  0.75679  1.0000
  H   H3426     1.0  0.88280  0.71687  0.97328  1.0000
  C   C2856     1.0  0.52979  0.68376  0.77855  1.0000
  H   H3427     1.0  0.55755  0.71515  0.91594  1.0000
  C   C2857     1.0  0.78259  0.66877  0.89428  1.0000
  C   C2858     1.0  0.53682  0.70160  0.94159  1.0000
  H   H3428     1.0  0.81577  0.70688  0.94306  1.0000
  C   C2859     1.0  0.84735  0.70264  0.92804  1.0000
  H   H3429     1.0  0.54249  0.66982  0.94137  1.0000
  C   C2860     1.0  0.88022  0.70176  0.95830  1.0000
  C   C2861     1.0  0.84688  0.71791  0.96298  1.0000
  N   N190      1.0  0.84109  0.70069  0.94614  1.0000
  C   C2862     1.0  0.52420  0.65648  0.78589  1.0000
  C   C2863     1.0  0.66283  0.88908  0.78190  1.0000
  H   H3430     1.0  0.83880  0.69968  0.92210  1.0000
  H   H3431     1.0  0.79017  0.67788  0.89073  1.0000
  C   C2864     1.0  0.66215  0.66403  0.88685  1.0000
  C   C2865     1.0  0.59222  0.67975  0.95697  1.0000
  H   H3432     1.0  0.60915  0.97106  0.80707  1.0000
  N   N191      1.0  0.50425  0.89133  0.77013  1.0000
  S   S765      1.0  0.50919  0.74609  0.76607  1.0000
  C   C2866     1.0  0.78188  0.66062  0.88266  1.0000
  H   H3433     1.0  0.56189  0.96936  0.81630  1.0000
  H   H3434     1.0  0.51838  0.86848  0.76316  1.0000
  C   C2867     1.0  0.57256  0.70015  0.94238  1.0000
  H   H3435     1.0  0.83157  0.67914  0.94870  1.0000
  S   S766      1.0  0.68057  0.97632  0.75223  1.0000
  H   H3436     1.0  0.69219  0.65573  0.87239  1.0000
  C   C2868     1.0  0.75784  0.65675  0.94443  1.0000
  C   C2869     1.0  0.51081  0.94109  0.76178  1.0000
  H   H3437     1.0  0.49668  0.68386  0.81128  1.0000
  Fe  Fe382     1.0  0.56279  0.65670  0.89298  1.0000
  C   C2870     1.0  0.77391  0.66497  0.91061  1.0000
  H   H3438     1.0  0.63242  0.92325  0.74055  1.0000
  Fe  Fe383     1.0  0.80335  0.65973  0.96160  1.0000
  H   H3439     1.0  0.51256  0.95354  0.75961  1.0000
  H   H3440     1.0  0.53988  0.68202  0.82239  1.0000
  C   C2871     1.0  0.61537  0.65679  0.92611  1.0000
  Fe  Fe384     1.0  0.65279  0.65875  0.97222  1.0000
  H   H3441     1.0  0.50999  0.93626  0.78770  1.0000
  C   C2872     1.0  0.60434  0.98187  0.81302  1.0000
  H   H3442     1.0  0.78878  0.66343  0.87008  1.0000
  H   H3443     1.0  0.60272  0.67666  0.96280  1.0000
  H   H3444     1.0  0.52159  0.88647  0.74759  1.0000
  H   H3445     1.0  0.52777  0.66658  0.83127  1.0000
  C   C2873     1.0  0.50050  0.72947  0.76626  1.0000
  H   H3446     1.0  0.56881  0.97294  0.83835  1.0000
  C   C2874     1.0  0.54683  0.95839  0.74435  1.0000
  C   C2875     1.0  0.50315  0.72501  0.75116  1.0000
  H   H3447     1.0  0.61720  0.91262  0.74053  1.0000
  H   H3448     1.0  0.77124  0.65383  0.94476  1.0000
  H   H3449     1.0  0.67110  0.69813  0.97881  1.0000
  S   S767      1.0  0.81020  0.65574  0.93559  1.0000
  H   H3450     1.0  0.62143  0.97285  0.74961  1.0000
  H   H3451     1.0  0.50623  0.90832  0.79319  1.0000
  C   C2876     1.0  0.56690  0.66334  0.80795  1.0000
  H   H3452     1.0  0.51003  0.73175  0.74014  1.0000
  H   H3453     1.0  0.66252  0.91619  0.73814  1.0000
  H   H3454     1.0  0.56609  0.67686  0.80373  1.0000
  C   C2877     1.0  0.51057  0.93469  0.74867  1.0000
  C   C2878     1.0  0.72374  0.67120  0.97789  1.0000
  C   C2879     1.0  0.65288  0.95109  0.74072  1.0000
  H   H3455     1.0  0.57427  0.65949  0.81774  1.0000
  C   C2880     1.0  0.50844  0.91858  0.75146  1.0000
  S   S768      1.0  0.59295  0.88922  0.73385  1.0000
  H   H3456     1.0  0.69009  0.71360  0.98179  1.0000
  N   N192      1.0  0.59788  0.97092  0.73302  1.0000
