data_image0
_chemical_formula_structural       CHCFeSCFeS2HSFeS3HC3HFeS2FeSCFeSFeS3H2CFeS2FeS2Fe2S3C3H2C2HC2HCH2C2H4SC4SC6H3C6H3CH7CH2C6H5C3H6C3H2CH3CFeHCHSH6SHCHC3FeH2SCH3CNCH3CHNH2NC6H2CHCHCHCHC3HC3HC2H2C2HC2H6CHCH4C6NHCHC2H5NC8HC3HCH2FeH5SHCSC2FeH2SH3CFeHC2HSCNCH2CH2SHNHCHCH2C2H3C2HCSC2H2CHCHCHCHCH4CHC3H2SC2SHFeSHC2H2CHCH3FeH2CHCH2NHC4H3CHCH3NH2CH5CH2C2HCNCH2SHCHFeHSFeS2FeSFeSFeHS2CHSHCH2C2SFeNFeH3CH2CNC7HCH4CHC2H4CH3NHCHCHC2H2C2H3CFeCHCHSCH4SCHFeHCSHC3H2CH3CHC3H3CH2CHCHSCHSH2CNH4SH2CH2CHC2H2CHCHCH4CHCSH2CH2CHCS3CFeH2FeHC3H2C2NH2C4HFeCHCHC2NCH3CHCHCSCH3CHCHCHC3H5FeHCSCNCH4CFeCHFeSFeS2FeCS2CFeCFeSHFeS2CFeS2Fe2S2NFeS2HSCFeHCHC4NCH3SC6H5CHSH8NHC6H4CNHC5H2C2Fe2H4CHC3H2NH3C6HCHFeCSCSCH5CHC3H4SH2CH2SHSC2H2S2HCH3C2SC4H4C2HC3H2CSH4CH4SHCS2HCHC3NC8H9CH2CH5CHCHSHNH2SCSCH2CH2SHCHCHC2HC2HCHFeSHCH2CHCHSCHC2FeC2H5CHSCH2CHSC2H2CHCHNHCFeCHCH3FeCFeC2SHC3HCH4C2H2C2HCHCHCHFeCH2CHFeH4CHCH3C2SCH2CH6CH2C2SHC2H2NCFeCSFeHSFeS2FeSFeHS2H2SHCH2SH3SH2C2HSHFeS2FeCSFeS2FeS2FeSFeS3C6H4FeHSC2H4SC2HFeH2FeHC4HCH2C3HCH2C4HCH2SH3C3SHFeHC2H3C6H7CH6C2HNH2C2H2C2SHCSCH3C2HC2HC2H2SH2C3H3C6HSHFe2NHFeHCH5C3FeSH2SCH2C2H2CFeC3H2SH2CHCH3C2H6FeCH3C2HC2HCSH2CH2C2NH2C2NHSH2CH2SCH3C4H5CNC2HCSCNC2HCHCH4C2HCHS2CH2C2H2CH3FeH2C2HC2NSH2CH2CH4NC7SNCH2C4HCHCHCH4CFeC2HSCH4CHC2H2CHSHCSHC2H2CNCH2NCHNC2H5C2H5C2HCHC2H2CH3SHSCHCSH3CH2FeS2FeS2FeSFeS3FeSCFeS2FeSFeS3FeS2FeS2FeSFeS3FeS2FeSCFeSFeS3FeS2FeS2FeSFeS3C2SHC7H4C6H4C6H3C6H4C6H4C6H4C6H4C6H4C6H5C5H3SH2CH3C2H3C3H3C2H6NCHC3SHNHCFeH2CH3SHNHC4HC2H2C2NH4C2H2C2H2C2HCFeNC9H14NC9H14NC9H13NC9H4CH8SHSC3H2CHC2H2CHSH5CHC2HCH2CH3CHNH3CH2C2H4CH2C2H2SCHC4HC5HCHC3HCH2C3H2SH4NCH4CHC3HC2HCFeSCHNHCHCH6CH6CH2C2H2SHCH3C3HCS2HCH2CH4FeSHC5SH2SFeSHSHFeS2Fe2S2HCNCH2NC2NHCH2CSHSCHSHFeS2FeCFe2SCHC2S2CHCH2CHFeC6H5C2S2HC3FeCHCH2CH4C3HCNFeH2C2HCNH2C8H4FeH3SHNC11H17CHC2H2C6H3CHFeH4CSHC2HSHC2HCSHCH4C2H2CHCHSHFeHSC2H6C3SHFeHCNHC5HCHCH2SHCHC2SHC3HSFeHSC2H3FeHCH2SC2HCH6FeC2H3CH2CHCH2CH4CHCH3SCH4SHS3FeCHC2HC4H2C2H2C3H5SCHCHC3HSHC2H2CH4CHCHC3H3C2HCHNCH2CHCHCH5C2HSCHC4H3CHNCHCH2CSHC2H2CSH4CSFeS2FeSHFeSFeS3FeS2FeS2FeSFeS3FeS2FeS2FeSFeS3FeS2FeS2FeSFeCS2H2CH2FeS2FeS2FeSFeS3C3H3C6H4C6H4C6H4C6H4C6H4CH3SH3C8H4C5H3C6H4C6H3NHC4H6CH4CHC6H3SHCH3C2HCHC3NC9H14C2NC9H14NH2CHCHCH2C2S2H4CH3CHNC8H11NC8H12NC9H12NHCH2CHNHCHC2H2CH2CH3NH2C2SH2CHCH3C2HSHCSCHCH3CH7SCH3CH3SCHNHC2HCH2C3HC3SCH3CH2CHCHFeSHSCHCNFeC2H2CHC2H2CHCHSFe2HC4SCH2C3H2CHSHCH3CHNHC3H2CHCH2FeH2C2HCNHC2HCFeC2NCH3CHFeH4CH2CFeNCS2FeSCH5CH2C2H2C2HC2FeHSCNH2NHCHSFeSHFeS2FeSFeCS2FeSFeSHFeS2FeS2FeCFeS4H4CHCNHC4H3C8H4C6H4CNH3C4HSHC7H4CHSH3C2H3CHC2SC2H4C3HC2NC7H9C3FeH2FeHCH2FeC4SCHCHSFeCHNH3C3H4SH3C4HCHCH2SHSCH2CFeSCH9C2HFeH2C2H2CNH4C3H3NH2SC5HCSCH3CH3C2HCH2CHS3CFeH2CH2CHC2SNH2CSH3CHCH3SH2C4H3C2FeCH2CH2CH2C2SHC2HC3SC2H3C2H2CH2CH3C2H4SH2CHSHSCHCFeNSFeSCFeS2HSFeSFeHSC3H3C7HCH2C8H3CSCHCHCHFeH3SHCSH2CHSH2C2HCFeHCH4C3HCHCHSC2HC2FeH2CH2FeSHFeS3FeS3HNSFeHFeS2FeS2Fe3S3FeS2FeHSHCFeHS2H2CHC3H3C6H4C6H5C4H4C3H3CHCSCHCHCH6C2H2CH3C2SH2C3H3CSFeC2H2SCHCH2CHC2H3CHCH2C2H5C2HC2HCSHCHCH8C7HC5HSH4C2HC4HCHNC9H14NC6HCH4CHC2HC2H2CHC2H4NHC2HC4H2CHCSCH2N2HCHCHFeH2C2H3NH7CSFeC5NCSH3C2HSCHCH3C2FeH2FeSCH3C2H6C2SHSNH2CH5C3HCN2HC2SC2H4CHCH4CHCH2C2HCH2SHC2HCHC2HC2SC2HSCHNCH4CH4CHC2HCH3SH3CH2CHCHCH4SC2
_chemical_formula_sum              "C1440 H1728 Fe192 S384 N96"
_cell_length_a       77.7174
_cell_length_b       78.0191
_cell_length_c       79.0974
_cell_angle_alpha    76.394
_cell_angle_beta     76.2709
_cell_angle_gamma    76.5616

_space_group_name_H-M_alt    "P 1"
_space_group_IT_number       1

loop_
  _space_group_symop_operation_xyz
  'x, y, z'

loop_
  _atom_site_type_symbol
  _atom_site_label
  _atom_site_symmetry_multiplicity
  _atom_site_fract_x
  _atom_site_fract_y
  _atom_site_fract_z
  _atom_site_occupancy
  C   C1        1.0  0.16272  0.08106  0.99542  1.0000
  H   H1        1.0  0.16368  0.13643  0.02972  1.0000
  C   C2        1.0  0.06196  0.23186  0.11820  1.0000
  Fe  Fe1       1.0  0.04393  0.18246  0.15717  1.0000
  S   S1        1.0  0.02221  0.16710  0.16022  1.0000
  C   C3        1.0  0.03471  0.07058  0.30045  1.0000
  Fe  Fe2       1.0  0.06616  0.16736  0.12514  1.0000
  S   S2        1.0  0.04639  0.15039  0.12518  1.0000
  S   S3        1.0  0.09362  0.16797  0.10797  1.0000
  H   H2        1.0  0.05239  0.06153  0.25931  1.0000
  S   S4        1.0  0.33897  0.03778  0.02259  1.0000
  Fe  Fe3       1.0  0.04467  0.14406  0.15462  1.0000
  S   S5        1.0  0.04424  0.11703  0.17224  1.0000
  S   S6        1.0  0.04551  0.19248  0.12801  1.0000
  S   S7        1.0  0.06622  0.15876  0.15423  1.0000
  H   H3        1.0  0.08452  0.19925  0.12480  1.0000
  C   C4        1.0  0.14570  0.14232  0.00325  1.0000
  C   C5        1.0  0.46420  0.15496  0.00833  1.0000
  C   C6        1.0  0.13244  0.09052  0.01072  1.0000
  H   H4        1.0  0.15312  0.07226  0.14867  1.0000
  Fe  Fe4       1.0  0.14351  0.08934  0.06457  1.0000
  S   S8        1.0  0.16816  0.09782  0.06746  1.0000
  S   S9        1.0  0.11731  0.10821  0.06087  1.0000
  Fe  Fe5       1.0  0.16206  0.05032  0.06586  1.0000
  S   S10       1.0  0.18826  0.05547  0.06872  1.0000
  C   C7        1.0  0.45539  0.19330  0.08017  1.0000
  Fe  Fe6       1.0  0.17101  0.07254  0.08785  1.0000
  S   S11       1.0  0.17916  0.07204  0.11328  1.0000
  Fe  Fe7       1.0  0.18297  0.08006  0.04804  1.0000
  S   S12       1.0  0.20465  0.08757  0.02481  1.0000
  S   S13       1.0  0.14501  0.06547  0.08681  1.0000
  S   S14       1.0  0.15815  0.07343  0.04346  1.0000
  H   H5        1.0  0.35830  0.05225  0.98080  1.0000
  H   H6        1.0  0.02951  0.01867  0.31060  1.0000
  C   C8        1.0  0.19735  0.99388  0.02317  1.0000
  Fe  Fe8       1.0  0.40415  0.17271  0.03809  1.0000
  S   S15       1.0  0.42975  0.15474  0.04398  1.0000
  S   S16       1.0  0.40741  0.20067  0.02376  1.0000
  Fe  Fe9       1.0  0.38203  0.14444  0.05828  1.0000
  S   S17       1.0  0.40579  0.12461  0.06694  1.0000
  S   S18       1.0  0.35480  0.13679  0.06351  1.0000
  Fe  Fe10      1.0  0.41430  0.14847  0.07147  1.0000
  Fe  Fe11      1.0  0.41929  0.13267  0.03884  1.0000
  S   S19       1.0  0.43965  0.11278  0.02471  1.0000
  S   S20       1.0  0.38891  0.16765  0.06609  1.0000
  S   S21       1.0  0.39519  0.15128  0.02963  1.0000
  C   C9        1.0  0.44527  0.10395  0.99241  1.0000
  C   C10       1.0  0.43248  0.11020  0.00630  1.0000
  C   C11       1.0  0.41433  0.11541  0.00485  1.0000
  H   H7        1.0  0.45936  0.10007  0.99339  1.0000
  H   H8        1.0  0.40437  0.11991  0.01570  1.0000
  C   C12       1.0  0.04606  0.05734  0.31015  1.0000
  C   C13       1.0  0.18272  0.99392  0.05391  1.0000
  H   H9        1.0  0.46780  0.09621  0.06039  1.0000
  C   C14       1.0  0.40430  0.20537  0.00181  1.0000
  C   C15       1.0  0.40895  0.11441  0.98946  1.0000
  H   H10       1.0  0.08197  0.00220  0.31510  1.0000
  C   C16       1.0  0.00792  0.18782  0.23237  1.0000
  H   H11       1.0  0.38664  0.18654  0.00624  1.0000
  H   H12       1.0  0.12700  0.11481  0.02031  1.0000
  C   C17       1.0  0.29743  0.00438  0.12146  1.0000
  C   C18       1.0  0.25696  0.04419  0.99963  1.0000
  H   H13       1.0  0.00317  0.18878  0.24658  1.0000
  H   H14       1.0  0.09091  0.04876  0.30867  1.0000
  H   H15       1.0  0.46334  0.14097  0.01039  1.0000
  H   H16       1.0  0.09787  0.19242  0.14150  1.0000
  S   S22       1.0  0.15946  0.02225  0.06616  1.0000
  C   C19       1.0  0.46043  0.15210  0.07209  1.0000
  C   C20       1.0  0.07336  0.01320  0.30733  1.0000
  C   C21       1.0  0.45713  0.16782  0.99451  1.0000
  C   C22       1.0  0.01021  0.03640  0.32601  1.0000
  S   S23       1.0  0.00029  0.18553  0.11957  1.0000
  C   C23       1.0  0.01191  0.21948  0.16590  1.0000
  C   C24       1.0  0.37425  0.09960  0.03232  1.0000
  C   C25       1.0  0.37301  0.11225  0.04273  1.0000
  C   C26       1.0  0.35617  0.12132  0.05008  1.0000
  C   C27       1.0  0.34048  0.11764  0.04700  1.0000
  C   C28       1.0  0.34170  0.10471  0.03680  1.0000
  H   H17       1.0  0.38515  0.11476  0.04527  1.0000
  H   H18       1.0  0.32743  0.12477  0.05250  1.0000
  H   H19       1.0  0.32958  0.10183  0.03449  1.0000
  C   C29       1.0  0.25377  0.08846  0.04632  1.0000
  C   C30       1.0  0.23644  0.09319  0.05607  1.0000
  C   C31       1.0  0.22128  0.09316  0.04938  1.0000
  C   C32       1.0  0.22344  0.08913  0.03260  1.0000
  C   C33       1.0  0.24076  0.08549  0.02238  1.0000
  C   C34       1.0  0.25594  0.08468  0.02942  1.0000
  H   H20       1.0  0.23474  0.09635  0.06905  1.0000
  H   H21       1.0  0.20795  0.09619  0.05727  1.0000
  H   H22       1.0  0.24245  0.08277  0.00923  1.0000
  C   C35       1.0  0.18284  0.01822  0.12772  1.0000
  H   H23       1.0  0.07554  0.08265  0.14185  1.0000
  H   H24       1.0  0.45304  0.16007  0.06216  1.0000
  H   H25       1.0  0.10972  0.09652  0.10253  1.0000
  H   H26       1.0  0.14964  0.04124  0.15046  1.0000
  H   H27       1.0  0.14163  0.06573  0.00107  1.0000
  H   H28       1.0  0.08642  0.10739  0.10646  1.0000
  H   H29       1.0  0.09906  0.06049  0.13382  1.0000
  C   C36       1.0  0.13908  0.05238  0.14676  1.0000
  H   H30       1.0  0.06934  0.10648  0.13818  1.0000
  H   H31       1.0  0.09229  0.08353  0.11108  1.0000
  C   C37       1.0  0.10021  0.15226  0.09390  1.0000
  C   C38       1.0  0.11845  0.14448  0.08965  1.0000
  C   C39       1.0  0.12382  0.13096  0.07949  1.0000
  C   C40       1.0  0.11106  0.12565  0.07297  1.0000
  C   C41       1.0  0.09290  0.13396  0.07663  1.0000
  C   C42       1.0  0.08743  0.14701  0.08735  1.0000
  H   H32       1.0  0.12838  0.14853  0.09467  1.0000
  H   H33       1.0  0.13784  0.12473  0.07668  1.0000
  H   H34       1.0  0.08299  0.12995  0.07154  1.0000
  H   H35       1.0  0.07336  0.15316  0.09036  1.0000
  H   H36       1.0  0.11410  0.11722  0.12020  1.0000
  C   C43       1.0  0.33438  0.06910  0.09133  1.0000
  C   C44       1.0  0.48539  0.07292  0.01570  1.0000
  C   C45       1.0  0.19243  0.01393  0.14152  1.0000
  H   H37       1.0  0.14975  0.15502  0.00353  1.0000
  H   H38       1.0  0.13255  0.14224  0.01265  1.0000
  H   H39       1.0  0.02242  0.18891  0.22872  1.0000
  H   H40       1.0  0.43777  0.21451  0.03264  1.0000
  H   H41       1.0  0.04671  0.11649  0.23419  1.0000
  H   H42       1.0  0.11901  0.08780  0.01659  1.0000
  C   C46       1.0  0.17728  0.12981  0.99733  1.0000
  C   C47       1.0  0.01978  0.11410  0.20356  1.0000
  C   C48       1.0  0.02251  0.11942  0.18513  1.0000
  H   H43       1.0  0.09905  0.22542  0.11261  1.0000
  H   H44       1.0  0.14728  0.12213  0.03594  1.0000
  C   C49       1.0  0.01318  0.03848  0.29438  1.0000
  H   H45       1.0  0.03098  0.10688  0.20987  1.0000
  H   H46       1.0  0.42201  0.16833  0.99820  1.0000
  H   H47       1.0  0.00748  0.16053  0.20487  1.0000
  C   C50       1.0  0.32915  0.09866  0.09918  1.0000
  Fe  Fe12      1.0  0.25968  0.00086  0.15504  1.0000
  H   H48       1.0  0.22487  0.01060  0.11266  1.0000
  C   C51       1.0  0.35863  0.09570  0.02945  1.0000
  H   H49       1.0  0.28007  0.04837  0.10779  1.0000
  S   S24       1.0  0.01592  0.02487  0.34641  1.0000
  H   H50       1.0  0.48620  0.15623  0.05589  1.0000
  H   H51       1.0  0.31927  0.10918  0.10560  1.0000
  H   H52       1.0  0.19138  0.01882  0.00501  1.0000
  H   H53       1.0  0.22952  0.06813  0.09181  1.0000
  H   H54       1.0  0.00081  0.11532  0.22808  1.0000
  H   H55       1.0  0.29140  0.00424  0.07087  1.0000
  S   S25       1.0  0.04243  0.19917  0.17719  1.0000
  H   H56       1.0  0.14334  0.14317  0.98970  1.0000
  C   C52       1.0  0.03695  0.07201  0.28221  1.0000
  H   H57       1.0  0.19709  0.05600  0.14255  1.0000
  C   C53       1.0  0.47306  0.18688  0.08291  1.0000
  C   C54       1.0  0.17801  0.02103  0.03190  1.0000
  C   C55       1.0  0.23196  0.02626  0.06778  1.0000
  Fe  Fe13      1.0  0.29667  0.06995  0.04137  1.0000
  H   H58       1.0  0.38735  0.09256  0.02678  1.0000
  H   H59       1.0  0.47921  0.18163  0.02775  1.0000
  S   S26       1.0  0.42758  0.14789  0.09399  1.0000
  C   C56       1.0  0.22563  0.01177  0.09864  1.0000
  H   H60       1.0  0.26822  0.99072  0.09538  1.0000
  H   H61       1.0  0.42902  0.23234  0.07479  1.0000
  H   H62       1.0  0.30030  0.06937  0.11427  1.0000
  C   C57       1.0  0.47284  0.17787  0.01876  1.0000
  N   N1        1.0  0.15952  0.12630  0.00811  1.0000
  C   C58       1.0  0.99919  0.23396  0.19675  1.0000
  H   H63       1.0  0.06771  0.04160  0.33549  1.0000
  H   H64       1.0  0.01676  0.21392  0.15396  1.0000
  H   H65       1.0  0.27683  0.03412  0.97921  1.0000
  C   C59       1.0  0.43124  0.15693  0.99270  1.0000
  H   H66       1.0  0.48748  0.12617  0.10860  1.0000
  N   N2        1.0  0.08356  0.21995  0.13929  1.0000
  H   H67       1.0  0.30072  0.04236  0.07999  1.0000
  H   H68       1.0  0.00087  0.06001  0.23341  1.0000
  N   N3        1.0  0.49495  0.09902  0.04679  1.0000
  C   C60       1.0  0.02204  0.21463  0.17931  1.0000
  C   C61       1.0  0.22976  0.03191  0.00904  1.0000
  C   C62       1.0  0.06241  0.04732  0.28300  1.0000
  C   C63       1.0  0.29328  0.00998  0.01171  1.0000
  C   C64       1.0  0.39390  0.19593  0.99652  1.0000
  C   C65       1.0  0.47578  0.10679  0.05325  1.0000
  H   H69       1.0  0.25108  0.02326  0.11212  1.0000
  H   H70       1.0  0.42089  0.22561  0.99338  1.0000
  C   C66       1.0  0.21844  0.99972  0.07614  1.0000
  H   H71       1.0  0.08083  0.09489  0.15593  1.0000
  C   C67       1.0  0.22505  0.01333  0.06313  1.0000
  H   H72       1.0  0.46883  0.08745  0.03489  1.0000
  C   C68       1.0  0.14519  0.07804  0.00208  1.0000
  H   H73       1.0  0.43699  0.23427  0.04143  1.0000
  C   C69       1.0  0.01861  0.02998  0.31043  1.0000
  H   H74       1.0  0.46184  0.13436  0.98547  1.0000
  C   C70       1.0  0.46111  0.13564  0.10197  1.0000
  C   C71       1.0  0.01035  0.17217  0.20893  1.0000
  C   C72       1.0  0.18909  0.01189  0.01865  1.0000
  H   H75       1.0  0.13039  0.09759  0.13966  1.0000
  C   C73       1.0  0.23632  0.02063  0.99666  1.0000
  C   C74       1.0  0.30013  0.03183  0.09156  1.0000
  C   C75       1.0  0.13714  0.10611  0.01262  1.0000
  H   H76       1.0  0.09047  0.12566  0.12503  1.0000
  C   C76       1.0  0.46573  0.19088  0.00560  1.0000
  C   C77       1.0  0.48446  0.20131  0.05318  1.0000
  H   H77       1.0  0.47391  0.07022  0.01190  1.0000
  H   H78       1.0  0.47704  0.14992  0.03072  1.0000
  C   C78       1.0  0.00803  0.12872  0.17704  1.0000
  C   C79       1.0  0.16030  0.12437  0.02699  1.0000
  H   H79       1.0  0.10213  0.11637  0.14296  1.0000
  C   C80       1.0  0.16756  0.09665  0.99720  1.0000
  C   C81       1.0  0.06724  0.02922  0.33106  1.0000
  H   H80       1.0  0.43339  0.14607  0.00422  1.0000
  H   H81       1.0  0.07909  0.01238  0.29322  1.0000
  H   H82       1.0  0.41681  0.22653  0.04209  1.0000
  H   H83       1.0  0.12268  0.03557  0.14282  1.0000
  H   H84       1.0  0.39914  0.03591  0.99331  1.0000
  H   H85       1.0  0.29633  0.99371  0.13298  1.0000
  C   C82       1.0  0.34886  0.07253  0.07698  1.0000
  H   H86       1.0  0.02358  0.07930  0.30725  1.0000
  C   C83       1.0  0.35966  0.04081  0.07724  1.0000
  H   H87       1.0  0.18011  0.14271  0.99871  1.0000
  H   H88       1.0  0.39485  0.11818  0.98852  1.0000
  H   H89       1.0  0.01971  0.03335  0.28241  1.0000
  H   H90       1.0  0.30145  0.99348  0.05234  1.0000
  C   C84       1.0  0.01554  0.15522  0.23861  1.0000
  C   C85       1.0  0.01238  0.15250  0.25739  1.0000
  C   C86       1.0  0.02829  0.14178  0.23049  1.0000
  C   C87       1.0  0.02125  0.13731  0.26744  1.0000
  C   C88       1.0  0.03718  0.12664  0.24067  1.0000
  C   C89       1.0  0.03367  0.12440  0.25910  1.0000
  N   N4        1.0  0.07259  0.03099  0.31148  1.0000
  H   H91       1.0  0.17279  0.07101  0.98928  1.0000
  C   C90       1.0  0.42245  0.22105  0.07494  1.0000
  H   H92       1.0  0.37184  0.06168  0.05873  1.0000
  C   C91       1.0  0.28831  0.03519  0.10728  1.0000
  C   C92       1.0  0.19761  0.02756  0.14681  1.0000
  H   H93       1.0  0.00269  0.16197  0.26450  1.0000
  H   H94       1.0  0.44466  0.18925  0.09085  1.0000
  H   H95       1.0  0.01814  0.13544  0.28182  1.0000
  H   H96       1.0  0.01016  0.13255  0.16279  1.0000
  H   H97       1.0  0.04044  0.11258  0.26695  1.0000
  N   N5        1.0  0.09785  0.09667  0.13000  1.0000
  C   C93       1.0  0.08019  0.09503  0.14197  1.0000
  C   C94       1.0  0.10138  0.11470  0.12958  1.0000
  C   C95       1.0  0.09648  0.09597  0.11179  1.0000
  C   C96       1.0  0.11200  0.08168  0.13607  1.0000
  C   C97       1.0  0.12773  0.08441  0.14052  1.0000
  C   C98       1.0  0.11048  0.06362  0.13724  1.0000
  C   C99       1.0  0.14096  0.06990  0.14585  1.0000
  C   C100      1.0  0.12388  0.04923  0.14244  1.0000
  H   H98       1.0  0.20492  0.02434  0.15752  1.0000
  C   C101      1.0  0.47193  0.15997  0.02021  1.0000
  C   C102      1.0  0.19311  0.04548  0.13839  1.0000
  C   C103      1.0  0.30907  0.07853  0.11498  1.0000
  H   H99       1.0  0.02754  0.08173  0.27493  1.0000
  C   C104      1.0  0.28675  0.02141  0.12214  1.0000
  H   H100      1.0  0.29832  0.10326  0.08801  1.0000
  H   H101      1.0  0.31743  0.07171  0.12516  1.0000
  Fe  Fe14      1.0  0.31269  0.04743  0.01331  1.0000
  H   H102      1.0  0.22427  0.01411  0.04945  1.0000
  H   H103      1.0  0.17792  0.13040  0.98301  1.0000
  H   H104      1.0  0.05974  0.00968  0.31044  1.0000
  H   H105      1.0  0.00019  0.19993  0.22497  1.0000
  H   H106      1.0  0.23491  0.05224  0.02027  1.0000
  S   S27       1.0  0.27254  0.08629  0.05580  1.0000
  H   H107      1.0  0.21656  0.03159  0.01749  1.0000
  C   C105      1.0  0.30998  0.00133  0.10599  1.0000
  S   S28       1.0  0.32627  0.01082  0.07138  1.0000
  C   C106      1.0  0.31118  0.01496  0.09095  1.0000
  C   C107      1.0  0.30866  0.09154  0.08435  1.0000
  Fe  Fe15      1.0  0.02717  0.99559  0.34653  1.0000
  H   H108      1.0  0.03148  0.14250  0.21631  1.0000
  H   H109      1.0  0.41004  0.19912  0.06103  1.0000
  S   S29       1.0  0.29566  0.04177  0.04037  1.0000
  H   H110      1.0  0.26932  0.08123  0.02174  1.0000
  H   H111      1.0  0.33523  0.10609  0.08614  1.0000
  H   H112      1.0  0.35049  0.08600  0.07056  1.0000
  C   C108      1.0  0.23266  0.02576  0.08570  1.0000
  Fe  Fe16      1.0  0.32182  0.03474  0.04976  1.0000
  H   H113      1.0  0.37742  0.04942  0.99937  1.0000
  C   C109      1.0  0.09094  0.03532  0.30608  1.0000
  C   C110      1.0  0.99969  0.05384  0.29371  1.0000
  H   H114      1.0  0.28461  0.02015  0.01868  1.0000
  S   S30       1.0  0.31123  0.07656  0.01319  1.0000
  C   C111      1.0  0.25665  0.04320  0.07893  1.0000
  N   N6        1.0  0.32056  0.08412  0.09749  1.0000
  C   C112      1.0  0.45127  0.14487  0.08882  1.0000
  H   H115      1.0  0.46658  0.20479  0.00444  1.0000
  H   H116      1.0  0.39699  0.05698  0.00009  1.0000
  C   C113      1.0  0.08597  0.22026  0.15730  1.0000
  H   H117      1.0  0.23606  0.03705  0.05731  1.0000
  H   H118      1.0  0.42423  0.15211  0.98450  1.0000
  S   S31       1.0  0.30982  0.03703  0.99026  1.0000
  H   H119      1.0  0.47556  0.17817  0.09532  1.0000
  N   N7        1.0  0.23911  0.04012  0.09046  1.0000
  H   H120      1.0  0.24719  0.04674  0.11219  1.0000
  C   C114      1.0  0.28928  0.99515  0.06295  1.0000
  H   H121      1.0  0.00607  0.14777  0.13395  1.0000
  C   C115      1.0  0.30692  0.01469  0.99734  1.0000
  H   H122      1.0  0.07378  0.19519  0.14770  1.0000
  H   H123      1.0  0.17170  0.03925  0.10807  1.0000
  C   C116      1.0  0.24009  0.04359  0.01059  1.0000
  C   C117      1.0  0.43117  0.22201  0.04359  1.0000
  H   H124      1.0  0.17164  0.03493  0.02844  1.0000
  H   H125      1.0  0.36769  0.07815  0.97959  1.0000
  H   H126      1.0  0.18864  0.11935  0.00173  1.0000
  C   C118      1.0  0.46681  0.20795  0.05034  1.0000
  C   C119      1.0  0.15476  0.10986  0.00561  1.0000
  H   H127      1.0  0.26207  0.05337  0.08292  1.0000
  C   C120      1.0  0.39153  0.04995  0.99234  1.0000
  S   S32       1.0  0.36060  0.07917  0.01709  1.0000
  C   C121      1.0  0.00272  0.11905  0.21389  1.0000
  C   C122      1.0  0.25353  0.02064  0.98543  1.0000
  H   H128      1.0  0.29962  0.09019  0.11993  1.0000
  H   H129      1.0  0.45414  0.13018  0.11498  1.0000
  C   C123      1.0  0.48910  0.14060  0.08165  1.0000
  H   H130      1.0  0.09640  0.03553  0.29171  1.0000
  C   C124      1.0  0.48756  0.19078  0.06942  1.0000
  H   H131      1.0  0.10066  0.02524  0.31340  1.0000
  C   C125      1.0  0.21868  0.99899  0.09383  1.0000
  H   H132      1.0  0.02377  0.21860  0.20485  1.0000
  C   C126      1.0  0.47931  0.15001  0.06853  1.0000
  H   H133      1.0  0.07131  0.22512  0.10825  1.0000
  C   C127      1.0  0.17460  0.01192  0.04953  1.0000
  H   H134      1.0  0.17079  0.11268  0.03092  1.0000
  H   H135      1.0  0.21226  0.05504  0.09607  1.0000
  H   H136      1.0  0.04303  0.05663  0.32432  1.0000
  H   H137      1.0  0.26508  0.05326  0.00089  1.0000
  C   C128      1.0  0.18387  0.04973  0.12434  1.0000
  H   H138      1.0  0.18155  0.09774  0.99238  1.0000
  C   C129      1.0  0.06607  0.23047  0.13509  1.0000
  C   C130      1.0  0.48265  0.08307  0.02884  1.0000
  C   C131      1.0  0.22568  0.05691  0.08795  1.0000
  H   H139      1.0  0.22393  0.06131  0.07396  1.0000
  H   H140      1.0  0.07556  0.21415  0.16779  1.0000
  S   S33       1.0  0.27101  0.02555  0.14126  1.0000
  C   C132      1.0  0.47997  0.13337  0.09835  1.0000
  C   C133      1.0  0.24159  0.03615  0.10914  1.0000
  S   S34       1.0  0.23400  0.00286  0.17543  1.0000
  H   H141      1.0  0.09925  0.21232  0.16001  1.0000
  Fe  Fe17      1.0  0.33618  0.06644  0.02484  1.0000
  S   S35       1.0  0.32158  0.06249  0.05294  1.0000
  H   H142      1.0  0.30139  0.08129  0.08306  1.0000
  C   C134      1.0  0.06018  0.04510  0.30170  1.0000
  C   C135      1.0  0.36125  0.05859  0.07006  1.0000
  H   H143      1.0  0.38734  0.08559  0.98040  1.0000
  H   H144      1.0  0.25562  0.04876  0.06485  1.0000
  C   C136      1.0  0.26361  0.03299  0.98714  1.0000
  H   H145      1.0  0.17895  0.00770  0.12346  1.0000
  C   C137      1.0  0.45794  0.18605  0.99361  1.0000
  H   H146      1.0  0.02491  0.17278  0.20406  1.0000
  H   H147      1.0  0.07632  0.01805  0.33811  1.0000
  H   H148      1.0  0.31641  0.09609  0.07091  1.0000
  Fe  Fe18      1.0  0.02557  0.17487  0.13069  1.0000
  H   H149      1.0  0.47443  0.11567  0.06284  1.0000
  H   H150      1.0  0.05338  0.02620  0.33588  1.0000
  C   C138      1.0  0.01584  0.22213  0.19457  1.0000
  H   H151      1.0  0.34434  0.02306  0.09673  1.0000
  C   C139      1.0  0.99683  0.05190  0.32533  1.0000
  H   H152      1.0  0.32247  0.04673  0.10900  1.0000
  H   H153      1.0  0.26691  0.03061  0.07957  1.0000
  N   N8        1.0  0.43281  0.21049  0.06122  1.0000
  H   H154      1.0  0.45277  0.19684  0.98372  1.0000
  C   C140      1.0  0.17880  0.03608  0.11895  1.0000
  C   C141      1.0  0.45169  0.20406  0.06380  1.0000
  C   C142      1.0  0.34574  0.03693  0.09143  1.0000
  C   C143      1.0  0.33319  0.05078  0.09838  1.0000
  H   H155      1.0  0.22860  0.03563  0.11873  1.0000
  H   H156      1.0  0.36899  0.03003  0.07158  1.0000
  H   H157      1.0  0.07303  0.03878  0.27559  1.0000
  C   C144      1.0  0.05084  0.06047  0.27349  1.0000
  H   H158      1.0  0.99670  0.19599  0.29574  1.0000
  C   C145      1.0  0.39317  0.19838  0.97855  1.0000
  H   H159      1.0  0.33996  0.09322  0.10712  1.0000
  H   H160      1.0  0.00280  0.18451  0.20163  1.0000
  H   H161      1.0  0.42404  0.18581  0.07608  1.0000
  N   N9        1.0  0.00521  0.17104  0.22844  1.0000
  H   H162      1.0  0.43163  0.18683  0.05268  1.0000
  H   H163      1.0  0.08528  0.23418  0.15898  1.0000
  C   C146      1.0  0.42428  0.19490  0.06292  1.0000
  H   H164      1.0  0.46923  0.11508  0.04213  1.0000
  H   H165      1.0  0.27795  0.00224  0.05604  1.0000
  H   H166      1.0  0.46546  0.21585  0.03738  1.0000
  H   H167      1.0  0.42117  0.21272  0.08852  1.0000
  H   H168      1.0  0.11197  0.22007  0.12954  1.0000
  C   C147      1.0  0.31790  0.00157  0.98815  1.0000
  H   H169      1.0  0.00420  0.08283  0.20576  1.0000
  H   H170      1.0  0.22780  0.01183  0.99598  1.0000
  C   C148      1.0  0.29038  0.99224  0.01660  1.0000
  C   C149      1.0  0.09862  0.22713  0.12628  1.0000
  H   H171      1.0  0.40841  0.22679  0.07285  1.0000
  C   C150      1.0  0.08501  0.20093  0.13825  1.0000
  N   N10       1.0  0.44839  0.16222  0.98251  1.0000
  C   C151      1.0  0.41308  0.21805  0.98928  1.0000
  H   H172      1.0  0.49583  0.20411  0.04262  1.0000
  H   H173      1.0  0.05419  0.23869  0.16081  1.0000
  S   S36       1.0  0.19849  0.99147  0.15164  1.0000
  H   H174      1.0  0.49587  0.07670  0.06869  1.0000
  C   C152      1.0  0.05265  0.23939  0.14744  1.0000
  H   H175      1.0  0.21282  0.98987  0.07258  1.0000
  Fe  Fe19      1.0  0.45978  0.20631  0.89418  1.0000
  H   H176      1.0  0.47409  0.16755  0.89704  1.0000
  S   S37       1.0  0.45144  0.18870  0.92020  1.0000
  Fe  Fe20      1.0  0.45839  0.06161  0.92420  1.0000
  S   S38       1.0  0.44132  0.08746  0.91389  1.0000
  S   S39       1.0  0.45197  0.03559  0.91963  1.0000
  Fe  Fe21      1.0  0.48044  0.08235  0.93992  1.0000
  S   S40       1.0  0.46427  0.10896  0.92967  1.0000
  Fe  Fe22      1.0  0.44075  0.09487  0.93962  1.0000
  S   S41       1.0  0.41550  0.10718  0.95605  1.0000
  Fe  Fe23      1.0  0.46702  0.09827  0.90507  1.0000
  H   H177      1.0  0.45465  0.14310  0.96502  1.0000
  S   S42       1.0  0.45639  0.06842  0.95104  1.0000
  S   S43       1.0  0.46450  0.19689  0.86844  1.0000
  C   C153      1.0  0.46950  0.14741  0.85836  1.0000
  H   H178      1.0  0.42591  0.99584  0.89623  1.0000
  S   S44       1.0  0.40511  0.21021  0.94323  1.0000
  H   H179      1.0  0.38548  0.19069  0.97458  1.0000
  C   C154      1.0  0.46786  0.16602  0.85640  1.0000
  H   H180      1.0  0.37005  0.14465  0.95636  1.0000
  H   H181      1.0  0.37870  0.18993  0.94724  1.0000
  C   C155      1.0  0.27836  0.01005  0.96179  1.0000
  C   C156      1.0  0.38514  0.04964  0.96388  1.0000
  S   S45       1.0  0.39754  0.01898  0.87743  1.0000
  Fe  Fe24      1.0  0.47237  0.19831  0.92878  1.0000
  N   N11       1.0  0.39263  0.05935  0.97359  1.0000
  Fe  Fe25      1.0  0.43289  0.21346  0.92776  1.0000
  H   H182      1.0  0.46834  0.14184  0.84748  1.0000
  H   H183      1.0  0.40985  0.14614  0.95488  1.0000
  H   H184      1.0  0.43103  0.08079  0.87805  1.0000
  C   C157      1.0  0.39933  0.18429  0.91429  1.0000
  H   H185      1.0  0.36396  0.02437  0.93881  1.0000
  H   H186      1.0  0.38921  0.99209  0.95384  1.0000
  C   C158      1.0  0.42488  0.15621  0.90168  1.0000
  N   N12       1.0  0.45589  0.07394  0.86001  1.0000
  C   C159      1.0  0.41352  0.15286  0.91821  1.0000
  C   C160      1.0  0.43630  0.03134  0.90823  1.0000
  C   C161      1.0  0.43702  0.01364  0.90636  1.0000
  C   C162      1.0  0.42502  0.00952  0.89753  1.0000
  C   C163      1.0  0.41224  0.02315  0.88997  1.0000
  C   C164      1.0  0.41154  0.04089  0.89181  1.0000
  C   C165      1.0  0.42327  0.04493  0.90102  1.0000
  H   H187      1.0  0.44709  0.00302  0.91168  1.0000
  C   C166      1.0  0.47207  0.13613  0.87451  1.0000
  H   H188      1.0  0.40177  0.05161  0.88609  1.0000
  H   H189      1.0  0.42215  0.05854  0.90258  1.0000
  H   H190      1.0  0.39088  0.15553  0.96989  1.0000
  H   H191      1.0  0.44920  0.01508  0.86182  1.0000
  C   C167      1.0  0.46737  0.08329  0.84447  1.0000
  H   H192      1.0  0.23422  0.00785  0.96765  1.0000
  C   C168      1.0  0.47384  0.14343  0.88842  1.0000
  C   C169      1.0  0.47242  0.16205  0.88638  1.0000
  H   H193      1.0  0.45974  0.09065  0.83387  1.0000
  H   H194      1.0  0.41943  0.23005  0.96163  1.0000
  H   H195      1.0  0.47660  0.13477  0.90064  1.0000
  H   H196      1.0  0.25275  0.00229  0.95046  1.0000
  C   C170      1.0  0.37343  0.17816  0.94639  1.0000
  H   H197      1.0  0.42801  0.02548  0.84116  1.0000
  H   H198      1.0  0.39020  0.19589  0.91851  1.0000
  H   H199      1.0  0.47177  0.07670  0.87794  1.0000
  N   N13       1.0  0.38820  0.16286  0.94243  1.0000
  H   H200      1.0  0.43339  0.07973  0.83633  1.0000
  C   C171      1.0  0.46022  0.14671  0.97517  1.0000
  H   H201      1.0  0.43402  0.18798  0.97176  1.0000
  C   C172      1.0  0.44412  0.17659  0.96731  1.0000
  H   H202      1.0  0.48859  0.11373  0.97392  1.0000
  C   C173      1.0  0.39539  0.04240  0.94882  1.0000
  C   C174      1.0  0.46893  0.17342  0.87053  1.0000
  H   H203      1.0  0.38941  0.13475  0.94262  1.0000
  H   H204      1.0  0.32842  0.00517  0.97702  1.0000
  C   C175      1.0  0.44892  0.06035  0.85457  1.0000
  C   C176      1.0  0.41092  0.18751  0.89788  1.0000
  H   H205      1.0  0.45894  0.05926  0.88619  1.0000
  H   H206      1.0  0.28297  0.00060  0.95232  1.0000
  H   H207      1.0  0.43825  0.17186  0.95810  1.0000
  C   C177      1.0  0.43418  0.03508  0.84445  1.0000
  Fe  Fe26      1.0  0.46119  0.23671  0.91125  1.0000
  C   C178      1.0  0.39923  0.15830  0.95635  1.0000
  H   H208      1.0  0.46199  0.03613  0.87089  1.0000
  C   C179      1.0  0.40297  0.21016  0.96583  1.0000
  H   H209      1.0  0.46529  0.17475  0.84407  1.0000
  S   S46       1.0  0.45314  0.22150  0.93881  1.0000
  C   C180      1.0  0.36696  0.04714  0.96947  1.0000
  H   H210      1.0  0.39572  0.02800  0.92849  1.0000
  H   H211      1.0  0.43291  0.09556  0.85684  1.0000
  H   H212      1.0  0.43501  0.14542  0.89681  1.0000
  H   H213      1.0  0.38257  0.08547  0.95929  1.0000
  S   S47       1.0  0.48229  0.21401  0.90219  1.0000
  C   C181      1.0  0.37954  0.14745  0.94349  1.0000
  H   H214      1.0  0.36442  0.17469  0.95943  1.0000
  Fe  Fe27      1.0  0.39023  0.99276  0.87430  1.0000
  H   H215      1.0  0.41038  0.20104  0.89016  1.0000
  C   C182      1.0  0.43719  0.06576  0.84219  1.0000
  S   S48       1.0  0.43926  0.23056  0.90078  1.0000
  H   H216      1.0  0.28881  0.00705  0.97012  1.0000
  C   C183      1.0  0.46691  0.06619  0.87396  1.0000
  C   C184      1.0  0.35949  0.03807  0.96056  1.0000
  C   C185      1.0  0.38775  0.03334  0.94000  1.0000
  H   H217      1.0  0.34552  0.03644  0.96510  1.0000
  H   H218      1.0  0.47917  0.05657  0.86933  1.0000
  C   C186      1.0  0.36985  0.03124  0.94581  1.0000
  H   H219      1.0  0.43232  0.17612  0.87874  1.0000
  H   H220      1.0  0.36491  0.18248  0.93609  1.0000
  H   H221      1.0  0.37192  0.15001  0.93260  1.0000
  C   C187      1.0  0.45336  0.04161  0.86127  1.0000
  H   H222      1.0  0.40613  0.16953  0.95569  1.0000
  C   C188      1.0  0.41242  0.22044  0.97129  1.0000
  C   C189      1.0  0.42348  0.17348  0.89150  1.0000
  C   C190      1.0  0.40008  0.16673  0.92486  1.0000
  H   H223      1.0  0.47388  0.14976  0.96888  1.0000
  H   H224      1.0  0.44531  0.09719  0.87234  1.0000
  H   H225      1.0  0.41555  0.13935  0.92583  1.0000
  C   C191      1.0  0.42982  0.05329  0.83738  1.0000
  H   H226      1.0  0.40931  0.04362  0.94348  1.0000
  H   H227      1.0  0.45634  0.18178  0.95956  1.0000
  C   C192      1.0  0.44611  0.02925  0.85615  1.0000
  H   H228      1.0  0.24546  0.02525  0.95347  1.0000
  C   C193      1.0  0.42183  0.10835  0.97547  1.0000
  H   H229      1.0  0.28821  0.01072  0.84109  1.0000
  S   S49       1.0  0.48466  0.07216  0.91415  1.0000
  C   C194      1.0  0.44062  0.08740  0.86708  1.0000
  H   H230      1.0  0.41353  0.06847  0.95229  1.0000
  S   S50       1.0  0.47297  0.11299  0.87690  1.0000
  H   H231      1.0  0.45010  0.09880  0.96623  1.0000
  H   H232      1.0  0.42044  0.05773  0.82834  1.0000
  C   C195      1.0  0.24762  0.01104  0.96059  1.0000
  N   N14       1.0  0.26031  0.00809  0.97282  1.0000
  H   H233      1.0  0.47310  0.09343  0.84819  1.0000
  H   H234      1.0  0.27827  0.02381  0.95370  1.0000
  H   H235      1.0  0.48357  0.21319  0.95363  1.0000
  H   H236      1.0  0.47885  0.07360  0.83857  1.0000
  S   S51       1.0  0.49194  0.17821  0.94343  1.0000
  H   H237      1.0  0.42122  0.99542  0.94540  1.0000
  H   H238      1.0  0.31323  0.99573  0.85696  1.0000
  C   C196      1.0  0.29179  0.99621  0.84376  1.0000
  H   H239      1.0  0.27185  0.99302  0.83098  1.0000
  H   H240      1.0  0.41690  0.06821  0.97385  1.0000
  C   C197      1.0  0.49220  0.20396  0.96189  1.0000
  H   H241      1.0  0.49221  0.14539  0.92680  1.0000
  C   C198      1.0  0.41179  0.06081  0.96618  1.0000
  C   C199      1.0  0.38208  0.07789  0.97314  1.0000
  H   H242      1.0  0.42074  0.04738  0.96654  1.0000
  H   H243      1.0  0.49189  0.22332  0.97758  1.0000
  C   C200      1.0  0.43998  0.10323  0.97696  1.0000
  H   H244      1.0  0.02606  0.25547  0.15279  1.0000
  C   C201      1.0  0.03627  0.24911  0.14301  1.0000
  H   H245      1.0  0.01973  0.25726  0.12320  1.0000
  C   C202      1.0  0.03263  0.25007  0.12638  1.0000
  H   H246      1.0  0.01036  0.30686  0.30104  1.0000
  H   H247      1.0  0.04248  0.24198  0.10113  1.0000
  H   H248      1.0  0.00442  0.28585  0.28581  1.0000
  H   H249      1.0  0.09742  0.24171  0.12592  1.0000
  C   C203      1.0  0.04546  0.24147  0.11398  1.0000
  H   H250      1.0  0.99717  0.25915  0.28352  1.0000
  C   C204      1.0  0.99682  0.30421  0.30334  1.0000
  S   S52       1.0  0.46549  0.26479  0.90897  1.0000
  H   H251      1.0  0.43880  0.29672  0.87364  1.0000
  H   H252      1.0  0.48894  0.42646  0.86526  1.0000
  C   C205      1.0  0.45309  0.29538  0.86803  1.0000
  H   H253      1.0  0.46813  0.34316  0.84592  1.0000
  H   H254      1.0  0.48213  0.29307  0.91069  1.0000
  C   C206      1.0  0.48553  0.33071  0.87309  1.0000
  H   H255      1.0  0.45369  0.32229  0.86869  1.0000
  C   C207      1.0  0.46277  0.27898  0.86397  1.0000
  S   S53       1.0  0.46884  0.46499  0.86890  1.0000
  S   S54       1.0  0.48454  0.47140  0.90230  1.0000
  S   S55       1.0  0.48111  0.42104  0.90361  1.0000
  C   C208      1.0  0.46182  0.30985  0.86539  1.0000
  Fe  Fe28      1.0  0.48521  0.44862  0.88904  1.0000
  H   H256      1.0  0.45606  0.26764  0.86651  1.0000
  H   H257      1.0  0.47109  0.33672  0.87685  1.0000
  Fe  Fe29      1.0  0.47021  0.48813  0.88066  1.0000
  H   H258      1.0  0.48736  0.38253  0.90971  1.0000
  C   C209      1.0  0.48794  0.40596  0.88892  1.0000
  C   C210      1.0  0.48288  0.33817  0.84236  1.0000
  C   C211      1.0  0.48070  0.30818  0.85890  1.0000
  H   H259      1.0  0.48552  0.33342  0.82961  1.0000
  H   H260      1.0  0.48916  0.31993  0.88430  1.0000
  C   C212      1.0  0.48121  0.27700  0.85716  1.0000
  C   C213      1.0  0.48748  0.26881  0.90034  1.0000
  N   N15       1.0  0.48964  0.32367  0.85639  1.0000
  H   H261      1.0  0.48874  0.26408  0.85436  1.0000
  H   H262      1.0  0.48952  0.35001  0.83993  1.0000
  C   C214      1.0  0.49017  0.29127  0.85475  1.0000
  C   C215      1.0  0.49091  0.38747  0.89562  1.0000
  C   C216      1.0  0.49164  0.41223  0.87058  1.0000
  C   C217      1.0  0.49211  0.28402  0.90325  1.0000
  H   H263      1.0  0.49312  0.34152  0.87199  1.0000
  Fe  Fe30      1.0  0.49561  0.46955  0.85216  1.0000
  C   C218      1.0  0.03039  0.61676  0.44478  1.0000
  H   H264      1.0  0.02375  0.63678  0.40284  1.0000
  C   C219      1.0  0.03482  0.63125  0.44927  1.0000
  H   H265      1.0  0.01393  0.61448  0.39811  1.0000
  C   C220      1.0  0.02397  0.70073  0.44758  1.0000
  C   C221      1.0  0.02693  0.61770  0.42771  1.0000
  N   N16       1.0  0.02191  0.60228  0.42336  1.0000
  C   C222      1.0  0.03495  0.69258  0.47515  1.0000
  H   H266      1.0  0.03769  0.63002  0.46234  1.0000
  H   H267      1.0  0.04812  0.68152  0.45184  1.0000
  H   H268      1.0  0.02974  0.58111  0.44500  1.0000
  C   C223      1.0  0.03556  0.64724  0.43703  1.0000
  H   H269      1.0  0.02102  0.59114  0.40102  1.0000
  C   C224      1.0  0.02390  0.60337  0.40398  1.0000
  H   H270      1.0  0.03072  0.57350  0.42557  1.0000
  C   C225      1.0  0.02711  0.63446  0.41577  1.0000
  S   S56       1.0  0.02434  0.69539  0.42718  1.0000
  C   C226      1.0  0.03695  0.69096  0.45751  1.0000
  H   H271      1.0  0.03166  0.66163  0.41113  1.0000
  H   H272      1.0  0.03912  0.65843  0.44046  1.0000
  H   H273      1.0  0.02954  0.60489  0.45492  1.0000
  C   C227      1.0  0.03309  0.58496  0.43032  1.0000
  H   H274      1.0  0.04772  0.58547  0.42627  1.0000
  C   C228      1.0  0.03150  0.64893  0.42041  1.0000
  H   H275      1.0  0.03774  0.60503  0.39680  1.0000
  C   C229      1.0  0.00990  0.71335  0.45479  1.0000
  H   H276      1.0  0.01242  0.66782  0.46889  1.0000
  C   C230      1.0  0.03872  0.73703  0.33692  1.0000
  C   C231      1.0  0.00284  0.60190  0.43166  1.0000
  C   C232      1.0  0.00799  0.71508  0.47244  1.0000
  H   H277      1.0  0.06264  0.73027  0.34799  1.0000
  H   H278      1.0  0.03260  0.72628  0.34586  1.0000
  H   H279      1.0  0.99998  0.72118  0.44706  1.0000
  H   H280      1.0  0.00033  0.60114  0.44623  1.0000
  H   H281      1.0  0.99644  0.67249  0.44674  1.0000
  Fe  Fe31      1.0  0.99935  0.70934  0.41674  1.0000
  H   H282      1.0  0.99853  0.59014  0.42938  1.0000
  C   C233      1.0  0.05556  0.73939  0.33816  1.0000
  S   S57       1.0  0.99807  0.56773  0.47202  1.0000
  C   C234      1.0  0.44576  0.69599  0.63850  1.0000
  N   N17       1.0  0.20102  0.71875  0.65390  1.0000
  C   C235      1.0  0.34431  0.71761  0.63372  1.0000
  H   H283      1.0  0.44297  0.69979  0.84811  1.0000
  H   H284      1.0  0.45930  0.70550  0.71241  1.0000
  H   H285      1.0  0.42549  0.72720  0.82058  1.0000
  H   H286      1.0  0.39282  0.67797  0.62013  1.0000
  C   C236      1.0  0.47565  0.63466  0.82766  1.0000
  Fe  Fe32      1.0  0.47893  0.70928  0.78857  1.0000
  C   C237      1.0  0.46549  0.70030  0.60374  1.0000
  H   H287      1.0  0.37215  0.56967  0.78601  1.0000
  Fe  Fe33      1.0  0.44590  0.57860  0.80149  1.0000
  S   S58       1.0  0.43637  0.55252  0.80788  1.0000
  Fe  Fe34      1.0  0.43629  0.61768  0.78516  1.0000
  S   S59       1.0  0.46364  0.62304  0.78424  1.0000
  S   S60       1.0  0.41416  0.63982  0.77644  1.0000
  Fe  Fe35      1.0  0.46136  0.60610  0.81144  1.0000
  C   C238      1.0  0.21144  0.66727  0.55331  1.0000
  S   S61       1.0  0.44680  0.59292  0.77347  1.0000
  S   S62       1.0  0.43295  0.60292  0.81345  1.0000
  C   C239      1.0  0.31193  0.71995  0.64122  1.0000
  Fe  Fe36      1.0  0.02644  0.67627  0.52092  1.0000
  C   C240      1.0  0.36034  0.66658  0.63340  1.0000
  Fe  Fe37      1.0  0.01956  0.64935  0.55478  1.0000
  S   S63       1.0  0.04555  0.63064  0.54747  1.0000
  H   H288      1.0  0.48808  0.49781  0.79339  1.0000
  Fe  Fe38      1.0  0.05762  0.65604  0.53910  1.0000
  S   S64       1.0  0.08384  0.66228  0.54382  1.0000
  S   S65       1.0  0.03171  0.67404  0.54804  1.0000
  C   C241      1.0  0.37738  0.57590  0.79456  1.0000
  Fe  Fe39      1.0  0.39693  0.70108  0.65502  1.0000
  S   S66       1.0  0.37813  0.68153  0.66244  1.0000
  S   S67       1.0  0.41310  0.70409  0.62725  1.0000
  Fe  Fe40      1.0  0.35785  0.70359  0.67356  1.0000
  Fe  Fe41      1.0  0.38664  0.67445  0.68875  1.0000
  S   S68       1.0  0.39424  0.64563  0.70196  1.0000
  S   S69       1.0  0.40738  0.69209  0.68027  1.0000
  N   N18       1.0  0.42086  0.70115  0.83518  1.0000
  Fe  Fe42      1.0  0.16652  0.70418  0.60063  1.0000
  S   S70       1.0  0.14031  0.71203  0.61858  1.0000
  S   S71       1.0  0.18175  0.67600  0.60690  1.0000
  H   H289      1.0  0.39892  0.68990  0.59830  1.0000
  S   S72       1.0  0.10367  0.71162  0.58955  1.0000
  C   C242      1.0  0.42226  0.69271  0.73170  1.0000
  Fe  Fe43      1.0  0.03723  0.63608  0.52068  1.0000
  H   H290      1.0  0.36551  0.58316  0.80280  1.0000
  C   C243      1.0  0.43309  0.64982  0.65692  1.0000
  H   H291      1.0  0.44329  0.61494  0.70154  1.0000
  C   C244      1.0  0.20513  0.67473  0.60261  1.0000
  C   C245      1.0  0.21659  0.65967  0.59681  1.0000
  C   C246      1.0  0.23527  0.65903  0.59223  1.0000
  C   C247      1.0  0.24254  0.67323  0.59385  1.0000
  N   N19       1.0  0.45187  0.63600  0.68028  1.0000
  C   C248      1.0  0.21240  0.68863  0.60486  1.0000
  H   H292      1.0  0.21101  0.64876  0.59533  1.0000
  H   H293      1.0  0.24407  0.64767  0.58711  1.0000
  H   H294      1.0  0.41800  0.66254  0.63629  1.0000
  S   S73       1.0  0.49534  0.49422  0.86183  1.0000
  C   C249      1.0  0.08871  0.67688  0.55607  1.0000
  C   C250      1.0  0.10632  0.68046  0.55273  1.0000
  C   C251      1.0  0.11104  0.69132  0.56239  1.0000
  C   C252      1.0  0.09835  0.69849  0.57603  1.0000
  C   C253      1.0  0.08063  0.69522  0.57909  1.0000
  C   C254      1.0  0.07581  0.68466  0.56918  1.0000
  H   H295      1.0  0.11644  0.67479  0.54254  1.0000
  H   H296      1.0  0.12453  0.69414  0.55919  1.0000
  H   H297      1.0  0.07054  0.70072  0.58941  1.0000
  H   H298      1.0  0.06220  0.68214  0.57208  1.0000
  H   H299      1.0  0.29842  0.72589  0.61923  1.0000
  C   C255      1.0  0.23113  0.68769  0.60085  1.0000
  H   H300      1.0  0.36381  0.70127  0.58626  1.0000
  S   S74       1.0  0.38690  0.73125  0.70753  1.0000
  H   H301      1.0  0.04736  0.58147  0.49250  1.0000
  H   H302      1.0  0.23672  0.69806  0.60332  1.0000
  H   H303      1.0  0.29963  0.71964  0.65107  1.0000
  H   H304      1.0  0.46127  0.56604  0.85917  1.0000
  H   H305      1.0  0.34592  0.65995  0.66024  1.0000
  H   H306      1.0  0.42104  0.72540  0.84408  1.0000
  H   H307      1.0  0.44537  0.64578  0.70489  1.0000
  H   H308      1.0  0.39065  0.65074  0.61143  1.0000
  N   N20       1.0  0.37593  0.67703  0.60213  1.0000
  H   H309      1.0  0.15547  0.67062  0.59120  1.0000
  C   C256      1.0  0.41000  0.64165  0.75509  1.0000
  C   C257      1.0  0.41580  0.62720  0.74618  1.0000
  C   C258      1.0  0.41072  0.62834  0.73000  1.0000
  C   C259      1.0  0.40036  0.64419  0.72235  1.0000
  C   C260      1.0  0.39490  0.65876  0.73104  1.0000
  C   C261      1.0  0.39955  0.65743  0.74746  1.0000
  H   H310      1.0  0.42380  0.61502  0.75194  1.0000
  H   H311      1.0  0.41473  0.61692  0.72349  1.0000
  H   H312      1.0  0.38668  0.67093  0.72539  1.0000
  H   H313      1.0  0.39497  0.66867  0.75427  1.0000
  C   C262      1.0  0.46692  0.64782  0.81549  1.0000
  N   N21       1.0  0.45682  0.72288  0.68691  1.0000
  H   H314      1.0  0.19601  0.69295  0.66891  1.0000
  C   C263      1.0  0.43487  0.55107  0.84313  1.0000
  C   C264      1.0  0.43869  0.54146  0.82939  1.0000
  C   C265      1.0  0.44490  0.52292  0.83269  1.0000
  C   C266      1.0  0.44803  0.51406  0.84955  1.0000
  C   C267      1.0  0.43125  0.65687  0.63936  1.0000
  H   H315      1.0  0.42992  0.56540  0.84064  1.0000
  H   H316      1.0  0.44760  0.51540  0.82218  1.0000
  C   C268      1.0  0.21487  0.69886  0.54597  1.0000
  C   C269      1.0  0.47428  0.56093  0.85078  1.0000
  Fe  Fe44      1.0  0.14877  0.73910  0.61391  1.0000
  Fe  Fe45      1.0  0.38450  0.71299  0.69046  1.0000
  H   H317      1.0  0.18597  0.66207  0.55165  1.0000
  H   H318      1.0  0.46465  0.67501  0.80077  1.0000
  H   H319      1.0  0.33957  0.68520  0.59796  1.0000
  H   H320      1.0  0.42845  0.67888  0.73103  1.0000
  C   C270      1.0  0.47462  0.69472  0.61791  1.0000
  H   H321      1.0  0.37919  0.69889  0.61278  1.0000
  C   C271      1.0  0.46358  0.65132  0.62993  1.0000
  C   C272      1.0  0.32852  0.71654  0.64654  1.0000
  C   C273      1.0  0.08168  0.72376  0.51840  1.0000
  H   H322      1.0  0.45685  0.64473  0.80994  1.0000
  H   H323      1.0  0.13905  0.63217  0.62319  1.0000
  N   N22       1.0  0.38959  0.58824  0.78401  1.0000
  H   H324      1.0  0.45320  0.49980  0.85192  1.0000
  H   H325      1.0  0.23372  0.73560  0.52464  1.0000
  H   H326      1.0  0.47228  0.54966  0.84549  1.0000
  C   C274      1.0  0.37962  0.60289  0.77229  1.0000
  C   C275      1.0  0.37507  0.62099  0.77479  1.0000
  C   C276      1.0  0.37393  0.59922  0.75793  1.0000
  C   C277      1.0  0.36609  0.63455  0.76316  1.0000
  C   C278      1.0  0.36519  0.61294  0.74623  1.0000
  C   C279      1.0  0.36142  0.63060  0.74877  1.0000
  H   H327      1.0  0.37848  0.65177  0.59448  1.0000
  C   C280      1.0  0.24464  0.70593  0.54499  1.0000
  H   H328      1.0  0.03276  0.56357  0.48019  1.0000
  Fe  Fe46      1.0  0.29964  0.72248  0.58382  1.0000
  C   C281      1.0  0.48128  0.53300  0.79026  1.0000
  S   S75       1.0  0.32696  0.72364  0.58798  1.0000
  C   C282      1.0  0.40697  0.70095  0.79186  1.0000
  S   S76       1.0  0.25119  0.72452  0.57929  1.0000
  C   C283      1.0  0.22022  0.71420  0.65559  1.0000
  H   H329      1.0  0.37885  0.62525  0.78522  1.0000
  H   H330      1.0  0.37641  0.58574  0.75547  1.0000
  H   H331      1.0  0.36342  0.64837  0.76492  1.0000
  H   H332      1.0  0.36157  0.60999  0.73495  1.0000
  H   H333      1.0  0.35517  0.64131  0.73938  1.0000
  C   C284      1.0  0.32636  0.67777  0.62439  1.0000
  H   H334      1.0  0.46938  0.52633  0.79574  1.0000
  C   C285      1.0  0.19354  0.70224  0.65633  1.0000
  C   C286      1.0  0.06328  0.72716  0.49648  1.0000
  C   C287      1.0  0.40511  0.57794  0.77325  1.0000
  H   H335      1.0  0.45045  0.66230  0.68526  1.0000
  H   H336      1.0  0.39906  0.66050  0.58898  1.0000
  H   H337      1.0  0.45853  0.64918  0.72932  1.0000
  H   H338      1.0  0.42090  0.64999  0.66696  1.0000
  S   S77       1.0  0.15522  0.71208  0.57576  1.0000
  H   H339      1.0  0.17872  0.70539  0.65672  1.0000
  H   H340      1.0  0.05472  0.72081  0.49117  1.0000
  C   C288      1.0  0.38713  0.68626  0.60858  1.0000
  H   H341      1.0  0.47968  0.70484  0.69623  1.0000
  H   H342      1.0  0.47076  0.72360  0.70752  1.0000
  S   S78       1.0  0.44971  0.71266  0.78862  1.0000
  H   H343      1.0  0.40090  0.57005  0.76549  1.0000
  S   S79       1.0  0.17568  0.73018  0.59736  1.0000
  C   C289      1.0  0.39688  0.59474  0.79660  1.0000
  C   C290      1.0  0.02418  0.60251  0.49613  1.0000
  H   H344      1.0  0.47758  0.61821  0.67534  1.0000
  H   H345      1.0  0.46447  0.62016  0.74932  1.0000
  S   S80       1.0  0.36446  0.69467  0.70074  1.0000
  S   S81       1.0  0.37595  0.72382  0.66423  1.0000
  H   H346      1.0  0.40385  0.69419  0.71488  1.0000
  C   C291      1.0  0.14569  0.64080  0.61128  1.0000
  H   H347      1.0  0.48192  0.53713  0.77570  1.0000
  H   H348      1.0  0.38440  0.56474  0.80367  1.0000
  H   H349      1.0  0.14303  0.67098  0.62237  1.0000
  C   C292      1.0  0.40847  0.70142  0.72238  1.0000
  C   C293      1.0  0.44391  0.65037  0.69079  1.0000
  S   S82       1.0  0.03607  0.61428  0.50546  1.0000
  C   C294      1.0  0.40894  0.70696  0.80651  1.0000
  C   C295      1.0  0.21728  0.72317  0.55870  1.0000
  C   C296      1.0  0.42280  0.67672  0.81847  1.0000
  C   C297      1.0  0.47117  0.66509  0.81047  1.0000
  H   H350      1.0  0.15036  0.63295  0.60047  1.0000
  H   H351      1.0  0.36538  0.68108  0.57820  1.0000
  H   H352      1.0  0.42926  0.65504  0.69105  1.0000
  H   H353      1.0  0.42487  0.72699  0.75013  1.0000
  C   C298      1.0  0.46559  0.64423  0.64746  1.0000
  C   C299      1.0  0.43718  0.54201  0.86025  1.0000
  H   H354      1.0  0.15811  0.64324  0.61438  1.0000
  C   C300      1.0  0.22462  0.72576  0.52698  1.0000
  C   C301      1.0  0.07780  0.72528  0.53656  1.0000
  C   C302      1.0  0.47140  0.64023  0.72675  1.0000
  H   H355      1.0  0.48097  0.57808  0.87349  1.0000
  H   H356      1.0  0.17483  0.73178  0.66624  1.0000
  C   C303      1.0  0.44199  0.62090  0.68755  1.0000
  S   S83       1.0  0.44781  0.69183  0.75016  1.0000
  H   H357      1.0  0.40500  0.58356  0.80471  1.0000
  H   H358      1.0  0.25128  0.69760  0.53475  1.0000
  H   H359      1.0  0.25239  0.71687  0.54270  1.0000
  H   H360      1.0  0.41059  0.69847  0.86330  1.0000
  C   C304      1.0  0.44415  0.52356  0.86336  1.0000
  H   H361      1.0  0.49233  0.53956  0.88688  1.0000
  H   H362      1.0  0.47819  0.54519  0.79616  1.0000
  H   H363      1.0  0.24642  0.69774  0.55825  1.0000
  H   H364      1.0  0.41199  0.67852  0.77873  1.0000
  S   S84       1.0  0.47160  0.61255  0.83300  1.0000
  H   H365      1.0  0.42731  0.62519  0.68770  1.0000
  C   C305      1.0  0.32713  0.72314  0.61035  1.0000
  S   S85       1.0  0.26565  0.67323  0.58605  1.0000
  S   S86       1.0  0.05272  0.65911  0.51123  1.0000
  H   H366      1.0  0.43823  0.69395  0.65190  1.0000
  C   C306      1.0  0.03353  0.58635  0.49084  1.0000
  H   H367      1.0  0.44715  0.61011  0.67959  1.0000
  C   C307      1.0  0.43669  0.70132  0.62421  1.0000
  C   C308      1.0  0.41304  0.68302  0.79038  1.0000
  C   C309      1.0  0.34481  0.66518  0.64649  1.0000
  N   N23       1.0  0.13325  0.65788  0.60627  1.0000
  C   C310      1.0  0.14234  0.66833  0.58977  1.0000
  C   C311      1.0  0.13015  0.66838  0.62050  1.0000
  C   C312      1.0  0.11648  0.65410  0.60329  1.0000
  C   C313      1.0  0.11728  0.64381  0.59040  1.0000
  C   C314      1.0  0.09906  0.66047  0.61279  1.0000
  C   C315      1.0  0.10167  0.64013  0.58723  1.0000
  C   C316      1.0  0.08355  0.65652  0.60965  1.0000
  C   C317      1.0  0.08486  0.64640  0.59690  1.0000
  H   H368      1.0  0.14514  0.66164  0.57823  1.0000
  H   H369      1.0  0.13391  0.68175  0.58635  1.0000
  H   H370      1.0  0.12371  0.66117  0.63349  1.0000
  H   H371      1.0  0.12152  0.68182  0.61720  1.0000
  H   H372      1.0  0.12996  0.63878  0.58241  1.0000
  H   H373      1.0  0.09695  0.66885  0.62246  1.0000
  H   H374      1.0  0.10252  0.63279  0.57690  1.0000
  H   H375      1.0  0.07037  0.66178  0.61680  1.0000
  H   H376      1.0  0.07277  0.64385  0.59411  1.0000
  C   C318      1.0  0.41737  0.72102  0.83317  1.0000
  H   H377      1.0  0.21695  0.65323  0.55769  1.0000
  H   H378      1.0  0.20360  0.69997  0.60991  1.0000
  C   C319      1.0  0.43990  0.69452  0.83744  1.0000
  H   H379      1.0  0.41360  0.58708  0.76379  1.0000
  H   H380      1.0  0.40431  0.72113  0.80651  1.0000
  H   H381      1.0  0.00841  0.66989  0.49151  1.0000
  H   H382      1.0  0.40587  0.60444  0.78940  1.0000
  H   H383      1.0  0.47875  0.64005  0.67868  1.0000
  C   C320      1.0  0.49179  0.61266  0.73568  1.0000
  H   H384      1.0  0.07614  0.69102  0.49929  1.0000
  C   C321      1.0  0.41760  0.69508  0.81999  1.0000
  H   H385      1.0  0.44950  0.69880  0.82510  1.0000
  S   S87       1.0  0.01090  0.65383  0.52884  1.0000
  H   H386      1.0  0.31582  0.67038  0.65225  1.0000
  N   N24       1.0  0.22530  0.71306  0.54417  1.0000
  H   H387      1.0  0.38599  0.60135  0.80622  1.0000
  H   H388      1.0  0.44104  0.70179  0.69608  1.0000
  S   S88       1.0  0.01540  0.70332  0.50582  1.0000
  C   C322      1.0  0.31124  0.72331  0.62316  1.0000
  S   S89       1.0  0.32931  0.71081  0.66921  1.0000
  C   C323      1.0  0.42068  0.67088  0.80378  1.0000
  H   H389      1.0  0.35713  0.71546  0.63772  1.0000
  H   H390      1.0  0.31315  0.68238  0.62092  1.0000
  C   C324      1.0  0.24592  0.71950  0.66550  1.0000
  H   H391      1.0  0.39446  0.69839  0.85031  1.0000
  H   H392      1.0  0.42881  0.66673  0.82846  1.0000
  S   S90       1.0  0.28046  0.70824  0.60541  1.0000
  H   H393      1.0  0.45559  0.72577  0.65113  1.0000
  C   C325      1.0  0.48471  0.64530  0.71234  1.0000
  H   H394      1.0  0.40290  0.72706  0.83328  1.0000
  C   C326      1.0  0.42858  0.70208  0.74123  1.0000
  H   H395      1.0  0.49483  0.62901  0.84483  1.0000
  C   C327      1.0  0.46715  0.71392  0.70126  1.0000
  C   C328      1.0  0.08811  0.73378  0.54313  1.0000
  H   H396      1.0  0.19037  0.71733  0.53973  1.0000
  C   C329      1.0  0.46475  0.69264  0.63534  1.0000
  C   C330      1.0  0.49125  0.66008  0.74993  1.0000
  H   H397      1.0  0.43972  0.70771  0.59579  1.0000
  C   C331      1.0  0.08359  0.69916  0.50379  1.0000
  H   H398      1.0  0.04891  0.70059  0.51826  1.0000
  Fe  Fe47      1.0  0.27256  0.70020  0.58349  1.0000
  S   S91       1.0  0.47415  0.58027  0.80199  1.0000
  H   H399      1.0  0.19931  0.69484  0.64524  1.0000
  C   C332      1.0  0.19970  0.72936  0.63595  1.0000
  H   H400      1.0  0.23509  0.67549  0.55452  1.0000
  H   H401      1.0  0.47305  0.70194  0.59026  1.0000
  C   C333      1.0  0.44662  0.70359  0.60687  1.0000
  H   H402      1.0  0.37318  0.66171  0.63749  1.0000
  C   C334      1.0  0.49301  0.57105  0.86525  1.0000
  H   H403      1.0  0.48401  0.50999  0.82040  1.0000
  S   S92       1.0  0.44895  0.51261  0.88417  1.0000
  C   C335      1.0  0.40111  0.71953  0.72236  1.0000
  H   H404      1.0  0.27188  0.70389  0.65674  1.0000
  C   C336      1.0  0.34354  0.72117  0.61564  1.0000
  C   C337      1.0  0.48420  0.66924  0.81764  1.0000
  Fe  Fe48      1.0  0.45845  0.71095  0.76012  1.0000
  C   C338      1.0  0.22180  0.68030  0.55138  1.0000
  C   C339      1.0  0.42032  0.71984  0.74239  1.0000
  H   H405      1.0  0.44342  0.67968  0.84106  1.0000
  H   H406      1.0  0.47173  0.68807  0.64634  1.0000
  H   H407      1.0  0.21814  0.71431  0.57185  1.0000
  H   H408      1.0  0.22832  0.69436  0.63833  1.0000
  H   H409      1.0  0.25125  0.72700  0.67235  1.0000
  C   C340      1.0  0.18671  0.69029  0.54486  1.0000
  H   H410      1.0  0.06151  0.69722  0.53523  1.0000
  S   S93       1.0  0.29391  0.71158  0.56211  1.0000
  C   C341      1.0  0.32784  0.67098  0.64202  1.0000
  H   H411      1.0  0.40115  0.71033  0.78129  1.0000
  H   H412      1.0  0.41395  0.56801  0.78167  1.0000
  C   C342      1.0  0.44245  0.73731  0.69329  1.0000
  H   H413      1.0  0.45851  0.69888  0.67712  1.0000
  S   S94       1.0  0.48030  0.66615  0.69862  1.0000
  C   C343      1.0  0.46617  0.73126  0.65343  1.0000
  C   C344      1.0  0.40649  0.72859  0.73298  1.0000
  H   H414      1.0  0.43403  0.54934  0.87097  1.0000
  H   H415      1.0  0.41165  0.67899  0.85449  1.0000
  C   C345      1.0  0.05639  0.70742  0.52425  1.0000
  H   H416      1.0  0.44502  0.66372  0.61238  1.0000
  C   C346      1.0  0.45033  0.64319  0.66153  1.0000
  H   H417      1.0  0.04476  0.68465  0.48280  1.0000
  N   N25       1.0  0.07134  0.71454  0.51100  1.0000
  H   H418      1.0  0.47141  0.62348  0.69702  1.0000
  C   C347      1.0  0.38651  0.65923  0.59912  1.0000
  Fe  Fe49      1.0  0.48535  0.73513  0.75336  1.0000
  C   C348      1.0  0.44646  0.65757  0.62588  1.0000
  H   H419      1.0  0.42520  0.65691  0.80254  1.0000
  C   C349      1.0  0.37232  0.68790  0.58475  1.0000
  H   H420      1.0  0.21095  0.73405  0.52639  1.0000
  H   H421      1.0  0.38496  0.69047  0.57525  1.0000
  H   H422      1.0  0.35571  0.72205  0.60574  1.0000
  Fe  Fe50      1.0  0.47389  0.59691  0.77490  1.0000
  C   C350      1.0  0.40887  0.69392  0.85156  1.0000
  Fe  Fe51      1.0  0.12894  0.72071  0.59326  1.0000
  C   C351      1.0  0.35930  0.67451  0.61549  1.0000
  C   C352      1.0  0.34181  0.67942  0.61124  1.0000
  S   S95       1.0  0.00057  0.64313  0.58043  1.0000
  H   H423      1.0  0.47540  0.65268  0.61951  1.0000
  C   C353      1.0  0.19397  0.67223  0.55001  1.0000
  C   C354      1.0  0.47076  0.62913  0.68283  1.0000
  C   C355      1.0  0.47488  0.62385  0.73825  1.0000
  H   H424      1.0  0.47926  0.64007  0.64964  1.0000
  C   C356      1.0  0.19687  0.70346  0.54306  1.0000
  H   H425      1.0  0.48401  0.67340  0.75284  1.0000
  H   H426      1.0  0.49345  0.66132  0.73536  1.0000
  H   H427      1.0  0.99660  0.72423  0.47823  1.0000
  H   H428      1.0  0.01537  0.55087  0.51936  1.0000
  C   C357      1.0  0.48267  0.54314  0.87767  1.0000
  C   C358      1.0  0.22751  0.72335  0.66502  1.0000
  H   H429      1.0  0.26006  0.68758  0.64003  1.0000
  H   H430      1.0  0.10019  0.73066  0.49344  1.0000
  C   C359      1.0  0.49243  0.65626  0.83027  1.0000
  C   C360      1.0  0.46854  0.73100  0.67079  1.0000
  H   H431      1.0  0.09400  0.70347  0.49225  1.0000
  C   C361      1.0  0.01286  0.57204  0.53348  1.0000
  H   H432      1.0  0.00715  0.59443  0.54608  1.0000
  C   C362      1.0  0.00731  0.58191  0.48123  1.0000
  H   H433      1.0  0.22415  0.73459  0.55735  1.0000
  C   C363      1.0  0.00615  0.60838  0.49379  1.0000
  H   H434      1.0  0.22881  0.71847  0.51572  1.0000
  Fe  Fe52      1.0  0.26088  0.73364  0.59933  1.0000
  C   C364      1.0  0.00112  0.58563  0.54151  1.0000
  H   H435      1.0  0.47639  0.73746  0.62531  1.0000
  H   H436      1.0  0.99860  0.62064  0.49783  1.0000
  C   C365      1.0  0.25758  0.70654  0.65664  1.0000
  H   H437      1.0  0.21941  0.73400  0.67164  1.0000
  Fe  Fe53      1.0  0.27276  0.73656  0.55932  1.0000
  H   H438      1.0  0.43776  0.71515  0.67535  1.0000
  H   H439      1.0  0.19064  0.72271  0.68083  1.0000
  H   H440      1.0  0.17300  0.69418  0.54255  1.0000
  H   H441      1.0  0.09080  0.69000  0.51407  1.0000
  C   C366      1.0  0.99784  0.59828  0.48618  1.0000
  H   H442      1.0  0.04631  0.71829  0.52992  1.0000
  C   C367      1.0  0.23257  0.70123  0.64654  1.0000
  H   H443      1.0  0.20278  0.72894  0.55886  1.0000
  H   H444      1.0  0.43349  0.73190  0.70555  1.0000
  H   H445      1.0  0.47655  0.57229  0.83958  1.0000
  C   C368      1.0  0.44823  0.70913  0.68358  1.0000
  C   C369      1.0  0.25090  0.69737  0.64725  1.0000
  S   S96       1.0  0.48789  0.70536  0.76053  1.0000
  C   C370      1.0  0.18934  0.72950  0.66703  1.0000
  H   H446      1.0  0.20839  0.72226  0.62540  1.0000
  H   H447      1.0  0.08512  0.73453  0.55710  1.0000
  C   C371      1.0  0.00489  0.66301  0.48232  1.0000
  H   H448      1.0  0.49435  0.52854  0.81989  1.0000
  H   H449      1.0  0.07363  0.73180  0.48503  1.0000
  H   H450      1.0  0.05457  0.73926  0.50124  1.0000
  H   H451      1.0  0.02731  0.57056  0.53230  1.0000
  H   H452      1.0  0.48174  0.65062  0.75592  1.0000
  H   H453      1.0  0.18561  0.73249  0.63369  1.0000
  C   C372      1.0  0.48814  0.63905  0.83531  1.0000
  H   H454      1.0  0.49400  0.64310  0.78257  1.0000
  H   H455      1.0  0.48020  0.53053  0.87514  1.0000
  C   C373      1.0  0.09639  0.73135  0.50735  1.0000
  C   C374      1.0  0.02518  0.57613  0.48378  1.0000
  S   S97       1.0  0.49087  0.69026  0.81077  1.0000
  H   H456      1.0  0.06706  0.71978  0.54610  1.0000
  C   C375      1.0  0.49598  0.51640  0.81415  1.0000
  C   C376      1.0  0.02007  0.70406  0.48287  1.0000
  H   H457      1.0  0.01028  0.64839  0.48594  1.0000
  H   H458      1.0  0.46965  0.54958  0.88508  1.0000
  N   N26       1.0  0.48920  0.55505  0.86082  1.0000
  C   C377      1.0  0.00618  0.56100  0.52612  1.0000
  Fe  Fe54      1.0  0.16100  0.73919  0.57467  1.0000
  C   C378      1.0  0.47795  0.73819  0.63839  1.0000
  S   S98       1.0  0.47911  0.73886  0.78169  1.0000
  Fe  Fe55      1.0  0.24003  0.94655  0.05711  1.0000
  H   H459      1.0  0.28432  0.96451  0.11110  1.0000
  S   S99       1.0  0.22648  0.94985  0.08476  1.0000
  Fe  Fe56      1.0  0.25025  0.92264  0.02990  1.0000
  S   S100      1.0  0.25671  0.94515  0.00739  1.0000
  S   S101      1.0  0.25356  0.89392  0.02761  1.0000
  Fe  Fe57      1.0  0.27056  0.95236  0.02575  1.0000
  S   S102      1.0  0.29876  0.95668  0.01375  1.0000
  Fe  Fe58      1.0  0.23170  0.96149  0.02074  1.0000
  H   H460      1.0  0.19825  0.93963  0.19403  1.0000
  S   S103      1.0  0.26587  0.92872  0.04751  1.0000
  S   S104      1.0  0.22386  0.93822  0.04150  1.0000
  H   H461      1.0  0.02270  0.92377  0.33829  1.0000
  H   H462      1.0  0.22455  0.88928  0.33816  1.0000
  S   S105      1.0  0.27376  0.93749  0.14245  1.0000
  H   H463      1.0  0.05722  0.90109  0.35943  1.0000
  C   C379      1.0  0.05792  0.90199  0.37308  1.0000
  H   H464      1.0  0.02249  0.87340  0.37757  1.0000
  H   H465      1.0  0.99806  0.78764  0.33877  1.0000
  S   S106      1.0  0.05403  0.87044  0.30445  1.0000
  H   H466      1.0  0.10413  0.89369  0.26395  1.0000
  H   H467      1.0  0.03663  0.88708  0.41491  1.0000
  H   H468      1.0  0.20931  0.93516  0.17236  1.0000
  S   S107      1.0  0.23606  0.96072  0.17467  1.0000
  H   H469      1.0  0.05591  0.80606  0.28433  1.0000
  H   H470      1.0  0.07202  0.80395  0.30643  1.0000
  C   C380      1.0  0.19087  0.82393  0.29708  1.0000
  C   C381      1.0  0.14475  0.85090  0.33477  1.0000
  H   H471      1.0  0.17846  0.94912  0.99274  1.0000
  S   S108      1.0  0.21178  0.98235  0.00692  1.0000
  H   H472      1.0  0.21099  0.97967  0.20584  1.0000
  Fe  Fe59      1.0  0.17902  0.85653  0.38596  1.0000
  S   S109      1.0  0.17221  0.87712  0.40333  1.0000
  S   S110      1.0  0.20646  0.85084  0.36878  1.0000
  Fe  Fe60      1.0  0.14609  0.88511  0.39363  1.0000
  C   C382      1.0  0.08783  0.94211  0.37425  1.0000
  S   S111      1.0  0.15399  0.86610  0.37467  1.0000
  Fe  Fe61      1.0  0.16090  0.87503  0.25897  1.0000
  S   S112      1.0  0.16590  0.86697  0.28665  1.0000
  S   S113      1.0  0.15310  0.85720  0.24483  1.0000
  Fe  Fe62      1.0  0.17004  0.91157  0.25371  1.0000
  S   S114      1.0  0.17615  0.90697  0.28085  1.0000
  S   S115      1.0  0.17054  0.93759  0.23440  1.0000
  Fe  Fe63      1.0  0.19018  0.87966  0.27586  1.0000
  S   S116      1.0  0.21596  0.86631  0.28516  1.0000
  Fe  Fe64      1.0  0.15153  0.89464  0.28956  1.0000
  S   S117      1.0  0.13326  0.89823  0.31534  1.0000
  S   S118      1.0  0.18667  0.88541  0.24758  1.0000
  S   S119      1.0  0.14387  0.90166  0.26285  1.0000
  C   C383      1.0  0.20845  0.85504  0.34559  1.0000
  C   C384      1.0  0.19386  0.86395  0.33737  1.0000
  C   C385      1.0  0.19603  0.86743  0.31880  1.0000
  C   C386      1.0  0.21284  0.86199  0.30839  1.0000
  C   C387      1.0  0.22741  0.85309  0.31658  1.0000
  C   C388      1.0  0.22522  0.84965  0.33511  1.0000
  H   H473      1.0  0.18102  0.86848  0.34523  1.0000
  H   H474      1.0  0.18478  0.87453  0.31256  1.0000
  H   H475      1.0  0.24043  0.84888  0.30860  1.0000
  H   H476      1.0  0.23658  0.84281  0.34134  1.0000
  Fe  Fe65      1.0  0.04809  0.82688  0.33931  1.0000
  H   H477      1.0  0.13264  0.92819  0.28604  1.0000
  S   S120      1.0  0.24426  0.96452  0.21775  1.0000
  C   C389      1.0  0.13219  0.85067  0.25408  1.0000
  C   C390      1.0  0.12563  0.84108  0.24491  1.0000
  H   H478      1.0  0.12715  0.86209  0.27751  1.0000
  H   H479      1.0  0.13344  0.83783  0.23242  1.0000
  H   H480      1.0  0.23698  0.89854  0.30630  1.0000
  H   H481      1.0  0.17228  0.81333  0.35138  1.0000
  S   S121      1.0  0.03811  0.85409  0.34644  1.0000
  C   C391      1.0  0.23329  0.81364  0.45825  1.0000
  C   C392      1.0  0.22320  0.90410  0.31177  1.0000
  H   H482      1.0  0.08892  0.76603  0.29855  1.0000
  Fe  Fe66      1.0  0.22528  0.98736  0.15948  1.0000
  H   H483      1.0  0.05486  0.79627  0.32444  1.0000
  H   H484      1.0  0.15001  0.90870  0.46006  1.0000
  Fe  Fe67      1.0  0.01719  0.96131  0.34348  1.0000
  H   H485      1.0  0.02344  0.90966  0.27624  1.0000
  C   C393      1.0  0.19440  0.92295  0.30769  1.0000
  C   C394      1.0  0.18764  0.88335  0.45985  1.0000
  C   C395      1.0  0.05238  0.87228  0.38587  1.0000
  C   C396      1.0  0.08523  0.93751  0.44140  1.0000
  H   H486      1.0  0.01611  0.74716  0.32395  1.0000
  C   C397      1.0  0.22336  0.95766  0.22387  1.0000
  H   H487      1.0  0.34649  0.95511  0.07606  1.0000
  H   H488      1.0  0.29568  0.92207  0.00787  1.0000
  C   C398      1.0  0.19067  0.94544  0.23111  1.0000
  C   C399      1.0  0.20469  0.93566  0.23978  1.0000
  C   C400      1.0  0.22101  0.94188  0.23627  1.0000
  H   H489      1.0  0.04382  0.86357  0.39583  1.0000
  C   C401      1.0  0.30052  0.96919  0.08415  1.0000
  H   H490      1.0  0.20304  0.92326  0.24904  1.0000
  H   H491      1.0  0.23195  0.93424  0.24278  1.0000
  C   C402      1.0  0.25652  0.88993  0.00613  1.0000
  C   C403      1.0  0.09462  0.95148  0.30778  1.0000
  C   C404      1.0  0.13833  0.82087  0.34415  1.0000
  C   C405      1.0  0.03673  0.93684  0.29639  1.0000
  H   H492      1.0  0.10411  0.91480  0.33955  1.0000
  C   C406      1.0  0.23810  0.89061  0.24370  1.0000
  H   H493      1.0  0.33652  0.88580  0.99179  1.0000
  H   H494      1.0  0.26196  0.86118  0.01446  1.0000
  S   S122      1.0  0.15773  0.85017  0.45319  1.0000
  H   H495      1.0  0.10476  0.89961  0.29220  1.0000
  H   H496      1.0  0.30909  0.94874  0.12557  1.0000
  H   H497      1.0  0.01936  0.80681  0.33878  1.0000
  C   C407      1.0  0.21619  0.89891  0.32970  1.0000
  C   C408      1.0  0.08240  0.92014  0.40121  1.0000
  C   C409      1.0  0.07581  0.93468  0.38875  1.0000
  S   S123      1.0  0.24618  0.97102  0.03697  1.0000
  H   H498      1.0  0.08674  0.93339  0.25553  1.0000
  Fe  Fe68      1.0  0.02864  0.86177  0.32063  1.0000
  H   H499      1.0  0.19779  0.82577  0.46646  1.0000
  C   C410      1.0  0.16771  0.86271  0.46251  1.0000
  C   C411      1.0  0.03163  0.78836  0.35941  1.0000
  H   H500      1.0  0.19256  0.93736  0.14978  1.0000
  H   H501      1.0  0.21827  0.95740  0.11932  1.0000
  H   H502      1.0  0.01282  0.83007  0.36500  1.0000
  C   C412      1.0  0.23947  0.94404  0.10123  1.0000
  C   C413      1.0  0.23201  0.95010  0.11713  1.0000
  C   C414      1.0  0.24244  0.94740  0.12999  1.0000
  C   C415      1.0  0.26032  0.93833  0.12721  1.0000
  C   C416      1.0  0.26761  0.93139  0.11167  1.0000
  C   C417      1.0  0.25717  0.93433  0.09859  1.0000
  H   H503      1.0  0.26337  0.96942  0.09449  1.0000
  H   H504      1.0  0.23660  0.95269  0.14191  1.0000
  H   H505      1.0  0.28146  0.92437  0.10946  1.0000
  H   H506      1.0  0.26284  0.92931  0.08644  1.0000
  H   H507      1.0  0.10180  0.88575  0.35740  1.0000
  H   H508      1.0  0.08382  0.88530  0.27346  1.0000
  H   H509      1.0  0.10597  0.90217  0.40911  1.0000
  C   C418      1.0  0.16597  0.95552  0.18424  1.0000
  H   H510      1.0  0.22450  0.80711  0.45350  1.0000
  H   H511      1.0  0.00426  0.80605  0.38860  1.0000
  H   H512      1.0  0.32418  0.97356  0.98651  1.0000
  H   H513      1.0  0.10650  0.92362  0.26509  1.0000
  H   H514      1.0  0.19462  0.95237  0.00412  1.0000
  H   H515      1.0  0.10136  0.96120  0.40130  1.0000
  C   C419      1.0  0.10098  0.91316  0.39927  1.0000
  C   C420      1.0  0.01357  0.90369  0.32986  1.0000
  H   H516      1.0  0.10065  0.91742  0.45793  1.0000
  N   N27       1.0  0.13516  0.91727  0.43862  1.0000
  H   H517      1.0  0.07319  0.91447  0.41255  1.0000
  H   H518      1.0  0.04649  0.78804  0.28243  1.0000
  C   C421      1.0  0.29753  0.96270  0.10277  1.0000
  C   C422      1.0  0.31178  0.95356  0.11134  1.0000
  H   H519      1.0  0.06632  0.86776  0.38862  1.0000
  H   H520      1.0  0.05317  0.86965  0.37244  1.0000
  C   C423      1.0  0.02693  0.89813  0.38327  1.0000
  C   C424      1.0  0.11305  0.92112  0.38517  1.0000
  S   S124      1.0  0.02715  0.98388  0.32332  1.0000
  H   H521      1.0  0.08043  0.84007  0.35625  1.0000
  C   C425      1.0  0.01951  0.76097  0.37109  1.0000
  S   S125      1.0  0.03628  0.83397  0.31477  1.0000
  C   C426      1.0  0.17901  0.87432  0.45191  1.0000
  H   H522      1.0  0.28654  0.89396  0.21787  1.0000
  H   H523      1.0  0.01996  0.74798  0.37974  1.0000
  H   H524      1.0  0.03107  0.94694  0.30458  1.0000
  C   C427      1.0  0.07852  0.77472  0.29119  1.0000
  C   C428      1.0  0.18133  0.82214  0.28493  1.0000
  H   H525      1.0  0.03691  0.80004  0.30058  1.0000
  C   C429      1.0  0.20951  0.91717  0.00143  1.0000
  C   C430      1.0  0.04970  0.79440  0.29221  1.0000
  H   H526      1.0  0.15520  0.85946  0.32939  1.0000
  C   C431      1.0  0.18187  0.82673  0.31403  1.0000
  C   C432      1.0  0.31859  0.96594  0.07476  1.0000
  H   H527      1.0  0.07216  0.89725  0.37476  1.0000
  H   H528      1.0  0.27098  0.98651  0.99224  1.0000
  S   S126      1.0  0.07928  0.87696  0.33816  1.0000
  H   H529      1.0  0.27150  0.93244  0.18075  1.0000
  H   H530      1.0  0.22852  0.90411  0.22038  1.0000
  C   C433      1.0  0.05114  0.91028  0.27592  1.0000
  C   C434      1.0  0.16462  0.82737  0.35031  1.0000
  C   C435      1.0  0.19114  0.95424  0.99087  1.0000
  H   H531      1.0  0.26637  0.85515  0.98412  1.0000
  H   H532      1.0  0.20056  0.97123  0.04459  1.0000
  H   H533      1.0  0.18206  0.96918  0.21254  1.0000
  C   C436      1.0  0.17742  0.92298  0.18450  1.0000
  C   C437      1.0  0.18886  0.90824  0.17741  1.0000
  C   C438      1.0  0.16431  0.91881  0.20005  1.0000
  C   C439      1.0  0.18707  0.89051  0.18521  1.0000
  C   C440      1.0  0.16274  0.90102  0.20779  1.0000
  C   C441      1.0  0.17406  0.88692  0.20040  1.0000
  H   H534      1.0  0.16589  0.95461  0.19851  1.0000
  S   S127      1.0  0.05565  0.98269  0.34888  1.0000
  H   H535      1.0  0.16819  0.96935  0.17762  1.0000
  Fe  Fe69      1.0  0.26136  0.96188  0.15453  1.0000
  Fe  Fe70      1.0  0.04375  0.95959  0.36659  1.0000
  N   N28       1.0  0.18022  0.94157  0.17658  1.0000
  H   H536      1.0  0.06010  0.88872  0.40748  1.0000
  Fe  Fe71      1.0  0.05472  0.96937  0.32704  1.0000
  H   H537      1.0  0.05473  0.91641  0.37378  1.0000
  C   C442      1.0  0.01161  0.92045  0.33451  1.0000
  H   H538      1.0  0.15536  0.92900  0.20677  1.0000
  H   H539      1.0  0.19593  0.87946  0.17956  1.0000
  H   H540      1.0  0.15287  0.89808  0.21982  1.0000
  H   H541      1.0  0.17280  0.87317  0.20663  1.0000
  H   H542      1.0  0.28244  0.92185  0.19898  1.0000
  C   C443      1.0  0.19819  0.90544  0.33667  1.0000
  C   C444      1.0  0.09154  0.92741  0.26820  1.0000
  C   C445      1.0  0.04636  0.89405  0.40441  1.0000
  Fe  Fe72      1.0  0.06285  0.84184  0.30109  1.0000
  S   S128      1.0  0.07738  0.96980  0.30352  1.0000
  H   H543      1.0  0.14210  0.93793  0.32596  1.0000
  H   H544      1.0  0.16144  0.94705  0.31366  1.0000
  S   S129      1.0  0.16781  0.83523  0.40746  1.0000
  C   C446      1.0  0.25475  0.90416  0.99179  1.0000
  H   H545      1.0  0.01080  0.93333  0.29408  1.0000
  H   H546      1.0  0.04324  0.90843  0.40553  1.0000
  C   C447      1.0  0.19291  0.96144  0.21911  1.0000
  C   C448      1.0  0.01701  0.88717  0.37884  1.0000
  H   H547      1.0  0.15247  0.93662  0.42673  1.0000
  H   H548      1.0  0.23775  0.82448  0.44720  1.0000
  C   C449      1.0  0.10893  0.83578  0.25172  1.0000
  Fe  Fe73      1.0  0.14204  0.84665  0.39761  1.0000
  C   C450      1.0  0.11831  0.92930  0.43439  1.0000
  C   C451      1.0  0.18660  0.91731  0.32577  1.0000
  C   C452      1.0  0.09321  0.94003  0.32435  1.0000
  H   H549      1.0  0.16399  0.89962  0.35381  1.0000
  H   H550      1.0  0.15703  0.92677  0.30943  1.0000
  S   S130      1.0  0.13169  0.86651  0.41553  1.0000
  H   H551      1.0  0.20932  0.84422  0.45889  1.0000
  H   H552      1.0  0.11725  0.86777  0.38146  1.0000
  C   C453      1.0  0.19434  0.98506  0.04087  1.0000
  H   H553      1.0  0.12334  0.89339  0.44627  1.0000
  C   C454      1.0  0.10527  0.84940  0.27719  1.0000
  H   H554      1.0  0.11059  0.95660  0.28148  1.0000
  H   H555      1.0  0.13271  0.82114  0.35840  1.0000
  H   H556      1.0  0.18188  0.95973  0.15118  1.0000
  C   C455      1.0  0.10926  0.94756  0.29420  1.0000
  C   C456      1.0  0.15895  0.90713  0.34165  1.0000
  H   H557      1.0  0.08285  0.95327  0.36455  1.0000
  H   H558      1.0  0.26010  0.93462  0.20293  1.0000
  H   H559      1.0  0.25067  0.87719  0.26592  1.0000
  H   H560      1.0  0.08236  0.94330  0.33509  1.0000
  H   H561      1.0  0.16421  0.91379  0.43072  1.0000
  H   H562      1.0  0.26939  0.88379  0.18771  1.0000
  Fe  Fe74      1.0  0.15852  0.85677  0.42381  1.0000
  C   C457      1.0  0.99919  0.89922  0.32504  1.0000
  H   H563      1.0  0.19675  0.89198  0.45168  1.0000
  H   H564      1.0  0.06366  0.93716  0.29761  1.0000
  H   H565      1.0  0.23489  0.92498  0.19592  1.0000
  C   C458      1.0  0.26785  0.98186  0.08634  1.0000
  C   C459      1.0  0.06678  0.79181  0.31448  1.0000
  H   H566      1.0  0.22462  0.88973  0.25124  1.0000
  C   C460      1.0  0.15663  0.93425  0.31992  1.0000
  C   C461      1.0  0.10926  0.84323  0.38109  1.0000
  H   H567      1.0  0.15665  0.82892  0.36377  1.0000
  C   C462      1.0  0.10070  0.87180  0.36220  1.0000
  S   S131      1.0  0.04660  0.80182  0.36015  1.0000
  H   H568      1.0  0.18827  0.82049  0.27163  1.0000
  H   H569      1.0  0.09778  0.82146  0.37880  1.0000
  C   C463      1.0  0.16270  0.82337  0.28959  1.0000
  H   H570      1.0  0.22635  0.94736  0.99126  1.0000
  H   H571      1.0  0.21308  0.98864  0.10396  1.0000
  C   C464      1.0  0.12165  0.93144  0.29674  1.0000
  C   C465      1.0  0.21239  0.91623  0.30083  1.0000
  N   N29       1.0  0.08306  0.91178  0.27784  1.0000
  H   H572      1.0  0.10392  0.82848  0.24444  1.0000
  H   H573      1.0  0.07620  0.75492  0.32856  1.0000
  C   C466      1.0  0.20671  0.83298  0.47023  1.0000
  C   C467      1.0  0.06311  0.75368  0.32707  1.0000
  N   N30       1.0  0.20584  0.94534  0.97816  1.0000
  H   H574      1.0  0.19330  0.90063  0.35058  1.0000
  S   S132      1.0  0.05262  0.94379  0.39181  1.0000
  H   H575      1.0  0.13513  0.85485  0.32548  1.0000
  H   H576      1.0  0.13901  0.82808  0.30906  1.0000
  C   C468      1.0  0.15354  0.82630  0.30647  1.0000
  H   H577      1.0  0.08479  0.78595  0.28226  1.0000
  H   H578      1.0  0.32193  0.97028  0.06056  1.0000
  S   S133      1.0  0.07541  0.83244  0.32506  1.0000
  C   C469      1.0  0.10563  0.92395  0.32692  1.0000
  H   H579      1.0  0.18152  0.87593  0.43765  1.0000
  H   H580      1.0  0.08497  0.90255  0.25363  1.0000
  H   H581      1.0  0.08367  0.89260  0.30219  1.0000
  C   C470      1.0  0.08889  0.84601  0.36132  1.0000
  C   C471      1.0  0.09052  0.86398  0.35485  1.0000
  C   C472      1.0  0.15175  0.92256  0.42667  1.0000
  C   C473      1.0  0.09841  0.83557  0.37435  1.0000
  H   H582      1.0  0.19002  0.82864  0.32252  1.0000
  H   H583      1.0  0.24774  0.92106  0.17475  1.0000
  H   H584      1.0  0.25100  0.91776  0.99391  1.0000
  H   H585      1.0  0.24548  0.80337  0.46063  1.0000
  H   H586      1.0  0.20526  0.82380  0.29314  1.0000
  C   C474      1.0  0.08916  0.89776  0.26671  1.0000
  N   N31       1.0  0.15292  0.83157  0.33690  1.0000
  C   C475      1.0  0.10967  0.86154  0.37565  1.0000
  C   C476      1.0  0.02529  0.92925  0.29043  1.0000
  H   H587      1.0  0.05572  0.89980  0.26819  1.0000
  C   C477      1.0  0.03158  0.77182  0.37107  1.0000
  S   S134      1.0  0.01513  0.97397  0.36667  1.0000
  C   C478      1.0  0.03246  0.91593  0.28034  1.0000
  N   N32       1.0  0.06192  0.78156  0.30327  1.0000
  C   C479      1.0  0.05381  0.76628  0.31457  1.0000
  C   C480      1.0  0.20929  0.96741  0.21533  1.0000
  H   H588      1.0  0.28252  0.95222  0.07130  1.0000
  C   C481      1.0  0.09868  0.83995  0.26780  1.0000
  H   H589      1.0  0.28154  0.87948  0.24912  1.0000
  C   C482      1.0  0.21255  0.89850  0.00671  1.0000
  H   H590      1.0  0.12655  0.82612  0.33748  1.0000
  H   H591      1.0  0.16168  0.89769  0.33233  1.0000
  H   H592      1.0  0.14402  0.91073  0.34580  1.0000
  H   H593      1.0  0.17250  0.94559  0.34135  1.0000
  C   C483      1.0  0.01963  0.79398  0.34764  1.0000
  C   C484      1.0  0.25280  0.88357  0.25203  1.0000
  H   H594      1.0  0.28793  0.89309  0.18928  1.0000
  C   C485      1.0  0.08987  0.90429  0.29457  1.0000
  H   H595      1.0  0.15136  0.93884  0.35257  1.0000
  S   S135      1.0  0.13645  0.91447  0.38389  1.0000
  S   S136      1.0  0.07768  0.83322  0.27570  1.0000
  C   C486      1.0  0.10643  0.93553  0.37263  1.0000
  H   H596      1.0  0.09745  0.85256  0.28971  1.0000
  H   H597      1.0  0.19946  0.91030  0.16593  1.0000
  C   C487      1.0  0.11944  0.91937  0.31292  1.0000
  C   C488      1.0  0.12204  0.85481  0.27029  1.0000
  H   H598      1.0  0.13716  0.85458  0.34760  1.0000
  H   H599      1.0  0.17188  0.92577  0.35838  1.0000
  C   C489      1.0  0.16574  0.93383  0.34695  1.0000
  H   H600      1.0  0.14341  0.80653  0.34309  1.0000
  H   H601      1.0  0.11568  0.94168  0.36165  1.0000
  H   H602      1.0  0.08841  0.93821  0.27602  1.0000
  Fe  Fe75      1.0  0.06422  0.86040  0.32981  1.0000
  H   H603      1.0  0.19969  0.95768  0.17522  1.0000
  H   H604      1.0  0.07260  0.95724  0.42179  1.0000
  C   C490      1.0  0.06322  0.91763  0.28193  1.0000
  C   C491      1.0  0.20831  0.92555  0.98363  1.0000
  H   H605      1.0  0.27632  0.90261  0.17146  1.0000
  C   C492      1.0  0.26067  0.87225  0.00336  1.0000
  C   C493      1.0  0.10149  0.95208  0.41397  1.0000
  N   N33       1.0  0.16730  0.92313  0.33328  1.0000
  S   S137      1.0  0.12387  0.82964  0.39464  1.0000
  H   H606      1.0  0.25704  0.98868  0.07870  1.0000
  H   H607      1.0  0.17430  0.83664  0.34730  1.0000
  C   C494      1.0  0.05540  0.93108  0.29234  1.0000
  H   H608      1.0  0.23830  0.90317  0.19002  1.0000
  H   H609      1.0  0.08685  0.91416  0.30345  1.0000
  C   C495      1.0  0.16290  0.82772  0.31936  1.0000
  H   H610      1.0  0.12648  0.91033  0.46718  1.0000
  H   H611      1.0  0.15523  0.82279  0.27981  1.0000
  H   H612      1.0  0.04098  0.76731  0.38005  1.0000
  H   H613      1.0  0.18681  0.93220  0.29842  1.0000
  N   N34       1.0  0.26143  0.90897  0.19668  1.0000
  C   C496      1.0  0.27431  0.89653  0.18589  1.0000
  C   C497      1.0  0.24479  0.91475  0.18908  1.0000
  C   C498      1.0  0.26923  0.92511  0.19474  1.0000
  C   C499      1.0  0.25818  0.90017  0.21562  1.0000
  C   C500      1.0  0.27286  0.89305  0.22460  1.0000
  C   C501      1.0  0.24062  0.89881  0.22579  1.0000
  C   C502      1.0  0.27015  0.88483  0.24252  1.0000
  S   S138      1.0  0.04489  0.94514  0.34478  1.0000
  N   N35       1.0  0.04554  0.89158  0.38660  1.0000
  C   C503      1.0  0.00748  0.78316  0.34772  1.0000
  H   H614      1.0  0.02624  0.89434  0.32989  1.0000
  H   H615      1.0  0.21790  0.92020  0.28684  1.0000
  C   C504      1.0  0.19766  0.94353  0.17966  1.0000
  C   C505      1.0  0.08524  0.94982  0.42548  1.0000
  C   C506      1.0  0.33278  0.95706  0.08350  1.0000
  C   C507      1.0  0.30083  0.90959  0.00230  1.0000
  H   H616      1.0  0.15256  0.92113  0.41279  1.0000
  C   C508      1.0  0.99899  0.82811  0.36807  1.0000
  H   H617      1.0  0.16833  0.94299  0.15419  1.0000
  C   C509      1.0  0.18074  0.94547  0.15716  1.0000
  H   H618      1.0  0.31873  0.98841  0.10563  1.0000
  C   C510      1.0  0.26315  0.86884  0.98624  1.0000
  H   H619      1.0  0.02856  0.77211  0.30450  1.0000
  H   H620      1.0  0.15238  0.95447  0.18279  1.0000
  H   H621      1.0  0.02518  0.92545  0.38688  1.0000
  H   H622      1.0  0.34641  0.85729  0.98144  1.0000
  C   C511      1.0  0.00731  0.76670  0.35955  1.0000
  Fe  Fe76      1.0  0.24730  0.97598  0.18869  1.0000
  C   C512      1.0  0.10146  0.92732  0.44580  1.0000
  C   C513      1.0  0.02944  0.74885  0.32450  1.0000
  H   H623      1.0  0.18823  0.96909  0.98640  1.0000
  S   S139      1.0  0.27388  0.97508  0.16961  1.0000
  C   C514      1.0  0.01834  0.91619  0.38401  1.0000
  H   H624      1.0  0.21399  0.89242  0.02027  1.0000
  H   H625      1.0  0.34037  0.94394  0.10851  1.0000
  H   H626      1.0  0.27949  0.98879  0.02731  1.0000
  H   H627      1.0  0.31066  0.90088  0.01033  1.0000
  C   C515      1.0  0.26171  0.98932  0.98276  1.0000
  H   H628      1.0  0.14723  0.88937  0.43916  1.0000
  C   C516      1.0  0.32937  0.95081  0.10175  1.0000
  C   C517      1.0  0.31548  0.98371  0.99351  1.0000
  H   H629      1.0  0.28929  0.90255  0.00464  1.0000
  H   H630      1.0  0.33431  0.91512  0.98915  1.0000
  C   C518      1.0  0.30167  0.97905  0.00766  1.0000
  H   H631      1.0  0.07251  0.93553  0.45014  1.0000
  S   S140      1.0  0.00134  0.87852  0.31895  1.0000
  H   H632      1.0  0.21807  0.87312  0.99839  1.0000
  C   C519      1.0  0.99959  0.89395  0.37545  1.0000
  S   S141      1.0  0.24984  0.98749  0.13801  1.0000
  H   H633      1.0  0.13576  0.93055  0.45941  1.0000
  C   C520      1.0  0.11781  0.94200  0.41824  1.0000
  C   C521      1.0  0.03676  0.76330  0.31347  1.0000
  H   H634      1.0  0.27234  0.97099  0.05672  1.0000
  H   H635      1.0  0.31979  0.93606  0.98482  1.0000
  C   C522      1.0  0.28415  0.96572  0.06326  1.0000
  N   N36       1.0  0.30892  0.91350  0.98317  1.0000
  C   C523      1.0  0.13683  0.91678  0.45708  1.0000
  H   H636      1.0  0.07553  0.76667  0.28270  1.0000
  H   H637      1.0  0.24848  0.98637  0.99056  1.0000
  N   N37       1.0  0.28564  0.97787  0.07448  1.0000
  C   C524      1.0  0.32432  0.92267  0.98083  1.0000
  H   H638      1.0  0.07745  0.78395  0.32187  1.0000
  N   N38       1.0  0.22371  0.82105  0.47431  1.0000
  C   C525      1.0  0.32968  0.88349  0.98237  1.0000
  C   C526      1.0  0.21495  0.88759  0.99440  1.0000
  H   H639      1.0  0.13300  0.89912  0.42318  1.0000
  H   H640      1.0  0.20882  0.92489  0.01134  1.0000
  H   H641      1.0  0.18009  0.98680  0.06750  1.0000
  H   H642      1.0  0.29627  0.96378  0.05257  1.0000
  H   H643      1.0  0.12977  0.94389  0.40832  1.0000
  C   C527      1.0  0.13465  0.89898  0.43679  1.0000
  C   C528      1.0  0.00092  0.92281  0.38063  1.0000
  H   H644      1.0  0.21939  0.85756  0.47635  1.0000
  H   H645      1.0  0.29161  0.93952  0.97847  1.0000
  H   H646      1.0  0.45334  0.74757  0.81368  1.0000
  H   H647      1.0  0.30473  0.78944  0.65486  1.0000
  H   H648      1.0  0.36754  0.90449  0.82403  1.0000
  C   C529      1.0  0.25822  0.84692  0.49153  1.0000
  C   C530      1.0  0.30340  0.77665  0.69026  1.0000
  H   H649      1.0  0.26650  0.85312  0.49669  1.0000
  C   C531      1.0  0.25209  0.82054  0.48468  1.0000
  H   H650      1.0  0.44256  0.92035  0.90902  1.0000
  C   C532      1.0  0.28689  0.79650  0.71769  1.0000
  C   C533      1.0  0.41943  0.92055  0.82349  1.0000
  H   H651      1.0  0.36854  0.88227  0.89137  1.0000
  H   H652      1.0  0.30008  0.81969  0.87203  1.0000
  C   C534      1.0  0.41634  0.88366  0.92163  1.0000
  H   H653      1.0  0.29454  0.74741  0.68493  1.0000
  H   H654      1.0  0.34864  0.91807  0.91713  1.0000
  H   H655      1.0  0.45735  0.89553  0.83755  1.0000
  S   S142      1.0  0.17396  0.75575  0.54958  1.0000
  H   H656      1.0  0.23435  0.94440  0.96871  1.0000
  S   S143      1.0  0.36192  0.98708  0.87839  1.0000
  C   C535      1.0  0.39921  0.98227  0.94733  1.0000
  H   H657      1.0  0.29877  0.93328  0.83184  1.0000
  C   C536      1.0  0.43938  0.80895  0.80427  1.0000
  S   S144      1.0  0.19777  0.89001  0.48811  1.0000
  H   H658      1.0  0.19871  0.83869  0.48196  1.0000
  H   H659      1.0  0.40646  0.79899  0.78901  1.0000
  H   H660      1.0  0.25048  0.95160  0.83815  1.0000
  C   C537      1.0  0.46787  0.78826  0.80467  1.0000
  H   H661      1.0  0.32349  0.77307  0.64762  1.0000
  H   H662      1.0  0.33918  0.76028  0.68025  1.0000
  Fe  Fe77      1.0  0.20693  0.81264  0.67706  1.0000
  S   S145      1.0  0.22043  0.82580  0.65057  1.0000
  S   S146      1.0  0.18593  0.79581  0.67624  1.0000
  Fe  Fe78      1.0  0.22928  0.82944  0.69662  1.0000
  S   S147      1.0  0.24390  0.84241  0.67047  1.0000
  S   S148      1.0  0.23724  0.83263  0.72225  1.0000
  Fe  Fe79      1.0  0.21684  0.84985  0.66252  1.0000
  S   S149      1.0  0.20649  0.87804  0.64963  1.0000
  Fe  Fe80      1.0  0.24563  0.81665  0.66174  1.0000
  S   S150      1.0  0.26968  0.80207  0.64538  1.0000
  S   S151      1.0  0.20168  0.83784  0.68887  1.0000
  S   S152      1.0  0.23270  0.80265  0.68817  1.0000
  Fe  Fe81      1.0  0.19948  0.87500  0.51582  1.0000
  S   S153      1.0  0.17761  0.87922  0.53946  1.0000
  C   C538      1.0  0.27936  0.96204  0.81483  1.0000
  Fe  Fe82      1.0  0.22443  0.84795  0.53744  1.0000
  S   S154      1.0  0.20470  0.84938  0.56302  1.0000
  S   S155      1.0  0.25251  0.83252  0.53857  1.0000
  Fe  Fe83      1.0  0.18405  0.84934  0.54757  1.0000
  S   S156      1.0  0.16156  0.83493  0.56235  1.0000
  Fe  Fe84      1.0  0.19994  0.87896  0.55301  1.0000
  S   S157      1.0  0.19647  0.89939  0.56989  1.0000
  S   S158      1.0  0.20423  0.84482  0.52275  1.0000
  S   S159      1.0  0.22132  0.87773  0.52855  1.0000
  Fe  Fe85      1.0  0.27098  0.94258  0.92255  1.0000
  S   S160      1.0  0.29095  0.91671  0.92446  1.0000
  S   S161      1.0  0.27443  0.96236  0.93753  1.0000
  Fe  Fe86      1.0  0.25006  0.93043  0.90120  1.0000
  S   S162      1.0  0.26785  0.90332  0.90183  1.0000
  S   S163      1.0  0.22655  0.93833  0.88735  1.0000
  Fe  Fe87      1.0  0.26678  0.90388  0.93011  1.0000
  S   S164      1.0  0.26510  0.87876  0.95049  1.0000
  Fe  Fe88      1.0  0.29018  0.91866  0.89598  1.0000
  S   S165      1.0  0.31416  0.91123  0.87524  1.0000
  S   S166      1.0  0.24665  0.92958  0.93035  1.0000
  S   S167      1.0  0.27257  0.94596  0.89324  1.0000
  Fe  Fe89      1.0  0.28657  0.88832  0.76985  1.0000
  S   S168      1.0  0.27639  0.87037  0.79503  1.0000
  S   S169      1.0  0.27915  0.88506  0.74393  1.0000
  Fe  Fe90      1.0  0.30365  0.90847  0.79139  1.0000
  S   S170      1.0  0.29345  0.89132  0.81713  1.0000
  C   C539      1.0  0.15662  0.88326  0.61621  1.0000
  Fe  Fe91      1.0  0.30307  0.86885  0.80196  1.0000
  S   S171      1.0  0.31906  0.84281  0.81357  1.0000
  Fe  Fe92      1.0  0.26799  0.89515  0.80689  1.0000
  S   S172      1.0  0.23912  0.90210  0.82075  1.0000
  S   S173      1.0  0.31431  0.88548  0.77624  1.0000
  S   S174      1.0  0.27718  0.91365  0.78168  1.0000
  Fe  Fe93      1.0  0.41673  0.80595  0.86626  1.0000
  S   S175      1.0  0.43007  0.82766  0.84765  1.0000
  S   S176      1.0  0.43012  0.77735  0.86473  1.0000
  Fe  Fe94      1.0  0.38632  0.83269  0.88300  1.0000
  S   S177      1.0  0.39714  0.85653  0.86563  1.0000
  S   S178      1.0  0.36060  0.83713  0.90295  1.0000
  Fe  Fe95      1.0  0.40207  0.84081  0.84407  1.0000
  S   S179      1.0  0.39560  0.85435  0.81745  1.0000
  Fe  Fe96      1.0  0.42388  0.84102  0.87114  1.0000
  S   S180      1.0  0.44484  0.85285  0.87743  1.0000
  S   S181      1.0  0.38896  0.81825  0.86096  1.0000
  S   S182      1.0  0.41284  0.81815  0.89027  1.0000
  C   C540      1.0  0.44091  0.87612  0.87647  1.0000
  C   C541      1.0  0.42404  0.88704  0.87502  1.0000
  S   S183      1.0  0.35783  0.96747  0.83557  1.0000
  H   H663      1.0  0.41287  0.88117  0.87482  1.0000
  C   C542      1.0  0.14080  0.82440  0.62039  1.0000
  C   C543      1.0  0.34034  0.84603  0.81458  1.0000
  C   C544      1.0  0.34491  0.86306  0.80878  1.0000
  C   C545      1.0  0.36202  0.86553  0.80944  1.0000
  C   C546      1.0  0.37440  0.85105  0.81635  1.0000
  C   C547      1.0  0.36975  0.83407  0.82240  1.0000
  C   C548      1.0  0.35275  0.83154  0.82146  1.0000
  H   H664      1.0  0.33530  0.87438  0.80376  1.0000
  H   H665      1.0  0.36550  0.87870  0.80481  1.0000
  H   H666      1.0  0.37937  0.82275  0.82742  1.0000
  H   H667      1.0  0.34926  0.81835  0.82595  1.0000
  C   C549      1.0  0.32577  0.88974  0.88245  1.0000
  C   C550      1.0  0.32117  0.88086  0.89997  1.0000
  C   C551      1.0  0.33140  0.86419  0.90605  1.0000
  C   C552      1.0  0.34622  0.85642  0.89458  1.0000
  C   C553      1.0  0.35003  0.86473  0.87676  1.0000
  C   C554      1.0  0.34003  0.88156  0.87076  1.0000
  H   H668      1.0  0.30985  0.88685  0.90892  1.0000
  H   H669      1.0  0.32812  0.85756  0.91973  1.0000
  H   H670      1.0  0.36075  0.85827  0.86759  1.0000
  H   H671      1.0  0.34334  0.88822  0.85708  1.0000
  C   C555      1.0  0.29768  0.96210  0.93330  1.0000
  C   C556      1.0  0.28726  0.78959  0.68935  1.0000
  C   C557      1.0  0.32446  0.96248  0.94381  1.0000
  C   C558      1.0  0.33528  0.95789  0.92807  1.0000
  C   C559      1.0  0.32731  0.95580  0.91477  1.0000
  C   C560      1.0  0.30852  0.95758  0.91753  1.0000
  H   H672      1.0  0.44383  0.87105  0.83439  1.0000
  H   H673      1.0  0.33562  0.95234  0.90253  1.0000
  H   H674      1.0  0.44385  0.97369  0.93038  1.0000
  C   C561      1.0  0.23016  0.92790  0.86907  1.0000
  C   C562      1.0  0.24715  0.91821  0.86289  1.0000
  C   C563      1.0  0.25001  0.91032  0.84801  1.0000
  C   C564      1.0  0.23587  0.91201  0.83928  1.0000
  C   C565      1.0  0.21882  0.92154  0.84555  1.0000
  C   C566      1.0  0.21600  0.92959  0.86033  1.0000
  H   H675      1.0  0.25819  0.91700  0.86937  1.0000
  H   H676      1.0  0.26308  0.90262  0.84353  1.0000
  H   H677      1.0  0.20779  0.92282  0.83890  1.0000
  H   H678      1.0  0.20283  0.93707  0.86503  1.0000
  C   C567      1.0  0.24973  0.84693  0.72764  1.0000
  C   C568      1.0  0.25290  0.84394  0.74507  1.0000
  C   C569      1.0  0.26196  0.85516  0.75023  1.0000
  C   C570      1.0  0.26802  0.86984  0.73808  1.0000
  C   C571      1.0  0.26498  0.87274  0.72062  1.0000
  C   C572      1.0  0.25602  0.86143  0.71543  1.0000
  H   H679      1.0  0.24823  0.83283  0.75473  1.0000
  H   H680      1.0  0.26431  0.85237  0.76362  1.0000
  H   H681      1.0  0.26955  0.88390  0.71098  1.0000
  H   H682      1.0  0.25377  0.86411  0.70200  1.0000
  C   C573      1.0  0.20422  0.88299  0.62734  1.0000
  C   C574      1.0  0.19809  0.90086  0.61995  1.0000
  C   C575      1.0  0.19603  0.90562  0.60227  1.0000
  C   C576      1.0  0.19999  0.89255  0.59180  1.0000
  C   C577      1.0  0.20616  0.87459  0.59909  1.0000
  C   C578      1.0  0.20830  0.86979  0.61690  1.0000
  H   H683      1.0  0.19498  0.91112  0.62793  1.0000
  H   H684      1.0  0.19130  0.91952  0.59670  1.0000
  H   H685      1.0  0.20941  0.86449  0.59103  1.0000
  H   H686      1.0  0.21328  0.85603  0.62246  1.0000
  C   C579      1.0  0.26176  0.77432  0.53273  1.0000
  C   C580      1.0  0.24723  0.78657  0.52669  1.0000
  C   C581      1.0  0.24441  0.80461  0.52820  1.0000
  C   C582      1.0  0.25637  0.81043  0.53535  1.0000
  C   C583      1.0  0.27141  0.79835  0.54050  1.0000
  C   C584      1.0  0.27401  0.78026  0.53934  1.0000
  H   H687      1.0  0.23769  0.78193  0.52169  1.0000
  H   H688      1.0  0.23294  0.81397  0.52399  1.0000
  H   H689      1.0  0.28083  0.80284  0.54581  1.0000
  H   H690      1.0  0.28548  0.77089  0.54366  1.0000
  C   C585      1.0  0.24982  0.75878  0.62956  1.0000
  C   C586      1.0  0.26759  0.76135  0.62295  1.0000
  C   C587      1.0  0.27400  0.77420  0.62831  1.0000
  C   C588      1.0  0.26266  0.78435  0.64042  1.0000
  C   C589      1.0  0.24525  0.78098  0.64778  1.0000
  C   C590      1.0  0.23880  0.76828  0.64231  1.0000
  H   H691      1.0  0.45704  0.94487  0.89430  1.0000
  H   H692      1.0  0.28759  0.77652  0.62277  1.0000
  H   H693      1.0  0.23645  0.78844  0.65737  1.0000
  H   H694      1.0  0.22509  0.76624  0.64759  1.0000
  C   C591      1.0  0.16996  0.77807  0.55250  1.0000
  C   C592      1.0  0.17557  0.79163  0.53852  1.0000
  C   C593      1.0  0.17274  0.80935  0.54124  1.0000
  C   C594      1.0  0.16396  0.81349  0.55783  1.0000
  C   C595      1.0  0.15811  0.79999  0.57162  1.0000
  C   C596      1.0  0.16151  0.78229  0.56907  1.0000
  H   H695      1.0  0.18215  0.78843  0.52567  1.0000
  H   H696      1.0  0.17719  0.81979  0.53052  1.0000
  H   H697      1.0  0.15156  0.80308  0.58453  1.0000
  H   H698      1.0  0.15785  0.77190  0.58012  1.0000
  H   H699      1.0  0.34605  0.93149  0.84482  1.0000
  C   C597      1.0  0.15320  0.76843  0.66344  1.0000
  C   C598      1.0  0.16125  0.77741  0.67216  1.0000
  C   C599      1.0  0.17692  0.78437  0.66378  1.0000
  C   C600      1.0  0.18442  0.78196  0.64621  1.0000
  C   C601      1.0  0.17625  0.77289  0.63734  1.0000
  H   H700      1.0  0.14112  0.76330  0.67043  1.0000
  H   H701      1.0  0.15516  0.77904  0.68563  1.0000
  H   H702      1.0  0.19657  0.78696  0.63951  1.0000
  S   S184      1.0  0.31834  0.93066  0.79342  1.0000
  H   H703      1.0  0.42644  0.79931  0.76034  1.0000
  H   H704      1.0  0.46434  0.90834  0.87525  1.0000
  C   C602      1.0  0.43933  0.80713  0.78682  1.0000
  H   H705      1.0  0.39539  0.90649  0.92208  1.0000
  H   H706      1.0  0.19884  0.82820  0.62389  1.0000
  H   H707      1.0  0.29741  0.96828  0.95855  1.0000
  C   C603      1.0  0.28441  0.93672  0.83814  1.0000
  C   C604      1.0  0.41017  0.85736  0.91499  1.0000
  H   H708      1.0  0.21258  0.94793  0.94961  1.0000
  H   H709      1.0  0.33141  0.91698  0.82829  1.0000
  H   H710      1.0  0.42845  0.81747  0.81140  1.0000
  C   C605      1.0  0.42856  0.77158  0.84506  1.0000
  C   C606      1.0  0.41341  0.77908  0.83736  1.0000
  C   C607      1.0  0.41258  0.77511  0.82123  1.0000
  H   H711      1.0  0.40221  0.78775  0.84395  1.0000
  H   H712      1.0  0.40056  0.78055  0.81570  1.0000
  H   H713      1.0  0.16074  0.85495  0.63981  1.0000
  C   C608      1.0  0.15496  0.84706  0.63385  1.0000
  C   C609      1.0  0.13191  0.88177  0.60372  1.0000
  H   H714      1.0  0.25633  0.80636  0.48456  1.0000
  H   H715      1.0  0.43577  0.85918  0.91949  1.0000
  H   H716      1.0  0.28681  0.76601  0.66846  1.0000
  H   H717      1.0  0.15756  0.89688  0.60802  1.0000
  H   H718      1.0  0.38486  0.88707  0.83148  1.0000
  H   H719      1.0  0.40158  0.88861  0.80042  1.0000
  N   N39       1.0  0.27754  0.95638  0.83435  1.0000
  C   C610      1.0  0.38660  0.93007  0.81042  1.0000
  H   H720      1.0  0.41487  0.84382  0.91241  1.0000
  C   C611      1.0  0.30264  0.78379  0.71915  1.0000
  C   C612      1.0  0.30582  0.98783  0.85277  1.0000
  C   C613      1.0  0.28256  0.98595  0.83798  1.0000
  S   S185      1.0  0.13393  0.74893  0.59077  1.0000
  H   H721      1.0  0.29453  0.90012  0.96046  1.0000
  N   N40       1.0  0.43911  0.94422  0.91988  1.0000
  H   H722      1.0  0.30244  0.95544  0.90741  1.0000
  C   C614      1.0  0.26314  0.82878  0.49058  1.0000
  Fe  Fe97      1.0  0.40681  0.95362  0.87182  1.0000
  H   H723      1.0  0.21233  0.81116  0.50146  1.0000
  H   H724      1.0  0.17169  0.86705  0.50322  1.0000
  C   C615      1.0  0.16051  0.76593  0.64598  1.0000
  H   H725      1.0  0.37821  0.90692  0.84097  1.0000
  H   H726      1.0  0.37990  0.96672  0.94686  1.0000
  H   H727      1.0  0.25625  0.95553  0.85742  1.0000
  S   S186      1.0  0.38049  0.94439  0.87684  1.0000
  H   H728      1.0  0.46386  0.92559  0.92354  1.0000
  N   N41       1.0  0.31188  0.76690  0.67548  1.0000
  H   H729      1.0  0.23860  0.87113  0.48696  1.0000
  C   C616      1.0  0.30565  0.96494  0.94628  1.0000
  C   C617      1.0  0.31085  0.77394  0.70570  1.0000
  C   C618      1.0  0.45362  0.93578  0.93015  1.0000
  C   C619      1.0  0.40679  0.95528  0.93492  1.0000
  H   H730      1.0  0.41316  0.93456  0.82129  1.0000
  C   C620      1.0  0.42199  0.86602  0.91904  1.0000
  C   C621      1.0  0.14678  0.81831  0.63639  1.0000
  H   H731      1.0  0.40419  0.81583  0.80187  1.0000
  H   H732      1.0  0.14598  0.80478  0.64360  1.0000
  C   C622      1.0  0.25747  0.90078  0.97464  1.0000
  C   C623      1.0  0.38068  0.90190  0.82838  1.0000
  N   N42       1.0  0.14996  0.87212  0.60718  1.0000
  H   H733      1.0  0.21101  0.91899  0.95741  1.0000
  H   H734      1.0  0.34488  0.97802  0.80314  1.0000
  H   H735      1.0  0.22183  0.96577  0.97364  1.0000
  H   H736      1.0  0.29382  0.96107  0.80824  1.0000
  C   C624      1.0  0.43190  0.92951  0.91658  1.0000
  C   C625      1.0  0.43010  0.97158  0.93395  1.0000
  H   H737      1.0  0.27529  0.82094  0.49502  1.0000
  H   H738      1.0  0.32600  0.78808  0.66070  1.0000
  C   C626      1.0  0.25814  0.95952  0.84269  1.0000
  C   C627      1.0  0.31674  0.77994  0.65897  1.0000
  H   H739      1.0  0.15887  0.82454  0.65541  1.0000
  H   H740      1.0  0.13555  0.81545  0.61512  1.0000
  C   C628      1.0  0.16244  0.87087  0.58996  1.0000
  C   C629      1.0  0.14180  0.84185  0.61103  1.0000
  H   H741      1.0  0.27716  0.92924  0.83267  1.0000
  C   C630      1.0  0.42527  0.95688  0.92963  1.0000
  Fe  Fe98      1.0  0.37171  0.96217  0.89707  1.0000
  N   N43       1.0  0.22067  0.89287  0.77662  1.0000
  C   C631      1.0  0.23975  0.89476  0.77352  1.0000
  C   C632      1.0  0.20902  0.91046  0.77896  1.0000
  C   C633      1.0  0.21709  0.87997  0.79359  1.0000
  C   C634      1.0  0.21737  0.88722  0.76121  1.0000
  C   C635      1.0  0.21142  0.87092  0.76263  1.0000
  C   C636      1.0  0.22028  0.89812  0.74405  1.0000
  C   C637      1.0  0.20861  0.86598  0.74773  1.0000
  C   C638      1.0  0.21747  0.89302  0.72926  1.0000
  C   C639      1.0  0.21164  0.87698  0.73111  1.0000
  H   H742      1.0  0.24367  0.90475  0.76145  1.0000
  H   H743      1.0  0.24274  0.89911  0.78476  1.0000
  H   H744      1.0  0.24891  0.88178  0.77188  1.0000
  H   H745      1.0  0.21222  0.92134  0.76748  1.0000
  H   H746      1.0  0.21079  0.91475  0.79085  1.0000
  H   H747      1.0  0.19454  0.90984  0.78062  1.0000
  H   H748      1.0  0.22608  0.86664  0.79299  1.0000
  H   H749      1.0  0.21975  0.88462  0.80485  1.0000
  H   H750      1.0  0.20278  0.87824  0.79712  1.0000
  H   H751      1.0  0.20925  0.86149  0.77496  1.0000
  H   H752      1.0  0.22520  0.91048  0.74183  1.0000
  H   H753      1.0  0.20480  0.85317  0.74888  1.0000
  H   H754      1.0  0.22034  0.90124  0.71619  1.0000
  H   H755      1.0  0.21012  0.87269  0.71954  1.0000
  N   N44       1.0  0.26078  0.83742  0.58838  1.0000
  C   C640      1.0  0.26618  0.82051  0.60077  1.0000
  C   C641      1.0  0.24431  0.83600  0.58286  1.0000
  C   C642      1.0  0.27551  0.83869  0.57255  1.0000
  C   C643      1.0  0.25707  0.85370  0.59621  1.0000
  C   C644      1.0  0.25183  0.87091  0.58592  1.0000
  C   C645      1.0  0.25771  0.85303  0.61420  1.0000
  C   C646      1.0  0.24732  0.88641  0.59322  1.0000
  C   C647      1.0  0.25317  0.86866  0.62133  1.0000
  C   C648      1.0  0.24794  0.88528  0.61090  1.0000
  H   H756      1.0  0.25537  0.81828  0.61265  1.0000
  H   H757      1.0  0.26898  0.80850  0.59453  1.0000
  H   H758      1.0  0.27867  0.82054  0.60535  1.0000
  H   H759      1.0  0.23256  0.83657  0.59403  1.0000
  H   H760      1.0  0.24598  0.82332  0.57799  1.0000
  H   H761      1.0  0.24073  0.84708  0.57182  1.0000
  H   H762      1.0  0.28795  0.84059  0.57597  1.0000
  H   H763      1.0  0.27890  0.82640  0.56663  1.0000
  H   H764      1.0  0.27180  0.85000  0.56173  1.0000
  H   H765      1.0  0.25062  0.87247  0.57228  1.0000
  H   H766      1.0  0.26137  0.84062  0.62319  1.0000
  H   H767      1.0  0.24270  0.89931  0.58528  1.0000
  H   H768      1.0  0.25322  0.86787  0.63519  1.0000
  H   H769      1.0  0.24383  0.89722  0.61672  1.0000
  N   N45       1.0  0.30302  0.84717  0.86838  1.0000
  C   C649      1.0  0.30689  0.84521  0.88631  1.0000
  C   C650      1.0  0.30877  0.82915  0.86349  1.0000
  C   C651      1.0  0.31420  0.85953  0.85588  1.0000
  C   C652      1.0  0.28381  0.85433  0.86737  1.0000
  C   C653      1.0  0.27101  0.86134  0.88139  1.0000
  C   C654      1.0  0.27756  0.85525  0.85164  1.0000
  C   C655      1.0  0.25309  0.86846  0.87976  1.0000
  C   C656      1.0  0.25960  0.86231  0.85019  1.0000
  C   C657      1.0  0.24737  0.86881  0.86425  1.0000
  H   H770      1.0  0.29864  0.83630  0.89645  1.0000
  H   H771      1.0  0.32131  0.83925  0.88679  1.0000
  H   H772      1.0  0.30432  0.85843  0.89034  1.0000
  H   H773      1.0  0.32303  0.82324  0.86472  1.0000
  H   H774      1.0  0.30828  0.82950  0.84952  1.0000
  H   H775      1.0  0.32884  0.85458  0.85591  1.0000
  H   H776      1.0  0.31256  0.86112  0.84201  1.0000
  H   H777      1.0  0.31043  0.87320  0.85920  1.0000
  H   H778      1.0  0.27450  0.86174  0.89370  1.0000
  H   H779      1.0  0.28661  0.85087  0.84015  1.0000
  H   H780      1.0  0.24363  0.87408  0.89045  1.0000
  H   H781      1.0  0.25523  0.86319  0.83791  1.0000
  H   H782      1.0  0.23357  0.87471  0.86288  1.0000
  N   N46       1.0  0.21649  0.78121  0.57938  1.0000
  C   C658      1.0  0.23604  0.77365  0.57535  1.0000
  C   C659      1.0  0.20669  0.76630  0.58807  1.0000
  C   C660      1.0  0.21090  0.78957  0.56215  1.0000
  C   C661      1.0  0.21213  0.79440  0.59121  1.0000
  C   C662      1.0  0.22375  0.79477  0.60248  1.0000
  C   C663      1.0  0.19538  0.80654  0.59266  1.0000
  C   C664      1.0  0.21898  0.80686  0.61405  1.0000
  C   C665      1.0  0.19095  0.81882  0.60399  1.0000
  C   C666      1.0  0.20266  0.81899  0.61473  1.0000
  H   H783      1.0  0.24095  0.76498  0.58714  1.0000
  H   H784      1.0  0.23924  0.76482  0.56541  1.0000
  H   H785      1.0  0.24412  0.78447  0.57002  1.0000
  H   H786      1.0  0.21072  0.75952  0.60097  1.0000
  C   C667      1.0  0.32859  0.75373  0.67853  1.0000
  H   H787      1.0  0.19182  0.77117  0.59084  1.0000
  H   H788      1.0  0.19614  0.79247  0.56346  1.0000
  H   H789      1.0  0.21585  0.80239  0.55640  1.0000
  H   H790      1.0  0.21581  0.78055  0.55232  1.0000
  H   H791      1.0  0.23643  0.78558  0.60290  1.0000
  H   H792      1.0  0.18539  0.80663  0.58524  1.0000
  H   H793      1.0  0.22785  0.80648  0.62284  1.0000
  H   H794      1.0  0.17820  0.82803  0.60459  1.0000
  S   S187      1.0  0.14941  0.75355  0.63642  1.0000
  H   H795      1.0  0.47957  0.77736  0.78111  1.0000
  S   S188      1.0  0.35877  0.95390  0.92554  1.0000
  C   C668      1.0  0.33445  0.93025  0.82268  1.0000
  C   C669      1.0  0.39402  0.96791  0.94350  1.0000
  C   C670      1.0  0.30623  0.89160  0.96500  1.0000
  H   H796      1.0  0.37138  0.92089  0.90972  1.0000
  H   H797      1.0  0.36359  0.91122  0.93256  1.0000
  C   C671      1.0  0.32976  0.93930  0.80622  1.0000
  H   H798      1.0  0.34045  0.88943  0.92462  1.0000
  C   C672      1.0  0.20120  0.95206  0.96027  1.0000
  C   C673      1.0  0.34281  0.93853  0.83212  1.0000
  H   H799      1.0  0.43874  0.81752  0.75069  1.0000
  H   H800      1.0  0.28076  0.79237  0.67811  1.0000
  C   C674      1.0  0.24248  0.85699  0.48617  1.0000
  H   H801      1.0  0.42584  0.89039  0.92427  1.0000
  S   S189      1.0  0.43456  0.93674  0.87033  1.0000
  H   H802      1.0  0.35645  0.86927  0.92255  1.0000
  H   H803      1.0  0.35570  0.88070  0.93990  1.0000
  H   H804      1.0  0.18215  0.77132  0.62386  1.0000
  H   H805      1.0  0.30475  0.87172  0.95079  1.0000
  H   H806      1.0  0.33073  0.85005  0.96090  1.0000
  C   C675      1.0  0.35456  0.88276  0.92579  1.0000
  H   H807      1.0  0.46109  0.94570  0.93164  1.0000
  C   C676      1.0  0.27921  0.79935  0.70284  1.0000
  C   C677      1.0  0.43631  0.91343  0.87349  1.0000
  H   H808      1.0  0.25152  0.97379  0.83958  1.0000
  C   C678      1.0  0.31052  0.96920  0.85618  1.0000
  H   H809      1.0  0.41541  0.87769  0.82405  1.0000
  H   H810      1.0  0.25621  0.91184  0.96361  1.0000
  C   C679      1.0  0.36273  0.91163  0.91862  1.0000
  H   H811      1.0  0.39538  0.82156  0.78206  1.0000
  H   H812      1.0  0.38310  0.93630  0.82239  1.0000
  H   H813      1.0  0.47852  0.78073  0.81166  1.0000
  C   C680      1.0  0.21094  0.91400  0.97136  1.0000
  H   H814      1.0  0.26694  0.80927  0.70178  1.0000
  N   N47       1.0  0.36783  0.89347  0.91409  1.0000
  H   H815      1.0  0.37628  0.90309  0.88618  1.0000
  H   H816      1.0  0.21683  0.88675  0.96708  1.0000
  H   H817      1.0  0.45434  0.96436  0.90361  1.0000
  C   C681      1.0  0.43589  0.91644  0.82920  1.0000
  H   H818      1.0  0.15609  0.85142  0.48923  1.0000
  H   H819      1.0  0.35256  0.90267  0.89304  1.0000
  C   C682      1.0  0.45300  0.90245  0.87540  1.0000
  C   C683      1.0  0.33381  0.95653  0.79950  1.0000
  H   H820      1.0  0.30857  0.78162  0.73076  1.0000
  H   H821      1.0  0.38430  0.85910  0.90964  1.0000
  H   H822      1.0  0.27358  0.95341  0.80909  1.0000
  H   H823      1.0  0.17609  0.86351  0.59197  1.0000
  C   C684      1.0  0.42722  0.76429  0.81230  1.0000
  H   H824      1.0  0.40886  0.91410  0.87195  1.0000
  H   H825      1.0  0.19819  0.96700  0.95699  1.0000
  C   C685      1.0  0.36621  0.89546  0.89539  1.0000
  C   C686      1.0  0.44267  0.75969  0.83679  1.0000
  H   H826      1.0  0.38448  0.90624  0.79292  1.0000
  H   H827      1.0  0.27245  0.97606  0.81081  1.0000
  S   S190      1.0  0.42660  0.76120  0.79114  1.0000
  C   C687      1.0  0.14878  0.85381  0.61753  1.0000
  H   H828      1.0  0.12184  0.88202  0.61634  1.0000
  C   C688      1.0  0.39878  0.89275  0.92025  1.0000
  C   C689      1.0  0.34204  0.96469  0.80880  1.0000
  C   C690      1.0  0.18521  0.88053  0.47835  1.0000
  C   C691      1.0  0.44480  0.89869  0.83275  1.0000
  H   H829      1.0  0.28300  0.93128  0.85263  1.0000
  C   C692      1.0  0.42080  0.88887  0.82514  1.0000
  C   C693      1.0  0.46837  0.78631  0.78751  1.0000
  C   C694      1.0  0.29902  0.75694  0.67264  1.0000
  C   C695      1.0  0.39714  0.90340  0.79822  1.0000
  C   C696      1.0  0.39268  0.86630  0.91343  1.0000
  H   H830      1.0  0.45541  0.79285  0.76562  1.0000
  C   C697      1.0  0.44212  0.75622  0.82030  1.0000
  H   H831      1.0  0.33041  0.96380  0.78692  1.0000
  C   C698      1.0  0.45341  0.79953  0.81304  1.0000
  C   C699      1.0  0.45431  0.79546  0.77868  1.0000
  C   C700      1.0  0.44716  0.95408  0.90241  1.0000
  H   H832      1.0  0.37392  0.93247  0.80524  1.0000
  C   C701      1.0  0.38635  0.88424  0.91616  1.0000
  H   H833      1.0  0.41471  0.82153  0.75336  1.0000
  H   H834      1.0  0.46828  0.87546  0.87819  1.0000
  C   C702      1.0  0.41723  0.98408  0.94261  1.0000
  C   C703      1.0  0.31506  0.89641  0.97653  1.0000
  C   C704      1.0  0.42171  0.90571  0.87362  1.0000
  H   H835      1.0  0.45285  0.80058  0.82660  1.0000
  H   H836      1.0  0.44156  0.92704  0.83135  1.0000
  S   S191      1.0  0.39976  0.97791  0.85126  1.0000
  H   H837      1.0  0.15778  0.86378  0.58172  1.0000
  H   H838      1.0  0.17046  0.87722  0.61860  1.0000
  H   H839      1.0  0.39603  0.93749  0.80001  1.0000
  H   H840      1.0  0.40757  0.90933  0.78769  1.0000
  N   N48       1.0  0.39429  0.91062  0.81464  1.0000
  C   C705      1.0  0.30144  0.95885  0.85039  1.0000
  H   H841      1.0  0.30021  0.92924  0.95933  1.0000
  H   H842      1.0  0.33063  0.96419  0.95407  1.0000
  H   H843      1.0  0.41321  0.84535  0.76873  1.0000
  H   H844      1.0  0.30610  0.94454  0.85319  1.0000
  C   C706      1.0  0.15396  0.82954  0.64304  1.0000
  H   H845      1.0  0.16396  0.88438  0.58182  1.0000
  C   C707      1.0  0.43718  0.88492  0.83092  1.0000
  C   C708      1.0  0.40691  0.81331  0.78815  1.0000
  C   C709      1.0  0.42625  0.81381  0.75970  1.0000
  H   H846      1.0  0.33139  0.92493  0.96670  1.0000
  C   C710      1.0  0.34668  0.95594  0.82519  1.0000
  C   C711      1.0  0.42400  0.83700  0.77582  1.0000
  H   H847      1.0  0.43713  0.84066  0.76843  1.0000
  C   C712      1.0  0.45524  0.88385  0.87702  1.0000
  Fe  Fe99      1.0  0.37238  0.96947  0.85744  1.0000
  S   S192      1.0  0.39880  0.96873  0.89400  1.0000
  C   C713      1.0  0.31198  0.87515  0.95936  1.0000
  H   H848      1.0  0.14763  0.88512  0.62914  1.0000
  N   N49       1.0  0.42447  0.81754  0.77768  1.0000
  H   H849      1.0  0.13220  0.89592  0.59675  1.0000
  C   C714      1.0  0.28720  0.96691  0.84100  1.0000
  H   H850      1.0  0.42613  0.92119  0.92918  1.0000
  C   C715      1.0  0.41149  0.90683  0.82104  1.0000
  H   H851      1.0  0.42119  0.84108  0.78890  1.0000
  H   H852      1.0  0.12682  0.87552  0.59508  1.0000
  H   H853      1.0  0.13746  0.84574  0.59842  1.0000
  H   H854      1.0  0.32163  0.96269  0.86295  1.0000
  H   H855      1.0  0.40163  0.94475  0.93210  1.0000
  H   H856      1.0  0.20939  0.75602  0.57965  1.0000
  C   C716      1.0  0.17365  0.86922  0.48892  1.0000
  H   H857      1.0  0.43665  0.96110  0.89445  1.0000
  H   H858      1.0  0.44799  0.92897  0.94371  1.0000
  H   H859      1.0  0.32302  0.76435  0.70771  1.0000
  H   H860      1.0  0.42138  0.93483  0.90829  1.0000
  H   H861      1.0  0.28057  0.80421  0.72805  1.0000
  H   H862      1.0  0.27636  0.75367  0.61352  1.0000
  C   C717      1.0  0.26162  0.88311  0.97187  1.0000
  H   H863      1.0  0.18914  0.94719  0.95933  1.0000
  H   H864      1.0  0.45436  0.75374  0.84279  1.0000
  C   C718      1.0  0.16483  0.86040  0.48099  1.0000
  C   C719      1.0  0.32653  0.86290  0.96513  1.0000
  H   H865      1.0  0.11056  0.74733  0.53722  1.0000
  H   H866      1.0  0.11785  0.74542  0.50542  1.0000
  S   S193      1.0  0.26314  0.75135  0.53422  1.0000
  H   H867      1.0  0.20875  0.79956  0.48584  1.0000
  C   C720      1.0  0.49406  0.74642  0.65694  1.0000
  H   H868      1.0  0.26683  0.97946  0.97372  1.0000
  H   H869      1.0  0.43386  0.74398  0.68327  1.0000
  H   H870      1.0  0.44811  0.74781  0.69640  1.0000
  C   C721      1.0  0.21863  0.80614  0.48890  1.0000
  C   C722      1.0  0.23565  0.83029  0.47962  1.0000
  C   C723      1.0  0.23139  0.84891  0.48016  1.0000
  H   H871      1.0  0.23040  0.79541  0.49154  1.0000
  C   C724      1.0  0.10252  0.74095  0.53195  1.0000
  S   S194      1.0  0.24064  0.74509  0.62084  1.0000
  S   S195      1.0  0.28030  0.74855  0.57903  1.0000
  H   H872      1.0  0.19249  0.74319  0.66461  1.0000
  C   C725      1.0  0.49200  0.74555  0.64015  1.0000
  H   H873      1.0  0.20421  0.74234  0.63402  1.0000
  H   H874      1.0  0.48440  0.74084  0.68469  1.0000
  C   C726      1.0  0.29524  0.92644  0.97393  1.0000
  H   H875      1.0  0.32583  0.74293  0.69029  1.0000
  H   H876      1.0  0.40065  0.74256  0.73320  1.0000
  H   H877      1.0  0.30522  0.74893  0.66203  1.0000
  H   H878      1.0  0.33467  0.74679  0.66710  1.0000
  Fe  Fe100     1.0  0.45027  0.74187  0.77948  1.0000
  S   S196      1.0  0.45645  0.74062  0.75049  1.0000
  H   H879      1.0  0.28242  0.92151  0.97657  1.0000
  C   C727      1.0  0.48231  0.73957  0.67205  1.0000
  C   C728      1.0  0.33535  0.86704  0.97665  1.0000
  C   C729      1.0  0.21421  0.89532  0.97676  1.0000
  C   C730      1.0  0.10662  0.73980  0.51408  1.0000
  C   C731      1.0  0.22284  0.95097  0.97788  1.0000
  S   S197      1.0  0.91051  0.20826  0.23988  1.0000
  H   H880      1.0  0.90226  0.23300  0.17848  1.0000
  H   H881      1.0  0.92576  0.07314  0.30397  1.0000
  S   S198      1.0  0.95504  0.09934  0.25551  1.0000
  Fe  Fe101     1.0  0.93677  0.11207  0.27730  1.0000
  S   S199      1.0  0.90788  0.10919  0.28462  1.0000
  H   H882      1.0  0.95710  0.19889  0.26487  1.0000
  S   S200      1.0  0.79366  0.22084  0.06927  1.0000
  H   H883      1.0  0.50330  0.12836  0.99043  1.0000
  Fe  Fe102     1.0  0.91724  0.14628  0.16401  1.0000
  S   S201      1.0  0.89721  0.12824  0.17002  1.0000
  S   S202      1.0  0.94627  0.13309  0.15801  1.0000
  Fe  Fe103     1.0  0.88156  0.15058  0.15310  1.0000
  Fe  Fe104     1.0  0.88337  0.14283  0.19213  1.0000
  S   S203      1.0  0.87060  0.12775  0.21808  1.0000
  S   S204      1.0  0.90502  0.15883  0.18784  1.0000
  H   H884      1.0  0.95567  0.06155  0.28720  1.0000
  C   C732      1.0  0.50259  0.08841  0.06238  1.0000
  N   N50       1.0  0.93496  0.13883  0.10384  1.0000
  C   C733      1.0  0.94977  0.20291  0.16307  1.0000
  H   H885      1.0  0.94019  0.17074  0.14145  1.0000
  H   H886      1.0  0.92837  0.02498  0.34297  1.0000
  N   N51       1.0  0.96240  0.00710  0.32741  1.0000
  C   C734      1.0  0.66364  0.18402  0.07121  1.0000
  C   C735      1.0  0.74606  0.20497  0.07643  1.0000
  N   N52       1.0  0.94255  0.09546  0.20529  1.0000
  H   H887      1.0  0.86784  0.19170  0.28591  1.0000
  C   C736      1.0  0.73211  0.20959  0.06679  1.0000
  H   H888      1.0  0.53106  0.06511  0.00545  1.0000
  H   H889      1.0  0.70329  0.23606  0.16570  1.0000
  C   C737      1.0  0.93301  0.05986  0.30876  1.0000
  S   S205      1.0  0.61221  0.20127  0.09305  1.0000
  H   H890      1.0  0.58007  0.21769  0.05832  1.0000
  S   S206      1.0  0.97422  0.14081  0.30260  1.0000
  C   C738      1.0  0.98578  0.17019  0.23373  1.0000
  H   H891      1.0  0.83450  0.23343  0.12176  1.0000
  S   S207      1.0  0.92989  0.23674  0.26267  1.0000
  H   H892      1.0  0.97243  0.03194  0.29771  1.0000
  Fe  Fe105     1.0  0.56270  0.16105  0.03231  1.0000
  S   S208      1.0  0.53631  0.17621  0.04471  1.0000
  S   S209      1.0  0.58868  0.16908  0.03537  1.0000
  Fe  Fe106     1.0  0.52697  0.14985  0.05091  1.0000
  C   C739      1.0  0.93919  0.22489  0.13174  1.0000
  Fe  Fe107     1.0  0.52838  0.17938  0.01851  1.0000
  Fe  Fe108     1.0  0.92768  0.22836  0.23818  1.0000
  S   S210      1.0  0.55358  0.13411  0.03966  1.0000
  C   C740      1.0  0.92557  0.04939  0.32443  1.0000
  H   H893      1.0  0.96336  0.13875  0.09375  1.0000
  C   C741      1.0  0.85286  0.18562  0.08829  1.0000
  C   C742      1.0  0.91702  0.18947  0.29863  1.0000
  S   S211      1.0  0.54142  0.12009  0.99739  1.0000
  S   S212      1.0  0.90271  0.16770  0.14531  1.0000
  C   C743      1.0  0.89934  0.22295  0.19024  1.0000
  H   H894      1.0  0.91850  0.13420  0.08734  1.0000
  C   C744      1.0  0.85101  0.18967  0.10504  1.0000
  H   H895      1.0  0.98342  0.15717  0.23229  1.0000
  H   H896      1.0  0.92479  0.13504  0.13193  1.0000
  C   C745      1.0  0.57175  0.22870  0.05120  1.0000
  H   H897      1.0  0.52401  0.17113  0.99087  1.0000
  Fe  Fe109     1.0  0.54252  0.14061  0.01419  1.0000
  C   C746      1.0  0.60564  0.19292  0.07656  1.0000
  C   C747      1.0  0.61511  0.19415  0.05898  1.0000
  C   C748      1.0  0.60952  0.18711  0.04663  1.0000
  C   C749      1.0  0.59423  0.17888  0.05140  1.0000
  C   C750      1.0  0.58455  0.17796  0.06889  1.0000
  C   C751      1.0  0.59031  0.18475  0.08134  1.0000
  H   H898      1.0  0.62685  0.20038  0.05484  1.0000
  H   H899      1.0  0.61723  0.18789  0.03323  1.0000
  H   H900      1.0  0.57286  0.17160  0.07295  1.0000
  H   H901      1.0  0.58279  0.18361  0.09482  1.0000
  H   H902      1.0  0.95381  0.16606  0.10313  1.0000
  C   C752      1.0  0.90220  0.20951  0.22071  1.0000
  C   C753      1.0  0.51501  0.18035  0.98304  1.0000
  S   S213      1.0  0.65657  0.21428  0.10457  1.0000
  S   S214      1.0  0.75977  0.19274  0.10688  1.0000
  H   H903      1.0  0.52684  0.08305  0.02800  1.0000
  C   C754      1.0  0.89791  0.16120  0.26430  1.0000
  C   C755      1.0  0.96103  0.14774  0.14673  1.0000
  C   C756      1.0  0.98923  0.06663  0.22747  1.0000
  Fe  Fe110     1.0  0.63186  0.21996  0.09201  1.0000
  C   C757      1.0  0.91609  0.19626  0.09629  1.0000
  H   H904      1.0  0.57861  0.22559  0.08433  1.0000
  C   C758      1.0  0.96664  0.17707  0.13059  1.0000
  H   H905      1.0  0.91125  0.21064  0.09431  1.0000
  H   H906      1.0  0.93824  0.11753  0.08947  1.0000
  C   C759      1.0  0.95452  0.16566  0.13980  1.0000
  H   H907      1.0  0.95294  0.99506  0.31036  1.0000
  H   H908      1.0  0.94233  0.21380  0.19366  1.0000
  H   H909      1.0  0.95650  0.13674  0.11754  1.0000
  H   H910      1.0  0.96578  0.21342  0.18505  1.0000
  C   C760      1.0  0.50279  0.06652  0.00727  1.0000
  C   C761      1.0  0.62776  0.14385  0.06010  1.0000
  C   C762      1.0  0.96580  0.99608  0.31360  1.0000
  H   H911      1.0  0.66640  0.17205  0.10508  1.0000
  C   C763      1.0  0.97593  0.08868  0.20478  1.0000
  N   N53       1.0  0.66286  0.16550  0.08116  1.0000
  Fe  Fe111     1.0  0.96524  0.12508  0.24710  1.0000
  H   H912      1.0  0.86476  0.18275  0.26805  1.0000
  H   H913      1.0  0.94040  0.11795  0.21752  1.0000
  C   C764      1.0  0.99105  0.07956  0.21201  1.0000
  C   C765      1.0  0.97235  0.06243  0.23551  1.0000
  H   H914      1.0  0.94248  0.19803  0.09901  1.0000
  C   C766      1.0  0.97720  0.19948  0.27930  1.0000
  N   N54       1.0  0.95529  0.19226  0.17971  1.0000
  H   H915      1.0  0.74939  0.22910  0.15798  1.0000
  H   H916      1.0  0.91250  0.05465  0.33178  1.0000
  C   C767      1.0  0.99103  0.13362  0.18731  1.0000
  C   C768      1.0  0.92510  0.09083  0.21579  1.0000
  C   C769      1.0  0.89802  0.11430  0.26581  1.0000
  C   C770      1.0  0.88082  0.11075  0.26754  1.0000
  C   C771      1.0  0.87259  0.11496  0.25276  1.0000
  C   C772      1.0  0.88133  0.12307  0.23626  1.0000
  C   C773      1.0  0.89842  0.12697  0.23456  1.0000
  C   C774      1.0  0.90692  0.12230  0.24927  1.0000
  H   H917      1.0  0.87390  0.10458  0.28028  1.0000
  H   H918      1.0  0.85936  0.11193  0.25413  1.0000
  H   H919      1.0  0.90509  0.13349  0.22193  1.0000
  H   H920      1.0  0.92016  0.12524  0.24788  1.0000
  Fe  Fe112     1.0  0.79671  0.23359  0.11280  1.0000
  H   H921      1.0  0.88231  0.19479  0.26430  1.0000
  H   H922      1.0  0.88982  0.18631  0.23198  1.0000
  H   H923      1.0  0.94012  0.13928  0.07581  1.0000
  S   S215      1.0  0.55509  0.16562  0.00530  1.0000
  H   H924      1.0  0.85621  0.21954  0.12270  1.0000
  N   N55       1.0  0.80661  0.15033  0.12944  1.0000
  C   C775      1.0  0.79031  0.14198  0.13416  1.0000
  C   C776      1.0  0.80857  0.15962  0.11064  1.0000
  C   C777      1.0  0.82249  0.13556  0.13106  1.0000
  C   C778      1.0  0.80482  0.16360  0.14074  1.0000
  C   C779      1.0  0.78890  0.17684  0.14306  1.0000
  C   C780      1.0  0.81901  0.16452  0.14885  1.0000
  C   C781      1.0  0.78736  0.19020  0.15270  1.0000
  C   C782      1.0  0.81728  0.17791  0.15853  1.0000
  C   C783      1.0  0.80155  0.19079  0.16035  1.0000
  C   C784      1.0  0.89017  0.20961  0.18986  1.0000
  C   C785      1.0  0.64359  0.14865  0.04944  1.0000
  H   H925      1.0  0.77817  0.15161  0.13045  1.0000
  H   H926      1.0  0.79651  0.17010  0.10818  1.0000
  H   H927      1.0  0.81037  0.15018  0.10151  1.0000
  H   H928      1.0  0.82047  0.16640  0.10660  1.0000
  H   H929      1.0  0.82234  0.12868  0.14512  1.0000
  H   H930      1.0  0.82300  0.12522  0.12328  1.0000
  H   H931      1.0  0.83539  0.14055  0.12575  1.0000
  H   H932      1.0  0.77782  0.17757  0.13670  1.0000
  H   H933      1.0  0.83173  0.15522  0.14770  1.0000
  H   H934      1.0  0.77532  0.20052  0.15370  1.0000
  H   H935      1.0  0.82833  0.17843  0.16445  1.0000
  H   H936      1.0  0.80043  0.20145  0.16743  1.0000
  H   H937      1.0  0.88901  0.15906  0.25613  1.0000
  H   H938      1.0  0.91523  0.21338  0.14003  1.0000
  H   H939      1.0  0.93268  0.09948  0.18109  1.0000
  H   H940      1.0  0.88367  0.14118  0.29358  1.0000
  H   H941      1.0  0.87916  0.18647  0.20496  1.0000
  C   C786      1.0  0.97997  0.00878  0.33051  1.0000
  H   H942      1.0  0.90680  0.17054  0.25582  1.0000
  C   C787      1.0  0.87506  0.18511  0.27450  1.0000
  C   C788      1.0  0.87596  0.15511  0.29107  1.0000
  H   H943      1.0  0.95082  0.00426  0.35533  1.0000
  H   H944      1.0  0.98760  0.99558  0.33625  1.0000
  C   C789      1.0  0.65693  0.16640  0.10029  1.0000
  C   C790      1.0  0.90476  0.18484  0.09618  1.0000
  C   C791      1.0  0.96434  0.17334  0.28157  1.0000
  C   C792      1.0  0.95212  0.02517  0.32132  1.0000
  C   C793      1.0  0.95930  0.03626  0.30545  1.0000
  C   C794      1.0  0.93491  0.03229  0.33071  1.0000
  H   H945      1.0  0.51946  0.10986  0.03560  1.0000
  H   H946      1.0  0.64993  0.19251  0.07254  1.0000
  H   H947      1.0  0.97994  0.14104  0.18094  1.0000
  C   C795      1.0  0.68135  0.15457  0.07878  1.0000
  H   H948      1.0  0.65610  0.15287  0.10864  1.0000
  Fe  Fe113     1.0  0.95948  0.23314  0.25161  1.0000
  H   H949      1.0  0.68123  0.14030  0.08537  1.0000
  H   H950      1.0  0.68766  0.15481  0.06458  1.0000
  H   H951      1.0  0.50025  0.12179  0.02627  1.0000
  H   H952      1.0  0.97104  0.05254  0.24771  1.0000
  C   C796      1.0  0.94983  0.05329  0.29930  1.0000
  S   S216      1.0  0.64610  0.23141  0.06520  1.0000
  H   H953      1.0  0.60377  0.23024  0.05902  1.0000
  C   C797      1.0  0.52930  0.11102  0.98565  1.0000
  C   C798      1.0  0.92608  0.17445  0.30862  1.0000
  H   H954      1.0  0.66689  0.15937  0.04746  1.0000
  S   S217      1.0  0.95568  0.10138  0.29631  1.0000
  H   H955      1.0  0.64353  0.17537  0.10290  1.0000
  C   C799      1.0  0.91096  0.16629  0.09872  1.0000
  C   C800      1.0  0.91025  0.15550  0.30013  1.0000
  H   H956      1.0  0.86534  0.15417  0.28420  1.0000
  C   C801      1.0  0.92288  0.15748  0.30918  1.0000
  S   S218      1.0  0.86568  0.16380  0.17574  1.0000
  H   H957      1.0  0.94768  0.17172  0.20222  1.0000
  C   C802      1.0  0.96536  0.19137  0.27437  1.0000
  H   H958      1.0  0.97369  0.21511  0.15362  1.0000
  H   H959      1.0  0.90680  0.14812  0.26792  1.0000
  H   H960      1.0  0.90890  0.14195  0.30040  1.0000
  H   H961      1.0  0.50091  0.09669  0.07262  1.0000
  C   C803      1.0  0.51494  0.08036  0.02506  1.0000
  C   C804      1.0  0.90540  0.22286  0.20566  1.0000
  H   H962      1.0  0.79200  0.13081  0.12702  1.0000
  H   H963      1.0  0.97442  0.00165  0.30109  1.0000
  C   C805      1.0  0.94301  0.17978  0.18997  1.0000
  H   H964      1.0  0.92828  0.11526  0.12282  1.0000
  C   C806      1.0  0.97478  0.16354  0.29404  1.0000
  H   H965      1.0  0.56413  0.21069  0.03856  1.0000
  S   S219      1.0  0.87124  0.14176  0.13299  1.0000
  H   H966      1.0  0.98126  0.07252  0.30878  1.0000
  Fe  Fe114     1.0  0.96597  0.12707  0.28471  1.0000
  H   H967      1.0  0.95870  0.19733  0.20423  1.0000
  S   S220      1.0  0.88460  0.20814  0.17006  1.0000
  C   C807      1.0  0.92386  0.13011  0.12014  1.0000
  C   C808      1.0  0.94004  0.17059  0.10126  1.0000
  H   H968      1.0  0.75983  0.20524  0.06956  1.0000
  H   H969      1.0  0.69660  0.20405  0.10093  1.0000
  H   H970      1.0  0.95529  0.16712  0.27759  1.0000
  H   H971      1.0  0.87160  0.14132  0.09704  1.0000
  H   H972      1.0  0.82822  0.23016  0.15535  1.0000
  H   H973      1.0  0.89108  0.19035  0.09412  1.0000
  C   C809      1.0  0.86458  0.15897  0.11589  1.0000
  C   C810      1.0  0.97961  0.14121  0.14426  1.0000
  C   C811      1.0  0.62324  0.14588  0.07772  1.0000
  S   S221      1.0  0.51576  0.15495  0.02635  1.0000
  H   H974      1.0  0.91341  0.09927  0.21001  1.0000
  Fe  Fe115     1.0  0.88842  0.17882  0.16973  1.0000
  H   H975      1.0  0.84476  0.20303  0.10730  1.0000
  C   C812      1.0  0.90025  0.17059  0.29034  1.0000
  N   N56       1.0  0.88743  0.16818  0.28027  1.0000
  H   H976      1.0  0.86924  0.15890  0.30410  1.0000
  C   C813      1.0  0.86606  0.15486  0.09925  1.0000
  C   C814      1.0  0.90438  0.18765  0.28948  1.0000
  C   C815      1.0  0.89255  0.19655  0.22041  1.0000
  C   C816      1.0  0.95415  0.13292  0.10569  1.0000
  C   C817      1.0  0.88657  0.19659  0.20504  1.0000
  H   H977      1.0  0.89839  0.19976  0.28145  1.0000
  C   C818      1.0  0.92880  0.15856  0.10128  1.0000
  H   H978      1.0  0.97804  0.09880  0.19291  1.0000
  C   C819      1.0  0.85726  0.17643  0.11877  1.0000
  H   H979      1.0  0.85592  0.17958  0.13169  1.0000
  H   H980      1.0  0.86191  0.16512  0.07244  1.0000
  S   S222      1.0  0.84505  0.20195  0.07110  1.0000
  H   H981      1.0  0.95839  0.11806  0.10756  1.0000
  C   C820      1.0  0.86061  0.16827  0.08535  1.0000
  H   H982      1.0  0.78721  0.13655  0.14865  1.0000
  C   C821      1.0  0.93287  0.13219  0.08846  1.0000
  C   C822      1.0  0.71035  0.20425  0.09404  1.0000
  S   S223      1.0  0.51267  0.13786  0.07776  1.0000
  H   H983      1.0  0.95323  0.12008  0.19535  1.0000
  C   C823      1.0  0.72440  0.19893  0.10363  1.0000
  C   C824      1.0  0.71423  0.20943  0.07558  1.0000
  C   C825      1.0  0.94138  0.11493  0.20421  1.0000
  H   H984      1.0  0.69058  0.15969  0.08442  1.0000
  S   S224      1.0  0.95755  0.22163  0.22892  1.0000
  Fe  Fe116     1.0  0.81787  0.21698  0.08159  1.0000
  H   H985      1.0  0.96166  0.19090  0.12518  1.0000
  S   S225      1.0  0.80437  0.20540  0.10870  1.0000
  C   C826      1.0  0.74225  0.19942  0.09484  1.0000
  C   C827      1.0  0.84876  0.23364  0.12191  1.0000
  H   H986      1.0  0.54466  0.23486  0.02145  1.0000
  H   H987      1.0  0.98838  0.23653  0.15695  1.0000
  H   H988      1.0  0.98038  0.17133  0.24776  1.0000
  Fe  Fe117     1.0  0.77961  0.21141  0.09703  1.0000
  H   H989      1.0  0.90935  0.13276  0.11939  1.0000
  C   C828      1.0  0.96085  0.21440  0.15113  1.0000
  H   H990      1.0  0.50123  0.18526  0.07148  1.0000
  H   H991      1.0  0.90159  0.15800  0.09875  1.0000
  S   S226      1.0  0.98698  0.11601  0.26323  1.0000
  C   C829      1.0  0.93367  0.18914  0.09888  1.0000
  C   C830      1.0  0.65497  0.15550  0.05637  1.0000
  H   H992      1.0  0.68836  0.22632  0.14700  1.0000
  C   C831      1.0  0.95560  0.20469  0.19115  1.0000
  H   H993      1.0  0.72360  0.23898  0.18042  1.0000
  H   H994      1.0  0.64677  0.14745  0.03561  1.0000
  H   H995      1.0  0.97761  0.17223  0.18795  1.0000
  H   H996      1.0  0.93620  0.17583  0.31532  1.0000
  H   H997      1.0  0.94595  0.07757  0.18731  1.0000
  H   H998      1.0  0.73520  0.21346  0.05250  1.0000
  Fe  Fe118     1.0  0.66994  0.22745  0.07790  1.0000
  C   C832      1.0  0.63446  0.15280  0.08479  1.0000
  C   C833      1.0  0.93314  0.20282  0.15855  1.0000
  H   H999      1.0  0.92018  0.20256  0.29756  1.0000
  H   H1000     1.0  0.93068  0.14574  0.31623  1.0000
  H   H1001     1.0  0.72142  0.19470  0.11789  1.0000
  C   C834      1.0  0.98619  0.17182  0.29939  1.0000
  H   H1002     1.0  0.97426  0.17274  0.16615  1.0000
  H   H1003     1.0  0.92446  0.07662  0.21628  1.0000
  C   C835      1.0  0.98848  0.12924  0.20575  1.0000
  H   H1004     1.0  0.67238  0.19045  0.07614  1.0000
  C   C836      1.0  0.97362  0.18129  0.17580  1.0000
  H   H1005     1.0  0.97816  0.01805  0.33984  1.0000
  H   H1006     1.0  0.92380  0.19453  0.16675  1.0000
  C   C837      1.0  0.92802  0.21366  0.14309  1.0000
  H   H1007     1.0  0.98471  0.12728  0.14940  1.0000
  H   H1008     1.0  0.50222  0.12363  0.04811  1.0000
  H   H1009     1.0  0.92275  0.09316  0.22959  1.0000
  H   H1010     1.0  0.98421  0.18958  0.17011  1.0000
  C   C838      1.0  0.95711  0.07139  0.22834  1.0000
  H   H1011     1.0  0.91278  0.23295  0.20575  1.0000
  C   C839      1.0  0.95841  0.08512  0.21290  1.0000
  H   H1012     1.0  0.61057  0.14270  0.08576  1.0000
  H   H1013     1.0  0.62972  0.15463  0.09835  1.0000
  H   H1014     1.0  0.94227  0.17001  0.18203  1.0000
  S   S227      1.0  0.96773  0.13756  0.21827  1.0000
  C   C840      1.0  0.98523  0.17075  0.12892  1.0000
  H   H1015     1.0  0.61863  0.13914  0.05451  1.0000
  H   H1016     1.0  0.92919  0.18714  0.19452  1.0000
  H   H1017     1.0  0.94443  0.06769  0.23546  1.0000
  H   H1018     1.0  0.97747  0.18115  0.22571  1.0000
  S   S228      1.0  0.94527  0.13872  0.26755  1.0000
  H   H1019     1.0  0.92948  0.12311  0.19874  1.0000
  S   S229      1.0  0.69697  0.21583  0.06320  1.0000
  S   S230      1.0  0.51356  0.20444  0.00370  1.0000
  S   S231      1.0  0.97949  0.22157  0.26937  1.0000
  Fe  Fe119     1.0  0.97511  0.09115  0.27339  1.0000
  C   C841      1.0  0.65078  0.15778  0.07429  1.0000
  H   H1020     1.0  0.95651  0.09678  0.17803  1.0000
  C   C842      1.0  0.94451  0.09212  0.18718  1.0000
  C   C843      1.0  0.56263  0.22456  0.03988  1.0000
  H   H1021     1.0  0.66918  0.18458  0.05683  1.0000
  C   C844      1.0  0.99170  0.15277  0.13556  1.0000
  C   C845      1.0  0.98757  0.18973  0.29186  1.0000
  C   C846      1.0  0.51753  0.06999  0.01214  1.0000
  C   C847      1.0  0.95562  0.22520  0.13572  1.0000
  H   H1022     1.0  0.84964  0.21496  0.15359  1.0000
  H   H1023     1.0  0.87754  0.22748  0.13561  1.0000
  C   C848      1.0  0.51099  0.11723  0.98425  1.0000
  C   C849      1.0  0.95304  0.99711  0.34414  1.0000
  H   H1024     1.0  0.96445  0.23376  0.12682  1.0000
  H   H1025     1.0  0.98887  0.01398  0.31808  1.0000
  C   C850      1.0  0.50835  0.19785  0.98606  1.0000
  C   C851      1.0  0.69939  0.23348  0.14097  1.0000
  C   C852      1.0  0.50458  0.11421  0.03884  1.0000
  H   H1026     1.0  0.84571  0.23238  0.16561  1.0000
  H   H1027     1.0  0.69718  0.23324  0.11447  1.0000
  H   H1028     1.0  0.50484  0.05907  0.99675  1.0000
  H   H1029     1.0  0.51729  0.08319  0.05877  1.0000
  H   H1030     1.0  0.93517  0.23330  0.11980  1.0000
  S   S232      1.0  0.99328  0.06418  0.27337  1.0000
  C   C853      1.0  0.84304  0.22926  0.15358  1.0000
  H   H1031     1.0  0.99428  0.16427  0.30906  1.0000
  C   C854      1.0  0.70427  0.23747  0.12257  1.0000
  H   H1032     1.0  0.99035  0.05704  0.33732  1.0000
  C   C855      1.0  0.55172  0.23816  0.03021  1.0000
  C   C856      1.0  0.99161  0.06065  0.30917  1.0000
  C   C857      1.0  0.49738  0.08751  0.03361  1.0000
  H   H1033     1.0  0.55284  0.09153  0.97824  1.0000
  S   S233      1.0  0.77071  0.23883  0.10340  1.0000
  H   H1034     1.0  0.88443  0.23854  0.40265  1.0000
  C   C858      1.0  0.70804  0.23935  0.15158  1.0000
  C   C859      1.0  0.99583  0.23217  0.16761  1.0000
  H   H1035     1.0  0.93991  0.99483  0.34266  1.0000
  H   H1036     1.0  0.90790  0.23932  0.40027  1.0000
  C   C860      1.0  0.98923  0.23910  0.18320  1.0000
  H   H1037     1.0  0.99423  0.23943  0.20875  1.0000
  H   H1038     1.0  0.55827  0.23582  0.92282  1.0000
  H   H1039     1.0  0.51529  0.16419  0.91365  1.0000
  H   H1040     1.0  0.51494  0.16079  0.96795  1.0000
  C   C861      1.0  0.51948  0.13911  0.87186  1.0000
  H   H1041     1.0  0.55010  0.23326  0.95495  1.0000
  C   C862      1.0  0.53443  0.12153  0.92924  1.0000
  H   H1042     1.0  0.53896  0.15386  0.90952  1.0000
  C   C863      1.0  0.53050  0.08837  0.96821  1.0000
  C   C864      1.0  0.51237  0.09438  0.96666  1.0000
  C   C865      1.0  0.52575  0.15298  0.91864  1.0000
  H   H1043     1.0  0.54793  0.12067  0.92037  1.0000
  H   H1044     1.0  0.51331  0.22640  0.93610  1.0000
  H   H1045     1.0  0.53595  0.21803  0.95507  1.0000
  C   C866      1.0  0.50997  0.17450  0.96987  1.0000
  C   C867      1.0  0.51636  0.11386  0.90342  1.0000
  H   H1046     1.0  0.50306  0.13895  0.94561  1.0000
  C   C868      1.0  0.51663  0.12212  0.87192  1.0000
  H   H1047     1.0  0.53835  0.07723  0.96211  1.0000
  N   N57       1.0  0.52072  0.13525  0.92073  1.0000
  C   C869      1.0  0.52096  0.14355  0.88753  1.0000
  H   H1048     1.0  0.52691  0.15559  0.93156  1.0000
  H   H1049     1.0  0.54261  0.22342  0.92094  1.0000
  C   C870      1.0  0.51504  0.10954  0.88767  1.0000
  H   H1050     1.0  0.52001  0.14908  0.85970  1.0000
  C   C871      1.0  0.51962  0.13093  0.90381  1.0000
  H   H1051     1.0  0.51493  0.11893  0.85987  1.0000
  C   C872      1.0  0.50260  0.10895  0.97481  1.0000
  H   H1052     1.0  0.52275  0.15708  0.88655  1.0000
  H   H1053     1.0  0.53103  0.10792  0.93271  1.0000
  H   H1054     1.0  0.51218  0.09657  0.88775  1.0000
  H   H1055     1.0  0.53567  0.12457  0.94194  1.0000
  H   H1056     1.0  0.51441  0.10383  0.91540  1.0000
  C   C873      1.0  0.54398  0.23700  0.92198  1.0000
  C   C874      1.0  0.53627  0.23247  0.95396  1.0000
  H   H1057     1.0  0.52687  0.23690  0.96582  1.0000
  S   S234      1.0  0.50345  0.08322  0.95387  1.0000
  C   C875      1.0  0.50293  0.13537  0.93282  1.0000
  H   H1058     1.0  0.49881  0.12207  0.93611  1.0000
  C   C876      1.0  0.49842  0.18622  0.95939  1.0000
  C   C877      1.0  0.49712  0.20978  0.97529  1.0000
  C   C878      1.0  0.53881  0.09658  0.97740  1.0000
  C   C879      1.0  0.83957  0.28807  0.38088  1.0000
  H   H1059     1.0  0.76064  0.35247  0.02661  1.0000
  H   H1060     1.0  0.83910  0.32441  0.36365  1.0000
  H   H1061     1.0  0.84606  0.34466  0.35110  1.0000
  C   C880      1.0  0.55914  0.26022  0.04306  1.0000
  H   H1062     1.0  0.70406  0.29744  0.06347  1.0000
  N   N58       1.0  0.62701  0.36816  0.00904  1.0000
  C   C881      1.0  0.85154  0.38394  0.37976  1.0000
  H   H1063     1.0  0.73935  0.27402  0.04512  1.0000
  C   C882      1.0  0.69512  0.28009  0.04207  1.0000
  H   H1064     1.0  0.74016  0.27911  0.15699  1.0000
  H   H1065     1.0  0.58176  0.27812  0.05324  1.0000
  C   C883      1.0  0.75834  0.28785  0.06776  1.0000
  S   S235      1.0  0.65270  0.25046  0.13553  1.0000
  H   H1066     1.0  0.98587  0.32242  0.32166  1.0000
  C   C884      1.0  0.75532  0.41083  0.47318  1.0000
  C   C885      1.0  0.68031  0.39292  0.99707  1.0000
  H   H1067     1.0  0.65155  0.29802  0.02155  1.0000
  H   H1068     1.0  0.81326  0.46721  0.42303  1.0000
  C   C886      1.0  0.90437  0.27510  0.38810  1.0000
  S   S236      1.0  0.73529  0.47068  0.47294  1.0000
  H   H1069     1.0  0.94808  0.29568  0.31222  1.0000
  H   H1070     1.0  0.84456  0.26179  0.16239  1.0000
  H   H1071     1.0  0.72971  0.44746  0.45199  1.0000
  H   H1072     1.0  0.73742  0.26030  0.11840  1.0000
  C   C887      1.0  0.74217  0.44747  0.47358  1.0000
  S   S237      1.0  0.62238  0.28006  0.05733  1.0000
  Fe  Fe120     1.0  0.69182  0.34159  0.07219  1.0000
  S   S238      1.0  0.66852  0.36055  0.08433  1.0000
  S   S239      1.0  0.70557  0.32051  0.09180  1.0000
  Fe  Fe121     1.0  0.68827  0.36063  0.03463  1.0000
  S   S240      1.0  0.66513  0.38166  0.04390  1.0000
  H   H1073     1.0  0.97310  0.25381  0.31003  1.0000
  Fe  Fe122     1.0  0.68119  0.38156  0.06403  1.0000
  S   S241      1.0  0.68374  0.40582  0.07307  1.0000
  Fe  Fe123     1.0  0.65488  0.35859  0.06324  1.0000
  S   S242      1.0  0.62572  0.35670  0.06746  1.0000
  S   S243      1.0  0.70549  0.36268  0.05302  1.0000
  S   S244      1.0  0.67703  0.33746  0.05283  1.0000
  Fe  Fe124     1.0  0.74249  0.32850  0.15258  1.0000
  S   S245      1.0  0.73587  0.30901  0.17788  1.0000
  S   S246      1.0  0.76613  0.32300  0.13085  1.0000
  Fe  Fe125     1.0  0.70869  0.35537  0.16111  1.0000
  S   S247      1.0  0.69964  0.33793  0.18719  1.0000
  S   S248      1.0  0.69217  0.38271  0.15323  1.0000
  Fe  Fe126     1.0  0.72870  0.33383  0.19047  1.0000
  S   S249      1.0  0.73844  0.33514  0.21567  1.0000
  Fe  Fe127     1.0  0.70776  0.31528  0.17160  1.0000
  S   S250      1.0  0.68949  0.29537  0.17198  1.0000
  S   S251      1.0  0.73689  0.35262  0.16511  1.0000
  S   S252      1.0  0.71529  0.33321  0.14570  1.0000
  Fe  Fe128     1.0  0.78735  0.38989  0.26155  1.0000
  S   S253      1.0  0.78514  0.36494  0.28199  1.0000
  S   S254      1.0  0.77785  0.39026  0.23576  1.0000
  Fe  Fe129     1.0  0.80362  0.40645  0.28670  1.0000
  S   S255      1.0  0.80120  0.38204  0.30808  1.0000
  S   S256      1.0  0.81526  0.42877  0.29313  1.0000
  Fe  Fe130     1.0  0.81219  0.36682  0.28573  1.0000
  S   S257      1.0  0.83554  0.34384  0.28724  1.0000
  Fe  Fe131     1.0  0.77444  0.38346  0.30143  1.0000
  S   S258      1.0  0.74799  0.38001  0.31955  1.0000
  S   S259      1.0  0.81552  0.39095  0.26425  1.0000
  S   S260      1.0  0.77557  0.40878  0.28109  1.0000
  Fe  Fe132     1.0  0.76018  0.37442  0.41417  1.0000
  S   S261      1.0  0.76371  0.35685  0.44050  1.0000
  S   S262      1.0  0.73653  0.37567  0.40207  1.0000
  Fe  Fe133     1.0  0.79374  0.38895  0.40946  1.0000
  S   S263      1.0  0.80084  0.37269  0.43506  1.0000
  S   S264      1.0  0.80845  0.40850  0.38930  1.0000
  Fe  Fe134     1.0  0.79275  0.35027  0.42749  1.0000
  S   S265      1.0  0.80840  0.32211  0.43311  1.0000
  Fe  Fe135     1.0  0.77138  0.38068  0.44602  1.0000
  C   C888      1.0  0.82992  0.45472  0.30041  1.0000
  S   S266      1.0  0.78856  0.36576  0.40062  1.0000
  S   S267      1.0  0.76502  0.39898  0.42095  1.0000
  H   H1074     1.0  0.74861  0.42994  0.37195  1.0000
  H   H1075     1.0  0.72702  0.25022  0.06369  1.0000
  C   C889      1.0  0.76322  0.34757  0.03997  1.0000
  H   H1076     1.0  0.61993  0.39256  0.09987  1.0000
  H   H1077     1.0  0.77711  0.46208  0.33466  1.0000
  Fe  Fe136     1.0  0.91165  0.31053  0.34626  1.0000
  S   S268      1.0  0.91615  0.33738  0.33007  1.0000
  S   S269      1.0  0.91508  0.28474  0.33673  1.0000
  Fe  Fe137     1.0  0.90066  0.32386  0.38088  1.0000
  S   S270      1.0  0.90356  0.35202  0.36813  1.0000
  S   S271      1.0  0.89270  0.31506  0.41027  1.0000
  Fe  Fe138     1.0  0.89062  0.34784  0.34755  1.0000
  S   S272      1.0  0.87129  0.37041  0.33562  1.0000
  Fe  Fe139     1.0  0.92900  0.33960  0.35181  1.0000
  S   S273      1.0  0.95424  0.35120  0.34413  1.0000
  S   S274      1.0  0.88472  0.32085  0.36194  1.0000
  S   S275      1.0  0.92737  0.31146  0.36635  1.0000
  C   C890      1.0  0.93363  0.39965  0.35888  1.0000
  C   C891      1.0  0.93609  0.38153  0.35767  1.0000
  C   C892      1.0  0.95109  0.37376  0.34631  1.0000
  H   H1078     1.0  0.60774  0.24746  0.06797  1.0000
  H   H1079     1.0  0.92219  0.40549  0.36783  1.0000
  H   H1080     1.0  0.92668  0.37348  0.36593  1.0000
  C   C893      1.0  0.83170  0.32116  0.42726  1.0000
  C   C894      1.0  0.84298  0.30951  0.43813  1.0000
  C   C895      1.0  0.86171  0.30824  0.43318  1.0000
  C   C896      1.0  0.86922  0.31792  0.41691  1.0000
  C   C897      1.0  0.85794  0.32947  0.40596  1.0000
  C   C898      1.0  0.83915  0.33138  0.41137  1.0000
  H   H1081     1.0  0.83719  0.30169  0.45052  1.0000
  H   H1082     1.0  0.87037  0.29948  0.44180  1.0000
  H   H1083     1.0  0.86368  0.33718  0.39350  1.0000
  H   H1084     1.0  0.83031  0.34056  0.40326  1.0000
  C   C899      1.0  0.82381  0.41612  0.39736  1.0000
  C   C900      1.0  0.83435  0.42780  0.38573  1.0000
  C   C901      1.0  0.84734  0.43341  0.39160  1.0000
  C   C902      1.0  0.84997  0.42731  0.40907  1.0000
  C   C903      1.0  0.83891  0.41618  0.42094  1.0000
  C   C904      1.0  0.82585  0.41056  0.41505  1.0000
  H   H1085     1.0  0.83274  0.43231  0.37206  1.0000
  H   H1086     1.0  0.84048  0.41178  0.43461  1.0000
  H   H1087     1.0  0.81752  0.40184  0.42418  1.0000
  H   H1088     1.0  0.64047  0.40022  0.11540  1.0000
  C   C905      1.0  0.85023  0.35162  0.29598  1.0000
  C   C906      1.0  0.84689  0.36983  0.29671  1.0000
  C   C907      1.0  0.85427  0.37572  0.30823  1.0000
  C   C908      1.0  0.86540  0.36349  0.31872  1.0000
  C   C909      1.0  0.87032  0.34550  0.31672  1.0000
  C   C910      1.0  0.86273  0.33953  0.30524  1.0000
  H   H1089     1.0  0.83779  0.37937  0.28917  1.0000
  H   H1090     1.0  0.85074  0.38965  0.30948  1.0000
  H   H1091     1.0  0.87906  0.33599  0.32475  1.0000
  H   H1092     1.0  0.86541  0.32540  0.30469  1.0000
  C   C911      1.0  0.74557  0.37929  0.34231  1.0000
  C   C912      1.0  0.75902  0.38266  0.34950  1.0000
  C   C913      1.0  0.75645  0.38172  0.36791  1.0000
  C   C914      1.0  0.74038  0.37755  0.37900  1.0000
  C   C915      1.0  0.72689  0.37466  0.37165  1.0000
  C   C916      1.0  0.72949  0.37547  0.35340  1.0000
  H   H1093     1.0  0.77121  0.38617  0.34086  1.0000
  H   H1094     1.0  0.76675  0.38434  0.37351  1.0000
  H   H1095     1.0  0.71442  0.37158  0.38015  1.0000
  H   H1096     1.0  0.71898  0.37305  0.34790  1.0000
  C   C917      1.0  0.76755  0.37442  0.23007  1.0000
  C   C918      1.0  0.76220  0.37816  0.21352  1.0000
  C   C919      1.0  0.75373  0.36622  0.20870  1.0000
  C   C920      1.0  0.75019  0.35034  0.22045  1.0000
  C   C921      1.0  0.75582  0.34649  0.23687  1.0000
  C   C922      1.0  0.76458  0.35826  0.24154  1.0000
  H   H1097     1.0  0.76452  0.39047  0.20436  1.0000
  H   H1098     1.0  0.74961  0.36951  0.19600  1.0000
  H   H1099     1.0  0.75340  0.33423  0.24605  1.0000
  H   H1100     1.0  0.76914  0.35476  0.25400  1.0000
  C   C923      1.0  0.77509  0.33143  0.04376  1.0000
  H   H1101     1.0  0.97557  0.37825  0.32779  1.0000
  H   H1102     1.0  0.74474  0.38751  0.06991  1.0000
  H   H1103     1.0  0.69793  0.30824  0.03466  1.0000
  S   S276      1.0  0.62260  0.24667  0.10104  1.0000
  H   H1104     1.0  0.80823  0.41975  0.34995  1.0000
  H   H1105     1.0  0.95330  0.27729  0.27037  1.0000
  H   H1106     1.0  0.74780  0.42302  0.31152  1.0000
  C   C924      1.0  0.85505  0.28251  0.36892  1.0000
  C   C925      1.0  0.66383  0.29303  0.02682  1.0000
  C   C926      1.0  0.68657  0.39958  0.09517  1.0000
  C   C927      1.0  0.69276  0.38161  0.10221  1.0000
  C   C928      1.0  0.69482  0.37651  0.11989  1.0000
  C   C929      1.0  0.69055  0.38924  0.13075  1.0000
  C   C930      1.0  0.68431  0.40725  0.12376  1.0000
  C   C931      1.0  0.68250  0.41246  0.10592  1.0000
  H   H1107     1.0  0.69617  0.37163  0.09396  1.0000
  H   H1108     1.0  0.69930  0.36266  0.12520  1.0000
  H   H1109     1.0  0.68089  0.41719  0.13212  1.0000
  H   H1110     1.0  0.67769  0.42638  0.10053  1.0000
  C   C932      1.0  0.66332  0.26416  0.14394  1.0000
  C   C933      1.0  0.66785  0.27276  0.17028  1.0000
  C   C934      1.0  0.68001  0.28375  0.16013  1.0000
  C   C935      1.0  0.68386  0.28488  0.14155  1.0000
  C   C936      1.0  0.67543  0.27528  0.13350  1.0000
  H   H1111     1.0  0.66463  0.27160  0.18453  1.0000
  H   H1112     1.0  0.69344  0.29292  0.13328  1.0000
  H   H1113     1.0  0.67860  0.27621  0.11928  1.0000
  C   C937      1.0  0.62275  0.30094  0.06163  1.0000
  C   C938      1.0  0.63701  0.30334  0.06824  1.0000
  C   C939      1.0  0.63762  0.32038  0.07072  1.0000
  C   C940      1.0  0.62391  0.33495  0.06674  1.0000
  C   C941      1.0  0.60915  0.33231  0.06109  1.0000
  C   C942      1.0  0.60875  0.31540  0.05816  1.0000
  H   H1114     1.0  0.64781  0.29223  0.07101  1.0000
  H   H1115     1.0  0.64863  0.32217  0.07588  1.0000
  H   H1116     1.0  0.59828  0.34346  0.05850  1.0000
  H   H1117     1.0  0.59759  0.31350  0.05327  1.0000
  C   C943      1.0  0.83972  0.25992  0.13684  1.0000
  C   C944      1.0  0.78435  0.27129  0.15172  1.0000
  C   C945      1.0  0.77716  0.28973  0.15000  1.0000
  C   C946      1.0  0.77424  0.29992  0.13347  1.0000
  C   C947      1.0  0.77807  0.29165  0.11881  1.0000
  C   C948      1.0  0.78491  0.27325  0.12061  1.0000
  H   H1118     1.0  0.65051  0.25469  0.17070  1.0000
  H   H1119     1.0  0.77442  0.29617  0.16131  1.0000
  H   H1120     1.0  0.77566  0.29942  0.10607  1.0000
  N   N59       1.0  0.86363  0.48554  0.43421  1.0000
  H   H1121     1.0  0.81495  0.44891  0.41240  1.0000
  C   C949      1.0  0.74878  0.30170  0.05680  1.0000
  C   C950      1.0  0.73300  0.31255  0.06416  1.0000
  C   C951      1.0  0.72671  0.30940  0.08250  1.0000
  C   C952      1.0  0.73677  0.29624  0.09350  1.0000
  H   H1122     1.0  0.70920  0.26051  0.17547  1.0000
  H   H1123     1.0  0.75338  0.30380  0.04258  1.0000
  H   H1124     1.0  0.72538  0.32286  0.05560  1.0000
  H   H1125     1.0  0.89040  0.48387  0.41774  1.0000
  H   H1126     1.0  0.66567  0.41993  0.99102  1.0000
  H   H1127     1.0  0.73207  0.29412  0.10771  1.0000
  C   C953      1.0  0.98310  0.31298  0.31497  1.0000
  H   H1128     1.0  0.77164  0.32853  0.08769  1.0000
  H   H1129     1.0  0.69443  0.27875  0.07643  1.0000
  H   H1130     1.0  0.72521  0.34729  0.09311  1.0000
  H   H1131     1.0  0.72949  0.35601  0.11057  1.0000
  C   C954      1.0  0.96334  0.26153  0.30144  1.0000
  H   H1132     1.0  0.87141  0.24487  0.14818  1.0000
  C   C955      1.0  0.91166  0.28823  0.27918  1.0000
  C   C956      1.0  0.91478  0.27165  0.29054  1.0000
  C   C957      1.0  0.91492  0.27079  0.30838  1.0000
  C   C958      1.0  0.91217  0.28654  0.31499  1.0000
  C   C959      1.0  0.90830  0.30320  0.30388  1.0000
  C   C960      1.0  0.90790  0.30404  0.28601  1.0000
  H   H1133     1.0  0.82768  0.29242  0.16248  1.0000
  H   H1134     1.0  0.90603  0.31544  0.30890  1.0000
  H   H1135     1.0  0.90540  0.31696  0.27736  1.0000
  S   S277      1.0  0.86049  0.46218  0.33295  1.0000
  H   H1136     1.0  0.87912  0.25677  0.42630  1.0000
  C   C961      1.0  0.72675  0.25305  0.12515  1.0000
  H   H1137     1.0  0.97127  0.41024  0.32990  1.0000
  H   H1138     1.0  0.78166  0.32374  0.03345  1.0000
  H   H1139     1.0  0.91240  0.38103  0.39607  1.0000
  C   C962      1.0  0.86922  0.24110  0.13623  1.0000
  C   C963      1.0  0.90369  0.38566  0.40812  1.0000
  H   H1140     1.0  0.83509  0.36976  0.40176  1.0000
  C   C964      1.0  0.77805  0.32483  0.06098  1.0000
  H   H1141     1.0  0.90296  0.35147  0.40668  1.0000
  C   C965      1.0  0.88926  0.26459  0.41755  1.0000
  C   C966      1.0  0.84049  0.28703  0.39847  1.0000
  C   C967      1.0  0.96383  0.38416  0.33645  1.0000
  N   N60       1.0  0.72318  0.37812  0.27767  1.0000
  C   C968      1.0  0.70750  0.38484  0.29081  1.0000
  C   C969      1.0  0.73249  0.36040  0.28609  1.0000
  C   C970      1.0  0.73595  0.39075  0.27330  1.0000
  C   C971      1.0  0.71687  0.37628  0.26203  1.0000
  C   C972      1.0  0.72106  0.38710  0.24495  1.0000
  C   C973      1.0  0.70606  0.36337  0.26364  1.0000
  C   C974      1.0  0.71508  0.38476  0.23044  1.0000
  C   C975      1.0  0.70047  0.36094  0.24895  1.0000
  C   C976      1.0  0.70505  0.37155  0.23237  1.0000
  H   H1142     1.0  0.69775  0.37553  0.29555  1.0000
  H   H1143     1.0  0.71182  0.38648  0.30274  1.0000
  H   H1144     1.0  0.70009  0.39810  0.28498  1.0000
  H   H1145     1.0  0.72319  0.35085  0.29240  1.0000
  H   H1146     1.0  0.73898  0.36158  0.29680  1.0000
  H   H1147     1.0  0.74322  0.35404  0.27621  1.0000
  H   H1148     1.0  0.72964  0.40466  0.26785  1.0000
  H   H1149     1.0  0.74074  0.39165  0.28518  1.0000
  H   H1150     1.0  0.74816  0.38632  0.26362  1.0000
  H   H1151     1.0  0.72940  0.39710  0.24222  1.0000
  H   H1152     1.0  0.70210  0.35483  0.27621  1.0000
  H   H1153     1.0  0.71891  0.39275  0.21741  1.0000
  H   H1154     1.0  0.69285  0.35052  0.25028  1.0000
  H   H1155     1.0  0.70120  0.36926  0.22088  1.0000
  C   C977      1.0  0.84778  0.45155  0.32320  1.0000
  C   C978      1.0  0.94622  0.41007  0.34874  1.0000
  N   N61       1.0  0.86519  0.32226  0.24423  1.0000
  C   C979      1.0  0.86233  0.30786  0.26005  1.0000
  C   C980      1.0  0.87750  0.31422  0.22946  1.0000
  C   C981      1.0  0.87454  0.33476  0.24863  1.0000
  C   C982      1.0  0.84764  0.33099  0.23903  1.0000
  C   C983      1.0  0.83983  0.34931  0.23956  1.0000
  C   C984      1.0  0.83775  0.32102  0.23321  1.0000
  C   C985      1.0  0.82353  0.35719  0.23392  1.0000
  C   C986      1.0  0.82144  0.32905  0.22768  1.0000
  C   C987      1.0  0.81445  0.34713  0.22787  1.0000
  H   H1156     1.0  0.85691  0.29700  0.25738  1.0000
  H   H1157     1.0  0.87511  0.30143  0.26485  1.0000
  H   H1158     1.0  0.85262  0.31334  0.27120  1.0000
  H   H1159     1.0  0.89128  0.30872  0.23234  1.0000
  H   H1160     1.0  0.87884  0.32439  0.21696  1.0000
  H   H1161     1.0  0.87290  0.30278  0.22690  1.0000
  H   H1162     1.0  0.86669  0.34042  0.26042  1.0000
  H   H1163     1.0  0.88788  0.32780  0.25204  1.0000
  H   H1164     1.0  0.87708  0.34599  0.23729  1.0000
  H   H1165     1.0  0.84592  0.35780  0.24446  1.0000
  H   H1166     1.0  0.84256  0.30693  0.23294  1.0000
  H   H1167     1.0  0.81776  0.37120  0.23429  1.0000
  H   H1168     1.0  0.81410  0.32125  0.22323  1.0000
  H   H1169     1.0  0.80191  0.35339  0.22341  1.0000
  N   N62       1.0  0.79090  0.45298  0.43206  1.0000
  H   H1170     1.0  0.77521  0.42908  0.31698  1.0000
  H   H1171     1.0  0.75840  0.24689  0.16174  1.0000
  C   C988      1.0  0.78766  0.44970  0.33467  1.0000
  H   H1172     1.0  0.83150  0.26472  0.11108  1.0000
  C   C989      1.0  0.87141  0.27541  0.37463  1.0000
  H   H1173     1.0  0.59876  0.36636  0.01418  1.0000
  C   C990      1.0  0.73422  0.27409  0.14804  1.0000
  H   H1174     1.0  0.87469  0.25063  0.12441  1.0000
  H   H1175     1.0  0.92727  0.48491  0.40369  1.0000
  C   C991      1.0  0.76456  0.43111  0.34479  1.0000
  C   C992      1.0  0.53394  0.37034  0.98010  1.0000
  S   S278      1.0  0.69664  0.35781  0.00599  1.0000
  S   S279      1.0  0.76447  0.38812  0.47286  1.0000
  H   H1176     1.0  0.72124  0.42013  0.33560  1.0000
  H   H1177     1.0  0.78893  0.41633  0.44571  1.0000
  H   H1178     1.0  0.72540  0.37688  0.07409  1.0000
  H   H1179     1.0  0.81323  0.30929  0.13723  1.0000
  C   C993      1.0  0.75718  0.35098  0.07106  1.0000
  H   H1180     1.0  0.82852  0.29176  0.40773  1.0000
  H   H1181     1.0  0.74145  0.41500  0.45158  1.0000
  H   H1182     1.0  0.80048  0.39738  0.47085  1.0000
  C   C994      1.0  0.79638  0.42219  0.45207  1.0000
  H   H1183     1.0  0.90022  0.28956  0.38881  1.0000
  N   N63       1.0  0.81745  0.34521  0.35513  1.0000
  C   C995      1.0  0.81342  0.36511  0.35205  1.0000
  C   C996      1.0  0.81989  0.33938  0.33804  1.0000
  C   C997      1.0  0.80229  0.33799  0.36783  1.0000
  C   C998      1.0  0.80408  0.32728  0.38478  1.0000
  C   C999      1.0  0.78493  0.34188  0.36344  1.0000
  C   C1000     1.0  0.78925  0.32121  0.39659  1.0000
  C   C1001     1.0  0.77018  0.33593  0.37543  1.0000
  C   C1002     1.0  0.77230  0.32573  0.39203  1.0000
  H   H1184     1.0  0.81176  0.37005  0.36456  1.0000
  H   H1185     1.0  0.82445  0.37102  0.34228  1.0000
  H   H1186     1.0  0.80083  0.37080  0.34682  1.0000
  H   H1187     1.0  0.82243  0.32450  0.33978  1.0000
  H   H1188     1.0  0.80812  0.34485  0.33143  1.0000
  H   H1189     1.0  0.83143  0.34419  0.32843  1.0000
  H   H1190     1.0  0.81660  0.32387  0.38949  1.0000
  H   H1191     1.0  0.78246  0.34994  0.35084  1.0000
  H   H1192     1.0  0.79072  0.31346  0.40966  1.0000
  H   H1193     1.0  0.75690  0.33968  0.37200  1.0000
  H   H1194     1.0  0.76072  0.32161  0.40150  1.0000
  N   N64       1.0  0.65748  0.34019  0.14242  1.0000
  C   C1003     1.0  0.64734  0.32564  0.15213  1.0000
  C   C1004     1.0  0.67355  0.33254  0.13030  1.0000
  C   C1005     1.0  0.66368  0.34659  0.15585  1.0000
  C   C1006     1.0  0.64638  0.35476  0.13170  1.0000
  C   C1007     1.0  0.63483  0.35083  0.12220  1.0000
  C   C1008     1.0  0.64803  0.37304  0.12898  1.0000
  C   C1009     1.0  0.62509  0.36442  0.11124  1.0000
  C   C1010     1.0  0.62700  0.38218  0.10890  1.0000
  H   H1195     1.0  0.63384  0.33123  0.15937  1.0000
  H   H1196     1.0  0.64556  0.31729  0.14328  1.0000
  H   H1197     1.0  0.65457  0.31590  0.16205  1.0000
  H   H1198     1.0  0.66990  0.32597  0.12091  1.0000
  H   H1199     1.0  0.68305  0.32237  0.13772  1.0000
  H   H1200     1.0  0.68109  0.34309  0.12202  1.0000
  H   H1201     1.0  0.67054  0.33529  0.16493  1.0000
  H   H1202     1.0  0.67389  0.35523  0.14970  1.0000
  H   H1203     1.0  0.65221  0.35422  0.16414  1.0000
  H   H1204     1.0  0.63364  0.33722  0.12263  1.0000
  H   H1205     1.0  0.65696  0.37729  0.13508  1.0000
  H   H1206     1.0  0.61652  0.36107  0.10397  1.0000
  N   N65       1.0  0.90540  0.41899  0.31431  1.0000
  C   C1011     1.0  0.89560  0.41108  0.33179  1.0000
  C   C1012     1.0  0.92189  0.40586  0.30900  1.0000
  C   C1013     1.0  0.91127  0.43503  0.31654  1.0000
  C   C1014     1.0  0.89351  0.42310  0.30119  1.0000
  C   C1015     1.0  0.88681  0.44093  0.29302  1.0000
  C   C1016     1.0  0.88768  0.40904  0.29675  1.0000
  C   C1017     1.0  0.87521  0.44432  0.28104  1.0000
  C   C1018     1.0  0.87610  0.41261  0.28473  1.0000
  C   C1019     1.0  0.86981  0.43021  0.27697  1.0000
  H   H1207     1.0  0.89143  0.39849  0.33147  1.0000
  H   H1208     1.0  0.90405  0.40767  0.34207  1.0000
  H   H1209     1.0  0.88321  0.42067  0.33624  1.0000
  H   H1210     1.0  0.91892  0.39250  0.30936  1.0000
  H   H1211     1.0  0.93155  0.40336  0.31810  1.0000
  H   H1212     1.0  0.92903  0.41079  0.29537  1.0000
  H   H1213     1.0  0.89964  0.44494  0.32191  1.0000
  H   H1214     1.0  0.92052  0.43144  0.32616  1.0000
  H   H1215     1.0  0.91868  0.44177  0.30383  1.0000
  H   H1216     1.0  0.88983  0.45257  0.29607  1.0000
  H   H1217     1.0  0.89162  0.39518  0.30292  1.0000
  H   H1218     1.0  0.86986  0.45804  0.27537  1.0000
  N   N66       1.0  0.97095  0.27613  0.28820  1.0000
  H   H1219     1.0  0.86031  0.43296  0.26816  1.0000
  C   C1020     1.0  0.85678  0.27992  0.40433  1.0000
  H   H1220     1.0  0.94478  0.29231  0.28547  1.0000
  H   H1221     1.0  0.95988  0.25185  0.29497  1.0000
  C   C1021     1.0  0.72342  0.25325  0.17380  1.0000
  H   H1222     1.0  0.55731  0.27425  0.04355  1.0000
  N   N67       1.0  0.71068  0.27408  0.05120  1.0000
  H   H1223     1.0  0.74346  0.27615  0.13498  1.0000
  C   C1022     1.0  0.78054  0.44474  0.42359  1.0000
  H   H1224     1.0  0.77475  0.45450  0.41273  1.0000
  C   C1023     1.0  0.76136  0.36410  0.09444  1.0000
  C   C1024     1.0  0.70668  0.28254  0.06698  1.0000
  H   H1225     1.0  0.77071  0.47731  0.42920  1.0000
  H   H1226     1.0  0.56255  0.27501  0.07124  1.0000
  C   C1025     1.0  0.66860  0.27480  0.03366  1.0000
  H   H1227     1.0  0.76038  0.27555  0.09469  1.0000
  H   H1228     1.0  0.77629  0.42739  0.37667  1.0000
  C   C1026     1.0  0.73797  0.43947  0.46135  1.0000
  H   H1229     1.0  0.85234  0.46153  0.43934  1.0000
  H   H1230     1.0  0.87162  0.40170  0.28173  1.0000
  H   H1231     1.0  0.73037  0.25899  0.18135  1.0000
  N   N68       1.0  0.74790  0.36070  0.08568  1.0000
  H   H1232     1.0  0.76918  0.35152  0.10096  1.0000
  H   H1233     1.0  0.73003  0.38538  0.09115  1.0000
  C   C1027     1.0  0.62272  0.38759  0.00145  1.0000
  C   C1028     1.0  0.63322  0.35785  0.99451  1.0000
  S   S280      1.0  0.96833  0.25372  0.18578  1.0000
  H   H1234     1.0  0.85618  0.36421  0.42164  1.0000
  H   H1235     1.0  0.71806  0.27851  0.07425  1.0000
  C   C1029     1.0  0.97547  0.28853  0.29739  1.0000
  H   H1236     1.0  0.86818  0.37385  0.43958  1.0000
  C   C1030     1.0  0.73306  0.42354  0.33806  1.0000
  H   H1237     1.0  0.78681  0.31193  0.06400  1.0000
  H   H1238     1.0  0.85475  0.24127  0.10894  1.0000
  H   H1239     1.0  0.89085  0.39501  0.37996  1.0000
  C   C1031     1.0  0.96140  0.40225  0.33765  1.0000
  C   C1032     1.0  0.79882  0.44033  0.44661  1.0000
  H   H1240     1.0  0.66088  0.34655  0.99881  1.0000
  S   S281      1.0  0.89102  0.43520  0.36620  1.0000
  H   H1241     1.0  0.84224  0.38598  0.37090  1.0000
  C   C1033     1.0  0.71802  0.24712  0.11467  1.0000
  S   S282      1.0  0.66358  0.25525  0.08382  1.0000
  C   C1034     1.0  0.77932  0.43890  0.36579  1.0000
  H   H1242     1.0  0.64408  0.35143  0.02689  1.0000
  C   C1035     1.0  0.77844  0.46832  0.43912  1.0000
  H   H1243     1.0  0.74518  0.36957  0.04952  1.0000
  H   H1244     1.0  0.79109  0.40630  0.35642  1.0000
  H   H1245     1.0  0.79131  0.44696  0.32099  1.0000
  C   C1036     1.0  0.72711  0.27947  0.03909  1.0000
  H   H1246     1.0  0.67101  0.31902  0.02179  1.0000
  H   H1247     1.0  0.91770  0.25786  0.31696  1.0000
  H   H1248     1.0  0.76848  0.46343  0.45080  1.0000
  H   H1249     1.0  0.89763  0.24567  0.38125  1.0000
  H   H1250     1.0  0.76897  0.43984  0.43333  1.0000
  H   H1251     1.0  0.53593  0.36270  0.99304  1.0000
  H   H1252     1.0  0.88306  0.27129  0.36484  1.0000
  S   S283      1.0  0.90427  0.47353  0.34700  1.0000
  C   C1037     1.0  0.89520  0.24635  0.39555  1.0000
  H   H1253     1.0  0.78779  0.26705  0.10918  1.0000
  H   H1254     1.0  0.60651  0.36873  0.03285  1.0000
  H   H1255     1.0  0.95509  0.31654  0.32712  1.0000
  C   C1038     1.0  0.67470  0.30482  0.02707  1.0000
  H   H1256     1.0  0.98259  0.25834  0.26952  1.0000
  H   H1257     1.0  0.78920  0.43329  0.41764  1.0000
  H   H1258     1.0  0.88601  0.27838  0.42049  1.0000
  S   S284      1.0  0.77689  0.27320  0.05814  1.0000
  C   C1039     1.0  0.82090  0.29578  0.13699  1.0000
  H   H1259     1.0  0.72213  0.42340  0.36568  1.0000
  N   N69       1.0  0.78137  0.43445  0.34807  1.0000
  H   H1260     1.0  0.68685  0.25407  0.04625  1.0000
  C   C1040     1.0  0.80870  0.44630  0.45636  1.0000
  C   C1041     1.0  0.73661  0.37835  0.07985  1.0000
  H   H1261     1.0  0.83448  0.41218  0.32398  1.0000
  C   C1042     1.0  0.65972  0.26313  0.16236  1.0000
  H   H1262     1.0  0.65304  0.37046  0.01252  1.0000
  H   H1263     1.0  0.90588  0.35327  0.42801  1.0000
  C   C1043     1.0  0.85963  0.37202  0.40852  1.0000
  C   C1044     1.0  0.83497  0.33925  0.36117  1.0000
  C   C1045     1.0  0.83594  0.42604  0.31961  1.0000
  H   H1264     1.0  0.81584  0.29530  0.11163  1.0000
  C   C1046     1.0  0.79551  0.41813  0.34683  1.0000
  C   C1047     1.0  0.76369  0.42868  0.32779  1.0000
  C   C1048     1.0  0.86710  0.39122  0.37399  1.0000
  S   S285      1.0  0.86722  0.43350  0.41576  1.0000
  C   C1049     1.0  0.82807  0.43663  0.30527  1.0000
  H   H1265     1.0  0.85138  0.42510  0.33958  1.0000
  H   H1266     1.0  0.79894  0.41489  0.33330  1.0000
  H   H1267     1.0  0.61872  0.39593  0.01191  1.0000
  C   C1050     1.0  0.83837  0.26860  0.15114  1.0000
  H   H1268     1.0  0.90759  0.27416  0.37388  1.0000
  H   H1269     1.0  0.87237  0.39605  0.42988  1.0000
  C   C1051     1.0  0.87885  0.38164  0.43227  1.0000
  H   H1270     1.0  0.83457  0.34426  0.37331  1.0000
  C   C1052     1.0  0.81509  0.43506  0.47105  1.0000
  H   H1271     1.0  0.91719  0.25942  0.28566  1.0000
  Fe  Fe140     1.0  0.92905  0.26435  0.24594  1.0000
  S   S286      1.0  0.92420  0.25631  0.22219  1.0000
  H   H1272     1.0  0.60452  0.25213  0.04551  1.0000
  S   S287      1.0  0.91360  0.28940  0.25630  1.0000
  C   C1053     1.0  0.84564  0.43344  0.32855  1.0000
  H   H1273     1.0  0.85523  0.44251  0.38246  1.0000
  C   C1054     1.0  0.63851  0.38647  0.11769  1.0000
  N   N70       1.0  0.58025  0.25049  0.06528  1.0000
  Fe  Fe141     1.0  0.88303  0.44706  0.39078  1.0000
  C   C1055     1.0  0.83957  0.46201  0.30917  1.0000
  C   C1056     1.0  0.68407  0.26831  0.04107  1.0000
  H   H1274     1.0  0.80011  0.45271  0.33711  1.0000
  H   H1275     1.0  0.79201  0.44196  0.36761  1.0000
  C   C1057     1.0  0.87569  0.37923  0.40307  1.0000
  H   H1276     1.0  0.88534  0.34829  0.42561  1.0000
  C   C1058     1.0  0.82236  0.28785  0.12256  1.0000
  C   C1059     1.0  0.61056  0.36251  0.02081  1.0000
  H   H1277     1.0  0.82684  0.29331  0.37648  1.0000
  H   H1278     1.0  0.86974  0.39871  0.36061  1.0000
  C   C1060     1.0  0.75026  0.24355  0.15354  1.0000
  H   H1279     1.0  0.54110  0.39405  0.98387  1.0000
  C   C1061     1.0  0.82892  0.28619  0.15124  1.0000
  H   H1280     1.0  0.76849  0.45081  0.36773  1.0000
  S   S288      1.0  0.94324  0.43294  0.34938  1.0000
  Fe  Fe142     1.0  0.91592  0.44663  0.36173  1.0000
  Fe  Fe143     1.0  0.87846  0.46225  0.35285  1.0000
  H   H1281     1.0  0.58202  0.24322  0.09302  1.0000
  C   C1062     1.0  0.64056  0.36570  0.02027  1.0000
  C   C1063     1.0  0.85283  0.47241  0.44610  1.0000
  C   C1064     1.0  0.87905  0.38903  0.38539  1.0000
  C   C1065     1.0  0.84765  0.37465  0.39708  1.0000
  S   S289      1.0  0.90957  0.45497  0.38821  1.0000
  C   C1066     1.0  0.74808  0.42514  0.32450  1.0000
  H   H1282     1.0  0.89877  0.40045  0.40485  1.0000
  H   H1283     1.0  0.75481  0.37189  0.10517  1.0000
  C   C1067     1.0  0.96569  0.30966  0.31803  1.0000
  C   C1068     1.0  0.74905  0.42913  0.35841  1.0000
  C   C1069     1.0  0.73600  0.34956  0.09894  1.0000
  H   H1284     1.0  0.72099  0.28302  0.14675  1.0000
  H   H1285     1.0  0.85881  0.46564  0.45800  1.0000
  C   C1070     1.0  0.73359  0.42541  0.35499  1.0000
  H   H1286     1.0  0.74339  0.33611  0.10425  1.0000
  S   S290      1.0  0.95904  0.26119  0.23624  1.0000
  H   H1287     1.0  0.88820  0.37998  0.44148  1.0000
  C   C1071     1.0  0.76922  0.33439  0.07446  1.0000
  H   H1288     1.0  0.77113  0.37173  0.08473  1.0000
  H   H1289     1.0  0.82394  0.46325  0.28957  1.0000
  H   H1290     1.0  0.61150  0.39092  0.99406  1.0000
  C   C1072     1.0  0.71491  0.25436  0.05740  1.0000
  H   H1291     1.0  0.63542  0.37363  0.03105  1.0000
  N   N71       1.0  0.88839  0.37591  0.41532  1.0000
  H   H1292     1.0  0.91268  0.38342  0.41780  1.0000
  C   C1073     1.0  0.89596  0.35645  0.41910  1.0000
  C   C1074     1.0  0.75435  0.35729  0.05335  1.0000
  C   C1075     1.0  0.74470  0.42117  0.46102  1.0000
  H   H1293     1.0  0.83862  0.47897  0.45047  1.0000
  H   H1294     1.0  0.70369  0.24945  0.06763  1.0000
  C   C1076     1.0  0.88194  0.47544  0.42824  1.0000
  H   H1295     1.0  0.95076  0.26667  0.31031  1.0000
  C   C1077     1.0  0.72196  0.24948  0.14393  1.0000
  H   H1296     1.0  0.84085  0.47596  0.30482  1.0000
  H   H1297     1.0  0.72969  0.27448  0.02648  1.0000
  Fe  Fe144     1.0  0.63785  0.25760  0.07442  1.0000
  H   H1298     1.0  0.65998  0.26572  0.03358  1.0000
  H   H1299     1.0  0.61290  0.34768  0.02539  1.0000
  C   C1078     1.0  0.69013  0.29849  0.03452  1.0000
  C   C1079     1.0  0.75263  0.28555  0.08614  1.0000
  H   H1300     1.0  0.72617  0.29426  0.03571  1.0000
  C   C1080     1.0  0.87273  0.27361  0.39260  1.0000
  N   N72       1.0  0.89001  0.26510  0.39850  1.0000
  H   H1301     1.0  0.78695  0.26348  0.16440  1.0000
  C   C1081     1.0  0.80307  0.41099  0.46661  1.0000
  C   C1082     1.0  0.80534  0.46000  0.41804  1.0000
  H   H1302     1.0  0.81091  0.45995  0.45315  1.0000
  C   C1083     1.0  0.83150  0.27015  0.12243  1.0000
  Fe  Fe145     1.0  0.89683  0.48159  0.37411  1.0000
  C   C1084     1.0  0.96186  0.29766  0.30942  1.0000
  C   C1085     1.0  0.68581  0.37612  0.99215  1.0000
  N   N73       1.0  0.84992  0.24132  0.13702  1.0000
  C   C1086     1.0  0.78826  0.26309  0.13697  1.0000
  H   H1303     1.0  0.58475  0.27211  0.07555  1.0000
  H   H1304     1.0  0.96251  0.29723  0.26713  1.0000
  H   H1305     1.0  0.68403  0.39508  0.00863  1.0000
  C   C1087     1.0  0.57703  0.26979  0.06631  1.0000
  H   H1306     1.0  0.54156  0.26649  0.02413  1.0000
  Fe  Fe146     1.0  0.95438  0.25010  0.21432  1.0000
  H   H1307     1.0  0.71775  0.24704  0.04624  1.0000
  H   H1308     1.0  0.85646  0.27958  0.41812  1.0000
  H   H1309     1.0  0.90245  0.25827  0.42155  1.0000
  H   H1310     1.0  0.79980  0.46954  0.40689  1.0000
  C   C1088     1.0  0.95734  0.28615  0.27733  1.0000
  H   H1311     1.0  0.85443  0.28363  0.35514  1.0000
  H   H1312     1.0  0.63459  0.39216  0.99200  1.0000
  C   C1089     1.0  0.59987  0.24480  0.05913  1.0000
  Fe  Fe147     1.0  0.64911  0.24269  0.11019  1.0000
  N   N74       1.0  0.73212  0.25505  0.15474  1.0000
  C   C1090     1.0  0.98661  0.26753  0.27616  1.0000
  S   S291      1.0  0.79702  0.24011  0.13880  1.0000
  S   S292      1.0  0.81260  0.24496  0.08664  1.0000
  Fe  Fe148     1.0  0.78699  0.24810  0.07673  1.0000
  S   S293      1.0  0.86950  0.47388  0.37798  1.0000
  C   C1091     1.0  0.65091  0.34755  0.99098  1.0000
  H   H1313     1.0  0.91725  0.27009  0.39304  1.0000
  H   H1314     1.0  0.88929  0.47008  0.43942  1.0000
  H   H1315     1.0  0.99263  0.27765  0.26535  1.0000
  H   H1316     1.0  0.88143  0.46391  0.42242  1.0000
  H   H1317     1.0  0.56020  0.24377  0.08847  1.0000
  C   C1092     1.0  0.99317  0.29213  0.29464  1.0000
  H   H1318     1.0  0.72200  0.24998  0.10037  1.0000
  H   H1319     1.0  0.75802  0.24519  0.13971  1.0000
  C   C1093     1.0  0.62147  0.35822  0.98310  1.0000
  C   C1094     1.0  0.67003  0.40702  0.98701  1.0000
  H   H1320     1.0  0.85258  0.48294  0.41256  1.0000
  H   H1321     1.0  0.78550  0.47683  0.44353  1.0000
  C   C1095     1.0  0.57029  0.24662  0.05321  1.0000
  C   C1096     1.0  0.55000  0.25594  0.03178  1.0000
  H   H1322     1.0  0.60788  0.36587  0.98485  1.0000
  C   C1097     1.0  0.57499  0.24037  0.08352  1.0000
  C   C1098     1.0  0.81216  0.41747  0.47623  1.0000
  Fe  Fe149     1.0  0.77591  0.46281  0.51509  1.0000
  H   H1323     1.0  0.51380  0.31490  0.83803  1.0000
  S   S294      1.0  0.79225  0.43768  0.52778  1.0000
  C   C1099     1.0  0.80517  0.48527  0.63833  1.0000
  N   N75       1.0  0.53109  0.24355  0.93731  1.0000
  H   H1324     1.0  0.49777  0.43659  0.80818  1.0000
  H   H1325     1.0  0.53703  0.41132  0.95479  1.0000
  N   N76       1.0  0.52752  0.40080  0.92804  1.0000
  H   H1326     1.0  0.82998  0.47396  0.56166  1.0000
  C   C1100     1.0  0.51563  0.27600  0.93864  1.0000
  H   H1327     1.0  0.64919  0.33318  0.95402  1.0000
  S   S295      1.0  0.74590  0.46735  0.51934  1.0000
  Fe  Fe150     1.0  0.71423  0.47090  0.62464  1.0000
  S   S296      1.0  0.71072  0.47325  0.65293  1.0000
  H   H1328     1.0  0.73604  0.46704  0.68543  1.0000
  Fe  Fe151     1.0  0.75101  0.44747  0.62425  1.0000
  S   S297      1.0  0.75046  0.44797  0.65260  1.0000
  S   S298      1.0  0.77571  0.43073  0.61086  1.0000
  Fe  Fe152     1.0  0.72201  0.44383  0.65744  1.0000
  S   S299      1.0  0.71161  0.42470  0.68189  1.0000
  Fe  Fe153     1.0  0.73927  0.47727  0.64540  1.0000
  C   C1101     1.0  0.50958  0.31921  0.85107  1.0000
  S   S300      1.0  0.72333  0.44096  0.62957  1.0000
  S   S301      1.0  0.74217  0.47726  0.61653  1.0000
  Fe  Fe154     1.0  0.59699  0.42000  0.93800  1.0000
  S   S302      1.0  0.60587  0.41094  0.91201  1.0000
  Fe  Fe155     1.0  0.62730  0.42737  0.90657  1.0000
  S   S303      1.0  0.63292  0.44753  0.88156  1.0000
  H   H1329     1.0  0.62782  0.38588  0.75276  1.0000
  Fe  Fe156     1.0  0.63319  0.44874  0.75622  1.0000
  S   S304      1.0  0.63508  0.45834  0.78020  1.0000
  S   S305      1.0  0.64230  0.46294  0.72840  1.0000
  Fe  Fe157     1.0  0.61161  0.42055  0.77740  1.0000
  S   S306      1.0  0.61125  0.42767  0.80322  1.0000
  S   S307      1.0  0.59675  0.39945  0.77637  1.0000
  Fe  Fe158     1.0  0.60593  0.45618  0.78911  1.0000
  C   C1102     1.0  0.56929  0.41832  0.82253  1.0000
  Fe  Fe159     1.0  0.64028  0.42911  0.79249  1.0000
  S   S308      1.0  0.65951  0.41624  0.81101  1.0000
  S   S309      1.0  0.60342  0.44906  0.76414  1.0000
  S   S310      1.0  0.64129  0.41947  0.76760  1.0000
  S   S311      1.0  0.53510  0.48238  0.88527  1.0000
  H   H1330     1.0  0.58432  0.44788  0.91456  1.0000
  H   H1331     1.0  0.52078  0.39935  0.90351  1.0000
  H   H1332     1.0  0.59050  0.37393  0.87998  1.0000
  H   H1333     1.0  0.61647  0.41938  0.83866  1.0000
  C   C1103     1.0  0.60810  0.35635  0.92152  1.0000
  H   H1334     1.0  0.59224  0.37708  0.85632  1.0000
  C   C1104     1.0  0.60687  0.34497  0.91075  1.0000
  N   N77       1.0  0.61176  0.38793  0.86387  1.0000
  H   H1335     1.0  0.65215  0.40388  0.69341  1.0000
  C   C1105     1.0  0.59924  0.38138  0.79420  1.0000
  C   C1106     1.0  0.58584  0.37089  0.80087  1.0000
  C   C1107     1.0  0.58686  0.35759  0.81623  1.0000
  C   C1108     1.0  0.61417  0.37785  0.80230  1.0000
  H   H1336     1.0  0.57440  0.37336  0.79448  1.0000
  H   H1337     1.0  0.57623  0.34989  0.82165  1.0000
  H   H1338     1.0  0.62469  0.38574  0.79709  1.0000
  C   C1109     1.0  0.72132  0.44257  0.55623  1.0000
  C   C1110     1.0  0.71597  0.44103  0.54072  1.0000
  C   C1111     1.0  0.64075  0.43874  0.86205  1.0000
  C   C1112     1.0  0.63619  0.44909  0.84615  1.0000
  C   C1113     1.0  0.64207  0.44228  0.83043  1.0000
  C   C1114     1.0  0.65308  0.42533  0.83041  1.0000
  C   C1115     1.0  0.65821  0.41523  0.84620  1.0000
  C   C1116     1.0  0.65176  0.42178  0.86209  1.0000
  H   H1339     1.0  0.62771  0.46224  0.84608  1.0000
  H   H1340     1.0  0.63803  0.45017  0.81834  1.0000
  H   H1341     1.0  0.66679  0.40214  0.84623  1.0000
  H   H1342     1.0  0.65551  0.41383  0.87430  1.0000
  C   C1117     1.0  0.69170  0.43456  0.69459  1.0000
  C   C1118     1.0  0.68759  0.42802  0.71286  1.0000
  C   C1119     1.0  0.67226  0.43649  0.72336  1.0000
  C   C1120     1.0  0.66113  0.45161  0.71560  1.0000
  C   C1121     1.0  0.66497  0.45783  0.69727  1.0000
  C   C1122     1.0  0.68014  0.44920  0.68674  1.0000
  H   H1343     1.0  0.69649  0.41665  0.71896  1.0000
  H   H1344     1.0  0.66933  0.43159  0.73750  1.0000
  H   H1345     1.0  0.65622  0.46937  0.69118  1.0000
  H   H1346     1.0  0.68289  0.45393  0.67257  1.0000
  C   C1123     1.0  0.72616  0.42864  0.53022  1.0000
  N   N78       1.0  0.55129  0.41342  0.83011  1.0000
  H   H1347     1.0  0.66671  0.38544  0.95554  1.0000
  H   H1348     1.0  0.59799  0.44908  0.83814  1.0000
  H   H1349     1.0  0.74975  0.40802  0.52657  1.0000
  C   C1124     1.0  0.58008  0.44158  0.86268  1.0000
  C   C1125     1.0  0.52623  0.37228  0.95168  1.0000
  C   C1126     1.0  0.57586  0.35961  0.93276  1.0000
  C   C1127     1.0  0.60004  0.37446  0.86705  1.0000
  H   H1350     1.0  0.53034  0.41856  0.85280  1.0000
  S   S312      1.0  0.65073  0.42189  0.96088  1.0000
  H   H1351     1.0  0.51325  0.29879  0.89971  1.0000
  C   C1128     1.0  0.74165  0.41727  0.53498  1.0000
  C   C1129     1.0  0.78674  0.43549  0.55090  1.0000
  C   C1130     1.0  0.79593  0.42100  0.56148  1.0000
  C   C1131     1.0  0.79209  0.41943  0.57994  1.0000
  C   C1132     1.0  0.77886  0.43218  0.58792  1.0000
  C   C1133     1.0  0.76943  0.44654  0.57738  1.0000
  C   C1134     1.0  0.77349  0.44828  0.55885  1.0000
  H   H1352     1.0  0.80621  0.41112  0.55539  1.0000
  H   H1353     1.0  0.79950  0.40837  0.58805  1.0000
  H   H1354     1.0  0.75963  0.45671  0.58348  1.0000
  H   H1355     1.0  0.76652  0.45958  0.55068  1.0000
  C   C1135     1.0  0.52926  0.39023  0.94595  1.0000
  H   H1356     1.0  0.51799  0.46538  0.91978  1.0000
  S   S313      1.0  0.56748  0.42871  0.94801  1.0000
  H   H1357     1.0  0.65853  0.46674  0.88317  1.0000
  H   H1358     1.0  0.73544  0.47773  0.72129  1.0000
  H   H1359     1.0  0.57780  0.40968  0.81319  1.0000
  C   C1136     1.0  0.51656  0.29391  0.93767  1.0000
  C   C1137     1.0  0.64472  0.33965  0.96545  1.0000
  H   H1360     1.0  0.61405  0.39048  0.72959  1.0000
  H   H1361     1.0  0.59338  0.37283  0.94057  1.0000
  H   H1362     1.0  0.80161  0.46499  0.56833  1.0000
  C   C1138     1.0  0.53447  0.39777  0.95819  1.0000
  H   H1363     1.0  0.56082  0.25878  0.93329  1.0000
  C   C1139     1.0  0.64422  0.41420  0.70129  1.0000
  C   C1140     1.0  0.52268  0.27568  0.88741  1.0000
  S   S314      1.0  0.69284  0.48501  0.60879  1.0000
  C   C1141     1.0  0.62278  0.39539  0.71684  1.0000
  C   C1142     1.0  0.59450  0.43814  0.84890  1.0000
  H   H1364     1.0  0.76749  0.41087  0.49495  1.0000
  H   H1365     1.0  0.72336  0.44967  0.69555  1.0000
  H   H1366     1.0  0.49700  0.24540  0.88839  1.0000
  H   H1367     1.0  0.69159  0.45699  0.59136  1.0000
  C   C1143     1.0  0.52864  0.36254  0.96850  1.0000
  C   C1144     1.0  0.69938  0.44732  0.58266  1.0000
  C   C1145     1.0  0.72967  0.45980  0.69847  1.0000
  H   H1368     1.0  0.61548  0.43024  0.72055  1.0000
  C   C1146     1.0  0.53245  0.46153  0.91864  1.0000
  C   C1147     1.0  0.61563  0.36391  0.81707  1.0000
  N   N79       1.0  0.63545  0.40585  0.71920  1.0000
  C   C1148     1.0  0.62495  0.42059  0.72845  1.0000
  C   C1149     1.0  0.64840  0.39403  0.73000  1.0000
  C   C1150     1.0  0.66742  0.39161  0.72401  1.0000
  C   C1151     1.0  0.64206  0.38468  0.74725  1.0000
  C   C1152     1.0  0.67920  0.38084  0.73486  1.0000
  C   C1153     1.0  0.65394  0.37393  0.75797  1.0000
  C   C1154     1.0  0.67249  0.37207  0.75182  1.0000
  H   H1369     1.0  0.63406  0.42839  0.73098  1.0000
  H   H1370     1.0  0.61671  0.41559  0.74147  1.0000
  H   H1371     1.0  0.67361  0.39805  0.71108  1.0000
  H   H1372     1.0  0.69366  0.37941  0.73009  1.0000
  H   H1373     1.0  0.64868  0.36721  0.77123  1.0000
  H   H1374     1.0  0.68167  0.36388  0.76025  1.0000
  H   H1375     1.0  0.52665  0.34875  0.97238  1.0000
  H   H1376     1.0  0.64822  0.47916  0.92283  1.0000
  H   H1377     1.0  0.79093  0.46110  0.61599  1.0000
  C   C1155     1.0  0.50051  0.25699  0.89097  1.0000
  C   C1156     1.0  0.56258  0.46366  0.90199  1.0000
  C   C1157     1.0  0.58613  0.41034  0.87709  1.0000
  Fe  Fe160     1.0  0.55370  0.33526  0.89664  1.0000
  H   H1378     1.0  0.74093  0.45272  0.70544  1.0000
  H   H1379     1.0  0.66982  0.48614  0.85588  1.0000
  Fe  Fe161     1.0  0.54954  0.30754  0.87748  1.0000
  H   H1380     1.0  0.53097  0.44545  0.94501  1.0000
  C   C1158     1.0  0.50327  0.38168  0.86592  1.0000
  H   H1381     1.0  0.50287  0.24347  0.94869  1.0000
  H   H1382     1.0  0.64222  0.46467  0.91146  1.0000
  Fe  Fe162     1.0  0.50971  0.47557  0.88230  1.0000
  C   C1159     1.0  0.59253  0.36392  0.93231  1.0000
  C   C1160     1.0  0.60172  0.35417  0.82442  1.0000
  C   C1161     1.0  0.50969  0.28736  0.89691  1.0000
  C   C1162     1.0  0.68140  0.37363  0.97681  1.0000
  S   S315      1.0  0.55423  0.32548  0.85068  1.0000
  C   C1163     1.0  0.67933  0.45649  0.92975  1.0000
  H   H1383     1.0  0.50911  0.38685  0.92288  1.0000
  C   C1164     1.0  0.54388  0.46829  0.90321  1.0000
  H   H1384     1.0  0.72232  0.42815  0.51803  1.0000
  S   S316      1.0  0.60296  0.33825  0.84410  1.0000
  Fe  Fe163     1.0  0.62516  0.38945  0.92589  1.0000
  C   C1165     1.0  0.60080  0.40630  0.86313  1.0000
  H   H1385     1.0  0.66381  0.43958  0.90171  1.0000
  N   N80       1.0  0.67003  0.45818  0.91488  1.0000
  H   H1386     1.0  0.55588  0.39402  0.91760  1.0000
  H   H1387     1.0  0.72962  0.45420  0.58472  1.0000
  H   H1388     1.0  0.63585  0.39368  0.84504  1.0000
  C   C1166     1.0  0.60494  0.42088  0.84923  1.0000
  C   C1167     1.0  0.57456  0.34839  0.92182  1.0000
  C   C1168     1.0  0.70002  0.47153  0.55734  1.0000
  H   H1389     1.0  0.63071  0.37037  0.87934  1.0000
  H   H1390     1.0  0.63245  0.37141  0.84789  1.0000
  H   H1391     1.0  0.60810  0.36057  0.86744  1.0000
  H   H1392     1.0  0.54323  0.41126  0.77403  1.0000
  S   S317      1.0  0.51191  0.45117  0.87125  1.0000
  H   H1393     1.0  0.58926  0.33264  0.90215  1.0000
  H   H1394     1.0  0.68644  0.43465  0.90561  1.0000
  H   H1395     1.0  0.54412  0.41381  0.90507  1.0000
  C   C1169     1.0  0.53151  0.26260  0.93669  1.0000
  C   C1170     1.0  0.72393  0.46360  0.57364  1.0000
  C   C1171     1.0  0.59008  0.34128  0.91065  1.0000
  C   C1172     1.0  0.54024  0.41754  0.81625  1.0000
  H   H1396     1.0  0.70707  0.42198  0.75413  1.0000
  C   C1173     1.0  0.51167  0.42961  0.80579  1.0000
  H   H1397     1.0  0.50149  0.40475  0.84493  1.0000
  C   C1174     1.0  0.52233  0.39090  0.91673  1.0000
  H   H1398     1.0  0.56545  0.43089  0.88794  1.0000
  H   H1399     1.0  0.70432  0.44961  0.53611  1.0000
  S   S318      1.0  0.50524  0.46865  0.82332  1.0000
  H   H1400     1.0  0.55204  0.42060  0.85473  1.0000
  S   S319      1.0  0.54482  0.27958  0.87941  1.0000
  C   C1175     1.0  0.66489  0.40431  0.97218  1.0000
  H   H1401     1.0  0.56799  0.43250  0.81534  1.0000
  H   H1402     1.0  0.61814  0.35014  0.95996  1.0000
  C   C1176     1.0  0.53569  0.47622  0.82926  1.0000
  Fe  Fe164     1.0  0.57606  0.33282  0.86012  1.0000
  S   S320      1.0  0.57337  0.31272  0.88568  1.0000
  C   C1177     1.0  0.80810  0.48120  0.60296  1.0000
  H   H1403     1.0  0.57147  0.46902  0.89015  1.0000
  H   H1404     1.0  0.50456  0.28852  0.85002  1.0000
  H   H1405     1.0  0.71734  0.47605  0.57890  1.0000
  H   H1406     1.0  0.51563  0.30849  0.86117  1.0000
  H   H1407     1.0  0.53389  0.31296  0.93388  1.0000
  H   H1408     1.0  0.66796  0.43025  0.92354  1.0000
  H   H1409     1.0  0.58289  0.40021  0.88866  1.0000
  H   H1410     1.0  0.51588  0.33104  0.84952  1.0000
  H   H1411     1.0  0.68681  0.48674  0.73196  1.0000
  C   C1178     1.0  0.65058  0.46504  0.92098  1.0000
  C   C1179     1.0  0.72566  0.48490  0.71254  1.0000
  H   H1412     1.0  0.56112  0.40486  0.79685  1.0000
  Fe  Fe165     1.0  0.53585  0.34675  0.86458  1.0000
  H   H1413     1.0  0.63419  0.42302  0.69351  1.0000
  H   H1414     1.0  0.67087  0.47172  0.75980  1.0000
  C   C1180     1.0  0.62521  0.38558  0.84735  1.0000
  C   C1181     1.0  0.74677  0.41788  0.55052  1.0000
  H   H1415     1.0  0.61888  0.33918  0.90230  1.0000
  H   H1416     1.0  0.63024  0.38348  0.71097  1.0000
  C   C1182     1.0  0.53722  0.41552  0.78657  1.0000
  N   N81       1.0  0.80941  0.47986  0.58431  1.0000
  H   H1417     1.0  0.65334  0.42294  0.70212  1.0000
  H   H1418     1.0  0.53330  0.46056  0.79339  1.0000
  H   H1419     1.0  0.80361  0.48723  0.65177  1.0000
  H   H1420     1.0  0.69391  0.48229  0.56528  1.0000
  C   C1183     1.0  0.79659  0.47297  0.63496  1.0000
  C   C1184     1.0  0.49912  0.37538  0.88420  1.0000
  C   C1185     1.0  0.54749  0.41203  0.79972  1.0000
  H   H1421     1.0  0.67367  0.44734  0.94187  1.0000
  H   H1422     1.0  0.78845  0.46528  0.64584  1.0000
  H   H1423     1.0  0.69802  0.47789  0.90798  1.0000
  N   N82       1.0  0.71612  0.47223  0.70882  1.0000
  H   H1424     1.0  0.75639  0.44311  0.49499  1.0000
  H   H1425     1.0  0.80604  0.45229  0.58933  1.0000
  S   S321      1.0  0.52951  0.32848  0.89070  1.0000
  C   C1186     1.0  0.70652  0.46293  0.72578  1.0000
  C   C1187     1.0  0.70316  0.48255  0.69730  1.0000
  C   C1188     1.0  0.71198  0.44441  0.73283  1.0000
  C   C1189     1.0  0.51934  0.42436  0.78957  1.0000
  C   C1190     1.0  0.69162  0.47258  0.73619  1.0000
  H   H1426     1.0  0.52763  0.47968  0.84151  1.0000
  C   C1191     1.0  0.54897  0.28618  0.93334  1.0000
  S   S322      1.0  0.51487  0.36691  0.85162  1.0000
  C   C1192     1.0  0.54819  0.26820  0.93443  1.0000
  H   H1427     1.0  0.72307  0.43589  0.72591  1.0000
  H   H1428     1.0  0.50813  0.24905  0.92480  1.0000
  H   H1429     1.0  0.67022  0.33132  0.97385  1.0000
  C   C1193     1.0  0.53319  0.29901  0.93490  1.0000
  H   H1430     1.0  0.55937  0.48317  0.83348  1.0000
  H   H1431     1.0  0.68580  0.36070  0.97285  1.0000
  H   H1432     1.0  0.78557  0.46883  0.58798  1.0000
  C   C1194     1.0  0.65651  0.33868  0.97659  1.0000
  C   C1195     1.0  0.62719  0.34926  0.96880  1.0000
  H   H1433     1.0  0.51506  0.43064  0.83120  1.0000
  C   C1196     1.0  0.52819  0.47006  0.81793  1.0000
  H   H1434     1.0  0.70724  0.43613  0.59097  1.0000
  H   H1435     1.0  0.63012  0.39398  0.87718  1.0000
  C   C1197     1.0  0.62168  0.38379  0.87859  1.0000
  H   H1436     1.0  0.70828  0.47783  0.54489  1.0000
  S   S323      1.0  0.61665  0.43843  0.93145  1.0000
  S   S324      1.0  0.62904  0.36160  0.92085  1.0000
  S   S325      1.0  0.61456  0.39715  0.95258  1.0000
  C   C1198     1.0  0.80028  0.46588  0.58247  1.0000
  Fe  Fe166     1.0  0.63535  0.41482  0.94357  1.0000
  H   H1437     1.0  0.52250  0.36525  0.94326  1.0000
  H   H1438     1.0  0.75892  0.40909  0.55413  1.0000
  C   C1199     1.0  0.55848  0.44491  0.93129  1.0000
  H   H1439     1.0  0.61238  0.38354  0.89161  1.0000
  H   H1440     1.0  0.74106  0.42975  0.57322  1.0000
  C   C1200     1.0  0.70286  0.43617  0.74910  1.0000
  H   H1441     1.0  0.52806  0.25134  0.87711  1.0000
  C   C1201     1.0  0.69141  0.47924  0.89706  1.0000
  C   C1202     1.0  0.49885  0.40001  0.85908  1.0000
  S   S326      1.0  0.58689  0.47667  0.80359  1.0000
  N   N83       1.0  0.71130  0.45610  0.56717  1.0000
  H   H1442     1.0  0.73515  0.46732  0.56271  1.0000
  H   H1443     1.0  0.54002  0.43779  0.84019  1.0000
  C   C1203     1.0  0.56986  0.45171  0.91586  1.0000
  S   S327      1.0  0.78006  0.47191  0.48565  1.0000
  H   H1444     1.0  0.68958  0.44162  0.57843  1.0000
  H   H1445     1.0  0.64509  0.45685  0.93387  1.0000
  H   H1446     1.0  0.57724  0.41685  0.83292  1.0000
  C   C1204     1.0  0.67217  0.43992  0.91124  1.0000
  H   H1447     1.0  0.68848  0.46762  0.55414  1.0000
  C   C1205     1.0  0.56452  0.47361  0.80902  1.0000
  H   H1448     1.0  0.54178  0.24625  0.90929  1.0000
  H   H1449     1.0  0.54055  0.38982  0.84374  1.0000
  H   H1450     1.0  0.61870  0.38942  0.83556  1.0000
  S   S328      1.0  0.64766  0.40507  0.91805  1.0000
  H   H1451     1.0  0.50230  0.27308  0.94053  1.0000
  H   H1452     1.0  0.56554  0.46357  0.78557  1.0000
  C   C1206     1.0  0.55372  0.47821  0.82471  1.0000
  C   C1207     1.0  0.53977  0.45022  0.93286  1.0000
  C   C1208     1.0  0.52187  0.42618  0.81899  1.0000
  C   C1209     1.0  0.51807  0.26044  0.88449  1.0000
  H   H1453     1.0  0.69503  0.47367  0.69497  1.0000
  H   H1454     1.0  0.67769  0.46965  0.93368  1.0000
  H   H1455     1.0  0.69392  0.45065  0.92638  1.0000
  C   C1210     1.0  0.53899  0.46543  0.80218  1.0000
  C   C1211     1.0  0.73659  0.43004  0.56121  1.0000
  Fe  Fe167     1.0  0.74985  0.47875  0.49026  1.0000
  C   C1212     1.0  0.79803  0.47083  0.61758  1.0000
  H   H1456     1.0  0.62743  0.36087  0.82302  1.0000
  H   H1457     1.0  0.61346  0.40364  0.70800  1.0000
  C   C1213     1.0  0.67062  0.38761  0.96701  1.0000
  H   H1458     1.0  0.50432  0.30398  0.93878  1.0000
  H   H1459     1.0  0.51215  0.42576  0.91631  1.0000
  C   C1214     1.0  0.68810  0.44598  0.75878  1.0000
  H   H1460     1.0  0.51654  0.42585  0.93735  1.0000
  H   H1461     1.0  0.56009  0.38585  0.82700  1.0000
  C   C1215     1.0  0.54497  0.40605  0.91865  1.0000
  C   C1216     1.0  0.67704  0.47021  0.89845  1.0000
  S   S329      1.0  0.55351  0.34355  0.92202  1.0000
  H   H1462     1.0  0.68090  0.43947  0.77128  1.0000
  C   C1217     1.0  0.54300  0.42304  0.84506  1.0000
  C   C1218     1.0  0.82861  0.47552  0.57560  1.0000
  H   H1463     1.0  0.54935  0.41467  0.92553  1.0000
  C   C1219     1.0  0.55375  0.39394  0.83745  1.0000
  C   C1220     1.0  0.68249  0.46415  0.75232  1.0000
  C   C1221     1.0  0.51305  0.24058  0.93671  1.0000
  S   S330      1.0  0.55802  0.35569  0.87178  1.0000
  C   C1222     1.0  0.66948  0.47312  0.88312  1.0000
  C   C1223     1.0  0.57605  0.42778  0.87685  1.0000
  H   H1464     1.0  0.50210  0.36120  0.88956  1.0000
  H   H1465     1.0  0.56399  0.36510  0.94149  1.0000
  H   H1466     1.0  0.81467  0.48713  0.50010  1.0000
  C   C1224     1.0  0.55722  0.46707  0.79777  1.0000
  C   C1225     1.0  0.53683  0.38795  0.97495  1.0000
  H   H1467     1.0  0.53262  0.37874  0.91428  1.0000
  H   H1468     1.0  0.56240  0.39005  0.84758  1.0000
  C   C1226     1.0  0.51353  0.41723  0.92954  1.0000
  H   H1469     1.0  0.57235  0.45512  0.86263  1.0000
  H   H1470     1.0  0.50006  0.41381  0.93602  1.0000
  C   C1227     1.0  0.67588  0.48427  0.86738  1.0000
  H   H1471     1.0  0.56188  0.29027  0.93111  1.0000
  H   H1472     1.0  0.81660  0.40896  0.48795  1.0000
  H   H1473     1.0  0.51139  0.42710  0.77936  1.0000
  C   C1228     1.0  0.75913  0.41877  0.48564  1.0000
  C   C1229     1.0  0.75284  0.43709  0.48565  1.0000
  H   H1474     1.0  0.83559  0.46281  0.58289  1.0000
  H   H1475     1.0  0.83614  0.48628  0.57474  1.0000
  H   H1476     1.0  0.82926  0.48555  0.52519  1.0000
  H   H1477     1.0  0.71018  0.48890  0.68412  1.0000
  S   S331      1.0  0.77641  0.48941  0.52060  1.0000
  H   H1478     1.0  0.82180  0.44014  0.47887  1.0000
  H   H1479     1.0  0.92025  0.70376  0.43355  1.0000
  C   C1230     1.0  0.98134  0.65747  0.47026  1.0000
  H   H1480     1.0  0.88739  0.67497  0.41141  1.0000
  S   S332      1.0  0.97730  0.60730  0.39897  1.0000
  H   H1481     1.0  0.98090  0.67085  0.38980  1.0000
  S   S333      1.0  0.89984  0.50714  0.38284  1.0000
  C   C1231     1.0  0.96675  0.63611  0.46305  1.0000
  H   H1482     1.0  0.93802  0.68456  0.46308  1.0000
  C   C1232     1.0  0.98345  0.65502  0.43941  1.0000
  Fe  Fe168     1.0  0.96536  0.73653  0.42395  1.0000
  N   N84       1.0  0.91290  0.68359  0.45642  1.0000
  S   S334      1.0  0.97179  0.70681  0.43275  1.0000
  Fe  Fe169     1.0  0.96543  0.70547  0.40694  1.0000
  S   S335      1.0  0.94613  0.68763  0.40803  1.0000
  C   C1233     1.0  0.90196  0.68349  0.47453  1.0000
  Fe  Fe170     1.0  0.95392  0.55165  0.43700  1.0000
  S   S336      1.0  0.93794  0.57883  0.42766  1.0000
  S   S337      1.0  0.94867  0.52614  0.42988  1.0000
  H   H1483     1.0  0.95863  0.62573  0.46735  1.0000
  S   S338      1.0  0.95968  0.59625  0.44858  1.0000
  Fe  Fe171     1.0  0.93567  0.58298  0.45535  1.0000
  S   S339      1.0  0.91032  0.59493  0.47239  1.0000
  Fe  Fe172     1.0  0.96417  0.58862  0.42215  1.0000
  H   H1484     1.0  0.88753  0.68940  0.47418  1.0000
  S   S340      1.0  0.95058  0.55563  0.46535  1.0000
  C   C1234     1.0  0.86493  0.50008  0.44272  1.0000
  C   C1235     1.0  0.91205  0.70264  0.44722  1.0000
  C   C1236     1.0  0.97926  0.64293  0.39322  1.0000
  H   H1485     1.0  0.98574  0.69206  0.46510  1.0000
  H   H1486     1.0  0.88872  0.64261  0.42407  1.0000
  H   H1487     1.0  0.86367  0.50159  0.40781  1.0000
  C   C1237     1.0  0.93782  0.72899  0.46885  1.0000
  C   C1238     1.0  0.95510  0.66553  0.40487  1.0000
  C   C1239     1.0  0.97263  0.66076  0.39554  1.0000
  C   C1240     1.0  0.97271  0.64198  0.44504  1.0000
  C   C1241     1.0  0.96854  0.62980  0.40067  1.0000
  C   C1242     1.0  0.95110  0.63459  0.41008  1.0000
  C   C1243     1.0  0.94434  0.65246  0.41194  1.0000
  H   H1488     1.0  0.98826  0.65943  0.42535  1.0000
  C   C1244     1.0  0.98790  0.66255  0.45180  1.0000
  H   H1489     1.0  0.94273  0.62454  0.41580  1.0000
  H   H1490     1.0  0.93080  0.65610  0.41901  1.0000
  C   C1245     1.0  0.91406  0.51210  0.39554  1.0000
  C   C1246     1.0  0.92593  0.49877  0.40465  1.0000
  C   C1247     1.0  0.93628  0.50334  0.41498  1.0000
  C   C1248     1.0  0.93512  0.52130  0.41644  1.0000
  C   C1249     1.0  0.92312  0.53461  0.40746  1.0000
  C   C1250     1.0  0.91272  0.53003  0.39719  1.0000
  C   C1251     1.0  0.89329  0.65099  0.43060  1.0000
  C   C1252     1.0  0.87642  0.52747  0.44066  1.0000
  H   H1491     1.0  0.92193  0.54849  0.40829  1.0000
  H   H1492     1.0  0.90363  0.54056  0.39034  1.0000
  H   H1493     1.0  0.94034  0.67396  0.44463  1.0000
  C   C1253     1.0  0.90666  0.65406  0.45416  1.0000
  S   S341      1.0  0.99344  0.73926  0.41016  1.0000
  C   C1254     1.0  0.73454  0.57254  0.47683  1.0000
  H   H1494     1.0  0.91218  0.64749  0.46587  1.0000
  C   C1255     1.0  0.89252  0.66922  0.42354  1.0000
  H   H1495     1.0  0.89826  0.69387  0.42523  1.0000
  C   C1256     1.0  0.91050  0.53664  0.46431  1.0000
  H   H1496     1.0  0.89794  0.70964  0.44658  1.0000
  Fe  Fe173     1.0  0.97520  0.56893  0.45711  1.0000
  H   H1497     1.0  0.73645  0.56995  0.46356  1.0000
  H   H1498     1.0  0.88178  0.51337  0.41950  1.0000
  H   H1499     1.0  0.84191  0.50246  0.42219  1.0000
  S   S342      1.0  0.99373  0.70525  0.39153  1.0000
  H   H1500     1.0  0.90115  0.62920  0.45121  1.0000
  C   C1257     1.0  0.90921  0.51868  0.46698  1.0000
  S   S343      1.0  0.98062  0.56140  0.43002  1.0000
  H   H1501     1.0  0.91560  0.51107  0.45655  1.0000
  H   H1502     1.0  0.91746  0.71043  0.45416  1.0000
  C   C1258     1.0  0.93196  0.67581  0.45783  1.0000
  H   H1503     1.0  0.93340  0.66250  0.46686  1.0000
  S   S344      1.0  0.95648  0.73524  0.39945  1.0000
  H   H1504     1.0  0.99266  0.63934  0.38568  1.0000
  H   H1505     1.0  0.95177  0.72230  0.46753  1.0000
  C   C1259     1.0  0.90034  0.64344  0.44589  1.0000
  C   C1260     1.0  0.90612  0.67268  0.44733  1.0000
  H   H1506     1.0  0.96906  0.63632  0.43547  1.0000
  C   C1261     1.0  0.89882  0.67999  0.43170  1.0000
  Fe  Fe174     1.0  0.98539  0.73529  0.38621  1.0000
  H   H1507     1.0  0.84798  0.49226  0.46881  1.0000
  C   C1262     1.0  0.87500  0.51351  0.43308  1.0000
  H   H1508     1.0  0.88439  0.53742  0.43297  1.0000
  H   H1509     1.0  0.99385  0.61410  0.42603  1.0000
  H   H1510     1.0  0.86881  0.53945  0.46383  1.0000
  H   H1511     1.0  0.90449  0.56025  0.47509  1.0000
  C   C1263     1.0  0.86769  0.52860  0.45800  1.0000
  C   C1264     1.0  0.85769  0.51566  0.46790  1.0000
  C   C1265     1.0  0.85620  0.50160  0.46044  1.0000
  H   H1512     1.0  0.91787  0.54291  0.45182  1.0000
  C   C1266     1.0  0.97110  0.64357  0.47554  1.0000
  H   H1513     1.0  0.94544  0.49283  0.42176  1.0000
  C   C1267     1.0  0.85506  0.49348  0.41855  1.0000
  H   H1514     1.0  0.71027  0.59223  0.47451  1.0000
  S   S345      1.0  0.79748  0.51728  0.47731  1.0000
  C   C1268     1.0  0.90270  0.54650  0.47774  1.0000
  C   C1269     1.0  0.94008  0.60957  0.50012  1.0000
  H   H1515     1.0  0.82117  0.65103  0.50139  1.0000
  C   C1270     1.0  0.58788  0.56851  0.62777  1.0000
  C   C1271     1.0  0.86338  0.60065  0.55476  1.0000
  Fe  Fe175     1.0  0.74663  0.49496  0.52219  1.0000
  H   H1516     1.0  0.92814  0.70883  0.49059  1.0000
  H   H1517     1.0  0.98405  0.60294  0.48445  1.0000
  C   C1272     1.0  0.82160  0.53081  0.51075  1.0000
  H   H1518     1.0  0.91054  0.54316  0.51784  1.0000
  H   H1519     1.0  0.75164  0.55690  0.57329  1.0000
  Fe  Fe176     1.0  0.89650  0.69765  0.52056  1.0000
  S   S346      1.0  0.92460  0.68601  0.52506  1.0000
  H   H1520     1.0  0.96441  0.61528  0.57369  1.0000
  Fe  Fe177     1.0  0.88017  0.66952  0.54970  1.0000
  S   S347      1.0  0.90686  0.65565  0.55679  1.0000
  S   S348      1.0  0.85573  0.65772  0.56380  1.0000
  S   S349      1.0  0.50141  0.69700  0.65924  1.0000
  Fe  Fe178     1.0  0.91674  0.65953  0.52752  1.0000
  S   S350      1.0  0.93696  0.63753  0.51637  1.0000
  S   S351      1.0  0.88412  0.69721  0.54932  1.0000
  S   S352      1.0  0.88968  0.67139  0.52044  1.0000
  H   H1521     1.0  0.69489  0.57121  0.62345  1.0000
  N   N85       1.0  0.75783  0.55635  0.51656  1.0000
  S   S353      1.0  0.77846  0.59131  0.53783  1.0000
  Fe  Fe179     1.0  0.91179  0.68338  0.55385  1.0000
  H   H1522     1.0  0.77146  0.52924  0.52532  1.0000
  Fe  Fe180     1.0  0.68762  0.61064  0.58859  1.0000
  S   S354      1.0  0.67349  0.62125  0.56553  1.0000
  S   S355      1.0  0.71129  0.61878  0.59382  1.0000
  Fe  Fe181     1.0  0.66509  0.58222  0.60520  1.0000
  S   S356      1.0  0.64893  0.58999  0.58372  1.0000
  S   S357      1.0  0.66044  0.56087  0.62943  1.0000
  Fe  Fe182     1.0  0.67531  0.59219  0.56508  1.0000
  Fe  Fe183     1.0  0.50357  0.66986  0.67647  1.0000
  Fe  Fe184     1.0  0.64830  0.61818  0.58606  1.0000
  S   S358      1.0  0.62246  0.63834  0.58509  1.0000
  S   S359      1.0  0.69168  0.58188  0.58646  1.0000
  S   S360      1.0  0.66235  0.61022  0.60918  1.0000
  Fe  Fe185     1.0  0.53959  0.65553  0.65532  1.0000
  S   S361      1.0  0.51120  0.65450  0.65439  1.0000
  S   S362      1.0  0.56284  0.63219  0.65500  1.0000
  Fe  Fe186     1.0  0.53040  0.69414  0.66007  1.0000
  H   H1523     1.0  0.49684  0.58114  0.85315  1.0000
  S   S363      1.0  0.54241  0.71615  0.66372  1.0000
  H   H1524     1.0  0.90756  0.56394  0.50229  1.0000
  C   C1273     1.0  0.78560  0.53333  0.62593  1.0000
  Fe  Fe187     1.0  0.51114  0.68176  0.63716  1.0000
  H   H1525     1.0  0.97437  0.69631  0.54122  1.0000
  S   S364      1.0  0.53183  0.66816  0.67944  1.0000
  S   S365      1.0  0.54032  0.68156  0.63597  1.0000
  H   H1526     1.0  0.60686  0.58851  0.63668  1.0000
  H   H1527     1.0  0.98762  0.60840  0.56575  1.0000
  C   C1274     1.0  0.97296  0.62029  0.53730  1.0000
  H   H1528     1.0  0.55024  0.70327  0.72339  1.0000
  C   C1275     1.0  0.76530  0.51353  0.62660  1.0000
  C   C1276     1.0  0.51611  0.52950  0.85656  1.0000
  C   C1277     1.0  0.52668  0.67717  0.75754  1.0000
  H   H1529     1.0  0.70587  0.59818  0.50477  1.0000
  H   H1530     1.0  0.94397  0.71859  0.56188  1.0000
  H   H1531     1.0  0.75907  0.50698  0.61969  1.0000
  C   C1278     1.0  0.60617  0.63701  0.60474  1.0000
  C   C1279     1.0  0.58851  0.64637  0.60436  1.0000
  C   C1280     1.0  0.57513  0.64499  0.61978  1.0000
  C   C1281     1.0  0.57942  0.63438  0.63564  1.0000
  C   C1282     1.0  0.59715  0.62533  0.63612  1.0000
  C   C1283     1.0  0.61050  0.62658  0.62067  1.0000
  H   H1532     1.0  0.58510  0.65442  0.59204  1.0000
  H   H1533     1.0  0.56141  0.65179  0.61923  1.0000
  H   H1534     1.0  0.60056  0.61735  0.64846  1.0000
  H   H1535     1.0  0.62412  0.61951  0.62113  1.0000
  C   C1284     1.0  0.75981  0.59882  0.55350  1.0000
  C   C1285     1.0  0.76159  0.59808  0.57086  1.0000
  C   C1286     1.0  0.74678  0.60477  0.58309  1.0000
  C   C1287     1.0  0.72998  0.61143  0.57821  1.0000
  C   C1288     1.0  0.72804  0.61162  0.56103  1.0000
  C   C1289     1.0  0.74305  0.60569  0.54856  1.0000
  H   H1536     1.0  0.77440  0.59265  0.57485  1.0000
  H   H1537     1.0  0.74825  0.60444  0.59644  1.0000
  H   H1538     1.0  0.71504  0.61670  0.55724  1.0000
  H   H1539     1.0  0.74157  0.60631  0.53515  1.0000
  H   H1540     1.0  0.70653  0.55108  0.65864  1.0000
  C   C1290     1.0  0.84726  0.62423  0.57102  1.0000
  C   C1291     1.0  0.85953  0.63527  0.56139  1.0000
  C   C1292     1.0  0.87423  0.62862  0.54908  1.0000
  C   C1293     1.0  0.87615  0.61134  0.54575  1.0000
  H   H1541     1.0  0.74604  0.54880  0.63790  1.0000
  H   H1542     1.0  0.88394  0.63689  0.54182  1.0000
  H   H1543     1.0  0.74986  0.57181  0.53745  1.0000
  H   H1544     1.0  0.69790  0.54265  0.64400  1.0000
  C   C1294     1.0  0.92843  0.62422  0.50648  1.0000
  C   C1295     1.0  0.91056  0.62849  0.50408  1.0000
  C   C1296     1.0  0.53177  0.51880  0.78931  1.0000
  H   H1545     1.0  0.90132  0.63935  0.50940  1.0000
  H   H1546     1.0  0.83614  0.62912  0.58090  1.0000
  H   H1547     1.0  0.98134  0.64642  0.50669  1.0000
  C   C1297     1.0  0.54651  0.54320  0.77206  1.0000
  H   H1548     1.0  0.87977  0.57501  0.49089  1.0000
  C   C1298     1.0  0.82694  0.51421  0.52138  1.0000
  S   S366      1.0  0.73027  0.50492  0.54650  1.0000
  C   C1299     1.0  0.51396  0.54683  0.77708  1.0000
  H   H1549     1.0  0.81283  0.62256  0.50762  1.0000
  C   C1300     1.0  0.80609  0.62467  0.52124  1.0000
  H   H1550     1.0  0.77138  0.62965  0.58045  1.0000
  C   C1301     1.0  0.71748  0.58859  0.49989  1.0000
  H   H1551     1.0  0.53207  0.55322  0.80832  1.0000
  H   H1552     1.0  0.84209  0.63386  0.53230  1.0000
  H   H1553     1.0  0.69835  0.55966  0.51321  1.0000
  H   H1554     1.0  0.57903  0.57810  0.63610  1.0000
  H   H1555     1.0  0.89525  0.56269  0.52445  1.0000
  H   H1556     1.0  0.97822  0.64728  0.55508  1.0000
  C   C1302     1.0  0.81664  0.49362  0.60691  1.0000
  C   C1303     1.0  0.50567  0.54624  0.84995  1.0000
  H   H1557     1.0  0.51799  0.60870  0.71874  1.0000
  H   H1558     1.0  0.51161  0.63757  0.69781  1.0000
  C   C1304     1.0  0.74678  0.56320  0.48777  1.0000
  H   H1559     1.0  0.63119  0.55923  0.56138  1.0000
  H   H1560     1.0  0.51274  0.70684  0.69248  1.0000
  H   H1561     1.0  0.74042  0.57004  0.59957  1.0000
  C   C1305     1.0  0.97112  0.65548  0.56471  1.0000
  C   C1306     1.0  0.89311  0.53872  0.49431  1.0000
  S   S367      1.0  0.83855  0.54156  0.57262  1.0000
  H   H1562     1.0  0.74362  0.52814  0.57200  1.0000
  H   H1563     1.0  0.68165  0.51947  0.58789  1.0000
  C   C1307     1.0  0.98218  0.58832  0.54278  1.0000
  C   C1308     1.0  0.77743  0.52492  0.61693  1.0000
  C   C1309     1.0  0.51452  0.52900  0.78695  1.0000
  H   H1564     1.0  0.77143  0.57875  0.50963  1.0000
  H   H1565     1.0  0.56052  0.51754  0.78375  1.0000
  H   H1566     1.0  0.79176  0.63101  0.52074  1.0000
  C   C1310     1.0  0.83396  0.62613  0.52818  1.0000
  S   S368      1.0  0.81183  0.58120  0.57159  1.0000
  Fe  Fe188     1.0  0.80069  0.57408  0.55106  1.0000
  C   C1311     1.0  0.67129  0.52453  0.63705  1.0000
  C   C1312     1.0  0.69682  0.55010  0.55762  1.0000
  H   H1567     1.0  0.83952  0.59858  0.57502  1.0000
  H   H1568     1.0  0.70181  0.58049  0.63888  1.0000
  S   S369      1.0  0.83543  0.51294  0.54036  1.0000
  C   C1313     1.0  0.84917  0.60693  0.56770  1.0000
  H   H1569     1.0  0.82480  0.65586  0.54732  1.0000
  C   C1314     1.0  0.79098  0.63187  0.55603  1.0000
  H   H1570     1.0  0.89857  0.49667  0.48492  1.0000
  H   H1571     1.0  0.73835  0.55322  0.54098  1.0000
  C   C1315     1.0  0.75146  0.55783  0.53551  1.0000
  H   H1572     1.0  0.78493  0.62331  0.55120  1.0000
  C   C1316     1.0  0.61736  0.56754  0.58605  1.0000
  C   C1317     1.0  0.81297  0.65013  0.55393  1.0000
  H   H1573     1.0  0.82380  0.66137  0.51819  1.0000
  H   H1574     1.0  0.72410  0.51291  0.59775  1.0000
  H   H1575     1.0  0.96682  0.71821  0.56163  1.0000
  C   C1318     1.0  0.69384  0.55999  0.54110  1.0000
  H   H1576     1.0  0.78480  0.55776  0.51806  1.0000
  C   C1319     1.0  0.66855  0.53970  0.62377  1.0000
  H   H1577     1.0  0.80819  0.50815  0.57399  1.0000
  H   H1578     1.0  0.96401  0.68931  0.47815  1.0000
  C   C1320     1.0  0.51745  0.71781  0.69502  1.0000
  C   C1321     1.0  0.89161  0.52045  0.49648  1.0000
  H   H1579     1.0  0.96739  0.70293  0.52009  1.0000
  H   H1580     1.0  0.69082  0.55559  0.56936  1.0000
  H   H1581     1.0  0.62654  0.58481  0.61974  1.0000
  H   H1582     1.0  0.80116  0.49669  0.56063  1.0000
  H   H1583     1.0  0.96322  0.63220  0.54142  1.0000
  C   C1322     1.0  0.63635  0.53846  0.58377  1.0000
  C   C1323     1.0  0.93422  0.59994  0.49039  1.0000
  H   H1584     1.0  0.58829  0.60318  0.61515  1.0000
  C   C1324     1.0  0.94492  0.67651  0.57576  1.0000
  C   C1325     1.0  0.97905  0.65570  0.57877  1.0000
  H   H1585     1.0  0.80954  0.54447  0.48811  1.0000
  C   C1326     1.0  0.81542  0.65308  0.51523  1.0000
  S   S370      1.0  0.79725  0.54649  0.56582  1.0000
  H   H1586     1.0  0.51947  0.63582  0.73872  1.0000
  C   C1327     1.0  0.51690  0.63613  0.75307  1.0000
  H   H1587     1.0  0.83420  0.61305  0.53763  1.0000
  C   C1328     1.0  0.91669  0.60495  0.48699  1.0000
  H   H1588     1.0  0.96135  0.66291  0.50307  1.0000
  H   H1589     1.0  0.51276  0.52222  0.86996  1.0000
  H   H1590     1.0  0.53908  0.50856  0.85121  1.0000
  H   H1591     1.0  0.70991  0.52549  0.57183  1.0000
  H   H1592     1.0  0.64028  0.65759  0.60147  1.0000
  H   H1593     1.0  0.71788  0.52937  0.51565  1.0000
  H   H1594     1.0  0.50772  0.50671  0.81857  1.0000
  H   H1595     1.0  0.88440  0.52742  0.53095  1.0000
  C   C1329     1.0  0.79000  0.64615  0.58042  1.0000
  C   C1330     1.0  0.52053  0.66710  0.74806  1.0000
  C   C1331     1.0  0.52640  0.67014  0.72935  1.0000
  C   C1332     1.0  0.78138  0.53060  0.64444  1.0000
  C   C1333     1.0  0.53733  0.68276  0.72067  1.0000
  C   C1334     1.0  0.53728  0.69003  0.74865  1.0000
  C   C1335     1.0  0.54249  0.69290  0.73027  1.0000
  H   H1596     1.0  0.95378  0.60588  0.50233  1.0000
  C   C1336     1.0  0.81525  0.49551  0.62435  1.0000
  C   C1337     1.0  0.52747  0.54652  0.82175  1.0000
  C   C1338     1.0  0.59637  0.59387  0.60620  1.0000
  C   C1339     1.0  0.95388  0.66558  0.56339  1.0000
  C   C1340     1.0  0.70758  0.53299  0.55901  1.0000
  H   H1597     1.0  0.90254  0.66972  0.48263  1.0000
  S   S371      1.0  0.68193  0.58221  0.53927  1.0000
  H   H1598     1.0  0.76606  0.51751  0.66833  1.0000
  H   H1599     1.0  0.52223  0.66307  0.72125  1.0000
  H   H1600     1.0  0.60746  0.60066  0.59773  1.0000
  H   H1601     1.0  0.54134  0.68515  0.70635  1.0000
  C   C1341     1.0  0.53706  0.52985  0.82848  1.0000
  C   C1342     1.0  0.53144  0.52143  0.84586  1.0000
  H   H1602     1.0  0.86191  0.56223  0.49746  1.0000
  C   C1343     1.0  0.68996  0.49291  0.86643  1.0000
  C   C1344     1.0  0.80627  0.63918  0.54595  1.0000
  C   C1345     1.0  0.77441  0.56406  0.50976  1.0000
  C   C1346     1.0  0.97427  0.60469  0.56729  1.0000
  H   H1603     1.0  0.89991  0.73675  0.52978  1.0000
  C   C1347     1.0  0.67848  0.50763  0.63251  1.0000
  H   H1604     1.0  0.97403  0.59169  0.57681  1.0000
  N   N86       1.0  0.59318  0.68558  0.64134  1.0000
  C   C1348     1.0  0.58176  0.67461  0.65545  1.0000
  C   C1349     1.0  0.59500  0.70112  0.64816  1.0000
  C   C1350     1.0  0.58346  0.69285  0.62634  1.0000
  C   C1351     1.0  0.61119  0.67452  0.63635  1.0000
  C   C1352     1.0  0.62241  0.66711  0.64909  1.0000
  C   C1353     1.0  0.61812  0.67070  0.61901  1.0000
  C   C1354     1.0  0.63955  0.65678  0.64469  1.0000
  C   C1355     1.0  0.63532  0.66044  0.61475  1.0000
  C   C1356     1.0  0.64602  0.65351  0.62752  1.0000
  H   H1605     1.0  0.56796  0.68239  0.65928  1.0000
  H   H1606     1.0  0.58032  0.66263  0.65096  1.0000
  H   H1607     1.0  0.58734  0.66971  0.66776  1.0000
  H   H1608     1.0  0.60031  0.69697  0.66065  1.0000
  H   H1609     1.0  0.58173  0.71016  0.65128  1.0000
  H   H1610     1.0  0.60418  0.70927  0.63824  1.0000
  H   H1611     1.0  0.57015  0.70143  0.63046  1.0000
  H   H1612     1.0  0.59121  0.70141  0.61527  1.0000
  H   H1613     1.0  0.58063  0.68187  0.62119  1.0000
  H   H1614     1.0  0.61795  0.66918  0.66259  1.0000
  H   H1615     1.0  0.61050  0.67522  0.60849  1.0000
  H   H1616     1.0  0.64787  0.65123  0.65463  1.0000
  H   H1617     1.0  0.50428  0.56731  0.87265  1.0000
  H   H1618     1.0  0.65929  0.64548  0.62410  1.0000
  N   N87       1.0  0.71977  0.55679  0.63117  1.0000
  C   C1357     1.0  0.73521  0.56087  0.63655  1.0000
  C   C1358     1.0  0.70683  0.57375  0.62725  1.0000
  C   C1359     1.0  0.71058  0.54498  0.64658  1.0000
  C   C1360     1.0  0.72615  0.54868  0.61510  1.0000
  C   C1361     1.0  0.72161  0.53243  0.61386  1.0000
  C   C1362     1.0  0.73696  0.55733  0.59987  1.0000
  H   H1619     1.0  0.88440  0.51337  0.50851  1.0000
  C   C1363     1.0  0.74336  0.54992  0.58461  1.0000
  H   H1620     1.0  0.78764  0.53707  0.65144  1.0000
  H   H1621     1.0  0.74130  0.57170  0.62686  1.0000
  H   H1622     1.0  0.73118  0.56550  0.64944  1.0000
  H   H1623     1.0  0.98106  0.69350  0.48783  1.0000
  C   C1364     1.0  0.97583  0.57696  0.53490  1.0000
  H   H1624     1.0  0.53328  0.50528  0.79692  1.0000
  C   C1365     1.0  0.95556  0.72510  0.55453  1.0000
  C   C1366     1.0  0.96348  0.70458  0.53417  1.0000
  H   H1625     1.0  0.94765  0.66517  0.55268  1.0000
  C   C1367     1.0  0.95294  0.67686  0.58970  1.0000
  C   C1368     1.0  0.71205  0.53512  0.52736  1.0000
  H   H1626     1.0  0.95120  0.69869  0.54017  1.0000
  H   H1627     1.0  0.82140  0.50553  0.62695  1.0000
  C   C1369     1.0  0.50492  0.61738  0.72084  1.0000
  H   H1628     1.0  0.97890  0.66835  0.51078  1.0000
  C   C1370     1.0  0.69769  0.49042  0.88123  1.0000
  C   C1371     1.0  0.53169  0.72485  0.68298  1.0000
  H   H1629     1.0  0.69364  0.49369  0.70294  1.0000
  H   H1630     1.0  0.50819  0.62603  0.75984  1.0000
  H   H1631     1.0  0.76987  0.53413  0.50278  1.0000
  H   H1632     1.0  0.50151  0.55575  0.77467  1.0000
  N   N88       1.0  0.81515  0.63577  0.52797  1.0000
  H   H1633     1.0  0.55873  0.54856  0.76622  1.0000
  C   C1372     1.0  0.50136  0.63376  0.70912  1.0000
  C   C1373     1.0  0.80495  0.65351  0.57089  1.0000
  H   H1634     1.0  0.88724  0.60649  0.53579  1.0000
  C   C1374     1.0  0.98773  0.56354  0.52671  1.0000
  C   C1375     1.0  0.81684  0.49932  0.50287  1.0000
  C   C1376     1.0  0.67235  0.53790  0.60604  1.0000
  C   C1377     1.0  0.81083  0.51596  0.49270  1.0000
  H   H1635     1.0  0.94582  0.60415  0.54098  1.0000
  H   H1636     1.0  0.82332  0.54300  0.51374  1.0000
  C   C1378     1.0  0.51208  0.55470  0.83232  1.0000
  H   H1637     1.0  0.80154  0.66116  0.51552  1.0000
  C   C1379     1.0  0.89967  0.51063  0.48299  1.0000
  S   S372      1.0  0.86453  0.58029  0.54841  1.0000
  C   C1380     1.0  0.72956  0.57925  0.51098  1.0000
  H   H1638     1.0  0.76132  0.54964  0.54378  1.0000
  H   H1639     1.0  0.98280  0.72834  0.51401  1.0000
  N   N89       1.0  0.96033  0.72373  0.53549  1.0000
  N   N90       1.0  0.50827  0.65425  0.75683  1.0000
  H   H1640     1.0  0.97599  0.66636  0.60229  1.0000
  C   C1381     1.0  0.54750  0.52578  0.78188  1.0000
  H   H1641     1.0  0.94789  0.58979  0.56231  1.0000
  C   C1382     1.0  0.82507  0.49843  0.51709  1.0000
  H   H1642     1.0  0.86997  0.54786  0.53520  1.0000
  Fe  Fe189     1.0  0.83882  0.56946  0.55704  1.0000
  H   H1643     1.0  0.58730  0.59281  0.59768  1.0000
  H   H1644     1.0  0.82411  0.50233  0.59651  1.0000
  C   C1383     1.0  0.71554  0.52564  0.54393  1.0000
  C   C1384     1.0  0.73892  0.53382  0.58392  1.0000
  H   H1645     1.0  0.84120  0.62323  0.51494  1.0000
  H   H1646     1.0  0.96177  0.57842  0.53447  1.0000
  H   H1647     1.0  0.66972  0.54954  0.59582  1.0000
  N   N91       1.0  0.60351  0.57604  0.61631  1.0000
  H   H1648     1.0  0.90672  0.69143  0.48188  1.0000
  H   H1649     1.0  0.51179  0.49420  0.79089  1.0000
  H   H1650     1.0  0.98271  0.55536  0.52029  1.0000
  H   H1651     1.0  0.61996  0.56657  0.63657  1.0000
  H   H1652     1.0  0.62099  0.54150  0.62683  1.0000
  H   H1653     1.0  0.64527  0.52924  0.57573  1.0000
  H   H1654     1.0  0.54107  0.69818  0.75605  1.0000
  C   C1385     1.0  0.96987  0.66621  0.59139  1.0000
  S   S373      1.0  0.92420  0.69058  0.57336  1.0000
  Fe  Fe190     1.0  0.82557  0.53810  0.55158  1.0000
  C   C1386     1.0  0.97626  0.66076  0.50168  1.0000
  C   C1387     1.0  0.97761  0.73018  0.52796  1.0000
  C   C1388     1.0  0.63318  0.53357  0.60217  1.0000
  C   C1389     1.0  0.52978  0.55371  0.76974  1.0000
  C   C1390     1.0  0.62839  0.55536  0.57573  1.0000
  N   N92       1.0  0.88554  0.54941  0.50848  1.0000
  C   C1391     1.0  0.50952  0.72479  0.71057  1.0000
  S   S374      1.0  0.82780  0.56521  0.53496  1.0000
  H   H1655     1.0  0.52289  0.67595  0.77177  1.0000
  H   H1656     1.0  0.59213  0.55596  0.63707  1.0000
  H   H1657     1.0  0.73332  0.49195  0.70008  1.0000
  C   C1392     1.0  0.90466  0.61882  0.49438  1.0000
  C   C1393     1.0  0.70101  0.55226  0.52600  1.0000
  H   H1658     1.0  0.80642  0.61105  0.52971  1.0000
  S   S375      1.0  0.49831  0.68989  0.61327  1.0000
  C   C1394     1.0  0.90037  0.55499  0.51347  1.0000
  H   H1659     1.0  0.63966  0.52051  0.60840  1.0000
  C   C1395     1.0  0.62247  0.54575  0.61262  1.0000
  H   H1660     1.0  0.78060  0.52701  0.60263  1.0000
  H   H1661     1.0  0.72659  0.58243  0.52407  1.0000
  H   H1662     1.0  0.78392  0.64865  0.59364  1.0000
  C   C1396     1.0  0.61438  0.56322  0.60490  1.0000
  C   C1397     1.0  0.78301  0.63540  0.57298  1.0000
  Fe  Fe191     1.0  0.77792  0.49909  0.49140  1.0000
  H   H1663     1.0  0.86382  0.53527  0.52216  1.0000
  H   H1664     1.0  0.53003  0.63147  0.75755  1.0000
  Fe  Fe192     1.0  0.81042  0.55269  0.58539  1.0000
  S   S376      1.0  0.80151  0.54703  0.61498  1.0000
  C   C1398     1.0  0.74444  0.56597  0.50536  1.0000
  H   H1665     1.0  0.89099  0.62252  0.49207  1.0000
  H   H1666     1.0  0.61195  0.58051  0.57889  1.0000
  H   H1667     1.0  0.81070  0.66158  0.57679  1.0000
  C   C1399     1.0  0.76122  0.51081  0.64519  1.0000
  C   C1400     1.0  0.67908  0.52091  0.60156  1.0000
  H   H1668     1.0  0.52900  0.56730  0.76207  1.0000
  H   H1669     1.0  0.96634  0.63815  0.48924  1.0000
  H   H1670     1.0  0.94599  0.68524  0.59931  1.0000
  H   H1671     1.0  0.68029  0.49594  0.64281  1.0000
  H   H1672     1.0  0.98686  0.62280  0.53559  1.0000
  H   H1673     1.0  0.97104  0.61938  0.52406  1.0000
  C   C1401     1.0  0.61465  0.57908  0.62780  1.0000
  C   C1402     1.0  0.68271  0.50585  0.61473  1.0000
  S   S377      1.0  0.74793  0.50712  0.49333  1.0000
  H   H1674     1.0  0.75010  0.53093  0.51947  1.0000
  S   S378      1.0  0.88915  0.72142  0.49953  1.0000
  N   N93       1.0  0.98517  0.66656  0.48304  1.0000
  H   H1675     1.0  0.86658  0.57378  0.51262  1.0000
  H   H1676     1.0  0.71957  0.53178  0.64989  1.0000
  C   C1403     1.0  0.72797  0.52519  0.59847  1.0000
  H   H1677     1.0  0.71617  0.49541  0.71926  1.0000
  H   H1678     1.0  0.71292  0.58355  0.61612  1.0000
  H   H1679     1.0  0.66801  0.52584  0.65082  1.0000
  H   H1680     1.0  0.57953  0.56539  0.61964  1.0000
  H   H1681     1.0  0.69487  0.50155  0.85419  1.0000
  C   C1404     1.0  0.50340  0.65264  0.77638  1.0000
  C   C1405     1.0  0.97870  0.68618  0.47833  1.0000
  C   C1406     1.0  0.95067  0.60265  0.55351  1.0000
  H   H1682     1.0  0.71308  0.52505  0.62452  1.0000
  C   C1407     1.0  0.87552  0.53947  0.52483  1.0000
  N   N94       1.0  0.49817  0.52100  0.79455  1.0000
  N   N95       1.0  0.97012  0.60361  0.55019  1.0000
  H   H1683     1.0  0.94193  0.61379  0.55993  1.0000
  C   C1408     1.0  0.87290  0.56576  0.50203  1.0000
  C   C1409     1.0  0.76919  0.51949  0.65401  1.0000
  S   S379      1.0  0.74586  0.49722  0.65808  1.0000
  C   C1410     1.0  0.76244  0.53690  0.51595  1.0000
  C   C1411     1.0  0.81383  0.53165  0.49621  1.0000
  H   H1684     1.0  0.78049  0.56224  0.49593  1.0000
  H   H1685     1.0  0.54905  0.52351  0.82035  1.0000
  H   H1686     1.0  0.50536  0.56783  0.82665  1.0000
  H   H1687     1.0  0.92455  0.72054  0.54478  1.0000
  C   C1412     1.0  0.90642  0.73023  0.48360  1.0000
  H   H1688     1.0  0.78667  0.50134  0.58119  1.0000
  C   C1413     1.0  0.92762  0.73051  0.53302  1.0000
  H   H1689     1.0  0.95196  0.73937  0.55613  1.0000
  H   H1690     1.0  0.51544  0.64771  0.78270  1.0000
  H   H1691     1.0  0.94336  0.58874  0.48536  1.0000
  H   H1692     1.0  0.50241  0.65944  0.83595  1.0000
  C   C1414     1.0  0.80095  0.49726  0.57464  1.0000
  H   H1693     1.0  0.98845  0.72247  0.53532  1.0000
  C   C1415     1.0  0.92449  0.72143  0.48193  1.0000
  H   H1694     1.0  0.70866  0.49719  0.88043  1.0000
  H   H1695     1.0  0.75816  0.55389  0.48223  1.0000
  C   C1416     1.0  0.49997  0.50445  0.78761  1.0000
  C   C1417     1.0  0.71987  0.58515  0.48291  1.0000
  H   H1696     1.0  0.50153  0.50742  0.77292  1.0000
  C   C1418     1.0  0.94542  0.73385  0.52631  1.0000
  H   H1697     1.0  0.49877  0.71917  0.72000  1.0000
  H   H1698     1.0  0.49637  0.66578  0.78006  1.0000
  S   S380      1.0  0.49682  0.59384  0.75201  1.0000
  H   H1699     1.0  0.85095  0.51655  0.48142  1.0000
  C   C1419     1.0  0.53776  0.73898  0.68640  1.0000
  C   C1420     1.0  0.51569  0.73897  0.71392  1.0000
  H   H1700     1.0  0.96822  0.93744  0.32969  1.0000
  C   C1421     1.0  0.97588  0.81091  0.38585  1.0000
  H   H1701     1.0  0.91146  0.76713  0.45115  1.0000
  C   C1422     1.0  0.93311  0.74554  0.45780  1.0000
  C   C1423     1.0  0.96907  0.83610  0.36158  1.0000
  H   H1702     1.0  0.99093  0.84954  0.34717  1.0000
  C   C1424     1.0  0.99379  0.81422  0.38175  1.0000
  C   C1425     1.0  0.98090  0.92808  0.32973  1.0000
  S   S381      1.0  0.94951  0.75553  0.44176  1.0000
  C   C1426     1.0  0.95469  0.80408  0.41337  1.0000
  C   C1427     1.0  0.96351  0.78372  0.39283  1.0000
  H   H1703     1.0  0.94258  0.81073  0.40754  1.0000
  S   S382      1.0  0.99170  0.75353  0.35986  1.0000
  C   C1428     1.0  0.96367  0.82231  0.37532  1.0000
  H   H1704     1.0  0.95938  0.77228  0.40325  1.0000
  N   N96       1.0  0.96982  0.79637  0.40028  1.0000
  C   C1429     1.0  0.90181  0.74659  0.47232  1.0000
  H   H1705     1.0  0.95868  0.81417  0.41882  1.0000
  H   H1706     1.0  0.95167  0.79012  0.38653  1.0000
  H   H1707     1.0  0.95962  0.84452  0.35354  1.0000
  H   H1708     1.0  0.95024  0.79349  0.42473  1.0000
  C   C1430     1.0  0.91514  0.75437  0.45967  1.0000
  H   H1709     1.0  0.97828  0.91707  0.37322  1.0000
  H   H1710     1.0  0.97433  0.77804  0.38256  1.0000
  H   H1711     1.0  0.97173  0.90795  0.32136  1.0000
  H   H1712     1.0  0.96117  0.98356  0.34821  1.0000
  C   C1431     1.0  0.99155  0.91170  0.37642  1.0000
  H   H1713     1.0  0.94989  0.82050  0.37751  1.0000
  C   C1432     1.0  0.98671  0.83899  0.35796  1.0000
  C   C1433     1.0  0.98286  0.91141  0.32504  1.0000
  H   H1714     1.0  0.97918  0.77509  0.42091  1.0000
  C   C1434     1.0  0.98421  0.78579  0.41004  1.0000
  H   H1715     1.0  0.98936  0.79437  0.41638  1.0000
  H   H1716     1.0  0.88788  0.75343  0.47357  1.0000
  H   H1717     1.0  0.99249  0.88556  0.37149  1.0000
  S   S383      1.0  0.99227  0.95372  0.34010  1.0000
  H   H1718     1.0  0.97299  0.98217  0.31796  1.0000
  H   H1719     1.0  0.99485  0.93679  0.38075  1.0000
  H   H1720     1.0  0.99571  0.77890  0.40110  1.0000
  C   C1435     1.0  0.99528  0.93268  0.33436  1.0000
  H   H1721     1.0  0.93603  0.76523  0.48945  1.0000
  H   H1722     1.0  0.90525  0.75946  0.50253  1.0000
  C   C1436     1.0  0.91636  0.75250  0.50913  1.0000
  H   H1723     1.0  0.50502  0.75212  0.65831  1.0000
  C   C1437     1.0  0.93371  0.75577  0.50185  1.0000
  H   H1724     1.0  0.97614  0.74459  0.52848  1.0000
  C   C1438     1.0  0.94811  0.74663  0.51024  1.0000
  H   H1725     1.0  0.96119  0.74975  0.50376  1.0000
  H   H1726     1.0  0.53455  0.75699  0.70427  1.0000
  H   H1727     1.0  0.54870  0.74451  0.67716  1.0000
  H   H1728     1.0  0.50134  0.75053  0.62849  1.0000
  S   S384      1.0  0.50628  0.74828  0.73306  1.0000
  C   C1439     1.0  0.52976  0.74603  0.70175  1.0000
  C   C1440     1.0  0.91335  0.73974  0.52455  1.0000
