data_image0
_chemical_formula_structural       CH2SCNCHSFe2CSHCS2FeS2FeS2FeSFeS4C2FeSH2SCFeS2FeS2FeS2FeHFeS3C6H4FeSHC7H4C6HCH3C6H4C6H4CHCH5C2SH3CNHNHC3HC2H3FeHSCH2FeSCHCNC9H12FeHCHCFeCH2CH2CHSH2C2H2CHNC9H13C2FeHCHSHC2HSH3CNH3NHCHC2H2C3H2CH3CH2C3H3CHC2H5CH5C4HCFeHFe2C4SC2H2CHNCH5CH3CHCH2FeS2FeSFeSFeS3FeS2FeS2FeSFeHS2FeS2HFeSHFeS2FeS2FeSFeS3HC6H4FeHCHC6H4C2HC2NH2C6H4C6H4CH3SC6H5CH2C6H3NH2C5HC2HSH6NC9H14NSCSCH4CH3CH4NCHCNHCHSC3NCH5CHC4NH3C2H2CH2NC9H16CH3SH6C2H6CHSCH2C2SCSHC2H3SCH3CH2C2HC4H3C2H3SH3CHCHCFeSHFeS2FeS2FeSFeS3FeS2H3SFeSFeS2FeSFeS3FeS2FeSCFeSFeHS2C6H4C2H2CHC6H3C3HC2HC6H5C7H4C6H4C4H2C6H7C2H2CH3CHCH2CH5CHNC9H14C4H4CNCHSHNHCNH2CH4SH2C3H8NC9H16S2HCHNC5H7C2H7CH3CNC8H2C2SH2C2H3C2HCFeCHSC3H3CHC6HCHCSCSFeS2FeS2FeSFeHS2FeSH2SHFeSHSFeS2HFeCH2S2FeSCFeS2FeSFeS3HC6H4CHCH5C6H4C6H4SC6H4CSHC6H2SH6CHCH3C4H4C2HFeNH2CHFeH2C2HSNFeH3C2HCHCSH2FeH8CSCH4NC9H14NC9H4CHC2HC3HFeCSCH3CSH2FeH3FeHSFeHFeS3HCFeS2FeS2FeSFeS3FeS2H2SHFeS2HFeS2FeS2FeSFeS3C8H2SH2C6H3C2H2SC6H4CH2C2HC8H4C6H4C6H4C6H3C7H8FeC3HCHNFeSCH2CH2CH4CHCNHC4HNC2HSH3CH4CSH2NC9H14CHCHCSHCH5NCHCH3NC9H9CHCH3CH2CFe2CHSHC3SHCH2CH6C11H3C2H6C2H2NC4NC2HC2H2SH3C2HCH5C3HC3HC2SCHCHCH7CH2C2HCH4CH2SCSCH4CHNCH3NH3C2H2C3H2CSCHCFeS2HC2H2CHC2S2NCHCHCHFeS2C4HCFeS2C2S2H2C6H4CSCH4C2HCH4CHSC3H2CHCH2CHCH5CFeH2CH2SH2C3H8FeCNHCH4CH3SHC2NH2C2HCH7NC2HCH2SHCHCH2CHC3FeCH4CH2FeC3H2CH2FeH3FeS2FeS2FeS2FeS2FeSFeS4C6H3C6H4CHCHC4H3C6H4SNC6H2CH8C2H2NC5HCH2NC9H14CHC2NHCH3FeHCHCHCHCHNH2C3H5CFeH2CH4CH2CH5CH2SNH2SC4HFeH5SC2HSH2CHC3H2CSCHCHFeCHC2HSH2C2H2FeH4CH5CSC3HCNHC2SH3FeH2CSHCHC2FeSC4FeCHCNCHCSCH3SC2HC2HC3H2C4H4CH2C2HC2H3SH2SC3HCNHCHCHSHCHSH2CH2CHCFe2H3C2HC2HFeHS2HNC2SH2CHCHCH3CHC3HFeH4CHSH2CHC2HCSH2FeCH2C2FeS2FeS2FeSFeS3FeS2FeS2FeSFeS3HC2HCFeS2FeS2CFeHCFeHC6H5SC7H2CHC6H2CHC6H5C5FeH3C6H3NC6H9C2H4CHC4H6NCHSC5H3CH2SH2CH5CHC4HCFeH2NC9H16CH2CH7C3H2C2H5SC2SHC4H7NH3CH2NCNC5H2C2H5CHC2NCHC2HC2HCHCH2NCSC3HCH3SFeS2HCHC2HC2H4FeS2H2NCH2C4H2C3H2CH3CHCH3CHC7H4CNH2CS2CH2C2HCSH2CHCH2CHCSHCNC2H4NC2H2CH7C3HCH3CH2C2H4C2H3C2HSNCFeCH2C2HFeSHCHFeHC2HC2H6C2HCHC2HSFeS2FeS2FeSFeS3FeSCFeSC2FeS2FeS2HFeHCNS2HFeS2FeS2FeSFeS3C8H3C2HC3H2C6H4CHNC3FeC3HCH3FeC6H4CSC2NC7H4C6H4C6H4C6H4C7FeHCH3CSHNC9H14CH5NCHC2H2SHC2H8C5H3CH4CH2CH3C5H3C3HCH2C2H2CHCSC3HSH5CNH2NC2H2CH4CNC7SCH13NC9H11CHCH4CHCHC2H2C2H5NHC2H5C2H2SHC3SHFeHCH3CHCHSC3H2C2HC2H2C2HCNCHCSH5SHCH14C4HSCHSCHC3H2CFeHSH3SFeS2FeS2FeSFeS3FeSFeS2FeS3CFeS2FeS2FeCFeS3C6H4C2HC7H4C6H4C6H4C4HCH4CSC2HCH2CNCHCS2NC9H14NC11SCH11CHCHCH5C2H5C2HCFeC2H2SFeCHFeCH3CFeHC2HNCH2C2HCNH2CHNCH3CH3FeCH2CH2SHC2SFeCHC3HCFeHNHCHCSH3S3HNH4CH2CH7CHNCH2CH2CHCHC2H2CSH4CH2CSCSC2HSC3FeSFeS2FeSFeS3FeS2FeS2Fe2S3FeS2HCSH3FeS2FeS2FeSFeS3C6H5SCHC7H4C5H2CH4C6H4C6H5CFeNH2C6H4CH2C6HNCSH4C3H2C2HCFeSCH3SCH4SHCHCH2CNC9H13NC9H14NC9H14C2H2C2H4CH3CHC3H5CH2C2HCH3C2HCHC2H2NHCNH6FeH6CH2C2H2C4HFeHS2H2FeS2FeS2FeS2FeSFeS3NH2SFeSFeS2FeSFeS3FeS2FeSFeSFeS3C6H4C7H4CHCH3CHCHCH2C6H4C2HCH2C7H4C4SCHCHC6H4SH2C2NHCHCHCHCHCHCHCHSC2NH2SCHC2H2C3HC3H6CHC2H8CH2NC8H8NH2C4SH6CH3NC4H10FeHCH8CHCH4C2H3NC4H2CHCHCH2C2HCHC2H3CH3CH4C2H5C3H2CNCH2NCHCHC3HCHCSHCH3SHSHCH4C2H3CHSFeSFeS2FeS2FeSFeS2CSFeSCHFeS2FeS2C2FeS3FeS2FeS2FeHFeS3C6H4C2HC2HSHC6H4C6H4C6H4CH2SC5H2CH2NCH3CFeHCSC2HNC3HCHSHSH3C2HCHC2HCHC2H2CHNH2CHC3HSHFeH3SH7SHC2HCH2CH2NC9H15CNH3C2H2CH3CH7NCHCH3CHCHC4HFeHC2HC2NH2CFeH2CH2CHCHCHC2HCH2CH3CH4C2H2CH5C3H4SH4
_chemical_formula_sum              "C1620 H1944 S432 N108 Fe216"
_cell_length_a       56.0697
_cell_length_b       55.3689
_cell_length_c       94.351
_cell_angle_alpha    89.9175
_cell_angle_beta     90.6121
_cell_angle_gamma    112.9

_space_group_name_H-M_alt    "P 1"
_space_group_IT_number       1

loop_
  _space_group_symop_operation_xyz
  'x, y, z'

loop_
  _atom_site_type_symbol
  _atom_site_label
  _atom_site_symmetry_multiplicity
  _atom_site_fract_x
  _atom_site_fract_y
  _atom_site_fract_z
  _atom_site_occupancy
  C   C1        1.0  0.16071  0.13362  0.00637  1.0000
  H   H1        1.0  0.12052  0.14122  0.02341  1.0000
  H   H2        1.0  0.11660  0.31301  0.02304  1.0000
  S   S1        1.0  0.08933  0.40539  0.23291  1.0000
  C   C2        1.0  0.26013  0.45946  0.18017  1.0000
  N   N1        1.0  0.35208  0.32575  0.00392  1.0000
  C   C3        1.0  0.30541  0.46974  0.17625  1.0000
  H   H3        1.0  0.13370  0.29340  0.02927  1.0000
  S   S2        1.0  0.00263  0.28247  0.03779  1.0000
  Fe  Fe1       1.0  0.24893  0.21334  0.00418  1.0000
  Fe  Fe2       1.0  0.26314  0.27085  0.01497  1.0000
  C   C4        1.0  0.00111  0.36456  0.03380  1.0000
  S   S3        1.0  0.27398  0.29366  0.03597  1.0000
  H   H4        1.0  0.15281  0.12387  0.99606  1.0000
  C   C5        1.0  0.02694  0.39900  0.01814  1.0000
  S   S4        1.0  0.22613  0.23453  0.01426  1.0000
  S   S5        1.0  0.28621  0.24857  0.00688  1.0000
  Fe  Fe3       1.0  0.33859  0.43148  0.07880  1.0000
  S   S6        1.0  0.34384  0.47420  0.07805  1.0000
  S   S7        1.0  0.33557  0.41201  0.05696  1.0000
  Fe  Fe4       1.0  0.33341  0.43000  0.11106  1.0000
  S   S8        1.0  0.33756  0.47164  0.11228  1.0000
  S   S9        1.0  0.32195  0.40629  0.13121  1.0000
  Fe  Fe5       1.0  0.31109  0.46211  0.09346  1.0000
  S   S10       1.0  0.27926  0.47750  0.09226  1.0000
  Fe  Fe6       1.0  0.37041  0.48034  0.09699  1.0000
  S   S11       1.0  0.21257  0.05225  0.99570  1.0000
  S   S12       1.0  0.30430  0.41958  0.09316  1.0000
  S   S13       1.0  0.36779  0.43847  0.09683  1.0000
  S   S14       1.0  0.31938  0.42292  0.21938  1.0000
  C   C6        1.0  0.10921  0.34520  0.06519  1.0000
  C   C7        1.0  0.06941  0.49289  0.14055  1.0000
  Fe  Fe7       1.0  0.35166  0.45743  0.21021  1.0000
  S   S15       1.0  0.37097  0.46514  0.18871  1.0000
  H   H5        1.0  0.38066  0.38708  0.05067  1.0000
  H   H6        1.0  0.38026  0.99957  0.01958  1.0000
  S   S16       1.0  0.06364  0.44140  0.21608  1.0000
  C   C8        1.0  0.11413  0.29343  0.02730  1.0000
  Fe  Fe8       1.0  0.09133  0.42257  0.21092  1.0000
  S   S17       1.0  0.09435  0.40272  0.19032  1.0000
  S   S18       1.0  0.12665  0.45861  0.21568  1.0000
  Fe  Fe9       1.0  0.09151  0.41716  0.07761  1.0000
  S   S19       1.0  0.13418  0.44310  0.07881  1.0000
  S   S20       1.0  0.07766  0.39900  0.05568  1.0000
  Fe  Fe10      1.0  0.08491  0.42447  0.10947  1.0000
  S   S21       1.0  0.12679  0.44928  0.11267  1.0000
  S   S22       1.0  0.05840  0.41865  0.12832  1.0000
  Fe  Fe11      1.0  0.12286  0.46996  0.09276  1.0000
  H   H7        1.0  0.30023  0.44454  0.13578  1.0000
  Fe  Fe12      1.0  0.13400  0.42055  0.09852  1.0000
  S   S23       1.0  0.16268  0.40199  0.10303  1.0000
  S   S24       1.0  0.08019  0.44610  0.09001  1.0000
  S   S25       1.0  0.09212  0.39349  0.09685  1.0000
  C   C9        1.0  0.08636  0.41281  0.17373  1.0000
  C   C10       1.0  0.06213  0.41391  0.17130  1.0000
  C   C11       1.0  0.05408  0.41656  0.15738  1.0000
  C   C12       1.0  0.07025  0.41838  0.14580  1.0000
  C   C13       1.0  0.09502  0.41878  0.14833  1.0000
  C   C14       1.0  0.10293  0.41576  0.16221  1.0000
  H   H8        1.0  0.04902  0.41122  0.18004  1.0000
  H   H9        1.0  0.03488  0.41622  0.15553  1.0000
  H   H10       1.0  0.10767  0.42042  0.13955  1.0000
  H   H11       1.0  0.12162  0.41484  0.16402  1.0000
  Fe  Fe13      1.0  0.30350  0.45191  0.22754  1.0000
  S   S26       1.0  0.00486  0.21915  0.02034  1.0000
  H   H12       1.0  0.38692  0.37866  0.00616  1.0000
  C   C15       1.0  0.13380  0.34971  0.07057  1.0000
  C   C16       1.0  0.24693  0.45600  0.09496  1.0000
  C   C17       1.0  0.22749  0.46598  0.09458  1.0000
  C   C18       1.0  0.20156  0.44948  0.09696  1.0000
  C   C19       1.0  0.19497  0.42288  0.09977  1.0000
  C   C20       1.0  0.21440  0.41285  0.10018  1.0000
  C   C21       1.0  0.24032  0.42935  0.09772  1.0000
  H   H13       1.0  0.05785  0.27878  0.04501  1.0000
  H   H14       1.0  0.18671  0.45742  0.09670  1.0000
  H   H15       1.0  0.20939  0.39228  0.10237  1.0000
  H   H16       1.0  0.25510  0.42145  0.09811  1.0000
  C   C22       1.0  0.33549  0.42270  0.14719  1.0000
  C   C23       1.0  0.35775  0.44583  0.14714  1.0000
  C   C24       1.0  0.36858  0.45827  0.15999  1.0000
  C   C25       1.0  0.35684  0.44819  0.17295  1.0000
  C   C26       1.0  0.33425  0.42536  0.17301  1.0000
  C   C27       1.0  0.32375  0.41252  0.16016  1.0000
  H   H17       1.0  0.36703  0.45376  0.13721  1.0000
  C   C28       1.0  0.24054  0.14081  0.00636  1.0000
  H   H18       1.0  0.32508  0.41744  0.18296  1.0000
  H   H19       1.0  0.30651  0.39464  0.16026  1.0000
  H   H20       1.0  0.14568  0.30214  0.05325  1.0000
  C   C29       1.0  0.28963  0.32704  0.04145  1.0000
  C   C30       1.0  0.29912  0.34779  0.03183  1.0000
  C   C31       1.0  0.31298  0.37363  0.03676  1.0000
  C   C32       1.0  0.31704  0.37920  0.05136  1.0000
  C   C33       1.0  0.30670  0.35860  0.06100  1.0000
  C   C34       1.0  0.29323  0.33272  0.05605  1.0000
  H   H21       1.0  0.29619  0.34390  0.02060  1.0000
  H   H22       1.0  0.32093  0.38937  0.02919  1.0000
  H   H23       1.0  0.30968  0.36248  0.07226  1.0000
  H   H24       1.0  0.28594  0.31687  0.06362  1.0000
  C   C35       1.0  0.02491  0.31438  0.04271  1.0000
  C   C36       1.0  0.02503  0.32301  0.05675  1.0000
  C   C37       1.0  0.04163  0.34851  0.06102  1.0000
  C   C38       1.0  0.05801  0.36592  0.05120  1.0000
  C   C39       1.0  0.05811  0.35720  0.03719  1.0000
  C   C40       1.0  0.04184  0.33153  0.03299  1.0000
  H   H25       1.0  0.25015  0.08572  0.01675  1.0000
  H   H26       1.0  0.04118  0.35494  0.07180  1.0000
  H   H27       1.0  0.07057  0.37056  0.02949  1.0000
  H   H28       1.0  0.04190  0.32529  0.02216  1.0000
  C   C41       1.0  0.36118  0.34258  0.01667  1.0000
  H   H29       1.0  0.08563  0.25692  0.05604  1.0000
  C   C42       1.0  0.25551  0.45796  0.16552  1.0000
  H   H30       1.0  0.09940  0.35775  0.06845  1.0000
  H   H31       1.0  0.07999  0.47089  0.11806  1.0000
  H   H32       1.0  0.27612  0.43859  0.12241  1.0000
  H   H33       1.0  0.07810  0.32236  0.05190  1.0000
  H   H34       1.0  0.28851  0.46656  0.19682  1.0000
  C   C43       1.0  0.24279  0.09784  0.01057  1.0000
  C   C44       1.0  0.25024  0.12466  0.01402  1.0000
  S   S27       1.0  0.24940  0.17407  0.01197  1.0000
  H   H35       1.0  0.43562  0.47826  0.11813  1.0000
  H   H36       1.0  0.26342  0.13287  0.02284  1.0000
  H   H37       1.0  0.07080  0.30106  0.03035  1.0000
  C   C45       1.0  0.01791  0.39048  0.03169  1.0000
  N   N2        1.0  0.27202  0.46122  0.14019  1.0000
  H   H38       1.0  0.03325  0.35242  0.13068  1.0000
  N   N3        1.0  0.09798  0.28716  0.04021  1.0000
  H   H39       1.0  0.06973  0.16718  0.99963  1.0000
  C   C46       1.0  0.27597  0.46227  0.15576  1.0000
  C   C47       1.0  0.45304  0.49588  0.11945  1.0000
  C   C48       1.0  0.24485  0.45556  0.13577  1.0000
  H   H40       1.0  0.30199  0.34156  0.22464  1.0000
  C   C49       1.0  0.08821  0.16527  0.00071  1.0000
  C   C50       1.0  0.01959  0.38150  0.00669  1.0000
  H   H41       1.0  0.17064  0.37481  0.04449  1.0000
  H   H42       1.0  0.11851  0.22683  0.02143  1.0000
  H   H43       1.0  0.02703  0.38910  0.99639  1.0000
  Fe  Fe14      1.0  0.09893  0.47630  0.22244  1.0000
  H   H44       1.0  0.07853  0.14455  0.02042  1.0000
  S   S28       1.0  0.26102  0.44220  0.22147  1.0000
  C   C51       1.0  0.25476  0.37672  0.22911  1.0000
  H   H45       1.0  0.08703  0.24530  0.03842  1.0000
  H   H46       1.0  0.32467  0.47408  0.18051  1.0000
  Fe  Fe15      1.0  0.34312  0.43106  0.23965  1.0000
  S   S29       1.0  0.37684  0.46322  0.22963  1.0000
  C   C52       1.0  0.25919  0.36876  0.21567  1.0000
  H   H47       1.0  0.23821  0.47084  0.13968  1.0000
  C   C53       1.0  0.13484  0.31359  0.05647  1.0000
  N   N4        1.0  0.25950  0.41383  0.05421  1.0000
  C   C54       1.0  0.27982  0.43879  0.05934  1.0000
  C   C55       1.0  0.25995  0.39254  0.06362  1.0000
  C   C56       1.0  0.26677  0.40916  0.03968  1.0000
  C   C57       1.0  0.23312  0.41397  0.05416  1.0000
  C   C58       1.0  0.22752  0.43479  0.06006  1.0000
  C   C59       1.0  0.21182  0.39221  0.04864  1.0000
  C   C60       1.0  0.20218  0.43372  0.06038  1.0000
  C   C61       1.0  0.18660  0.39150  0.04886  1.0000
  C   C62       1.0  0.18177  0.41215  0.05481  1.0000
  H   H48       1.0  0.27701  0.44248  0.07064  1.0000
  H   H49       1.0  0.29954  0.43847  0.05878  1.0000
  H   H50       1.0  0.28026  0.45584  0.05293  1.0000
  H   H51       1.0  0.25317  0.39455  0.07444  1.0000
  H   H52       1.0  0.27983  0.39287  0.06479  1.0000
  H   H53       1.0  0.24758  0.37275  0.05952  1.0000
  H   H54       1.0  0.26494  0.42377  0.03209  1.0000
  H   H55       1.0  0.28722  0.41073  0.03934  1.0000
  H   H56       1.0  0.25485  0.38923  0.03562  1.0000
  H   H57       1.0  0.24231  0.45206  0.06468  1.0000
  H   H58       1.0  0.21454  0.37548  0.04421  1.0000
  H   H59       1.0  0.28007  0.35060  0.20358  1.0000
  Fe  Fe16      1.0  0.35779  0.48973  0.23702  1.0000
  H   H60       1.0  0.16217  0.41147  0.05515  1.0000
  C   C63       1.0  0.35137  0.33275  0.03024  1.0000
  H   H61       1.0  0.35051  0.34075  0.05254  1.0000
  C   C64       1.0  0.37579  0.37465  0.04132  1.0000
  Fe  Fe17      1.0  0.00133  0.25812  0.01803  1.0000
  C   C65       1.0  0.09676  0.26176  0.04600  1.0000
  H   H62       1.0  0.19833  0.44968  0.06512  1.0000
  H   H63       1.0  0.38621  0.47573  0.15987  1.0000
  C   C66       1.0  0.37870  0.36928  0.01599  1.0000
  H   H64       1.0  0.16194  0.23405  0.01186  1.0000
  H   H65       1.0  0.23143  0.43593  0.13948  1.0000
  C   C67       1.0  0.27940  0.44046  0.13409  1.0000
  H   H66       1.0  0.39871  0.40544  0.02744  1.0000
  S   S30       1.0  0.33464  0.48599  0.21702  1.0000
  H   H67       1.0  0.11620  0.26160  0.04812  1.0000
  H   H68       1.0  0.33703  0.31305  0.03156  1.0000
  C   C68       1.0  0.35882  0.34853  0.04236  1.0000
  C   C69       1.0  0.28851  0.35111  0.22590  1.0000
  H   H69       1.0  0.32821  0.00628  0.05069  1.0000
  H   H70       1.0  0.06904  0.47270  0.14180  1.0000
  C   C70       1.0  0.10969  0.30832  0.05084  1.0000
  H   H71       1.0  0.20973  0.43071  0.21111  1.0000
  N   N5        1.0  0.11732  0.35402  0.13588  1.0000
  C   C71       1.0  0.11626  0.34683  0.12064  1.0000
  C   C72       1.0  0.13633  0.38134  0.13758  1.0000
  C   C73       1.0  0.12687  0.33630  0.14385  1.0000
  C   C74       1.0  0.09200  0.35221  0.14137  1.0000
  C   C75       1.0  0.07155  0.35214  0.13229  1.0000
  C   C76       1.0  0.08778  0.35231  0.15620  1.0000
  C   C77       1.0  0.04822  0.35147  0.13778  1.0000
  C   C78       1.0  0.06425  0.35128  0.16155  1.0000
  C   C79       1.0  0.04453  0.35090  0.15236  1.0000
  H   H72       1.0  0.13503  0.34672  0.11694  1.0000
  H   H73       1.0  0.10090  0.32711  0.11852  1.0000
  H   H74       1.0  0.11284  0.36142  0.11370  1.0000
  H   H75       1.0  0.13831  0.38793  0.14882  1.0000
  H   H76       1.0  0.13038  0.39514  0.13128  1.0000
  H   H77       1.0  0.15586  0.38370  0.13378  1.0000
  H   H78       1.0  0.11176  0.31600  0.14422  1.0000
  H   H79       1.0  0.14447  0.33531  0.13897  1.0000
  H   H80       1.0  0.13273  0.34299  0.15492  1.0000
  H   H81       1.0  0.07326  0.35329  0.12092  1.0000
  H   H82       1.0  0.10286  0.35431  0.16387  1.0000
  H   H83       1.0  0.04914  0.49090  0.13848  1.0000
  H   H84       1.0  0.06180  0.35217  0.17291  1.0000
  C   C80       1.0  0.12265  0.23233  0.01045  1.0000
  C   C81       1.0  0.38576  0.38497  0.02818  1.0000
  Fe  Fe18      1.0  0.03418  0.23319  0.00281  1.0000
  H   H85       1.0  0.23247  0.48659  0.09246  1.0000
  C   C82       1.0  0.10312  0.23476  0.00172  1.0000
  H   H86       1.0  0.06270  0.26687  0.02819  1.0000
  S   S31       1.0  0.07199  0.22829  0.00912  1.0000
  H   H87       1.0  0.14304  0.36565  0.07802  1.0000
  C   C83       1.0  0.21055  0.43765  0.22189  1.0000
  C   C84       1.0  0.27620  0.35618  0.21405  1.0000
  H   H88       1.0  0.14771  0.12187  0.01484  1.0000
  S   S32       1.0  0.03144  0.27269  0.00123  1.0000
  H   H89       1.0  0.24140  0.38642  0.22954  1.0000
  H   H90       1.0  0.34255  0.28832  0.01446  1.0000
  H   H91       1.0  0.37562  0.30400  0.00887  1.0000
  C   C85       1.0  0.30101  0.46787  0.16161  1.0000
  N   N6        1.0  0.02149  0.48872  0.23213  1.0000
  H   H92       1.0  0.17440  0.19348  0.02110  1.0000
  H   H93       1.0  0.24270  0.45537  0.12404  1.0000
  H   H94       1.0  0.31217  0.30946  0.01056  1.0000
  N   N7        1.0  0.16321  0.16129  0.00637  1.0000
  H   H95       1.0  0.02676  0.35125  0.15656  1.0000
  C   C86       1.0  0.23385  0.44507  0.22969  1.0000
  H   H96       1.0  0.10522  0.27886  0.01870  1.0000
  C   C87       1.0  0.09718  0.32476  0.05555  1.0000
  C   C88       1.0  0.18816  0.43887  0.22793  1.0000
  H   H97       1.0  0.17036  0.43289  0.22179  1.0000
  H   H98       1.0  0.26834  0.42101  0.13895  1.0000
  C   C89       1.0  0.14656  0.33387  0.06626  1.0000
  C   C90       1.0  0.07122  0.28345  0.03583  1.0000
  C   C91       1.0  0.28858  0.48677  0.13388  1.0000
  H   H99       1.0  0.34548  0.01409  0.02647  1.0000
  H   H100      1.0  0.16576  0.33754  0.07044  1.0000
  C   C92       1.0  0.17408  0.17330  0.02028  1.0000
  H   H101      1.0  0.45038  0.49617  0.14209  1.0000
  H   H102      1.0  0.04728  0.46984  0.23790  1.0000
  H   H103      1.0  0.04004  0.41922  0.01659  1.0000
  C   C93       1.0  0.14735  0.23636  0.00504  1.0000
  H   H104      1.0  0.32103  0.33861  0.00007  1.0000
  H   H105      1.0  0.31737  0.47051  0.15491  1.0000
  C   C94       1.0  0.28503  0.46547  0.18549  1.0000
  C   C95       1.0  0.11748  0.15111  0.01411  1.0000
  C   C96       1.0  0.35347  0.00462  0.03417  1.0000
  H   H106      1.0  0.05858  0.48620  0.11280  1.0000
  H   H107      1.0  0.24437  0.45584  0.18753  1.0000
  H   H108      1.0  0.16288  0.16182  0.02936  1.0000
  C   C97       1.0  0.22485  0.08654  0.99964  1.0000
  H   H109      1.0  0.03822  0.48014  0.21319  1.0000
  C   C98       1.0  0.00331  0.35467  0.00856  1.0000
  C   C99       1.0  0.09333  0.15276  0.01247  1.0000
  H   H110      1.0  0.11584  0.49194  0.13362  1.0000
  H   H111      1.0  0.02433  0.40385  0.04063  1.0000
  H   H112      1.0  0.30956  0.49128  0.13538  1.0000
  H   H113      1.0  0.23576  0.45326  0.16216  1.0000
  H   H114      1.0  0.24978  0.37294  0.20644  1.0000
  C   C100      1.0  0.34377  0.00023  0.04786  1.0000
  H   H115      1.0  0.17979  0.13217  0.00823  1.0000
  H   H116      1.0  0.01198  0.30995  0.06435  1.0000
  H   H117      1.0  0.19433  0.17465  0.02191  1.0000
  H   H118      1.0  0.00593  0.44753  0.22664  1.0000
  H   H119      1.0  0.28542  0.48707  0.12221  1.0000
  C   C101      1.0  0.35524  0.30056  0.00602  1.0000
  C   C102      1.0  0.13743  0.16232  0.00405  1.0000
  C   C103      1.0  0.07888  0.49023  0.11610  1.0000
  C   C104      1.0  0.99947  0.46289  0.23075  1.0000
  H   H120      1.0  0.03398  0.33319  0.99732  1.0000
  C   C105      1.0  0.32429  0.32017  0.00152  1.0000
  Fe  Fe19      1.0  0.22744  0.01884  0.99705  1.0000
  H   H121      1.0  0.20172  0.17511  0.99766  1.0000
  Fe  Fe20      1.0  0.06406  0.42752  0.23868  1.0000
  Fe  Fe21      1.0  0.12352  0.44313  0.23776  1.0000
  C   C106      1.0  0.18871  0.44731  0.24193  1.0000
  C   C107      1.0  0.04078  0.48515  0.24185  1.0000
  C   C108      1.0  0.28412  0.35887  0.23938  1.0000
  C   C109      1.0  0.26777  0.37276  0.24137  1.0000
  S   S33       1.0  0.26933  0.02440  0.99523  1.0000
  C   C110      1.0  0.23456  0.45390  0.24364  1.0000
  C   C111      1.0  0.18232  0.17545  0.99537  1.0000
  H   H122      1.0  0.34990  0.28813  0.99628  1.0000
  H   H123      1.0  0.18266  0.48977  0.22577  1.0000
  C   C112      1.0  0.03312  0.49593  0.21788  1.0000
  H   H124      1.0  0.15518  0.49604  0.24370  1.0000
  N   N8        1.0  0.99688  0.33625  0.99639  1.0000
  C   C113      1.0  0.22356  0.12978  0.99497  1.0000
  H   H125      1.0  0.09193  0.49898  0.10704  1.0000
  H   H126      1.0  0.18509  0.19647  0.99481  1.0000
  H   H127      1.0  0.46507  0.27315  0.34385  1.0000
  H   H128      1.0  0.06125  0.23351  0.45701  1.0000
  H   H129      1.0  0.24958  0.34154  0.26369  1.0000
  C   C114      1.0  0.44352  0.45344  0.31358  1.0000
  H   H130      1.0  0.36822  0.01780  0.42186  1.0000
  H   H131      1.0  0.21269  0.46148  0.26058  1.0000
  H   H132      1.0  0.44966  0.44214  0.28668  1.0000
  C   C115      1.0  0.99764  0.22820  0.48850  1.0000
  H   H133      1.0  0.04552  0.22523  0.47383  1.0000
  C   C116      1.0  0.37381  0.20263  0.28570  1.0000
  H   H134      1.0  0.30359  0.40481  0.25893  1.0000
  H   H135      1.0  0.42319  0.43867  0.31394  1.0000
  Fe  Fe22      1.0  0.39939  0.33288  0.35456  1.0000
  S   S34       1.0  0.37953  0.31586  0.33386  1.0000
  S   S35       1.0  0.38186  0.32093  0.37672  1.0000
  Fe  Fe23      1.0  0.45238  0.36534  0.33987  1.0000
  S   S36       1.0  0.43504  0.34908  0.31858  1.0000
  Fe  Fe24      1.0  0.40030  0.35688  0.32512  1.0000
  S   S37       1.0  0.38584  0.38510  0.31342  1.0000
  Fe  Fe25      1.0  0.41625  0.30954  0.32917  1.0000
  S   S38       1.0  0.42076  0.27431  0.31825  1.0000
  S   S39       1.0  0.41816  0.37438  0.34624  1.0000
  S   S40       1.0  0.43546  0.32521  0.35006  1.0000
  Fe  Fe26      1.0  0.41144  0.12233  0.33600  1.0000
  S   S41       1.0  0.41692  0.09920  0.35463  1.0000
  S   S42       1.0  0.40740  0.16094  0.34183  1.0000
  Fe  Fe27      1.0  0.40190  0.07592  0.31552  1.0000
  S   S43       1.0  0.40639  0.05015  0.33276  1.0000
  S   S44       1.0  0.39282  0.06376  0.29222  1.0000
  Fe  Fe28      1.0  0.38224  0.06552  0.34616  1.0000
  S   S45       1.0  0.34625  0.03617  0.35698  1.0000
  Fe  Fe29      1.0  0.44105  0.08567  0.33995  1.0000
  H   H136      1.0  0.36528  0.12929  0.27020  1.0000
  S   S46       1.0  0.37544  0.08901  0.32833  1.0000
  S   S47       1.0  0.43800  0.11114  0.32186  1.0000
  Fe  Fe30      1.0  0.20644  0.02231  0.43098  1.0000
  S   S48       1.0  0.19075  0.05422  0.43082  1.0000
  S   S49       1.0  0.24138  0.02498  0.44358  1.0000
  H   H137      1.0  0.32037  0.30264  0.47867  1.0000
  Fe  Fe31      1.0  0.02597  0.23295  0.43049  1.0000
  S   S50       1.0  0.07017  0.25195  0.42869  1.0000
  H   H138      1.0  0.29418  0.35424  0.24811  1.0000
  Fe  Fe32      1.0  0.25087  0.25077  0.42246  1.0000
  S   S51       1.0  0.22387  0.20807  0.42158  1.0000
  S   S52       1.0  0.26604  0.27113  0.40121  1.0000
  Fe  Fe33      1.0  0.24327  0.25274  0.45477  1.0000
  S   S53       1.0  0.21648  0.21050  0.45600  1.0000
  S   S54       1.0  0.25298  0.28001  0.47381  1.0000
  Fe  Fe34      1.0  0.24450  0.20367  0.44125  1.0000
  S   S55       1.0  0.26127  0.17287  0.44464  1.0000
  Fe  Fe35      1.0  0.19801  0.21888  0.43628  1.0000
  S   S56       1.0  0.15392  0.20048  0.43405  1.0000
  S   S57       1.0  0.27305  0.24569  0.44142  1.0000
  S   S58       1.0  0.22325  0.26174  0.43584  1.0000
  H   H139      1.0  0.30544  0.25897  0.46848  1.0000
  C   C117      1.0  0.09306  0.23733  0.43128  1.0000
  C   C118      1.0  0.08555  0.21020  0.43242  1.0000
  C   C119      1.0  0.10447  0.19935  0.43352  1.0000
  C   C120      1.0  0.13104  0.21545  0.43372  1.0000
  C   C121      1.0  0.13853  0.24266  0.43313  1.0000
  C   C122      1.0  0.11963  0.25350  0.43180  1.0000
  H   H140      1.0  0.06522  0.19750  0.43200  1.0000
  H   H141      1.0  0.09846  0.17827  0.43398  1.0000
  H   H142      1.0  0.15886  0.25528  0.43334  1.0000
  H   H143      1.0  0.12566  0.27451  0.43087  1.0000
  Fe  Fe36      1.0  0.25075  0.00619  0.42425  1.0000
  H   H144      1.0  0.38302  0.04156  0.26402  1.0000
  C   C123      1.0  0.36786  0.20865  0.29919  1.0000
  H   H145      1.0  0.23601  0.22896  0.48805  1.0000
  C   C124      1.0  0.21115  0.08736  0.43368  1.0000
  C   C125      1.0  0.23727  0.09476  0.43738  1.0000
  C   C126      1.0  0.25257  0.12111  0.44058  1.0000
  C   C127      1.0  0.24191  0.14023  0.43996  1.0000
  C   C128      1.0  0.21594  0.13290  0.43601  1.0000
  C   C129      1.0  0.20060  0.10652  0.43294  1.0000
  H   H146      1.0  0.24545  0.08007  0.43815  1.0000
  H   H147      1.0  0.27265  0.12668  0.44367  1.0000
  H   H148      1.0  0.20755  0.14750  0.43550  1.0000
  H   H149      1.0  0.18040  0.10091  0.43010  1.0000
  C   C130      1.0  0.33127  0.03563  0.37359  1.0000
  C   C131      1.0  0.30575  0.01741  0.37558  1.0000
  H   H150      1.0  0.42048  0.05809  0.38571  1.0000
  C   C132      1.0  0.30675  0.03056  0.40025  1.0000
  C   C133      1.0  0.34427  0.05181  0.38494  1.0000
  N   N9        1.0  0.07126  0.26571  0.47187  1.0000
  H   H151      1.0  0.23900  0.36329  0.27353  1.0000
  H   H152      1.0  0.36382  0.06602  0.38360  1.0000
  C   C134      1.0  0.34932  0.30621  0.38305  1.0000
  C   C135      1.0  0.34518  0.29791  0.39728  1.0000
  C   C136      1.0  0.31994  0.28675  0.40293  1.0000
  C   C137      1.0  0.29836  0.28398  0.39447  1.0000
  C   C138      1.0  0.30247  0.29221  0.38023  1.0000
  C   C139      1.0  0.32770  0.30308  0.37453  1.0000
  H   H153      1.0  0.36167  0.30026  0.40401  1.0000
  H   H154      1.0  0.31727  0.28068  0.41390  1.0000
  H   H155      1.0  0.28604  0.29027  0.37354  1.0000
  H   H156      1.0  0.33045  0.30940  0.36360  1.0000
  C   C140      1.0  0.41838  0.24354  0.32538  1.0000
  C   C141      1.0  0.42703  0.22721  0.31728  1.0000
  C   C142      1.0  0.42441  0.20216  0.32221  1.0000
  C   C143      1.0  0.41276  0.19293  0.33527  1.0000
  C   C144      1.0  0.40465  0.20951  0.34349  1.0000
  C   C145      1.0  0.40750  0.23464  0.33863  1.0000
  H   H157      1.0  0.43556  0.23387  0.30704  1.0000
  H   H158      1.0  0.43114  0.18996  0.31583  1.0000
  H   H159      1.0  0.39578  0.20277  0.35365  1.0000
  H   H160      1.0  0.40076  0.24688  0.34502  1.0000
  C   C146      1.0  0.00892  0.39948  0.26497  1.0000
  H   H161      1.0  0.35060  0.11380  0.30851  1.0000
  H   H162      1.0  0.07897  0.23019  0.47200  1.0000
  H   H163      1.0  0.29321  0.37379  0.26774  1.0000
  S   S59       1.0  0.16081  0.44890  0.24999  1.0000
  C   C147      1.0  0.35917  0.39378  0.26787  1.0000
  C   C148      1.0  0.36316  0.41333  0.27806  1.0000
  C   C149      1.0  0.37128  0.41023  0.29191  1.0000
  C   C150      1.0  0.37575  0.38772  0.29573  1.0000
  C   C151      1.0  0.37212  0.36835  0.28549  1.0000
  C   C152      1.0  0.36369  0.37130  0.27167  1.0000
  H   H164      1.0  0.35971  0.43068  0.27532  1.0000
  H   H165      1.0  0.37397  0.42532  0.29976  1.0000
  H   H166      1.0  0.37546  0.35094  0.28825  1.0000
  H   H167      1.0  0.36064  0.35604  0.26388  1.0000
  H   H168      1.0  0.03229  0.26328  0.46807  1.0000
  C   C153      1.0  0.37306  0.16034  0.29420  1.0000
  H   H169      1.0  0.33640  0.11170  0.29120  1.0000
  H   H170      1.0  0.25237  0.45985  0.24976  1.0000
  C   C154      1.0  0.45106  0.42821  0.29483  1.0000
  C   C155      1.0  0.02084  0.38749  0.27410  1.0000
  C   C156      1.0  0.36544  0.01005  0.41115  1.0000
  C   C157      1.0  0.37518  0.02547  0.27139  1.0000
  C   C158      1.0  0.37747  0.03069  0.28607  1.0000
  C   C159      1.0  0.36262  0.99961  0.26613  1.0000
  H   H171      1.0  0.03261  0.47895  0.25258  1.0000
  H   H172      1.0  0.39996  0.14576  0.27310  1.0000
  H   H173      1.0  0.36678  0.22748  0.30126  1.0000
  N   N10       1.0  0.40467  0.01840  0.37745  1.0000
  H   H174      1.0  0.48030  0.31243  0.35617  1.0000
  H   H175      1.0  0.02721  0.33025  0.38531  1.0000
  C   C160      1.0  0.35421  0.11292  0.29701  1.0000
  C   C161      1.0  0.42678  0.01279  0.38311  1.0000
  C   C162      1.0  0.27206  0.20321  0.47914  1.0000
  C   C163      1.0  0.38605  0.01803  0.40165  1.0000
  C   C164      1.0  0.46153  0.42132  0.31874  1.0000
  H   H176      1.0  0.15239  0.02677  0.47957  1.0000
  C   C165      1.0  0.21204  0.45487  0.24974  1.0000
  C   C166      1.0  0.36682  0.16707  0.30779  1.0000
  H   H177      1.0  0.44196  0.40539  0.31962  1.0000
  S   S60       1.0  0.29303  0.02688  0.41744  1.0000
  H   H178      1.0  0.21230  0.06998  0.46111  1.0000
  H   H179      1.0  0.44326  0.01905  0.37557  1.0000
  H   H180      1.0  0.12593  0.19569  0.48329  1.0000
  H   H181      1.0  0.35661  0.09403  0.29535  1.0000
  H   H182      1.0  0.38416  0.11144  0.27613  1.0000
  H   H183      1.0  0.40405  0.11899  0.29932  1.0000
  N   N11       1.0  0.18583  0.25785  0.39391  1.0000
  C   C167      1.0  0.19660  0.26473  0.37949  1.0000
  C   C168      1.0  0.20011  0.27989  0.40366  1.0000
  C   C169      1.0  0.19100  0.23475  0.39865  1.0000
  C   C170      1.0  0.15796  0.25323  0.39379  1.0000
  C   C171      1.0  0.14990  0.27374  0.38997  1.0000
  C   C172      1.0  0.13822  0.22889  0.39772  1.0000
  C   C173      1.0  0.12385  0.27032  0.39046  1.0000
  C   C174      1.0  0.11221  0.22562  0.39800  1.0000
  C   C175      1.0  0.10506  0.24635  0.39456  1.0000
  H   H184      1.0  0.19549  0.28317  0.37553  1.0000
  H   H185      1.0  0.21752  0.26781  0.37928  1.0000
  H   H186      1.0  0.18608  0.24886  0.37177  1.0000
  H   H187      1.0  0.20009  0.29890  0.39993  1.0000
  H   H188      1.0  0.22089  0.28286  0.40478  1.0000
  H   H189      1.0  0.19153  0.27619  0.41443  1.0000
  H   H190      1.0  0.18152  0.21753  0.39157  1.0000
  H   H191      1.0  0.21208  0.23880  0.39858  1.0000
  H   H192      1.0  0.18432  0.22910  0.40970  1.0000
  H   H193      1.0  0.16378  0.29274  0.38683  1.0000
  H   H194      1.0  0.14231  0.21220  0.40106  1.0000
  H   H195      1.0  0.11817  0.28643  0.38787  1.0000
  H   H196      1.0  0.09757  0.20713  0.40143  1.0000
  H   H197      1.0  0.08497  0.24393  0.39535  1.0000
  N   N12       1.0  0.19369  0.04795  0.47945  1.0000
  S   S61       1.0  0.00401  0.20803  0.44866  1.0000
  C   C176      1.0  0.14284  0.21347  0.48534  1.0000
  S   S62       1.0  0.32516  0.45797  0.24843  1.0000
  C   C177      1.0  0.36716  0.00962  0.29543  1.0000
  H   H198      1.0  0.16242  0.06139  0.47650  1.0000
  H   H199      1.0  0.43472  0.02344  0.39316  1.0000
  H   H200      1.0  0.30653  0.22305  0.45929  1.0000
  H   H201      1.0  0.26718  0.41937  0.24875  1.0000
  C   C178      1.0  0.09723  0.28084  0.46596  1.0000
  H   H202      1.0  0.09716  0.27910  0.45418  1.0000
  H   H203      1.0  0.30824  0.19286  0.46346  1.0000
  H   H204      1.0  0.10001  0.25184  0.49158  1.0000
  C   C179      1.0  0.06397  0.23749  0.46860  1.0000
  H   H205      1.0  0.37695  0.21679  0.27724  1.0000
  H   H206      1.0  0.46293  0.41769  0.29073  1.0000
  H   H207      1.0  0.29992  0.17388  0.48537  1.0000
  H   H208      1.0  0.20485  0.27590  0.49155  1.0000
  N   N13       1.0  0.46156  0.44166  0.30850  1.0000
  C   C180      1.0  0.48301  0.27078  0.34183  1.0000
  H   H209      1.0  0.38131  0.17564  0.27249  1.0000
  C   C181      1.0  0.30965  0.23921  0.48787  1.0000
  N   N14       1.0  0.26319  0.38095  0.25571  1.0000
  H   H210      1.0  0.46654  0.30791  0.33114  1.0000
  C   C182      1.0  0.37634  0.17884  0.28314  1.0000
  H   H211      1.0  0.26174  0.20220  0.48926  1.0000
  S   S63       1.0  0.00671  0.26193  0.43200  1.0000
  C   C183      1.0  0.16727  0.04411  0.47441  1.0000
  C   C184      1.0  0.31307  0.21298  0.46776  1.0000
  C   C185      1.0  0.38180  0.13050  0.27721  1.0000
  N   N15       1.0  0.30034  0.21259  0.48156  1.0000
  C   C186      1.0  0.41312  0.04711  0.37568  1.0000
  H   H212      1.0  0.36506  0.15459  0.31688  1.0000
  H   H213      1.0  0.48694  0.34041  0.32663  1.0000
  H   H214      1.0  0.01699  0.36405  0.29291  1.0000
  H   H215      1.0  0.25326  0.41081  0.26598  1.0000
  H   H216      1.0  0.15325  0.21934  0.46331  1.0000
  C   C187      1.0  0.38270  0.00887  0.38741  1.0000
  H   H217      1.0  0.33451  0.22279  0.46876  1.0000
  C   C188      1.0  0.01155  0.29039  0.37801  1.0000
  C   C189      1.0  0.19914  0.02537  0.47417  1.0000
  C   C190      1.0  0.30541  0.19323  0.49076  1.0000
  C   C191      1.0  0.25522  0.27046  0.49153  1.0000
  N   N16       1.0  0.37717  0.13571  0.29217  1.0000
  H   H218      1.0  0.39668  0.05204  0.37191  1.0000
  H   H219      1.0  0.10377  0.30205  0.46859  1.0000
  H   H220      1.0  0.41776  0.15403  0.29735  1.0000
  C   C192      1.0  0.05244  0.27432  0.46440  1.0000
  C   C193      1.0  0.36410  0.19078  0.31017  1.0000
  H   H221      1.0  0.28488  0.39894  0.27478  1.0000
  H   H222      1.0  0.25591  0.00638  0.48014  1.0000
  C   C194      1.0  0.00753  0.37333  0.28605  1.0000
  H   H223      1.0  0.23267  0.07594  0.47659  1.0000
  H   H224      1.0  0.02616  0.35697  0.33954  1.0000
  N   N17       1.0  0.28285  0.09608  0.39957  1.0000
  C   C195      1.0  0.27008  0.11505  0.40045  1.0000
  C   C196      1.0  0.26207  0.06966  0.39735  1.0000
  C   C197      1.0  0.29574  0.09580  0.41334  1.0000
  C   C198      1.0  0.30260  0.10389  0.38828  1.0000
  C   C199      1.0  0.30367  0.08629  0.37756  1.0000
  C   C200      1.0  0.32235  0.12954  0.38816  1.0000
  C   C201      1.0  0.32307  0.09417  0.36730  1.0000
  C   C202      1.0  0.34161  0.13721  0.37784  1.0000
  C   C203      1.0  0.34199  0.11955  0.36744  1.0000
  H   H225      1.0  0.26197  0.11738  0.38995  1.0000
  H   H226      1.0  0.25383  0.10863  0.40814  1.0000
  H   H227      1.0  0.28342  0.13479  0.40414  1.0000
  H   H228      1.0  0.24701  0.06478  0.40571  1.0000
  H   H229      1.0  0.26974  0.05393  0.39789  1.0000
  H   H230      1.0  0.25199  0.06830  0.38697  1.0000
  H   H231      1.0  0.30987  0.11558  0.41646  1.0000
  H   H232      1.0  0.28154  0.08858  0.42206  1.0000
  H   H233      1.0  0.30649  0.08260  0.41287  1.0000
  H   H234      1.0  0.29007  0.06614  0.37698  1.0000
  H   H235      1.0  0.32327  0.14381  0.39618  1.0000
  H   H236      1.0  0.32374  0.08030  0.35935  1.0000
  H   H237      1.0  0.35653  0.15689  0.37795  1.0000
  H   H238      1.0  0.35716  0.12548  0.35956  1.0000
  H   H239      1.0  0.11214  0.27390  0.46999  1.0000
  H   H240      1.0  0.44372  0.46961  0.30652  1.0000
  C   C204      1.0  0.99868  0.31039  0.35260  1.0000
  H   H241      1.0  0.05220  0.27100  0.45276  1.0000
  H   H242      1.0  0.34261  0.06124  0.40701  1.0000
  H   H243      1.0  0.47521  0.41225  0.31548  1.0000
  S   S64       1.0  0.09826  0.46406  0.24511  1.0000
  H   H244      1.0  0.19260  0.25923  0.46783  1.0000
  H   H245      1.0  0.04026  0.38897  0.27191  1.0000
  H   H246      1.0  0.49420  0.43533  0.35503  1.0000
  H   H247      1.0  0.01700  0.34806  0.36346  1.0000
  H   H248      1.0  0.38283  0.01111  0.35781  1.0000
  H   H249      1.0  0.16515  0.04091  0.46269  1.0000
  C   C205      1.0  0.48652  0.32027  0.32792  1.0000
  C   C206      1.0  0.31981  0.28635  0.48526  1.0000
  H   H250      1.0  0.42905  0.05502  0.36784  1.0000
  H   H251      1.0  0.05732  0.29566  0.46583  1.0000
  H   H252      1.0  0.02845  0.32990  0.32998  1.0000
  H   H253      1.0  0.26406  0.18331  0.47426  1.0000
  H   H254      1.0  0.46446  0.22897  0.34470  1.0000
  H   H255      1.0  0.00131  0.21860  0.47934  1.0000
  C   C207      1.0  0.25405  0.40284  0.25526  1.0000
  H   H256      1.0  0.26703  0.21644  0.47189  1.0000
  S   S65       1.0  0.99734  0.20882  0.41406  1.0000
  C   C208      1.0  0.40009  0.13708  0.30061  1.0000
  H   H257      1.0  0.39762  0.13945  0.31214  1.0000
  H   H258      1.0  0.01552  0.28257  0.38789  1.0000
  C   C209      1.0  0.01185  0.32715  0.36402  1.0000
  C   C210      1.0  0.18717  0.25864  0.49043  1.0000
  S   S66       1.0  0.21646  0.00542  0.41135  1.0000
  C   C211      1.0  0.33212  0.04911  0.39821  1.0000
  S   S67       1.0  0.34764  0.39597  0.25046  1.0000
  H   H259      1.0  0.18573  0.00650  0.47879  1.0000
  C   C212      1.0  0.31136  0.26113  0.47948  1.0000
  C   C213      1.0  0.48809  0.46211  0.30749  1.0000
  H   H260      1.0  0.49111  0.47355  0.32981  1.0000
  H   H261      1.0  0.23407  0.39671  0.25085  1.0000
  H   H262      1.0  0.19677  0.02326  0.46245  1.0000
  S   S68       1.0  0.02465  0.41771  0.24967  1.0000
  C   C214      1.0  0.15820  0.22675  0.47405  1.0000
  H   H263      1.0  0.40451  0.03195  0.40546  1.0000
  H   H264      1.0  0.01042  0.34783  0.32269  1.0000
  H   H265      1.0  0.46724  0.42916  0.32964  1.0000
  C   C215      1.0  0.21259  0.07196  0.47283  1.0000
  H   H266      1.0  0.22479  0.35101  0.25646  1.0000
  H   H267      1.0  0.20842  0.08961  0.47510  1.0000
  C   C216      1.0  0.24324  0.35821  0.26269  1.0000
  C   C217      1.0  0.01797  0.31720  0.37654  1.0000
  H   H268      1.0  0.41527  0.01369  0.35595  1.0000
  C   C218      1.0  0.29346  0.01502  0.38878  1.0000
  C   C219      1.0  0.01522  0.33981  0.33271  1.0000
  C   C220      1.0  0.28715  0.38994  0.26462  1.0000
  C   C221      1.0  0.07200  0.26957  0.48742  1.0000
  H   H269      1.0  0.04394  0.28837  0.48876  1.0000
  H   H270      1.0  0.29551  0.00478  0.36688  1.0000
  H   H271      1.0  0.21941  0.02773  0.47655  1.0000
  C   C222      1.0  0.99913  0.27344  0.36692  1.0000
  C   C223      1.0  0.48241  0.24533  0.34233  1.0000
  H   H272      1.0  0.36859  0.01322  0.30674  1.0000
  H   H273      1.0  0.48947  0.31319  0.31731  1.0000
  H   H274      1.0  0.36022  0.19588  0.32076  1.0000
  S   S69       1.0  0.47555  0.07688  0.34845  1.0000
  H   H275      1.0  0.44823  0.46132  0.32454  1.0000
  H   H276      1.0  0.32630  0.20019  0.49370  1.0000
  H   H277      1.0  0.43113  0.41296  0.29603  1.0000
  C   C224      1.0  0.18030  0.24925  0.47660  1.0000
  H   H278      1.0  0.27398  0.00062  0.39017  1.0000
  C   C225      1.0  0.39826  0.00629  0.36313  1.0000
  H   H279      1.0  0.49477  0.45736  0.28492  1.0000
  C   C226      1.0  0.05704  0.28159  0.49438  1.0000
  Fe  Fe37      1.0  0.19489  0.01537  0.56730  1.0000
  S   S70       1.0  0.17805  0.04636  0.56357  1.0000
  H   H280      1.0  0.25389  0.36493  0.61593  1.0000
  Fe  Fe38      1.0  0.22110  0.19904  0.57847  1.0000
  S   S71       1.0  0.25732  0.23592  0.57806  1.0000
  S   S72       1.0  0.21998  0.16183  0.58935  1.0000
  Fe  Fe39      1.0  0.18854  0.22638  0.56502  1.0000
  S   S73       1.0  0.22201  0.26533  0.56345  1.0000
  S   S74       1.0  0.14968  0.21921  0.55482  1.0000
  Fe  Fe40      1.0  0.24384  0.24115  0.55596  1.0000
  S   S75       1.0  0.27029  0.24955  0.53687  1.0000
  Fe  Fe41      1.0  0.23270  0.25723  0.58567  1.0000
  S   S76       1.0  0.23744  0.28245  0.60568  1.0000
  S   S77       1.0  0.20961  0.20282  0.55603  1.0000
  S   S78       1.0  0.19721  0.21965  0.58753  1.0000
  Fe  Fe42      1.0  0.02141  0.21728  0.58097  1.0000
  S   S79       1.0  0.02684  0.25593  0.57122  1.0000
  S   S80       1.0  0.05466  0.21239  0.59264  1.0000
  H   H281      1.0  0.16663  0.48622  0.66167  1.0000
  H   H282      1.0  0.27834  0.39712  0.61532  1.0000
  H   H283      1.0  0.07584  0.32209  0.60805  1.0000
  S   S81       1.0  0.42720  0.05791  0.73018  1.0000
  Fe  Fe43      1.0  0.35741  0.46883  0.66219  1.0000
  S   S82       1.0  0.33076  0.46271  0.68087  1.0000
  Fe  Fe44      1.0  0.32589  0.41178  0.65137  1.0000
  S   S83       1.0  0.29806  0.40210  0.66952  1.0000
  S   S84       1.0  0.32509  0.38536  0.63252  1.0000
  Fe  Fe45      1.0  0.29690  0.44188  0.66603  1.0000
  S   S85       1.0  0.26053  0.45111  0.66194  1.0000
  Fe  Fe46      1.0  0.33398  0.42323  0.68293  1.0000
  S   S86       1.0  0.33771  0.40636  0.70464  1.0000
  S   S87       1.0  0.32331  0.45059  0.64716  1.0000
  S   S88       1.0  0.36196  0.43027  0.66496  1.0000
  Fe  Fe47      1.0  0.06549  0.40775  0.64554  1.0000
  S   S89       1.0  0.06539  0.38246  0.66416  1.0000
  S   S90       1.0  0.05969  0.39150  0.62284  1.0000
  Fe  Fe48      1.0  0.08337  0.45857  0.66405  1.0000
  S   S91       1.0  0.08490  0.43549  0.68354  1.0000
  C   C227      1.0  0.37815  0.01705  0.73019  1.0000
  Fe  Fe49      1.0  0.10403  0.41496  0.66971  1.0000
  S   S92       1.0  0.13904  0.40536  0.67656  1.0000
  Fe  Fe50      1.0  0.04644  0.40552  0.67621  1.0000
  H   H284      1.0  0.27524  0.02274  0.50389  1.0000
  S   S93       1.0  0.10472  0.43953  0.65072  1.0000
  S   S94       1.0  0.04442  0.42923  0.65704  1.0000
  C   C228      1.0  0.22665  0.43716  0.66581  1.0000
  C   C229      1.0  0.21011  0.44737  0.65898  1.0000
  C   C230      1.0  0.18323  0.43728  0.66170  1.0000
  C   C231      1.0  0.17247  0.41725  0.67163  1.0000
  C   C232      1.0  0.18891  0.40665  0.67823  1.0000
  C   C233      1.0  0.21573  0.41635  0.67529  1.0000
  H   H285      1.0  0.21818  0.46326  0.65151  1.0000
  H   H286      1.0  0.17091  0.44516  0.65617  1.0000
  H   H287      1.0  0.18091  0.39102  0.68586  1.0000
  H   H288      1.0  0.22801  0.40812  0.68060  1.0000
  C   C234      1.0  0.40100  0.03052  0.72281  1.0000
  C   C235      1.0  0.40366  0.02164  0.70915  1.0000
  H   H289      1.0  0.20697  0.28540  0.52962  1.0000
  H   H290      1.0  0.16197  0.37668  0.64523  1.0000
  C   C236      1.0  0.19158  0.49683  0.68637  1.0000
  H   H291      1.0  0.20215  0.06121  0.53632  1.0000
  C   C237      1.0  0.39245  0.37012  0.72399  1.0000
  C   C238      1.0  0.39541  0.37870  0.70980  1.0000
  C   C239      1.0  0.37975  0.39101  0.70387  1.0000
  C   C240      1.0  0.36039  0.39422  0.71195  1.0000
  C   C241      1.0  0.35789  0.38624  0.72622  1.0000
  C   C242      1.0  0.37389  0.37447  0.73223  1.0000
  H   H292      1.0  0.40939  0.37511  0.70324  1.0000
  H   H293      1.0  0.38215  0.39729  0.69296  1.0000
  H   H294      1.0  0.34307  0.38867  0.73261  1.0000
  C   C243      1.0  0.00109  0.23592  0.51409  1.0000
  C   C244      1.0  0.02611  0.49189  0.68052  1.0000
  C   C245      1.0  0.27293  0.14653  0.60244  1.0000
  H   H295      1.0  0.14057  0.23859  0.52571  1.0000
  C   C246      1.0  0.21237  0.46797  0.69526  1.0000
  C   C247      1.0  0.27243  0.15636  0.61595  1.0000
  H   H296      1.0  0.01552  0.34802  0.63504  1.0000
  C   C248      1.0  0.38372  0.99978  0.70289  1.0000
  C   C249      1.0  0.23661  0.48631  0.69156  1.0000
  C   C250      1.0  0.02668  0.32744  0.59706  1.0000
  C   C251      1.0  0.04269  0.35220  0.60265  1.0000
  C   C252      1.0  0.03896  0.35985  0.61642  1.0000
  C   C253      1.0  0.01879  0.34241  0.62449  1.0000
  H   H297      1.0  0.02979  0.32199  0.58644  1.0000
  H   H298      1.0  0.05808  0.36558  0.59625  1.0000
  H   H299      1.0  0.14236  0.47397  0.69816  1.0000
  H   H300      1.0  0.24150  0.42660  0.61462  1.0000
  H   H301      1.0  0.42114  0.03200  0.70328  1.0000
  C   C254      1.0  0.26851  0.11480  0.62610  1.0000
  C   C255      1.0  0.30082  0.35626  0.62545  1.0000
  C   C256      1.0  0.27910  0.34083  0.63321  1.0000
  C   C257      1.0  0.26007  0.31826  0.62700  1.0000
  C   C258      1.0  0.26271  0.31049  0.61308  1.0000
  C   C259      1.0  0.28477  0.32557  0.60547  1.0000
  C   C260      1.0  0.30368  0.34828  0.61163  1.0000
  H   H302      1.0  0.27697  0.34622  0.64399  1.0000
  H   H303      1.0  0.24317  0.30665  0.63303  1.0000
  H   H304      1.0  0.28715  0.31988  0.59478  1.0000
  H   H305      1.0  0.32055  0.35988  0.60558  1.0000
  C   C261      1.0  0.12389  0.21845  0.56554  1.0000
  C   C262      1.0  0.12616  0.21970  0.58032  1.0000
  C   C263      1.0  0.10493  0.21826  0.58857  1.0000
  C   C264      1.0  0.08145  0.21576  0.58208  1.0000
  C   C265      1.0  0.07935  0.21500  0.56729  1.0000
  C   C266      1.0  0.10047  0.21616  0.55905  1.0000
  H   H306      1.0  0.14416  0.22160  0.58541  1.0000
  H   H307      1.0  0.10663  0.21885  0.60001  1.0000
  H   H308      1.0  0.06129  0.21304  0.56221  1.0000
  H   H309      1.0  0.09859  0.21516  0.54763  1.0000
  C   C267      1.0  0.26128  0.25732  0.51998  1.0000
  C   C268      1.0  0.27012  0.28357  0.51579  1.0000
  C   C269      1.0  0.05781  0.28431  0.50912  1.0000
  C   C270      1.0  0.24910  0.23759  0.50988  1.0000
  H   H310      1.0  0.28027  0.29893  0.52335  1.0000
  H   H311      1.0  0.24279  0.21723  0.51294  1.0000
  C   C271      1.0  0.19196  0.07876  0.57031  1.0000
  C   C272      1.0  0.20184  0.08379  0.58413  1.0000
  C   C273      1.0  0.21026  0.10931  0.58978  1.0000
  C   C274      1.0  0.20965  0.13024  0.58154  1.0000
  C   C275      1.0  0.20013  0.12531  0.56761  1.0000
  C   C276      1.0  0.19092  0.09959  0.56212  1.0000
  H   H312      1.0  0.20188  0.06773  0.59062  1.0000
  H   H313      1.0  0.21695  0.11281  0.60067  1.0000
  H   H314      1.0  0.19963  0.14122  0.56112  1.0000
  H   H315      1.0  0.18300  0.09578  0.55147  1.0000
  H   H316      1.0  0.19869  0.29546  0.51281  1.0000
  H   H317      1.0  0.01690  0.27646  0.62531  1.0000
  H   H318      1.0  0.10483  0.36952  0.64473  1.0000
  C   C277      1.0  0.23974  0.05902  0.61673  1.0000
  C   C278      1.0  0.08825  0.26342  0.51089  1.0000
  H   H319      1.0  0.33204  0.30988  0.50412  1.0000
  H   H320      1.0  0.13629  0.48583  0.66770  1.0000
  C   C279      1.0  0.19991  0.38560  0.63663  1.0000
  H   H321      1.0  0.26992  0.14833  0.63827  1.0000
  H   H322      1.0  0.06658  0.25224  0.63756  1.0000
  H   H323      1.0  0.16878  0.21505  0.52571  1.0000
  C   C280      1.0  0.19013  0.47291  0.69256  1.0000
  H   H324      1.0  0.25368  0.48187  0.69311  1.0000
  C   C281      1.0  0.20207  0.35853  0.61694  1.0000
  H   H325      1.0  0.21203  0.35216  0.60896  1.0000
  H   H326      1.0  0.48288  0.08268  0.72853  1.0000
  C   C282      1.0  0.08797  0.26096  0.49613  1.0000
  H   H327      1.0  0.01992  0.44193  0.70295  1.0000
  H   H328      1.0  0.21968  0.27770  0.51395  1.0000
  H   H329      1.0  0.03964  0.25279  0.60224  1.0000
  H   H330      1.0  0.07265  0.27614  0.52883  1.0000
  H   H331      1.0  0.18344  0.08389  0.49573  1.0000
  C   C283      1.0  0.27040  0.14060  0.62777  1.0000
  H   H332      1.0  0.15113  0.27138  0.51866  1.0000
  N   N18       1.0  0.13472  0.14212  0.58442  1.0000
  C   C284      1.0  0.13174  0.11457  0.58219  1.0000
  C   C285      1.0  0.15186  0.15870  0.57330  1.0000
  C   C286      1.0  0.14809  0.15096  0.59830  1.0000
  C   C287      1.0  0.10908  0.14396  0.58347  1.0000
  C   C288      1.0  0.09463  0.13777  0.57057  1.0000
  C   C289      1.0  0.09792  0.15226  0.59500  1.0000
  C   C290      1.0  0.07092  0.14045  0.56919  1.0000
  C   C291      1.0  0.07406  0.15462  0.59351  1.0000
  C   C292      1.0  0.06072  0.14897  0.58062  1.0000
  H   H333      1.0  0.15068  0.11243  0.58318  1.0000
  H   H334      1.0  0.11841  0.10132  0.59012  1.0000
  H   H335      1.0  0.12391  0.10712  0.57148  1.0000
  H   H336      1.0  0.14549  0.15122  0.56242  1.0000
  H   H337      1.0  0.17206  0.15990  0.57451  1.0000
  H   H338      1.0  0.15246  0.17900  0.57377  1.0000
  H   H339      1.0  0.15161  0.17186  0.60045  1.0000
  H   H340      1.0  0.13694  0.13859  0.60717  1.0000
  H   H341      1.0  0.16747  0.14971  0.59859  1.0000
  H   H342      1.0  0.10185  0.13129  0.56138  1.0000
  H   H343      1.0  0.10743  0.15766  0.60519  1.0000
  H   H344      1.0  0.06057  0.13635  0.55913  1.0000
  H   H345      1.0  0.06622  0.16186  0.60225  1.0000
  H   H346      1.0  0.04271  0.15181  0.57945  1.0000
  C   C293      1.0  0.18584  0.23383  0.52457  1.0000
  C   C294      1.0  0.21524  0.37957  0.62645  1.0000
  C   C295      1.0  0.17313  0.37165  0.63725  1.0000
  C   C296      1.0  0.25693  0.38595  0.61495  1.0000
  H   H347      1.0  0.09977  0.25586  0.51742  1.0000
  H   H348      1.0  0.24867  0.39934  0.64915  1.0000
  H   H349      1.0  0.08642  0.26258  0.62207  1.0000
  H   H350      1.0  0.27384  0.15870  0.59326  1.0000
  C   C297      1.0  0.00228  0.31799  0.61873  1.0000
  N   N19       1.0  0.01096  0.46945  0.68973  1.0000
  C   C298      1.0  0.25006  0.42267  0.62461  1.0000
  H   H351      1.0  0.07035  0.27943  0.60113  1.0000
  S   S95       1.0  0.00718  0.39160  0.68759  1.0000
  H   H352      1.0  0.13760  0.21116  0.50768  1.0000
  N   N20       1.0  0.17935  0.25406  0.51707  1.0000
  H   H353      1.0  0.06516  0.28686  0.65000  1.0000
  C   C299      1.0  0.17198  0.24552  0.50222  1.0000
  N   N21       1.0  0.24370  0.39420  0.62641  1.0000
  H   H354      1.0  0.19335  0.24020  0.53549  1.0000
  H   H355      1.0  0.01715  0.21177  0.50305  1.0000
  C   C300      1.0  0.15754  0.25739  0.52443  1.0000
  H   H356      1.0  0.26651  0.10319  0.63556  1.0000
  H   H357      1.0  0.32758  0.27231  0.51956  1.0000
  H   H358      1.0  0.27433  0.31048  0.49855  1.0000
  H   H359      1.0  0.16307  0.26495  0.53545  1.0000
  S   S96       1.0  0.40821  0.34951  0.73009  1.0000
  H   H360      1.0  0.45260  0.22906  0.73634  1.0000
  H   H361      1.0  0.04070  0.28512  0.60249  1.0000
  C   C301      1.0  0.26692  0.29009  0.50169  1.0000
  C   C302      1.0  0.19185  0.07431  0.51653  1.0000
  C   C303      1.0  0.16083  0.35118  0.62779  1.0000
  H   H362      1.0  0.20863  0.40097  0.64434  1.0000
  H   H363      1.0  0.20096  0.22950  0.51887  1.0000
  H   H364      1.0  0.22374  0.06296  0.61153  1.0000
  H   H365      1.0  0.16564  0.32855  0.61039  1.0000
  H   H366      1.0  0.02646  0.26026  0.63939  1.0000
  H   H367      1.0  0.18711  0.08949  0.52152  1.0000
  H   H368      1.0  0.08847  0.33053  0.66015  1.0000
  H   H369      1.0  0.05581  0.23531  0.62118  1.0000
  N   N22       1.0  0.34607  0.34524  0.66640  1.0000
  C   C304      1.0  0.33420  0.32568  0.65499  1.0000
  C   C305      1.0  0.32693  0.35645  0.67036  1.0000
  C   C306      1.0  0.36901  0.36693  0.66062  1.0000
  C   C307      1.0  0.35404  0.33272  0.67841  1.0000
  C   C308      1.0  0.34392  0.33131  0.69230  1.0000
  C   C309      1.0  0.37284  0.32174  0.67644  1.0000
  C   C310      1.0  0.35258  0.32009  0.70348  1.0000
  C   C311      1.0  0.38149  0.31076  0.68773  1.0000
  C   C312      1.0  0.37151  0.31012  0.70124  1.0000
  H   H370      1.0  0.31707  0.30885  0.65893  1.0000
  H   H371      1.0  0.32759  0.33445  0.64586  1.0000
  H   H372      1.0  0.34796  0.31774  0.65058  1.0000
  H   H373      1.0  0.30872  0.34116  0.67438  1.0000
  H   H374      1.0  0.32134  0.36558  0.66109  1.0000
  H   H375      1.0  0.33496  0.37209  0.67859  1.0000
  H   H376      1.0  0.36352  0.37758  0.65196  1.0000
  H   H377      1.0  0.37914  0.38154  0.66902  1.0000
  H   H378      1.0  0.38333  0.35999  0.65600  1.0000
  H   H379      1.0  0.33008  0.33968  0.69503  1.0000
  H   H380      1.0  0.38138  0.32205  0.66620  1.0000
  H   H381      1.0  0.34560  0.32042  0.71413  1.0000
  H   H382      1.0  0.39646  0.30325  0.68612  1.0000
  H   H383      1.0  0.37899  0.30263  0.71012  1.0000
  H   H384      1.0  0.23575  0.03787  0.61505  1.0000
  H   H385      1.0  0.00476  0.44287  0.67205  1.0000
  S   S97       1.0  0.23764  0.02578  0.56863  1.0000
  S   S98       1.0  0.25696  0.00767  0.53223  1.0000
  H   H386      1.0  0.14792  0.46202  0.67420  1.0000
  C   C313      1.0  0.20031  0.05842  0.52492  1.0000
  H   H387      1.0  0.47494  0.04891  0.72510  1.0000
  N   N23       1.0  0.26523  0.07624  0.61096  1.0000
  C   C314      1.0  0.28592  0.07140  0.61892  1.0000
  C   C315      1.0  0.17525  0.34465  0.61766  1.0000
  C   C316      1.0  0.26617  0.06823  0.59603  1.0000
  C   C317      1.0  0.26861  0.10402  0.61246  1.0000
  C   C318      1.0  0.27111  0.12080  0.60063  1.0000
  H   H388      1.0  0.27322  0.17613  0.61719  1.0000
  H   H389      1.0  0.27139  0.43411  0.62439  1.0000
  H   H390      1.0  0.02833  0.37819  0.71383  1.0000
  H   H391      1.0  0.37575  0.02354  0.74069  1.0000
  H   H392      1.0  0.28517  0.07444  0.63051  1.0000
  H   H393      1.0  0.28421  0.05073  0.61757  1.0000
  H   H394      1.0  0.30544  0.08455  0.61519  1.0000
  C   C319      1.0  0.00869  0.37626  0.71575  1.0000
  C   C320      1.0  0.09518  0.35016  0.64009  1.0000
  H   H395      1.0  0.04230  0.45605  0.68915  1.0000
  H   H396      1.0  0.28495  0.08019  0.59101  1.0000
  H   H397      1.0  0.26420  0.04747  0.59529  1.0000
  H   H398      1.0  0.25005  0.06967  0.58955  1.0000
  H   H399      1.0  0.27090  0.11439  0.58981  1.0000
  H   H400      1.0  0.01457  0.24357  0.62297  1.0000
  H   H401      1.0  0.04240  0.47547  0.70443  1.0000
  C   C321      1.0  0.25466  0.39011  0.64014  1.0000
  H   H402      1.0  0.23846  0.06164  0.62833  1.0000
  H   H403      1.0  0.27622  0.39876  0.64011  1.0000
  H   H404      1.0  0.21345  0.02683  0.52521  1.0000
  C   C322      1.0  0.20210  0.27931  0.51834  1.0000
  N   N24       1.0  0.05343  0.27327  0.62199  1.0000
  C   C323      1.0  0.05111  0.27287  0.60629  1.0000
  C   C324      1.0  0.06613  0.25515  0.62594  1.0000
  C   C325      1.0  0.02678  0.26294  0.62772  1.0000
  C   C326      1.0  0.06830  0.29972  0.62795  1.0000
  C   C327      1.0  0.07254  0.30326  0.64282  1.0000
  C   C328      1.0  0.07845  0.32260  0.61941  1.0000
  C   C329      1.0  0.08584  0.32814  0.64875  1.0000
  C   C330      1.0  0.09156  0.34738  0.62548  1.0000
  H   H405      1.0  0.04553  0.29264  0.51427  1.0000
  H   H406      1.0  0.21069  0.44931  0.69971  1.0000
  C   C331      1.0  0.02965  0.46037  0.69691  1.0000
  C   C332      1.0  0.00619  0.31020  0.60504  1.0000
  S   S99       1.0  0.01446  0.23174  0.53054  1.0000
  H   H407      1.0  0.09810  0.36473  0.61883  1.0000
  H   H408      1.0  0.14012  0.34021  0.62838  1.0000
  C   C333      1.0  0.07312  0.27500  0.51737  1.0000
  C   C334      1.0  0.20657  0.03896  0.51864  1.0000
  H   H409      1.0  0.24289  0.43114  0.63347  1.0000
  H   H410      1.0  0.24827  0.36887  0.64254  1.0000
  H   H411      1.0  0.25012  0.38917  0.60427  1.0000
  C   C335      1.0  0.14963  0.22258  0.49923  1.0000
  C   C336      1.0  0.49104  0.06859  0.72454  1.0000
  H   H412      1.0  0.17171  0.45728  0.69483  1.0000
  C   C337      1.0  0.00623  0.22406  0.50199  1.0000
  Fe  Fe51      1.0  0.00147  0.23211  0.55331  1.0000
  C   C338      1.0  0.32625  0.29043  0.49959  1.0000
  H   H413      1.0  0.37100  0.36765  0.74307  1.0000
  S   S100      1.0  0.99906  0.19396  0.56257  1.0000
  C   C339      1.0  0.15403  0.48296  0.67111  1.0000
  C   C340      1.0  0.18964  0.07079  0.50181  1.0000
  C   C341      1.0  0.20422  0.03511  0.50397  1.0000
  H   H414      1.0  0.29375  0.18913  0.50061  1.0000
  H   H415      1.0  0.31350  0.22846  0.51000  1.0000
  H   H416      1.0  0.20946  0.01970  0.49990  1.0000
  C   C342      1.0  0.25642  0.00682  0.50309  1.0000
  H   H417      1.0  0.00811  0.36211  0.73716  1.0000
  C   C343      1.0  0.99518  0.47589  0.70044  1.0000
  C   C344      1.0  0.32388  0.26925  0.50825  1.0000
  C   C345      1.0  0.15018  0.49506  0.69524  1.0000
  C   C346      1.0  0.19561  0.05092  0.49507  1.0000
  C   C347      1.0  0.31562  0.24396  0.50256  1.0000
  C   C348      1.0  0.99711  0.36708  0.72900  1.0000
  H   H418      1.0  0.03769  0.48625  0.67261  1.0000
  C   C349      1.0  0.24570  0.24416  0.49573  1.0000
  H   H419      1.0  0.32757  0.29197  0.90808  1.0000
  C   C350      1.0  0.43381  0.22450  0.81554  1.0000
  S   S101      1.0  0.24245  0.22417  0.98195  1.0000
  C   C351      1.0  0.41178  0.15131  0.84513  1.0000
  S   S102      1.0  0.31559  0.26909  0.97173  1.0000
  Fe  Fe52      1.0  0.41560  0.34050  0.91084  1.0000
  S   S103      1.0  0.44992  0.34284  0.92413  1.0000
  S   S104      1.0  0.37900  0.34183  0.92082  1.0000
  Fe  Fe53      1.0  0.43981  0.33104  0.88330  1.0000
  S   S105      1.0  0.47504  0.33177  0.89508  1.0000
  S   S106      1.0  0.44152  0.31871  0.86046  1.0000
  Fe  Fe54      1.0  0.44777  0.30780  0.91150  1.0000
  S   S107      1.0  0.45019  0.27242  0.92220  1.0000
  Fe  Fe55      1.0  0.47454  0.36721  0.90640  1.0000
  H   H420      1.0  0.46625  0.19915  0.77626  1.0000
  S   S108      1.0  0.41238  0.30407  0.89907  1.0000
  S   S109      1.0  0.44034  0.36789  0.89377  1.0000
  Fe  Fe56      1.0  0.45510  0.32121  0.76936  1.0000
  S   S110      1.0  0.41744  0.32676  0.77075  1.0000
  H   H421      1.0  0.27854  0.09693  0.94599  1.0000
  H   H422      1.0  0.42804  0.24776  0.84805  1.0000
  S   S111      1.0  0.45072  0.38955  0.76330  1.0000
  H   H423      1.0  0.32862  0.08750  0.96812  1.0000
  Fe  Fe57      1.0  0.44098  0.36363  0.78275  1.0000
  S   S112      1.0  0.42788  0.37430  0.80366  1.0000
  H   H424      1.0  0.48790  0.09173  0.85300  1.0000
  S   S113      1.0  0.47778  0.35701  0.78230  1.0000
  Fe  Fe58      1.0  0.42576  0.10322  0.77971  1.0000
  S   S114      1.0  0.46344  0.13822  0.77985  1.0000
  S   S115      1.0  0.39986  0.09917  0.79871  1.0000
  H   H425      1.0  0.44416  0.13562  0.83087  1.0000
  Fe  Fe59      1.0  0.47953  0.11030  0.77067  1.0000
  C   C352      1.0  0.45705  0.25457  0.75435  1.0000
  H   H426      1.0  0.48897  0.18958  0.93606  1.0000
  H   H427      1.0  0.40841  0.17096  0.76387  1.0000
  S   S116      1.0  0.44241  0.07465  0.77201  1.0000
  S   S117      1.0  0.41386  0.11043  0.75762  1.0000
  Fe  Fe60      1.0  0.46758  0.12168  0.90137  1.0000
  S   S118      1.0  0.44245  0.07875  0.90044  1.0000
  C   C353      1.0  0.29031  0.08716  0.95118  1.0000
  Fe  Fe61      1.0  0.42268  0.13685  0.89167  1.0000
  S   S119      1.0  0.39421  0.09499  0.88970  1.0000
  S   S120      1.0  0.41423  0.17117  0.88355  1.0000
  Fe  Fe62      1.0  0.41125  0.08932  0.91070  1.0000
  S   S121      1.0  0.39100  0.06977  0.93130  1.0000
  Fe  Fe63      1.0  0.42743  0.08808  0.87968  1.0000
  S   S122      1.0  0.43050  0.06795  0.85921  1.0000
  S   S123      1.0  0.43797  0.13203  0.91306  1.0000
  S   S124      1.0  0.45424  0.13019  0.88023  1.0000
  H   H428      1.0  0.47879  0.40389  0.81738  1.0000
  C   C354      1.0  0.40846  0.09000  0.81538  1.0000
  C   C355      1.0  0.39359  0.08985  0.82731  1.0000
  C   C356      1.0  0.40047  0.08366  0.84083  1.0000
  C   C357      1.0  0.42213  0.07727  0.84252  1.0000
  C   C358      1.0  0.43680  0.07708  0.83057  1.0000
  C   C359      1.0  0.43021  0.08374  0.81708  1.0000
  H   H429      1.0  0.37660  0.09440  0.82606  1.0000
  H   H430      1.0  0.38864  0.08317  0.84990  1.0000
  H   H431      1.0  0.45331  0.07170  0.83172  1.0000
  H   H432      1.0  0.44178  0.08371  0.80797  1.0000
  C   C360      1.0  0.46133  0.25769  0.76897  1.0000
  H   H433      1.0  0.14520  0.18383  0.98381  1.0000
  C   C361      1.0  0.46367  0.21450  0.77013  1.0000
  H   H434      1.0  0.26483  0.07652  0.98411  1.0000
  H   H435      1.0  0.47604  0.18936  0.84545  1.0000
  H   H436      1.0  0.28138  0.06599  0.94827  1.0000
  H   H437      1.0  0.28569  0.16569  0.98765  1.0000
  H   H438      1.0  0.41331  0.13354  0.84985  1.0000
  C   C362      1.0  0.43911  0.24423  0.91151  1.0000
  C   C363      1.0  0.43545  0.21991  0.91754  1.0000
  C   C364      1.0  0.42776  0.19732  0.90904  1.0000
  C   C365      1.0  0.42334  0.19895  0.89453  1.0000
  C   C366      1.0  0.42610  0.22313  0.88862  1.0000
  C   C367      1.0  0.43420  0.24579  0.89707  1.0000
  H   H439      1.0  0.43867  0.21859  0.92878  1.0000
  H   H440      1.0  0.42507  0.17863  0.91373  1.0000
  H   H441      1.0  0.42237  0.22448  0.87745  1.0000
  H   H442      1.0  0.43699  0.26451  0.89234  1.0000
  C   C368      1.0  0.43684  0.33412  0.84487  1.0000
  C   C369      1.0  0.44415  0.32691  0.83185  1.0000
  C   C370      1.0  0.44133  0.33895  0.81916  1.0000
  C   C371      1.0  0.43100  0.35823  0.81937  1.0000
  C   C372      1.0  0.42359  0.36537  0.83239  1.0000
  C   C373      1.0  0.42653  0.35340  0.84512  1.0000
  H   H443      1.0  0.45217  0.31204  0.83159  1.0000
  H   H444      1.0  0.44711  0.33331  0.80922  1.0000
  H   H445      1.0  0.41560  0.38028  0.83262  1.0000
  H   H446      1.0  0.42073  0.35902  0.85507  1.0000
  S   S125      1.0  0.47247  0.11890  0.74819  1.0000
  C   C374      1.0  0.33321  0.29067  0.95802  1.0000
  C   C375      1.0  0.32440  0.30813  0.95116  1.0000
  C   C376      1.0  0.33887  0.32402  0.94000  1.0000
  C   C377      1.0  0.36228  0.32272  0.93557  1.0000
  C   C378      1.0  0.37141  0.30584  0.94274  1.0000
  C   C379      1.0  0.35695  0.28995  0.95386  1.0000
  H   H447      1.0  0.30626  0.30906  0.95425  1.0000
  H   H448      1.0  0.33166  0.33710  0.93458  1.0000
  H   H449      1.0  0.38958  0.30501  0.93965  1.0000
  H   H450      1.0  0.36417  0.27689  0.95925  1.0000
  C   C380      1.0  0.13337  0.24531  0.98206  1.0000
  S   S126      1.0  0.27440  0.01235  0.95338  1.0000
  H   H451      1.0  0.35938  0.32426  0.98153  1.0000
  C   C381      1.0  0.30702  0.02816  0.94748  1.0000
  C   C382      1.0  0.32836  0.03236  0.95641  1.0000
  C   C383      1.0  0.35377  0.04514  0.95125  1.0000
  C   C384      1.0  0.35833  0.05394  0.93712  1.0000
  C   C385      1.0  0.33696  0.04986  0.92822  1.0000
  C   C386      1.0  0.31152  0.03699  0.93336  1.0000
  H   H452      1.0  0.37011  0.04807  0.95823  1.0000
  H   H453      1.0  0.34006  0.05637  0.91732  1.0000
  S   S127      1.0  0.46567  0.34298  0.74880  1.0000
  H   H454      1.0  0.31666  0.30793  0.99188  1.0000
  H   H455      1.0  0.43002  0.20613  0.85529  1.0000
  H   H456      1.0  0.45435  0.26983  0.74819  1.0000
  H   H457      1.0  0.48697  0.17994  0.91012  1.0000
  H   H458      1.0  0.43055  0.26001  0.82273  1.0000
  H   H459      1.0  0.32884  0.19461  0.97906  1.0000
  C   C387      1.0  0.45757  0.17434  0.84937  1.0000
  H   H460      1.0  0.37941  0.25371  0.94142  1.0000
  C   C388      1.0  0.15280  0.24258  0.99073  1.0000
  H   H461      1.0  0.46122  0.15648  0.85210  1.0000
  H   H462      1.0  0.36691  0.19609  0.92984  1.0000
  H   H463      1.0  0.47777  0.38440  0.84066  1.0000
  C   C389      1.0  0.32598  0.13655  0.96542  1.0000
  C   C390      1.0  0.26511  0.07578  0.97233  1.0000
  C   C391      1.0  0.43004  0.23455  0.84006  1.0000
  C   C392      1.0  0.45603  0.23144  0.74766  1.0000
  H   H464      1.0  0.31173  0.08357  0.98466  1.0000
  H   H465      1.0  0.31555  0.21721  0.94003  1.0000
  H   H466      1.0  0.21619  0.14184  0.98877  1.0000
  H   H467      1.0  0.33366  0.19052  0.92629  1.0000
  C   C393      1.0  0.32122  0.17385  0.97650  1.0000
  C   C394      1.0  0.43533  0.20075  0.81947  1.0000
  H   H468      1.0  0.17635  0.16650  0.98469  1.0000
  Fe  Fe64      1.0  0.27894  0.26056  0.98496  1.0000
  N   N25       1.0  0.43650  0.16861  0.83863  1.0000
  H   H469      1.0  0.46889  0.24022  0.78804  1.0000
  H   H470      1.0  0.13729  0.25008  0.97097  1.0000
  C   C395      1.0  0.28692  0.13070  0.97824  1.0000
  H   H471      1.0  0.20156  0.09429  0.98333  1.0000
  Fe  Fe65      1.0  0.48563  0.37928  0.76193  1.0000
  H   H472      1.0  0.46061  0.16554  0.82156  1.0000
  H   H473      1.0  0.03206  0.35648  0.98455  1.0000
  C   C396      1.0  0.29687  0.15754  0.98132  1.0000
  C   C397      1.0  0.21539  0.10276  0.99185  1.0000
  H   H474      1.0  0.35495  0.17602  0.96509  1.0000
  S   S128      1.0  0.18282  0.24573  0.98292  1.0000
  N   N26       1.0  0.29143  0.09100  0.96678  1.0000
  Fe  Fe66      1.0  0.43001  0.35217  0.75112  1.0000
  H   H475      1.0  0.29523  0.03381  0.92631  1.0000
  H   H476      1.0  0.39569  0.14475  0.83719  1.0000
  H   H477      1.0  0.25047  0.08289  0.96801  1.0000
  C   C398      1.0  0.33580  0.16337  0.96860  1.0000
  C   C399      1.0  0.30916  0.07969  0.97304  1.0000
  H   H478      1.0  0.09410  0.24358  0.98062  1.0000
  C   C400      1.0  0.13136  0.17448  0.99201  1.0000
  H   H479      1.0  0.49276  0.35849  0.85416  1.0000
  C   C401      1.0  0.10706  0.17579  0.99044  1.0000
  S   S129      1.0  0.45674  0.18214  0.74668  1.0000
  H   H480      1.0  0.40588  0.16108  0.85390  1.0000
  H   H481      1.0  0.10312  0.18584  0.98139  1.0000
  Fe  Fe67      1.0  0.45288  0.14387  0.75740  1.0000
  H   H482      1.0  0.35948  0.27242  0.90781  1.0000
  H   H483      1.0  0.42625  0.14695  0.81886  1.0000
  H   H484      1.0  0.26808  0.11925  0.98245  1.0000
  H   H485      1.0  0.30982  0.09477  0.94632  1.0000
  H   H486      1.0  0.39234  0.26808  0.92477  1.0000
  H   H487      1.0  0.43727  0.18863  0.81095  1.0000
  H   H488      1.0  0.32534  0.02557  0.96726  1.0000
  H   H489      1.0  0.34991  0.20712  0.94235  1.0000
  C   C402      1.0  0.30119  0.11936  0.97014  1.0000
  S   S130      1.0  0.00309  0.21500  0.98612  1.0000
  C   C403      1.0  0.02098  0.33724  0.98952  1.0000
  H   H490      1.0  0.30151  0.05806  0.97157  1.0000
  H   H491      1.0  0.28988  0.27487  0.92395  1.0000
  H   H492      1.0  0.28472  0.23793  0.94000  1.0000
  H   H493      1.0  0.45284  0.18140  0.85958  1.0000
  N   N27       1.0  0.38021  0.23565  0.78025  1.0000
  C   C404      1.0  0.39390  0.25418  0.79181  1.0000
  C   C405      1.0  0.38909  0.24941  0.76657  1.0000
  C   C406      1.0  0.35205  0.22944  0.78127  1.0000
  C   C407      1.0  0.38496  0.21120  0.78167  1.0000
  C   C408      1.0  0.39630  0.20157  0.77077  1.0000
  C   C409      1.0  0.37774  0.19592  0.79421  1.0000
  C   C410      1.0  0.39977  0.17800  0.77234  1.0000
  C   C411      1.0  0.38144  0.17244  0.79568  1.0000
  C   C412      1.0  0.39239  0.16350  0.78474  1.0000
  H   H494      1.0  0.41489  0.25801  0.79193  1.0000
  H   H495      1.0  0.39234  0.27355  0.79053  1.0000
  H   H496      1.0  0.38620  0.24681  0.80246  1.0000
  H   H497      1.0  0.00194  0.30692  0.86689  1.0000
  H   H498      1.0  0.38528  0.26768  0.76580  1.0000
  H   H499      1.0  0.37905  0.23694  0.75735  1.0000
  H   H500      1.0  0.34413  0.22112  0.79174  1.0000
  H   H501      1.0  0.34765  0.24728  0.77982  1.0000
  H   H502      1.0  0.34102  0.21490  0.77301  1.0000
  H   H503      1.0  0.40286  0.21185  0.76091  1.0000
  H   H504      1.0  0.36907  0.20197  0.80297  1.0000
  H   H505      1.0  0.48077  0.21644  0.93150  1.0000
  H   H506      1.0  0.37564  0.16093  0.80528  1.0000
  H   H507      1.0  0.39511  0.14521  0.78583  1.0000
  N   N28       1.0  0.36031  0.23046  0.92329  1.0000
  C   C413      1.0  0.36711  0.22614  0.90857  1.0000
  C   C414      1.0  0.38378  0.24911  0.93053  1.0000
  C   C415      1.0  0.35217  0.20491  0.93078  1.0000
  C   C416      1.0  0.34021  0.24165  0.92322  1.0000
  C   C417      1.0  0.31863  0.23272  0.93247  1.0000
  C   C418      1.0  0.34283  0.26337  0.91444  1.0000
  C   C419      1.0  0.30056  0.24443  0.93254  1.0000
  C   C420      1.0  0.32458  0.27480  0.91453  1.0000
  C   C421      1.0  0.30345  0.26531  0.92353  1.0000
  H   H508      1.0  0.37778  0.24476  0.90288  1.0000
  H   H509      1.0  0.38027  0.21539  0.90834  1.0000
  H   H510      1.0  0.34949  0.21464  0.90223  1.0000
  H   H511      1.0  0.39916  0.24118  0.93144  1.0000
  C   C422      1.0  0.44216  0.15374  0.82693  1.0000
  H   H512      1.0  0.43469  0.22984  0.80445  1.0000
  C   C423      1.0  0.43139  0.21079  0.84411  1.0000
  C   C424      1.0  0.45907  0.21119  0.75552  1.0000
  H   H513      1.0  0.25810  0.05460  0.96943  1.0000
  C   C425      1.0  0.46499  0.23774  0.77678  1.0000
  C   C426      1.0  0.43447  0.19331  0.83397  1.0000
  C   C427      1.0  0.49361  0.39973  0.86923  1.0000
  H   H514      1.0  0.47447  0.38741  0.86449  1.0000
  Fe  Fe68      1.0  0.22157  0.24747  0.99218  1.0000
  C   C428      1.0  0.43137  0.24145  0.82581  1.0000
  S   S131      1.0  0.46132  0.28558  0.77813  1.0000
  C   C429      1.0  0.10880  0.24163  0.98751  1.0000
  H   H515      1.0  0.41032  0.25556  0.76532  1.0000
  H   H516      1.0  0.48163  0.20881  0.90568  1.0000
  H   H517      1.0  0.49147  0.04290  0.74902  1.0000
  C   C430      1.0  0.36610  0.33786  0.99078  1.0000
  S   S132      1.0  0.25771  0.28504  0.99326  1.0000
  H   H518      1.0  0.33804  0.12921  0.95939  1.0000
  H   H519      1.0  0.36268  0.35566  0.98770  1.0000
  Fe  Fe69      1.0  0.99781  0.25337  0.98609  1.0000
  H   H520      1.0  0.49326  0.39278  0.88035  1.0000
  H   H521      1.0  0.38730  0.34303  0.99196  1.0000
  H   H522      1.0  0.48985  0.24972  0.91669  1.0000
  Fe  Fe70      1.0  0.43393  0.08463  0.74984  1.0000
  H   H523      1.0  0.01681  0.32247  0.98084  1.0000
  S   S133      1.0  0.99509  0.27297  0.96518  1.0000
  Fe  Fe71      1.0  0.25696  0.99993  0.97549  1.0000
  H   H524      1.0  0.49489  0.42029  0.86973  1.0000
  Fe  Fe72      1.0  0.02136  0.74279  0.00736  1.0000
  S   S134      1.0  0.03911  0.71861  0.02017  1.0000
  S   S135      1.0  0.01067  0.77574  0.01478  1.0000
  S   S136      1.0  0.10430  0.51596  0.21365  1.0000
  H   H525      1.0  0.34689  0.94519  0.07625  1.0000
  C   C431      1.0  0.40955  0.97614  0.06670  1.0000
  Fe  Fe73      1.0  0.10416  0.66299  0.12168  1.0000
  S   S137      1.0  0.13929  0.65813  0.11328  1.0000
  S   S138      1.0  0.09615  0.64389  0.14344  1.0000
  Fe  Fe74      1.0  0.09786  0.69057  0.09414  1.0000
  S   S139      1.0  0.13298  0.68772  0.08416  1.0000
  S   S140      1.0  0.07514  0.71325  0.08434  1.0000
  Fe  Fe75      1.0  0.11753  0.64634  0.09280  1.0000
  S   S141      1.0  0.11548  0.61163  0.07914  1.0000
  Fe  Fe76      1.0  0.15173  0.69956  0.10564  1.0000
  S   S142      1.0  0.19172  0.72691  0.11299  1.0000
  S   S143      1.0  0.08109  0.64836  0.10146  1.0000
  S   S144      1.0  0.11791  0.70523  0.11528  1.0000
  Fe  Fe77      1.0  0.08950  0.67810  0.22434  1.0000
  S   S145      1.0  0.12502  0.66935  0.22836  1.0000
  S   S146      1.0  0.07637  0.68704  0.20279  1.0000
  H   H526      1.0  0.45759  0.60794  0.23173  1.0000
  H   H527      1.0  0.07516  0.52964  0.10402  1.0000
  S   S147      1.0  0.35770  0.92548  0.23233  1.0000
  H   H528      1.0  0.20905  0.76409  0.17507  1.0000
  Fe  Fe78      1.0  0.32553  0.91484  0.21604  1.0000
  S   S148      1.0  0.33405  0.93471  0.19452  1.0000
  S   S149      1.0  0.31458  0.87148  0.21762  1.0000
  H   H529      1.0  0.28785  0.93379  0.12876  1.0000
  Fe  Fe79      1.0  0.30735  0.84648  0.08823  1.0000
  S   S150      1.0  0.28539  0.86562  0.10016  1.0000
  S   S151      1.0  0.28226  0.80880  0.07710  1.0000
  Fe  Fe80      1.0  0.35927  0.89094  0.09497  1.0000
  S   S152      1.0  0.34013  0.91313  0.10749  1.0000
  S   S153      1.0  0.40307  0.91284  0.09293  1.0000
  Fe  Fe81      1.0  0.31630  0.87403  0.11685  1.0000
  S   S154      1.0  0.30259  0.86276  0.13938  1.0000
  Fe  Fe82      1.0  0.31079  0.90289  0.08959  1.0000
  S   S155      1.0  0.29230  0.93123  0.08249  1.0000
  S   S156      1.0  0.33707  0.85226  0.10556  1.0000
  S   S157      1.0  0.33129  0.88335  0.07645  1.0000
  C   C432      1.0  0.47687  0.57806  0.08431  1.0000
  C   C433      1.0  0.46192  0.55488  0.07698  1.0000
  C   C434      1.0  0.43904  0.53638  0.08288  1.0000
  C   C435      1.0  0.43110  0.54071  0.09632  1.0000
  C   C436      1.0  0.44589  0.56406  0.10356  1.0000
  C   C437      1.0  0.46844  0.58276  0.09753  1.0000
  C   C438      1.0  0.07839  0.79686  0.02539  1.0000
  C   C439      1.0  0.42745  0.54129  0.16017  1.0000
  H   H530      1.0  0.15642  0.81293  0.01650  1.0000
  H   H531      1.0  0.12729  0.52249  0.12422  1.0000
  S   S158      1.0  0.49193  0.92386  0.22191  1.0000
  H   H532      1.0  0.38380  0.52265  0.13289  1.0000
  H   H533      1.0  0.17761  0.51231  0.21356  1.0000
  C   C440      1.0  0.46551  0.87781  0.09225  1.0000
  C   C441      1.0  0.43910  0.86122  0.09267  1.0000
  C   C442      1.0  0.41975  0.87158  0.09296  1.0000
  C   C443      1.0  0.42663  0.89872  0.09273  1.0000
  C   C444      1.0  0.45305  0.91533  0.09233  1.0000
  C   C445      1.0  0.47240  0.90497  0.09211  1.0000
  H   H534      1.0  0.43354  0.84019  0.09275  1.0000
  H   H535      1.0  0.39953  0.85854  0.09321  1.0000
  H   H536      1.0  0.45860  0.93635  0.09210  1.0000
  C   C446      1.0  0.23084  0.87561  0.10622  1.0000
  C   C447      1.0  0.23829  0.79704  0.24216  1.0000
  H   H537      1.0  0.09378  0.58944  0.14540  1.0000
  H   H538      1.0  0.46818  0.55110  0.06671  1.0000
  S   S159      1.0  0.24348  0.84681  0.23329  1.0000
  C   C448      1.0  0.32494  0.91495  0.17908  1.0000
  C   C449      1.0  0.30754  0.88881  0.17977  1.0000
  C   C450      1.0  0.30108  0.87317  0.16750  1.0000
  C   C451      1.0  0.31182  0.88349  0.15438  1.0000
  C   C452      1.0  0.32901  0.90973  0.15357  1.0000
  C   C453      1.0  0.33555  0.92540  0.16592  1.0000
  H   H539      1.0  0.29872  0.88071  0.18974  1.0000
  H   H540      1.0  0.28753  0.85298  0.16818  1.0000
  H   H541      1.0  0.33739  0.91789  0.14351  1.0000
  H   H542      1.0  0.34901  0.94563  0.16529  1.0000
  C   C454      1.0  0.36687  0.87092  0.16282  1.0000
  H   H543      1.0  0.34766  0.85605  0.16421  1.0000
  H   H544      1.0  0.17944  0.70054  0.15467  1.0000
  C   C455      1.0  0.41566  0.90562  0.22804  1.0000
  C   C456      1.0  0.39771  0.86455  0.19548  1.0000
  H   H545      1.0  0.13229  0.70177  0.17608  1.0000
  C   C457      1.0  0.16993  0.85447  0.01748  1.0000
  C   C458      1.0  0.09062  0.55122  0.13824  1.0000
  C   C459      1.0  0.21505  0.75113  0.10267  1.0000
  C   C460      1.0  0.23690  0.76941  0.10958  1.0000
  C   C461      1.0  0.25694  0.78796  0.10181  1.0000
  C   C462      1.0  0.25569  0.78788  0.08701  1.0000
  C   C463      1.0  0.23364  0.76986  0.08006  1.0000
  C   C464      1.0  0.21317  0.75173  0.08788  1.0000
  H   H546      1.0  0.23857  0.76900  0.12100  1.0000
  H   H547      1.0  0.27385  0.80172  0.10726  1.0000
  H   H548      1.0  0.23263  0.76966  0.06861  1.0000
  H   H549      1.0  0.19646  0.73768  0.08246  1.0000
  C   C465      1.0  0.09093  0.65663  0.15977  1.0000
  C   C466      1.0  0.09529  0.64546  0.17243  1.0000
  C   C467      1.0  0.09109  0.65466  0.18569  1.0000
  C   C468      1.0  0.08202  0.67484  0.18639  1.0000
  C   C469      1.0  0.07753  0.68593  0.17373  1.0000
  C   C470      1.0  0.08218  0.67702  0.16046  1.0000
  H   H550      1.0  0.10195  0.62958  0.17198  1.0000
  H   H551      1.0  0.09457  0.64596  0.19536  1.0000
  H   H552      1.0  0.07041  0.70148  0.17420  1.0000
  H   H553      1.0  0.07842  0.68552  0.15078  1.0000
  C   C471      1.0  0.12157  0.58396  0.08489  1.0000
  C   C472      1.0  0.11095  0.56043  0.07711  1.0000
  C   C473      1.0  0.11653  0.53846  0.08080  1.0000
  C   C474      1.0  0.13347  0.54010  0.09209  1.0000
  C   C475      1.0  0.14392  0.56356  0.09994  1.0000
  C   C476      1.0  0.13772  0.58524  0.09652  1.0000
  H   H554      1.0  0.09851  0.55926  0.06807  1.0000
  H   H555      1.0  0.10851  0.52064  0.07459  1.0000
  H   H556      1.0  0.15705  0.56504  0.10869  1.0000
  H   H557      1.0  0.14586  0.60307  0.10270  1.0000
  C   C477      1.0  0.28388  0.95912  0.03717  1.0000
  C   C478      1.0  0.29773  0.94300  0.03956  1.0000
  C   C479      1.0  0.29942  0.93321  0.05321  1.0000
  C   C480      1.0  0.28787  0.94007  0.06476  1.0000
  C   C481      1.0  0.27359  0.95574  0.06234  1.0000
  C   C482      1.0  0.27138  0.96500  0.04862  1.0000
  H   H558      1.0  0.30779  0.93861  0.03085  1.0000
  H   H559      1.0  0.31035  0.92110  0.05485  1.0000
  H   H560      1.0  0.46414  0.87202  0.23438  1.0000
  C   C483      1.0  0.23854  0.87587  0.12065  1.0000
  C   C484      1.0  0.04989  0.71846  0.03800  1.0000
  C   C485      1.0  0.04679  0.73472  0.04855  1.0000
  C   C486      1.0  0.05513  0.73322  0.06258  1.0000
  C   C487      1.0  0.06681  0.71565  0.06626  1.0000
  C   C488      1.0  0.07045  0.69986  0.05564  1.0000
  C   C489      1.0  0.06195  0.70122  0.04163  1.0000
  H   H561      1.0  0.21063  0.76323  0.20083  1.0000
  H   H562      1.0  0.20982  0.51641  0.21897  1.0000
  H   H563      1.0  0.07931  0.68620  0.05828  1.0000
  H   H564      1.0  0.06455  0.68859  0.03357  1.0000
  H   H565      1.0  0.43981  0.56773  0.11389  1.0000
  H   H566      1.0  0.13482  0.70211  0.20183  1.0000
  H   H567      1.0  0.40202  0.90680  0.13538  1.0000
  H   H568      1.0  0.17400  0.73228  0.21441  1.0000
  Fe  Fe83      1.0  0.28685  0.87265  0.23441  1.0000
  C   C490      1.0  0.00482  0.66688  0.06119  1.0000
  C   C491      1.0  0.35283  0.98671  0.05766  1.0000
  C   C492      1.0  0.08325  0.58338  0.12339  1.0000
  H   H569      1.0  0.28446  0.50313  0.13860  1.0000
  C   C493      1.0  0.40148  0.53852  0.19756  1.0000
  H   H570      1.0  0.17857  0.89587  0.01865  1.0000
  N   N29       1.0  0.38149  0.96184  0.06379  1.0000
  Fe  Fe84      1.0  0.03041  0.79636  0.99475  1.0000
  S   S160      1.0  0.06444  0.64819  0.23998  1.0000
  C   C494      1.0  0.12625  0.90495  0.99530  1.0000
  H   H571      1.0  0.01964  0.49995  0.21040  1.0000
  H   H572      1.0  0.11351  0.79235  0.04386  1.0000
  C   C495      1.0  0.46289  0.57202  0.22786  1.0000
  H   H573      1.0  0.39037  0.55106  0.19566  1.0000
  H   H574      1.0  0.06381  0.77632  0.02569  1.0000
  C   C496      1.0  0.22000  0.85217  0.09853  1.0000
  H   H575      1.0  0.21491  0.85256  0.08743  1.0000
  H   H576      1.0  0.38291  0.92339  0.06476  1.0000
  H   H577      1.0  0.35120  0.83361  0.18475  1.0000
  H   H578      1.0  0.09673  0.76246  0.03419  1.0000
  C   C497      1.0  0.21465  0.60800  0.22096  1.0000
  H   H579      1.0  0.27805  0.91860  0.11171  1.0000
  C   C498      1.0  0.40878  0.90158  0.17107  1.0000
  N   N30       1.0  0.42145  0.54251  0.18656  1.0000
  H   H580      1.0  0.33623  0.85700  0.18725  1.0000
  C   C499      1.0  0.43501  0.52492  0.18993  1.0000
  C   C500      1.0  0.44025  0.57013  0.18775  1.0000
  C   C501      1.0  0.41068  0.53705  0.17194  1.0000
  C   C502      1.0  0.38364  0.52705  0.16892  1.0000
  H   H581      1.0  0.42290  0.91090  0.17932  1.0000
  N   N31       1.0  0.37793  0.87320  0.18923  1.0000
  C   C503      1.0  0.41279  0.54654  0.23898  1.0000
  C   C504      1.0  0.21697  0.82842  0.10484  1.0000
  H   H582      1.0  0.16460  0.76646  0.23304  1.0000
  S   S161      1.0  0.21635  0.98187  0.01064  1.0000
  H   H583      1.0  0.48901  0.93936  0.14769  1.0000
  H   H584      1.0  0.45184  0.52832  0.18297  1.0000
  H   H585      1.0  0.47937  0.60080  0.10310  1.0000
  C   C505      1.0  0.18890  0.59482  0.22482  1.0000
  H   H586      1.0  0.45764  0.57424  0.18114  1.0000
  H   H587      1.0  0.44817  0.54833  0.16166  1.0000
  H   H588      1.0  0.43114  0.58398  0.18459  1.0000
  H   H589      1.0  0.37109  0.97508  0.08343  1.0000
  C   C506      1.0  0.48708  0.89973  0.15144  1.0000
  S   S162      1.0  0.40417  0.51695  0.10505  1.0000
  H   H590      1.0  0.19127  0.81257  0.22656  1.0000
  H   H591      1.0  0.40009  0.84902  0.18888  1.0000
  N   N32       1.0  0.19939  0.66666  0.07564  1.0000
  C   C507      1.0  0.20244  0.64217  0.07155  1.0000
  C   C508      1.0  0.18729  0.66239  0.08983  1.0000
  C   C509      1.0  0.18105  0.67119  0.06555  1.0000
  C   C510      1.0  0.22478  0.68910  0.07522  1.0000
  C   C511      1.0  0.23660  0.70444  0.08739  1.0000
  C   C512      1.0  0.23826  0.69656  0.06223  1.0000
  C   C513      1.0  0.25999  0.72624  0.08642  1.0000
  C   C514      1.0  0.26154  0.71856  0.06138  1.0000
  C   C515      1.0  0.27224  0.73352  0.07343  1.0000
  H   H592      1.0  0.21650  0.63836  0.07871  1.0000
  H   H593      1.0  0.18367  0.62481  0.07212  1.0000
  H   H594      1.0  0.20945  0.64286  0.06053  1.0000
  H   H595      1.0  0.16805  0.64571  0.08972  1.0000
  H   H596      1.0  0.18406  0.68000  0.09346  1.0000
  H   H597      1.0  0.19932  0.65752  0.09791  1.0000
  H   H598      1.0  0.18685  0.67126  0.05433  1.0000
  H   H599      1.0  0.16115  0.65560  0.06631  1.0000
  H   H600      1.0  0.17962  0.69037  0.06769  1.0000
  H   H601      1.0  0.22785  0.70063  0.09773  1.0000
  H   H602      1.0  0.23063  0.68570  0.05258  1.0000
  H   H603      1.0  0.26818  0.73827  0.09571  1.0000
  H   H604      1.0  0.27119  0.72436  0.05130  1.0000
  H   H605      1.0  0.28983  0.75110  0.07269  1.0000
  C   C516      1.0  0.46130  0.50618  0.13292  1.0000
  H   H606      1.0  0.41698  0.88089  0.19671  1.0000
  C   C517      1.0  0.22680  0.81244  0.23549  1.0000
  H   H607      1.0  0.48793  0.86335  0.16035  1.0000
  C   C518      1.0  0.48934  0.88303  0.16240  1.0000
  S   S163      1.0  0.05811  0.83991  0.99730  1.0000
  H   H608      1.0  0.41349  0.58545  0.24174  1.0000
  C   C519      1.0  0.10434  0.56428  0.21934  1.0000
  H   H609      1.0  0.23278  0.88585  0.14842  1.0000
  H   H610      1.0  0.37121  0.88983  0.20867  1.0000
  H   H611      1.0  0.42172  0.50395  0.18875  1.0000
  H   H612      1.0  0.34359  0.98316  0.06787  1.0000
  H   H613      1.0  0.41700  0.96522  0.07434  1.0000
  N   N33       1.0  0.48244  0.89153  0.13637  1.0000
  C   C520      1.0  0.37421  0.52226  0.15497  1.0000
  H   H614      1.0  0.37542  0.94496  0.08475  1.0000
  C   C521      1.0  0.23155  0.59505  0.22143  1.0000
  H   H615      1.0  0.39713  0.97647  0.03647  1.0000
  H   H616      1.0  0.48862  0.53692  0.14518  1.0000
  H   H617      1.0  0.26460  0.96123  0.07117  1.0000
  N   N34       1.0  0.16756  0.73289  0.15717  1.0000
  C   C522      1.0  0.14490  0.73912  0.15320  1.0000
  C   C523      1.0  0.19058  0.75233  0.15007  1.0000
  C   C524      1.0  0.16344  0.70658  0.15142  1.0000
  C   C525      1.0  0.17015  0.73287  0.17282  1.0000
  C   C526      1.0  0.19241  0.75012  0.18035  1.0000
  C   C527      1.0  0.14969  0.71542  0.18105  1.0000
  C   C528      1.0  0.19366  0.74982  0.19520  1.0000
  C   C529      1.0  0.15107  0.71537  0.19584  1.0000
  C   C530      1.0  0.17303  0.73247  0.20292  1.0000
  H   H618      1.0  0.12635  0.72393  0.15687  1.0000
  H   H619      1.0  0.14653  0.75814  0.15789  1.0000
  H   H620      1.0  0.14287  0.74030  0.14148  1.0000
  H   H621      1.0  0.19436  0.77269  0.15357  1.0000
  H   H622      1.0  0.18784  0.75202  0.13835  1.0000
  H   H623      1.0  0.20816  0.74806  0.15202  1.0000
  H   H624      1.0  0.14499  0.69108  0.15502  1.0000
  H   H625      1.0  0.16239  0.70617  0.13961  1.0000
  H   H626      1.0  0.34824  0.84514  0.20210  1.0000
  C   C531      1.0  0.16092  0.51647  0.23981  1.0000
  H   H627      1.0  0.09983  0.84655  0.02586  1.0000
  C   C532      1.0  0.15073  0.82916  0.01840  1.0000
  H   H628      1.0  0.41749  0.84846  0.24001  1.0000
  H   H629      1.0  0.21543  0.90744  0.12822  1.0000
  H   H630      1.0  0.05214  0.74547  0.07073  1.0000
  C   C533      1.0  0.27766  0.91466  0.12330  1.0000
  H   H631      1.0  0.24214  0.84958  0.13728  1.0000
  H   H632      1.0  0.07361  0.57251  0.10162  1.0000
  C   C534      1.0  0.10527  0.54129  0.22509  1.0000
  Fe  Fe85      1.0  0.25765  0.98582  0.00712  1.0000
  Fe  Fe86      1.0  0.34472  0.88208  0.23494  1.0000
  C   C535      1.0  0.36807  0.95663  0.07763  1.0000
  H   H633      1.0  0.23835  0.92577  0.11501  1.0000
  S   S164      1.0  0.48900  0.86359  0.09248  1.0000
  H   H634      1.0  0.03771  0.74820  0.04602  1.0000
  C   C536      1.0  0.37342  0.87986  0.14896  1.0000
  C   C537      1.0  0.10032  0.88756  0.99774  1.0000
  C   C538      1.0  0.48315  0.52951  0.13455  1.0000
  S   S165      1.0  0.10074  0.71179  0.23993  1.0000
  H   H635      1.0  0.07152  0.80714  0.01713  1.0000
  C   C539      1.0  0.40666  0.88017  0.23347  1.0000
  H   H636      1.0  0.26551  0.88761  0.14688  1.0000
  H   H637      1.0  0.01578  0.65477  0.05944  1.0000
  C   C540      1.0  0.20032  0.80091  0.23185  1.0000
  H   H638      1.0  0.13381  0.88981  0.02448  1.0000
  H   H639      1.0  0.44255  0.52768  0.20102  1.0000
  H   H640      1.0  0.26022  0.91657  0.14979  1.0000
  H   H641      1.0  0.41354  0.99585  0.07130  1.0000
  H   H642      1.0  0.44169  0.88297  0.13787  1.0000
  H   H643      1.0  0.36373  0.90347  0.19284  1.0000
  C   C541      1.0  0.48856  0.53205  0.10907  1.0000
  C   C542      1.0  0.07798  0.56629  0.11190  1.0000
  C   C543      1.0  0.22474  0.82800  0.11887  1.0000
  C   C544      1.0  0.08956  0.57588  0.13653  1.0000
  C   C545      1.0  0.10361  0.58426  0.22826  1.0000
  C   C546      1.0  0.11163  0.78279  0.03329  1.0000
  C   C547      1.0  0.44920  0.58679  0.23263  1.0000
  C   C548      1.0  0.47939  0.86397  0.13387  1.0000
  C   C549      1.0  0.10283  0.78459  0.00830  1.0000
  C   C550      1.0  0.44182  0.91860  0.22452  1.0000
  C   C551      1.0  0.39120  0.52676  0.14368  1.0000
  H   H644      1.0  0.28931  0.90260  0.12514  1.0000
  H   H645      1.0  0.24375  0.93593  0.13291  1.0000
  H   H646      1.0  0.40249  0.91526  0.22633  1.0000
  C   C552      1.0  0.41776  0.53620  0.14627  1.0000
  C   C553      1.0  0.08516  0.53318  0.12678  1.0000
  H   H647      1.0  0.08263  0.60258  0.12208  1.0000
  H   H648      1.0  0.22320  0.80958  0.12355  1.0000
  H   H649      1.0  0.20942  0.81038  0.09871  1.0000
  H   H650      1.0  0.39231  0.85641  0.20634  1.0000
  H   H651      1.0  0.44774  0.57517  0.19881  1.0000
  H   H652      1.0  0.18963  0.85734  0.01486  1.0000
  C   C554      1.0  0.45943  0.90660  0.22679  1.0000
  C   C555      1.0  0.25224  0.89748  0.14404  1.0000
  H   H653      1.0  0.22493  0.52944  0.24321  1.0000
  H   H654      1.0  0.10238  0.60175  0.22377  1.0000
  N   N35       1.0  0.10462  0.79789  0.02214  1.0000
  C   C556      1.0  0.00552  0.67795  0.07450  1.0000
  C   C557      1.0  0.03313  0.53583  0.23907  1.0000
  C   C558      1.0  0.45068  0.88141  0.23257  1.0000
  C   C559      1.0  0.12466  0.82491  0.02151  1.0000
  N   N36       1.0  0.25090  0.90099  0.12846  1.0000
  C   C560      1.0  0.07894  0.54156  0.11348  1.0000
  C   C561      1.0  0.23641  0.91815  0.12603  1.0000
  H   H655      1.0  0.43353  0.92618  0.15500  1.0000
  C   C562      1.0  0.38443  0.88154  0.17434  1.0000
  C   C563      1.0  0.23550  0.85128  0.12669  1.0000
  H   H656      1.0  0.43072  0.53936  0.13736  1.0000
  H   H657      1.0  0.38917  0.93793  0.04768  1.0000
  S   S166      1.0  0.28647  0.97484  0.02042  1.0000
  H   H658      1.0  0.15974  0.55976  0.23192  1.0000
  H   H659      1.0  0.23427  0.89357  0.10051  1.0000
  H   H660      1.0  0.42793  0.51852  0.07719  1.0000
  C   C564      1.0  0.41506  0.91048  0.15717  1.0000
  C   C565      1.0  0.19678  0.55500  0.23005  1.0000
  H   H661      1.0  0.41023  0.54357  0.20834  1.0000
  C   C566      1.0  0.35229  0.85124  0.19080  1.0000
  H   H662      1.0  0.35671  0.92530  0.05424  1.0000
  H   H663      1.0  0.07792  0.80572  0.03591  1.0000
  H   H664      1.0  0.35947  0.87175  0.14039  1.0000
  H   H665      1.0  0.41865  0.51090  0.23541  1.0000
  H   H666      1.0  0.39670  0.91213  0.19823  1.0000
  C   C567      1.0  0.45852  0.89414  0.13111  1.0000
  C   C568      1.0  0.18512  0.77475  0.23549  1.0000
  C   C569      1.0  0.46679  0.50863  0.10759  1.0000
  H   H667      1.0  0.49262  0.91798  0.09170  1.0000
  C   C570      1.0  0.13856  0.87277  0.02302  1.0000
  C   C571      1.0  0.37739  0.93608  0.05731  1.0000
  C   C572      1.0  0.22280  0.56891  0.22584  1.0000
  H   H668      1.0  0.38775  0.51766  0.19816  1.0000
  C   C573      1.0  0.37746  0.89563  0.19759  1.0000
  C   C574      1.0  0.11913  0.84758  0.02381  1.0000
  S   S167      1.0  0.29632  0.91606  0.23197  1.0000
  C   C575      1.0  0.37217  0.97722  0.05394  1.0000
  H   H669      1.0  0.13017  0.78075  0.03111  1.0000
  C   C576      1.0  0.45181  0.54467  0.22903  1.0000
  H   H670      1.0  0.46244  0.53315  0.22554  1.0000
  C   C577      1.0  0.38224  0.98282  0.04002  1.0000
  H   H671      1.0  0.08730  0.89478  0.00296  1.0000
  H   H672      1.0  0.45990  0.50084  0.09711  1.0000
  H   H673      1.0  0.14697  0.51556  0.23114  1.0000
  H   H674      1.0  0.10371  0.56647  0.20796  1.0000
  H   H675      1.0  0.99598  0.72935  0.03402  1.0000
  H   H676      1.0  0.09827  0.79581  0.99961  1.0000
  H   H677      1.0  0.26101  0.97770  0.04704  1.0000
  C   C578      1.0  0.37285  0.99616  0.03028  1.0000
  H   H678      1.0  0.46266  0.84987  0.13974  1.0000
  H   H679      1.0  0.08734  0.76443  0.00826  1.0000
  C   C579      1.0  0.39738  0.89965  0.14613  1.0000
  C   C580      1.0  0.16382  0.87623  0.01974  1.0000
  H   H680      1.0  0.12105  0.78236  0.00552  1.0000
  C   C581      1.0  0.42689  0.53198  0.23456  1.0000
  H   H681      1.0  0.46045  0.91487  0.13067  1.0000
  H   H682      1.0  0.44853  0.93815  0.22013  1.0000
  H   H683      1.0  0.45348  0.88646  0.12012  1.0000
  H   H684      1.0  0.42134  0.97898  0.05697  1.0000
  C   C582      1.0  0.19637  0.75968  0.24269  1.0000
  H   H685      1.0  0.13284  0.92521  0.99864  1.0000
  H   H686      1.0  0.22146  0.62826  0.21755  1.0000
  S   S168      1.0  0.37337  0.86241  0.23674  1.0000
  C   C583      1.0  0.18967  0.51084  0.22273  1.0000
  S   S169      1.0  0.14350  0.51415  0.09627  1.0000
  C   C584      1.0  0.42423  0.57404  0.23826  1.0000
  H   H687      1.0  0.09596  0.54648  0.14860  1.0000
  H   H688      1.0  0.36933  0.52221  0.17716  1.0000
  H   H689      1.0  0.17567  0.60485  0.22434  1.0000
  H   H690      1.0  0.23654  0.55960  0.22586  1.0000
  C   C585      1.0  0.17997  0.56872  0.22925  1.0000
  H   H691      1.0  0.48878  0.75583  0.22289  1.0000
  N   N37       1.0  0.08666  0.50727  0.12886  1.0000
  C   C586      1.0  0.01416  0.50992  0.23761  1.0000
  H   H692      1.0  0.07563  0.50266  0.15099  1.0000
  H   H693      1.0  0.35357  0.51453  0.15290  1.0000
  H   H694      1.0  0.01695  0.67441  0.08301  1.0000
  N   N38       1.0  0.18803  0.52737  0.23473  1.0000
  H   H695      1.0  0.25155  0.60532  0.21832  1.0000
  H   H696      1.0  0.05303  0.54054  0.23621  1.0000
  H   H697      1.0  0.05146  0.51363  0.21813  1.0000
  C   C587      1.0  0.42428  0.86815  0.23578  1.0000
  C   C588      1.0  0.11365  0.51104  0.13257  1.0000
  H   H698      1.0  0.47578  0.85849  0.12243  1.0000
  H   H699      1.0  0.12027  0.52172  0.14275  1.0000
  C   C589      1.0  0.10388  0.58125  0.24295  1.0000
  C   C590      1.0  0.10628  0.53864  0.23978  1.0000
  C   C591      1.0  0.48982  0.92538  0.15550  1.0000
  H   H700      1.0  0.10723  0.52109  0.24430  1.0000
  H   H701      1.0  0.05843  0.50323  0.24311  1.0000
  C   C592      1.0  0.49435  0.93372  0.16962  1.0000
  S   S170      1.0  0.49309  0.58664  0.21954  1.0000
  C   C593      1.0  0.49391  0.89162  0.17650  1.0000
  H   H702      1.0  0.49449  0.58961  0.12504  1.0000
  C   C594      1.0  0.02686  0.55633  0.24411  1.0000
  Fe  Fe87      1.0  0.07827  0.68095  0.25587  1.0000
  S   S171      1.0  0.11394  0.67415  0.26196  1.0000
  S   S172      1.0  0.05455  0.68597  0.27446  1.0000
  H   H703      1.0  0.18048  0.77333  0.27074  1.0000
  C   C595      1.0  0.47911  0.92584  0.26330  1.0000
  C   C596      1.0  0.43367  0.93615  0.26672  1.0000
  H   H704      1.0  0.45938  0.56599  0.27686  1.0000
  H   H705      1.0  0.46516  0.57720  0.25905  1.0000
  C   C597      1.0  0.05319  0.57612  0.30923  1.0000
  H   H706      1.0  0.38537  0.89942  0.27286  1.0000
  C   C598      1.0  0.22127  0.97690  0.48861  1.0000
  C   C599      1.0  0.03476  0.55888  0.31832  1.0000
  S   S173      1.0  0.33561  0.94545  0.26969  1.0000
  S   S174      1.0  0.31609  0.87925  0.25205  1.0000
  N   N39       1.0  0.40918  0.94016  0.26827  1.0000
  C   C600      1.0  0.00589  0.58081  0.31349  1.0000
  H   H707      1.0  0.45171  0.96582  0.25033  1.0000
  C   C601      1.0  0.06557  0.87152  0.47751  1.0000
  H   H708      1.0  0.21319  0.81013  0.26333  1.0000
  C   C602      1.0  0.00876  0.64130  0.27215  1.0000
  H   H709      1.0  0.10836  0.85896  0.45418  1.0000
  Fe  Fe88      1.0  0.19443  0.96582  0.42138  1.0000
  S   S175      1.0  0.16700  0.92840  0.41042  1.0000
  S   S176      1.0  0.22976  0.96510  0.43271  1.0000
  C   C603      1.0  0.22309  0.77083  0.24580  1.0000
  C   C604      1.0  0.13942  0.80580  0.27089  1.0000
  C   C605      1.0  0.16315  0.77742  0.27078  1.0000
  C   C606      1.0  0.15038  0.85992  0.48098  1.0000
  H   H710      1.0  0.36810  0.91764  0.26577  1.0000
  C   C607      1.0  0.09230  0.61179  0.29146  1.0000
  Fe  Fe89      1.0  0.02489  0.81575  0.42860  1.0000
  S   S177      1.0  0.05863  0.85296  0.43604  1.0000
  S   S178      1.0  0.02171  0.77442  0.43289  1.0000
  C   C608      1.0  0.14255  0.86729  0.46782  1.0000
  C   C609      1.0  0.38687  0.91522  0.26524  1.0000
  S   S179      1.0  0.10079  0.60467  0.25445  1.0000
  S   S180      1.0  0.20644  0.96449  0.47214  1.0000
  H   H711      1.0  0.18543  0.82976  0.29490  1.0000
  H   H712      1.0  0.48824  0.61978  0.26693  1.0000
  C   C610      1.0  0.13555  0.90857  0.41659  1.0000
  C   C611      1.0  0.12412  0.91669  0.42772  1.0000
  C   C612      1.0  0.10009  0.89970  0.43312  1.0000
  C   C613      1.0  0.08702  0.87444  0.42743  1.0000
  C   C614      1.0  0.09801  0.86655  0.41600  1.0000
  C   C615      1.0  0.12215  0.88356  0.41062  1.0000
  H   H713      1.0  0.13388  0.93600  0.43226  1.0000
  H   H714      1.0  0.09165  0.90610  0.44187  1.0000
  H   H715      1.0  0.08825  0.84714  0.41153  1.0000
  H   H716      1.0  0.13074  0.87710  0.40196  1.0000
  C   C616      1.0  0.01474  0.66654  0.29369  1.0000
  S   S181      1.0  0.00090  0.73549  0.39556  1.0000
  C   C617      1.0  0.11626  0.75868  0.26968  1.0000
  H   H717      1.0  0.32479  0.98732  0.41402  1.0000
  H   H718      1.0  0.08959  0.59228  0.28699  1.0000
  H   H719      1.0  0.40618  0.93334  0.29089  1.0000
  H   H720      1.0  0.06911  0.62649  0.27042  1.0000
  C   C618      1.0  0.34095  0.99275  0.40678  1.0000
  C   C619      1.0  0.35197  0.97860  0.27551  1.0000
  H   H721      1.0  0.17245  0.84973  0.28508  1.0000
  C   C620      1.0  0.47564  0.94552  0.25542  1.0000
  H   H722      1.0  0.13984  0.73603  0.26933  1.0000
  H   H723      1.0  0.34628  0.96782  0.29756  1.0000
  H   H724      1.0  0.99705  0.54803  0.32759  1.0000
  H   H725      1.0  0.20531  0.53841  0.25544  1.0000
  C   C621      1.0  0.11616  0.85388  0.46375  1.0000
  H   H726      1.0  0.16355  0.86222  0.44308  1.0000
  S   S182      1.0  0.17775  0.72755  0.24881  1.0000
  C   C622      1.0  0.07337  0.64246  0.29724  1.0000
  C   C623      1.0  0.02378  0.66319  0.28026  1.0000
  C   C624      1.0  0.21169  0.82098  0.27292  1.0000
  H   H727      1.0  0.01518  0.63860  0.26172  1.0000
  H   H728      1.0  0.17274  0.89554  0.43710  1.0000
  C   C625      1.0  0.40701  0.96037  0.25855  1.0000
  H   H729      1.0  0.38813  0.96241  0.25969  1.0000
  C   C626      1.0  0.09902  0.83375  0.47201  1.0000
  H   H730      1.0  0.16450  0.92752  0.45251  1.0000
  H   H731      1.0  0.00348  0.70025  0.43533  1.0000
  C   C627      1.0  0.18787  0.89811  0.46352  1.0000
  H   H732      1.0  0.05620  0.64770  0.29697  1.0000
  C   C628      1.0  0.35742  0.99125  0.38330  1.0000
  H   H733      1.0  0.04180  0.57599  0.24493  1.0000
  H   H734      1.0  0.13195  0.90583  0.45623  1.0000
  H   H735      1.0  0.42090  0.99146  0.38516  1.0000
  H   H736      1.0  0.09919  0.90749  0.47766  1.0000
  H   H737      1.0  0.08111  0.64553  0.30829  1.0000
  C   C629      1.0  0.16371  0.80332  0.27135  1.0000
  Fe  Fe90      1.0  0.10113  0.64265  0.24541  1.0000
  H   H738      1.0  0.23198  0.75930  0.25134  1.0000
  H   H739      1.0  0.08785  0.65716  0.29034  1.0000
  C   C630      1.0  0.46053  0.91159  0.27307  1.0000
  H   H740      1.0  0.20929  0.86085  0.25939  1.0000
  H   H741      1.0  0.40809  0.95516  0.24725  1.0000
  S   S183      1.0  0.18149  0.98296  0.43967  1.0000
  H   H742      1.0  0.13828  0.82483  0.27107  1.0000
  H   H743      1.0  0.20070  0.91366  0.45632  1.0000
  C   C631      1.0  0.13973  0.75556  0.26995  1.0000
  C   C632      1.0  0.04844  0.59645  0.30205  1.0000
  C   C633      1.0  0.13295  0.83993  0.48925  1.0000
  H   H744      1.0  0.15819  0.52812  0.24879  1.0000
  H   H745      1.0  0.05240  0.59204  0.27357  1.0000
  H   H746      1.0  0.06216  0.87205  0.46618  1.0000
  H   H747      1.0  0.15452  0.91942  0.47050  1.0000
  H   H748      1.0  0.42364  0.96689  0.28580  1.0000
  H   H749      1.0  0.18862  0.83264  0.24974  1.0000
  H   H750      1.0  0.03748  0.61449  0.27754  1.0000
  H   H751      1.0  0.21187  0.80908  0.28240  1.0000
  Fe  Fe91      1.0  0.21746  0.98401  0.45073  1.0000
  C   C634      1.0  0.10738  0.82682  0.48475  1.0000
  N   N40       1.0  0.18809  0.82701  0.27229  1.0000
  H   H752      1.0  0.09398  0.81127  0.49116  1.0000
  C   C635      1.0  0.08643  0.89143  0.48401  1.0000
  H   H753      1.0  0.47925  0.53981  0.28702  1.0000
  H   H754      1.0  0.07101  0.57320  0.30803  1.0000
  H   H755      1.0  0.02605  0.68347  0.30005  1.0000
  H   H756      1.0  0.19493  0.88191  0.46359  1.0000
  C   C636      1.0  0.05604  0.61187  0.27789  1.0000
  H   H757      1.0  0.17500  0.85196  0.25933  1.0000
  H   H758      1.0  0.42419  0.90489  0.28244  1.0000
  H   H759      1.0  0.03881  0.54365  0.32380  1.0000
  S   S184      1.0  0.00382  0.80487  0.40757  1.0000
  H   H760      1.0  0.02324  0.77892  0.47057  1.0000
  C   C637      1.0  0.15898  0.87999  0.44395  1.0000
  C   C638      1.0  0.15241  0.91130  0.45956  1.0000
  N   N41       1.0  0.16028  0.88872  0.45893  1.0000
  H   H761      1.0  0.38830  0.90780  0.25449  1.0000
  H   H762      1.0  0.20664  0.85956  0.28656  1.0000
  C   C639      1.0  0.24549  0.99764  0.48965  1.0000
  C   C640      1.0  0.02415  0.59810  0.30443  1.0000
  H   H763      1.0  0.19109  0.90747  0.47419  1.0000
  C   C641      1.0  0.43819  0.91669  0.27485  1.0000
  H   H764      1.0  0.38891  0.95217  0.28432  1.0000
  H   H765      1.0  0.10222  0.61445  0.30196  1.0000
  H   H766      1.0  0.09816  0.74160  0.26901  1.0000
  H   H767      1.0  0.13968  0.87532  0.43899  1.0000
  H   H768      1.0  0.10598  0.62642  0.28415  1.0000
  H   H769      1.0  0.42224  0.98010  0.26078  1.0000
  H   H770      1.0  0.09776  0.78605  0.26973  1.0000
  N   N42       1.0  0.06735  0.61519  0.29238  1.0000
  C   C642      1.0  0.10546  0.55854  0.24870  1.0000
  C   C643      1.0  0.01266  0.77363  0.48038  1.0000
  H   H771      1.0  0.35260  0.98403  0.37259  1.0000
  C   C644      1.0  0.33699  0.98331  0.39292  1.0000
  H   H772      1.0  0.04646  0.79208  0.49365  1.0000
  H   H773      1.0  0.31767  0.97057  0.38944  1.0000
  S   S185      1.0  0.38090  0.53080  0.24527  1.0000
  H   H774      1.0  0.22977  0.83908  0.27329  1.0000
  C   C645      1.0  0.40697  0.94847  0.28296  1.0000
  H   H775      1.0  0.07904  0.82368  0.46854  1.0000
  C   C646      1.0  0.45333  0.95074  0.25705  1.0000
  H   H776      1.0  0.48807  0.61248  0.28550  1.0000
  H   H777      1.0  0.10574  0.55622  0.26008  1.0000
  C   C647      1.0  0.20473  0.52501  0.24654  1.0000
  H   H778      1.0  0.19756  0.50466  0.25084  1.0000
  C   C648      1.0  0.47315  0.56936  0.26795  1.0000
  C   C649      1.0  0.35447  0.98383  0.29018  1.0000
  C   C650      1.0  0.18810  0.84214  0.28526  1.0000
  Fe  Fe92      1.0  0.99730  0.76294  0.41279  1.0000
  C   C651      1.0  0.02578  0.78106  0.49346  1.0000
  H   H779      1.0  0.39181  0.98460  0.36362  1.0000
  H   H780      1.0  0.01906  0.61289  0.29927  1.0000
  H   H781      1.0  0.03332  0.83486  0.48042  1.0000
  H   H782      1.0  0.00104  0.70482  0.37098  1.0000
  C   C652      1.0  0.19026  0.84385  0.25972  1.0000
  H   H783      1.0  0.16985  0.86932  0.48513  1.0000
  H   H784      1.0  0.47284  0.55021  0.26415  1.0000
  Fe  Fe93      1.0  0.32765  0.92276  0.24856  1.0000
  C   C653      1.0  0.01121  0.56127  0.32047  1.0000
  C   C654      1.0  0.04932  0.85059  0.48554  1.0000
  C   C655      1.0  0.11611  0.78376  0.27010  1.0000
  H   H785      1.0  0.36084  0.99601  0.25482  1.0000
  H   H786      1.0  0.48990  0.95610  0.24757  1.0000
  C   C656      1.0  0.00150  0.55167  0.24787  1.0000
  H   H787      1.0  0.46324  0.89615  0.27911  1.0000
  H   H788      1.0  0.99665  0.56772  0.25160  1.0000
  Fe  Fe94      1.0  0.13516  0.70168  0.24459  1.0000
  H   H789      1.0  0.25861  0.80561  0.24507  1.0000
  H   H790      1.0  0.05941  0.71361  0.58032  1.0000
  H   H791      1.0  0.20853  0.96591  0.52391  1.0000
  Fe  Fe95      1.0  0.18331  0.95639  0.56569  1.0000
  S   S186      1.0  0.15678  0.91363  0.56286  1.0000
  S   S187      1.0  0.22561  0.96303  0.56667  1.0000
  Fe  Fe96      1.0  0.01482  0.82012  0.56754  1.0000
  S   S188      1.0  0.03585  0.86267  0.57405  1.0000
  S   S189      1.0  0.03165  0.79000  0.56361  1.0000
  Fe  Fe97      1.0  0.13099  0.70193  0.66772  1.0000
  S   S190      1.0  0.11475  0.68211  0.64696  1.0000
  S   S191      1.0  0.17492  0.72605  0.67058  1.0000
  Fe  Fe98      1.0  0.07668  0.68027  0.68113  1.0000
  S   S192      1.0  0.05672  0.66060  0.66094  1.0000
  S   S193      1.0  0.05932  0.68539  0.70227  1.0000
  Fe  Fe99      1.0  0.08968  0.64663  0.65941  1.0000
  S   S194      1.0  0.07979  0.60564  0.64962  1.0000
  Fe  Fe100     1.0  0.08310  0.69712  0.64969  1.0000
  S   S195      1.0  0.07919  0.72166  0.63090  1.0000
  S   S196      1.0  0.10856  0.66495  0.68015  1.0000
  S   S197      1.0  0.10040  0.71818  0.66999  1.0000
  S   S198      1.0  0.24861  0.84896  0.67377  1.0000
  C   C657      1.0  0.08370  0.57682  0.65589  1.0000
  C   C658      1.0  0.07363  0.55365  0.64770  1.0000
  C   C659      1.0  0.07667  0.53051  0.65203  1.0000
  C   C660      1.0  0.09003  0.53024  0.66461  1.0000
  C   C661      1.0  0.09990  0.55332  0.67286  1.0000
  C   C662      1.0  0.09673  0.57640  0.66857  1.0000
  H   H792      1.0  0.06353  0.55364  0.63787  1.0000
  H   H793      1.0  0.11021  0.55344  0.68263  1.0000
  H   H794      1.0  0.10461  0.59395  0.67500  1.0000
  C   C663      1.0  0.19491  0.76046  0.67036  1.0000
  C   C664      1.0  0.18473  0.77984  0.67122  1.0000
  C   C665      1.0  0.20144  0.80666  0.67218  1.0000
  C   C666      1.0  0.22862  0.81468  0.67204  1.0000
  C   C667      1.0  0.23879  0.79536  0.67082  1.0000
  C   C668      1.0  0.22207  0.76851  0.67010  1.0000
  H   H795      1.0  0.16398  0.77415  0.67146  1.0000
  H   H796      1.0  0.19322  0.82128  0.67319  1.0000
  H   H797      1.0  0.25955  0.80101  0.67070  1.0000
  H   H798      1.0  0.23028  0.75381  0.66947  1.0000
  C   C669      1.0  0.03491  0.66710  0.71457  1.0000
  H   H799      1.0  0.04874  0.69900  0.72952  1.0000
  C   C670      1.0  0.01562  0.72852  0.60157  1.0000
  H   H800      1.0  0.23358  0.82159  0.70814  1.0000
  C   C671      1.0  0.02812  0.70636  0.62114  1.0000
  C   C672      1.0  0.05388  0.72413  0.62021  1.0000
  C   C673      1.0  0.06026  0.74428  0.61006  1.0000
  C   C674      1.0  0.04127  0.74657  0.60085  1.0000
  H   H801      1.0  0.02281  0.69085  0.62891  1.0000
  H   H802      1.0  0.08011  0.75814  0.60924  1.0000
  H   H803      1.0  0.04658  0.76202  0.59302  1.0000
  C   C675      1.0  0.12358  0.90014  0.56696  1.0000
  C   C676      1.0  0.11011  0.87294  0.56563  1.0000
  C   C677      1.0  0.08333  0.86134  0.56793  1.0000
  C   C678      1.0  0.06974  0.87681  0.57167  1.0000
  C   C679      1.0  0.08324  0.90403  0.57317  1.0000
  C   C680      1.0  0.11012  0.91571  0.57080  1.0000
  H   H804      1.0  0.12043  0.86078  0.56270  1.0000
  H   H805      1.0  0.07326  0.84039  0.56686  1.0000
  H   H806      1.0  0.07289  0.91615  0.57608  1.0000
  H   H807      1.0  0.12036  0.93672  0.57182  1.0000
  S   S199      1.0  0.02966  0.78381  0.52247  1.0000
  N   N43       1.0  0.07818  0.86879  0.52271  1.0000
  C   C681      1.0  0.05319  0.86090  0.53032  1.0000
  C   C682      1.0  0.08937  0.84902  0.52555  1.0000
  C   C683      1.0  0.09596  0.89421  0.52889  1.0000
  C   C684      1.0  0.07413  0.87005  0.50721  1.0000
  C   C685      1.0  0.20807  0.96552  0.50102  1.0000
  C   C686      1.0  0.00916  0.70850  0.61182  1.0000
  H   H808      1.0  0.43977  0.66883  0.67747  1.0000
  H   H809      1.0  0.38587  0.99363  0.69228  1.0000
  C   C687      1.0  0.09087  0.89074  0.49862  1.0000
  H   H810      1.0  0.04253  0.87337  0.52721  1.0000
  H   H811      1.0  0.04032  0.84007  0.52837  1.0000
  H   H812      1.0  0.05595  0.86236  0.54204  1.0000
  H   H813      1.0  0.07651  0.82926  0.52156  1.0000
  H   H814      1.0  0.09224  0.84697  0.53713  1.0000
  H   H815      1.0  0.10843  0.85437  0.52033  1.0000
  H   H816      1.0  0.11630  0.89977  0.52538  1.0000
  H   H817      1.0  0.42144  0.51353  0.68049  1.0000
  C   C688      1.0  0.43508  0.60389  0.68186  1.0000
  C   C689      1.0  0.04825  0.64510  0.62495  1.0000
  H   H818      1.0  0.46952  0.68868  0.66887  1.0000
  H   H819      1.0  0.05085  0.66500  0.62875  1.0000
  N   N44       1.0  0.13749  0.74535  0.71058  1.0000
  C   C690      1.0  0.12038  0.75393  0.70157  1.0000
  C   C691      1.0  0.13554  0.71947  0.70516  1.0000
  C   C692      1.0  0.12747  0.74142  0.72524  1.0000
  C   C693      1.0  0.16420  0.76566  0.71046  1.0000
  C   C694      1.0  0.16902  0.79182  0.71461  1.0000
  H   H820      1.0  0.19695  0.83168  0.71667  1.0000
  C   C695      1.0  0.35833  0.99501  0.72399  1.0000
  H   H821      1.0  0.11523  0.70467  0.70527  1.0000
  H   H822      1.0  0.10750  0.72585  0.72566  1.0000
  N   N45       1.0  0.22411  0.87481  0.63359  1.0000
  C   C696      1.0  0.24989  0.87710  0.62857  1.0000
  C   C697      1.0  0.22789  0.89247  0.64598  1.0000
  C   C698      1.0  0.21021  0.84746  0.63858  1.0000
  C   C699      1.0  0.21027  0.88250  0.62209  1.0000
  C   C700      1.0  0.18615  0.86515  0.61626  1.0000
  C   C701      1.0  0.22097  0.90815  0.61632  1.0000
  C   C702      1.0  0.17384  0.87316  0.60531  1.0000
  C   C703      1.0  0.20850  0.91595  0.60539  1.0000
  C   C704      1.0  0.18501  0.89847  0.59987  1.0000
  H   H823      1.0  0.26068  0.87105  0.63691  1.0000
  H   H824      1.0  0.24804  0.86467  0.61903  1.0000
  H   H825      1.0  0.24089  0.91307  0.64362  1.0000
  H   H826      1.0  0.23698  0.88634  0.65514  1.0000
  H   H827      1.0  0.20910  0.89252  0.64962  1.0000
  H   H828      1.0  0.20745  0.83296  0.62992  1.0000
  H   H829      1.0  0.22124  0.84229  0.64712  1.0000
  H   H830      1.0  0.17634  0.84528  0.61995  1.0000
  H   H831      1.0  0.23916  0.92239  0.62021  1.0000
  H   H832      1.0  0.15549  0.85970  0.60095  1.0000
  H   H833      1.0  0.21710  0.93569  0.60116  1.0000
  H   H834      1.0  0.17545  0.90458  0.59135  1.0000
  H   H835      1.0  0.44272  0.96638  0.72882  1.0000
  H   H836      1.0  0.48028  0.91104  0.62395  1.0000
  C   C705      1.0  0.17234  0.52808  0.67820  1.0000
  H   H837      1.0  0.03513  0.60613  0.60621  1.0000
  C   C706      1.0  0.08838  0.66133  0.61249  1.0000
  C   C707      1.0  0.04767  0.65861  0.60062  1.0000
  N   N46       1.0  0.06000  0.64652  0.61082  1.0000
  H   H838      1.0  0.05722  0.63634  0.63297  1.0000
  C   C708      1.0  0.05587  0.61955  0.60621  1.0000
  H   H839      1.0  0.09713  0.65137  0.61997  1.0000
  H   H840      1.0  0.06340  0.61962  0.59533  1.0000
  H   H841      1.0  0.06584  0.61044  0.61348  1.0000
  Fe  Fe101     1.0  0.99504  0.76154  0.57341  1.0000
  H   H842      1.0  0.18335  0.54271  0.68640  1.0000
  C   C709      1.0  0.05364  0.84967  0.50012  1.0000
  H   H843      1.0  0.09851  0.66334  0.60222  1.0000
  C   C710      1.0  0.18592  0.76048  0.70601  1.0000
  H   H844      1.0  0.14008  0.73537  0.73239  1.0000
  C   C711      1.0  0.47546  0.96042  0.72129  1.0000
  H   H845      1.0  0.47722  0.95056  0.61333  1.0000
  C   C712      1.0  0.03447  0.67950  0.72743  1.0000
  H   H846      1.0  0.11780  0.77136  0.70591  1.0000
  N   N47       1.0  0.16761  0.50092  0.68282  1.0000
  H   H847      1.0  0.25771  0.52392  0.68234  1.0000
  H   H848      1.0  0.10749  0.90664  0.50295  1.0000
  C   C713      1.0  0.47889  0.65263  0.68278  1.0000
  C   C714      1.0  0.99686  0.62923  0.72249  1.0000
  C   C715      1.0  0.02086  0.64603  0.59730  1.0000
  H   H849      1.0  0.48738  0.63760  0.68406  1.0000
  H   H850      1.0  0.12843  0.75900  0.69072  1.0000
  H   H851      1.0  0.08942  0.91027  0.52627  1.0000
  H   H852      1.0  0.09696  0.89340  0.54065  1.0000
  H   H853      1.0  0.04031  0.50837  0.68678  1.0000
  C   C716      1.0  0.21668  0.51530  0.68285  1.0000
  Fe  Fe102     1.0  0.23086  0.99587  0.55135  1.0000
  H   H854      1.0  0.08144  0.69502  0.59647  1.0000
  H   H855      1.0  0.18428  0.74138  0.70240  1.0000
  C   C717      1.0  0.99684  0.64194  0.73542  1.0000
  H   H856      1.0  0.15381  0.53071  0.67622  1.0000
  H   H857      1.0  0.46988  0.58626  0.64781  1.0000
  H   H858      1.0  0.01594  0.63194  0.70219  1.0000
  H   H859      1.0  0.48520  0.63163  0.65823  1.0000
  C   C718      1.0  0.01582  0.66709  0.73770  1.0000
  H   H860      1.0  0.44239  0.66842  0.65852  1.0000
  H   H861      1.0  0.46964  0.87540  0.66741  1.0000
  C   C719      1.0  0.39536  0.94741  0.72121  1.0000
  H   H862      1.0  0.26247  0.89753  0.62569  1.0000
  H   H863      1.0  0.02715  0.63293  0.62490  1.0000
  H   H864      1.0  0.34866  0.90359  0.62850  1.0000
  H   H865      1.0  0.40156  0.93262  0.68693  1.0000
  H   H866      1.0  0.19104  0.84454  0.64313  1.0000
  C   C720      1.0  0.01599  0.64175  0.71210  1.0000
  H   H867      1.0  0.14716  0.71120  0.71170  1.0000
  H   H868      1.0  0.34081  0.98474  0.72986  1.0000
  S   S200      1.0  0.24807  0.99542  0.60568  1.0000
  N   N48       1.0  0.40403  0.93417  0.70985  1.0000
  H   H869      1.0  0.47699  0.92223  0.69346  1.0000
  H   H870      1.0  0.09294  0.68126  0.61699  1.0000
  S   S201      1.0  0.09516  0.50191  0.67060  1.0000
  C   C721      1.0  0.19381  0.81168  0.71385  1.0000
  C   C722      1.0  0.43194  0.93909  0.71072  1.0000
  C   C723      1.0  0.39975  0.59032  0.65922  1.0000
  C   C724      1.0  0.06134  0.68333  0.59414  1.0000
  H   H871      1.0  0.29051  0.96376  0.64306  1.0000
  Fe  Fe103     1.0  0.22843  0.99193  0.58390  1.0000
  H   H872      1.0  0.48821  0.97331  0.72925  1.0000
  H   H873      1.0  0.46819  0.65312  0.69256  1.0000
  H   H874      1.0  0.18937  0.94942  0.50030  1.0000
  H   H875      1.0  0.42148  0.93303  0.65936  1.0000
  H   H876      1.0  0.41117  0.56607  0.69038  1.0000
  S   S202      1.0  0.38916  0.50810  0.65474  1.0000
  C   C725      1.0  0.04889  0.69436  0.58479  1.0000
  C   C726      1.0  0.29754  0.95130  0.62249  1.0000
  H   H877      1.0  0.13936  0.83449  0.49920  1.0000
  S   S203      1.0  0.18560  0.98353  0.58385  1.0000
  H   H878      1.0  0.01335  0.49925  0.67431  1.0000
  H   H879      1.0  0.22675  0.77622  0.70156  1.0000
  C   C727      1.0  0.01230  0.77425  0.50629  1.0000
  H   H880      1.0  0.15354  0.79721  0.71822  1.0000
  C   C728      1.0  0.36697  0.90020  0.62891  1.0000
  C   C729      1.0  0.02259  0.68147  0.58175  1.0000
  C   C730      1.0  0.21883  0.97489  0.51441  1.0000
  H   H881      1.0  0.46411  0.54702  0.68768  1.0000
  H   H882      1.0  0.27339  0.96492  0.59128  1.0000
  C   C731      1.0  0.46919  0.93161  0.70121  1.0000
  S   S204      1.0  0.38444  0.88176  0.66951  1.0000
  C   C732      1.0  0.43499  0.55151  0.65102  1.0000
  H   H883      1.0  0.39313  0.89720  0.72065  1.0000
  C   C733      1.0  0.47037  0.56940  0.66832  1.0000
  H   H884      1.0  0.37905  0.90750  0.60116  1.0000
  Fe  Fe104     1.0  0.32111  0.92278  0.65136  1.0000
  C   C734      1.0  0.42089  0.53068  0.66011  1.0000
  H   H885      1.0  0.14204  0.72085  0.69398  1.0000
  C   C735      1.0  0.38822  0.90561  0.71087  1.0000
  C   C736      1.0  0.47802  0.64776  0.65757  1.0000
  H   H886      1.0  0.01285  0.69069  0.57496  1.0000
  S   S205      1.0  0.31754  0.93502  0.62856  1.0000
  H   H887      1.0  0.46726  0.64530  0.64737  1.0000
  H   H888      1.0  0.18289  0.53300  0.66799  1.0000
  C   C737      1.0  0.39611  0.57317  0.67055  1.0000
  C   C738      1.0  0.45848  0.92935  0.65802  1.0000
  H   H889      1.0  0.37785  0.94166  0.69529  1.0000
  H   H890      1.0  0.43101  0.91393  0.69280  1.0000
  Fe  Fe105     1.0  0.00866  0.78213  0.54314  1.0000
  H   H891      1.0  0.37421  0.94303  0.72033  1.0000
  H   H892      1.0  0.36292  0.88140  0.62323  1.0000
  H   H893      1.0  0.38017  0.55410  0.67033  1.0000
  H   H894      1.0  0.39866  0.94086  0.73194  1.0000
  C   C739      1.0  0.39839  0.94371  0.69604  1.0000
  H   H895      1.0  0.42312  0.62678  0.65001  1.0000
  H   H896      1.0  0.43585  0.95570  0.61240  1.0000
  H   H897      1.0  0.39995  0.88002  0.63326  1.0000
  H   H898      1.0  0.06897  0.51304  0.64553  1.0000
  H   H899      1.0  0.40605  0.96439  0.62546  1.0000
  C   C740      1.0  0.43618  0.93793  0.61696  1.0000
  S   S206      1.0  0.29434  0.91986  0.66934  1.0000
  C   C741      1.0  0.39185  0.94640  0.63040  1.0000
  C   C742      1.0  0.48546  0.94818  0.71145  1.0000
  C   C743      1.0  0.41367  0.57997  0.68185  1.0000
  H   H900      1.0  0.41083  0.96479  0.69450  1.0000
  C   C744      1.0  0.45936  0.88817  0.66578  1.0000
  N   N49       1.0  0.38870  0.92224  0.62243  1.0000
  H   H901      1.0  0.36710  0.90143  0.71106  1.0000
  C   C745      1.0  0.43256  0.87902  0.66861  1.0000
  C   C746      1.0  0.36094  0.98619  0.71032  1.0000
  S   S207      1.0  0.18859  0.98713  0.54912  1.0000
  H   H902      1.0  0.37329  0.94933  0.63097  1.0000
  H   H903      1.0  0.39847  0.94549  0.64146  1.0000
  H   H904      1.0  0.46828  0.94872  0.65362  1.0000
  Fe  Fe106     1.0  0.35139  0.89660  0.66830  1.0000
  H   H905      1.0  0.42261  0.85933  0.67258  1.0000
  H   H906      1.0  0.39520  0.94253  0.60230  1.0000
  C   C747      1.0  0.45951  0.57062  0.65503  1.0000
  S   S208      1.0  0.33557  0.95763  0.70334  1.0000
  H   H907      1.0  0.16040  0.50666  0.70467  1.0000
  C   C748      1.0  0.45294  0.66920  0.66865  1.0000
  H   H908      1.0  0.40521  0.96915  0.72057  1.0000
  C   C749      1.0  0.42095  0.61439  0.65916  1.0000
  C   C750      1.0  0.44913  0.95614  0.72095  1.0000
  Fe  Fe107     1.0  0.33016  0.93241  0.68334  1.0000
  S   S209      1.0  0.31697  0.88074  0.65328  1.0000
  C   C751      1.0  0.47246  0.91326  0.66019  1.0000
  C   C752      1.0  0.27171  0.97725  0.62646  1.0000
  C   C753      1.0  0.38099  0.92500  0.60761  1.0000
  C   C754      1.0  0.27701  0.96470  0.60256  1.0000
  Fe  Fe108     1.0  0.29132  0.87813  0.67185  1.0000
  C   C755      1.0  0.21065  0.78045  0.70545  1.0000
  H   H909      1.0  0.38637  0.58452  0.65029  1.0000
  C   C756      1.0  0.43191  0.52925  0.67331  1.0000
  N   N50       1.0  0.46190  0.64735  0.66999  1.0000
  C   C757      1.0  0.45993  0.93515  0.61736  1.0000
  H   H910      1.0  0.12637  0.75946  0.72976  1.0000
  C   C758      1.0  0.41588  0.89571  0.62840  1.0000
  S   S210      1.0  0.35744  0.93877  0.66501  1.0000
  C   C759      1.0  0.26672  0.97776  0.61183  1.0000
  H   H911      1.0  0.39089  0.89441  0.70165  1.0000
  H   H912      1.0  0.44834  0.60736  0.69072  1.0000
  H   H913      1.0  0.37099  0.89768  0.64030  1.0000
  S   S211      1.0  0.32529  0.89057  0.68722  1.0000
  C   C760      1.0  0.46169  0.91280  0.62322  1.0000
  C   C761      1.0  0.41846  0.89486  0.66609  1.0000
  H   H914      1.0  0.00902  0.62764  0.60215  1.0000
  C   C762      1.0  0.28679  0.96387  0.63179  1.0000
  C   C763      1.0  0.44285  0.92702  0.70088  1.0000
  H   H915      1.0  0.42678  0.55294  0.64078  1.0000
  C   C764      1.0  0.45630  0.54847  0.67737  1.0000
  C   C765      1.0  0.43178  0.92038  0.66111  1.0000
  C   C766      1.0  0.29250  0.95175  0.60787  1.0000
  H   H916      1.0  0.44137  0.87607  0.63355  1.0000
  H   H917      1.0  0.30065  0.94207  0.60056  1.0000
  C   C767      1.0  0.41343  0.91840  0.62259  1.0000
  C   C768      1.0  0.21454  0.80604  0.70917  1.0000
  C   C769      1.0  0.43934  0.62194  0.67047  1.0000
  C   C770      1.0  0.43969  0.89307  0.62862  1.0000
  H   H918      1.0  0.36203  0.92722  0.60715  1.0000
  H   H919      1.0  0.10054  0.73831  0.70050  1.0000
  H   H920      1.0  0.21977  0.53379  0.67785  1.0000
  H   H921      1.0  0.26384  0.98725  0.63374  1.0000
  C   C771      1.0  0.00859  0.65737  0.58801  1.0000
  H   H922      1.0  0.04075  0.83270  0.50577  1.0000
  H   H923      1.0  0.00514  0.51720  0.69474  1.0000
  C   C772      1.0  0.24309  0.99553  0.51551  1.0000
  C   C773      1.0  0.23878  0.50994  0.68541  1.0000
  H   H924      1.0  0.13278  0.49961  0.69305  1.0000
  C   C774      1.0  0.29454  0.93762  0.96921  1.0000
  C   C775      1.0  0.10830  0.85217  0.98675  1.0000
  H   H925      1.0  0.26953  0.96185  0.94274  1.0000
  H   H926      1.0  0.27360  0.90408  0.98198  1.0000
  H   H927      1.0  0.23253  0.89418  0.96992  1.0000
  S   S212      1.0  0.24784  0.96195  0.98705  1.0000
  H   H928      1.0  0.19568  0.89689  0.96263  1.0000
  H   H929      1.0  0.22836  0.96338  0.94777  1.0000
  S   S213      1.0  0.04217  0.76375  0.98780  1.0000
  C   C776      1.0  0.26969  0.94827  0.95093  1.0000
  C   C777      1.0  0.13423  0.86955  0.98432  1.0000
  C   C778      1.0  0.21378  0.94386  0.95088  1.0000
  H   H930      1.0  0.31262  0.94217  0.97496  1.0000
  C   C779      1.0  0.22518  0.92181  0.93168  1.0000
  N   N51       1.0  0.22198  0.92221  0.94728  1.0000
  H   H931      1.0  0.20638  0.91651  0.92591  1.0000
  C   C780      1.0  0.29312  0.95365  0.95813  1.0000
  H   H932      1.0  0.23797  0.94125  0.92746  1.0000
  C   C781      1.0  0.24682  0.92662  0.95464  1.0000
  H   H933      1.0  0.23362  0.90738  0.92867  1.0000
  S   S214      1.0  0.17674  0.91692  0.98531  1.0000
  H   H934      1.0  0.31010  0.97077  0.95529  1.0000
  C   C782      1.0  0.20065  0.89715  0.95122  1.0000
  H   H935      1.0  0.19511  0.94146  0.94564  1.0000
  S   S215      1.0  0.21535  0.99519  0.97685  1.0000
  H   H936      1.0  0.18236  0.89414  0.94535  1.0000
  H   H937      1.0  0.14723  0.86232  0.97910  1.0000
  C   C783      1.0  0.27253  0.91612  0.97311  1.0000
  H   H938      1.0  0.21095  0.94461  0.96249  1.0000
  H   H939      1.0  0.20573  0.88003  0.94898  1.0000
  C   C784      1.0  0.24893  0.91061  0.96601  1.0000
  H   H940      1.0  0.10162  0.83201  0.98327  1.0000
  C   C785      1.0  0.14351  0.89608  0.98860  1.0000
  Fe  Fe109     1.0  0.00312  0.74614  0.97675  1.0000
  Fe  Fe110     1.0  0.20690  0.95895  0.99009  1.0000
  H   H941      1.0  0.99928  0.61984  0.90609  1.0000
  H   H942      1.0  0.01603  0.67725  0.74752  1.0000
  H   H943      1.0  0.00308  0.60665  0.88143  1.0000
  C   C786      1.0  0.09108  0.86100  0.99354  1.0000
  C   C787      1.0  0.67721  0.02829  0.24258  1.0000
  H   H944      1.0  0.97271  0.48681  0.24080  1.0000
  C   C788      1.0  0.72585  0.08918  0.00192  1.0000
  C   C789      1.0  0.87474  0.09582  0.00128  1.0000
  H   H945      1.0  0.99058  0.45546  0.24120  1.0000
  Fe  Fe111     1.0  0.79219  0.04167  0.00366  1.0000
  H   H946      1.0  0.68987  0.05740  0.99834  1.0000
  S   S216      1.0  0.96719  0.24145  0.00284  1.0000
  S   S217      1.0  0.75229  0.03910  0.00940  1.0000
  H   H947      1.0  0.72299  0.06656  0.04094  1.0000
  N   N52       1.0  0.67957  0.03443  0.02466  1.0000
  C   C790      1.0  0.74572  0.10240  0.01149  1.0000
  C   C791      1.0  0.85577  0.10545  0.00458  1.0000
  S   S218      1.0  0.94300  0.16087  0.00165  1.0000
  H   H948      1.0  0.76269  0.11884  0.00800  1.0000
  H   H949      1.0  0.63791  0.02113  0.02538  1.0000
  C   C792      1.0  0.86384  0.13260  0.00718  1.0000
  H   H950      1.0  0.75986  0.10404  0.03286  1.0000
  C   C793      1.0  0.67957  0.02787  0.03995  1.0000
  H   H951      1.0  0.98438  0.46376  0.22325  1.0000
  C   C794      1.0  0.89031  0.14976  0.00664  1.0000
  H   H952      1.0  0.65199  0.03982  0.01006  1.0000
  H   H953      1.0  0.65522  0.05606  0.02689  1.0000
  H   H954      1.0  0.67872  0.01443  0.00479  1.0000
  C   C795      1.0  0.65516  0.03807  0.02160  1.0000
  H   H955      1.0  0.89598  0.17045  0.00875  1.0000
  C   C796      1.0  0.90928  0.14008  0.00338  1.0000
  C   C797      1.0  0.72262  0.07230  0.03003  1.0000
  C   C798      1.0  0.70434  0.06745  0.00631  1.0000
  H   H956      1.0  0.86907  0.07510  0.99921  1.0000
  Fe  Fe112     1.0  0.97340  0.20353  0.00358  1.0000
  H   H957      1.0  0.67443  0.03257  0.23167  1.0000
  H   H958      1.0  0.84950  0.14043  0.00975  1.0000
  H   H959      1.0  0.67893  0.04390  0.04683  1.0000
  H   H960      1.0  0.98136  0.32688  0.02505  1.0000
  C   C799      1.0  0.70208  0.05819  0.02048  1.0000
  H   H961      1.0  0.96257  0.30567  0.00469  1.0000
  S   S219      1.0  0.82181  0.08493  0.00521  1.0000
  H   H962      1.0  0.66262  0.00971  0.04274  1.0000
  H   H963      1.0  0.69697  0.02389  0.04292  1.0000
  C   C800      1.0  0.90118  0.11298  0.00066  1.0000
  H   H964      1.0  0.69728  0.00787  0.01871  1.0000
  C   C801      1.0  0.74406  0.09404  0.02551  1.0000
  C   C802      1.0  0.67948  0.01160  0.01643  1.0000
  H   H965      1.0  0.91551  0.10513  0.99806  1.0000
  C   C803      1.0  0.98195  0.30857  0.00046  1.0000
  S   S220      1.0  0.78585  0.00414  0.01577  1.0000
  H   H966      1.0  0.67773  0.00057  0.21849  1.0000
  H   H967      1.0  0.99260  0.30187  0.00858  1.0000
  Fe  Fe113     1.0  0.74469  0.00028  0.01975  1.0000
  C   C804      1.0  0.99379  0.34682  0.02246  1.0000
  H   H968      1.0  0.99450  0.35790  0.04442  1.0000
  H   H969      1.0  0.79410  0.40572  0.31303  1.0000
  C   C805      1.0  0.53471  0.00901  0.26993  1.0000
  C   C806      1.0  0.90483  0.17404  0.38274  1.0000
  Fe  Fe114     1.0  0.92781  0.34299  0.31605  1.0000
  S   S221      1.0  0.92911  0.36982  0.33416  1.0000
  S   S222      1.0  0.96646  0.35255  0.30439  1.0000
  Fe  Fe115     1.0  0.87146  0.30407  0.32413  1.0000
  S   S223      1.0  0.86990  0.32981  0.34235  1.0000
  S   S224      1.0  0.84253  0.26150  0.31955  1.0000
  Fe  Fe116     1.0  0.88870  0.36425  0.32753  1.0000
  S   S225      1.0  0.87743  0.39892  0.32165  1.0000
  Fe  Fe117     1.0  0.91069  0.33324  0.34730  1.0000
  S   S226      1.0  0.92707  0.33203  0.36954  1.0000
  S   S227      1.0  0.88781  0.33821  0.30880  1.0000
  S   S228      1.0  0.91177  0.30667  0.32971  1.0000
  Fe  Fe118     1.0  0.66401  0.08648  0.31471  1.0000
  S   S229      1.0  0.63835  0.07179  0.33376  1.0000
  S   S230      1.0  0.65777  0.06668  0.29278  1.0000
  Fe  Fe119     1.0  0.69356  0.14221  0.32769  1.0000
  S   S231      1.0  0.66819  0.13076  0.34695  1.0000
  S   S232      1.0  0.72241  0.18565  0.32807  1.0000
  Fe  Fe120     1.0  0.67530  0.09329  0.34657  1.0000
  S   S233      1.0  0.68839  0.08589  0.36881  1.0000
  Fe  Fe121     1.0  0.63353  0.11038  0.33277  1.0000
  S   S234      1.0  0.59531  0.11691  0.33038  1.0000
  S   S235      1.0  0.70141  0.10523  0.32754  1.0000
  S   S236      1.0  0.65844  0.12460  0.31348  1.0000
  H   H970      1.0  0.50679  0.11543  0.32735  1.0000
  C   C807      1.0  0.69141  0.04535  0.26616  1.0000
  C   C808      1.0  0.86258  0.12522  0.40652  1.0000
  H   H971      1.0  0.53040  0.35989  0.33408  1.0000
  C   C809      1.0  0.95385  0.48737  0.29056  1.0000
  Fe  Fe122     1.0  0.97352  0.18638  0.43234  1.0000
  S   S237      1.0  0.95340  0.14228  0.43021  1.0000
  S   S238      1.0  0.95116  0.21198  0.43436  1.0000
  Fe  Fe123     1.0  0.80713  0.04631  0.43931  1.0000
  S   S239      1.0  0.76666  0.04408  0.43529  1.0000
  S   S240      1.0  0.83506  0.08628  0.44690  1.0000
  C   C810      1.0  0.97022  0.38293  0.28001  1.0000
  Fe  Fe124     1.0  0.76566  0.01703  0.41744  1.0000
  H   H972      1.0  0.60753  0.00480  0.25568  1.0000
  C   C811      1.0  0.61432  0.00666  0.26654  1.0000
  Fe  Fe125     1.0  0.75418  0.00834  0.44907  1.0000
  H   H973      1.0  0.86894  0.15217  0.49222  1.0000
  C   C812      1.0  0.92076  0.12643  0.43529  1.0000
  C   C813      1.0  0.90855  0.13964  0.44312  1.0000
  C   C814      1.0  0.88236  0.12690  0.44674  1.0000
  C   C815      1.0  0.86811  0.10089  0.44250  1.0000
  C   C816      1.0  0.88033  0.08754  0.43475  1.0000
  C   C817      1.0  0.90664  0.10028  0.43121  1.0000
  H   H974      1.0  0.91928  0.15969  0.44634  1.0000
  H   H975      1.0  0.87299  0.13732  0.45273  1.0000
  H   H976      1.0  0.86952  0.06748  0.43145  1.0000
  H   H977      1.0  0.91601  0.08993  0.42518  1.0000
  H   H978      1.0  0.68851  0.04795  0.44027  1.0000
  S   S241      1.0  0.74886  0.01896  0.39538  1.0000
  C   C818      1.0  0.89450  0.48174  0.33987  1.0000
  C   C819      1.0  0.70741  0.06888  0.37550  1.0000
  C   C820      1.0  0.71596  0.07286  0.38974  1.0000
  C   C821      1.0  0.72943  0.05847  0.39588  1.0000
  C   C822      1.0  0.73411  0.03949  0.38791  1.0000
  C   C823      1.0  0.72605  0.03593  0.37360  1.0000
  C   C824      1.0  0.71296  0.05062  0.36739  1.0000
  H   H979      1.0  0.71165  0.08679  0.39616  1.0000
  H   H980      1.0  0.73570  0.06165  0.40682  1.0000
  C   C825      1.0  0.65569  0.03406  0.41698  1.0000
  H   H981      1.0  0.70649  0.04723  0.35646  1.0000
  C   C826      1.0  0.93510  0.30638  0.37681  1.0000
  C   C827      1.0  0.94741  0.30994  0.39018  1.0000
  C   C828      1.0  0.95437  0.29024  0.39626  1.0000
  C   C829      1.0  0.94907  0.26667  0.38900  1.0000
  C   C830      1.0  0.93665  0.26305  0.37566  1.0000
  C   C831      1.0  0.92973  0.28274  0.36958  1.0000
  H   H982      1.0  0.95163  0.32812  0.39588  1.0000
  H   H983      1.0  0.65262  0.04200  0.42692  1.0000
  C   C832      1.0  0.81365  0.46626  0.32903  1.0000
  H   H984      1.0  0.92016  0.27961  0.35933  1.0000
  C   C833      1.0  0.80897  0.24089  0.32201  1.0000
  C   C834      1.0  0.80001  0.21418  0.31812  1.0000
  C   C835      1.0  0.77375  0.19705  0.31976  1.0000
  C   C836      1.0  0.75582  0.20637  0.32528  1.0000
  C   C837      1.0  0.76479  0.23304  0.32922  1.0000
  C   C838      1.0  0.79109  0.25012  0.32768  1.0000
  H   H985      1.0  0.81351  0.20671  0.31368  1.0000
  H   H986      1.0  0.76737  0.17670  0.31662  1.0000
  H   H987      1.0  0.75125  0.24062  0.33351  1.0000
  H   H988      1.0  0.79745  0.27051  0.33073  1.0000
  H   H989      1.0  0.52643  0.48087  0.35883  1.0000
  C   C839      1.0  0.88482  0.47500  0.32606  1.0000
  C   C840      1.0  0.87990  0.44968  0.32067  1.0000
  C   C841      1.0  0.88487  0.43085  0.32890  1.0000
  C   C842      1.0  0.89520  0.43783  0.34256  1.0000
  C   C843      1.0  0.89978  0.46302  0.34802  1.0000
  Fe  Fe126     1.0  0.97631  0.23585  0.41680  1.0000
  H   H990      1.0  0.87186  0.44454  0.31010  1.0000
  H   H991      1.0  0.89907  0.42362  0.34906  1.0000
  H   H992      1.0  0.90724  0.46794  0.35871  1.0000
  C   C844      1.0  0.50875  0.08821  0.34315  1.0000
  C   C845      1.0  0.52531  0.07787  0.34986  1.0000
  C   C846      1.0  0.55174  0.08637  0.34619  1.0000
  C   C847      1.0  0.56215  0.10555  0.33577  1.0000
  C   C848      1.0  0.54556  0.11578  0.32901  1.0000
  C   C849      1.0  0.51910  0.10717  0.33262  1.0000
  H   H993      1.0  0.51767  0.06326  0.35804  1.0000
  H   H994      1.0  0.56411  0.07828  0.35154  1.0000
  H   H995      1.0  0.55327  0.13062  0.32094  1.0000
  N   N53       1.0  0.50616  0.31942  0.33836  1.0000
  C   C850      1.0  0.51810  0.42467  0.34071  1.0000
  C   C851      1.0  0.51248  0.44202  0.34956  1.0000
  C   C852      1.0  0.53095  0.46789  0.35177  1.0000
  C   C853      1.0  0.55521  0.47716  0.34501  1.0000
  C   C854      1.0  0.56061  0.45995  0.33594  1.0000
  C   C855      1.0  0.54233  0.43392  0.33394  1.0000
  H   H996      1.0  0.57599  0.00753  0.30280  1.0000
  H   H997      1.0  0.95627  0.47929  0.28053  1.0000
  H   H998      1.0  0.57902  0.46661  0.33060  1.0000
  H   H999      1.0  0.54709  0.42084  0.32709  1.0000
  H   H1000     1.0  0.98248  0.26875  0.34642  1.0000
  H   H1001     1.0  0.54513  0.25820  0.33470  1.0000
  H   H1002     1.0  0.81300  0.49091  0.30371  1.0000
  H   H1003     1.0  0.81301  0.01069  0.48354  1.0000
  H   H1004     1.0  0.95059  0.38094  0.28204  1.0000
  C   C856      1.0  0.62833  0.03177  0.27239  1.0000
  C   C857      1.0  0.63733  0.03483  0.28655  1.0000
  H   H1005     1.0  0.63265  0.04895  0.26582  1.0000
  H   H1006     1.0  0.92932  0.43358  0.28400  1.0000
  H   H1007     1.0  0.54712  0.30274  0.33379  1.0000
  H   H1008     1.0  0.92421  0.19059  0.38280  1.0000
  C   C858      1.0  0.76326  0.02859  0.48483  1.0000
  H   H1009     1.0  0.81841  0.39771  0.33326  1.0000
  C   C859      1.0  0.92725  0.15448  0.48381  1.0000
  C   C860      1.0  0.66972  0.00204  0.24736  1.0000
  C   C861      1.0  0.86822  0.14639  0.39684  1.0000
  C   C862      1.0  0.95149  0.47308  0.30335  1.0000
  H   H1010     1.0  0.63590  0.05442  0.40526  1.0000
  H   H1011     1.0  0.51401  0.32593  0.36072  1.0000
  H   H1012     1.0  0.92817  0.40774  0.29579  1.0000
  H   H1013     1.0  0.97608  0.45175  0.28443  1.0000
  H   H1014     1.0  0.68574  0.01678  0.28250  1.0000
  H   H1015     1.0  0.83713  0.47513  0.34868  1.0000
  N   N54       1.0  0.89314  0.16950  0.39705  1.0000
  C   C863      1.0  0.50613  0.29266  0.33873  1.0000
  H   H1016     1.0  0.97398  0.40610  0.26106  1.0000
  S   S242      1.0  0.97479  0.25190  0.46997  1.0000
  C   C864      1.0  0.99268  0.28312  0.35439  1.0000
  C   C865      1.0  0.54340  0.03065  0.27911  1.0000
  C   C866      1.0  0.63171  0.01240  0.29487  1.0000
  C   C867      1.0  0.82687  0.46067  0.34074  1.0000
  C   C868      1.0  0.81652  0.41642  0.33226  1.0000
  H   H1017     1.0  0.98829  0.29020  0.32504  1.0000
  H   H1018     1.0  0.77373  0.03818  0.47549  1.0000
  H   H1019     1.0  0.72963  0.02139  0.36730  1.0000
  C   C869      1.0  0.69846  0.03533  0.43654  1.0000
  H   H1020     1.0  0.93254  0.24496  0.36991  1.0000
  H   H1021     1.0  0.50411  0.22102  0.34010  1.0000
  S   S243      1.0  0.95805  0.24133  0.39580  1.0000
  H   H1022     1.0  0.79093  0.44828  0.31011  1.0000
  H   H1023     1.0  0.60520  0.05057  0.30547  1.0000
  C   C870      1.0  0.92732  0.19664  0.49017  1.0000
  H   H1024     1.0  0.89304  0.17939  0.37478  1.0000
  H   H1025     1.0  0.87872  0.18988  0.41188  1.0000
  H   H1026     1.0  0.90749  0.15627  0.37885  1.0000
  H   H1027     1.0  0.95738  0.32263  0.34893  1.0000
  H   H1028     1.0  0.91678  0.14909  0.40465  1.0000
  C   C871      1.0  0.92516  0.17785  0.47991  1.0000
  H   H1029     1.0  0.90641  0.16580  0.41821  1.0000
  C   C872      1.0  0.98454  0.24497  0.48689  1.0000
  C   C873      1.0  0.94722  0.48492  0.31593  1.0000
  C   C874      1.0  0.98356  0.39718  0.26808  1.0000
  C   C875      1.0  0.81969  0.10300  0.39636  1.0000
  H   H1030     1.0  0.56687  0.06185  0.32345  1.0000
  C   C876      1.0  0.83867  0.10393  0.40623  1.0000
  Fe  Fe127     1.0  0.98333  0.23551  0.44939  1.0000
  H   H1031     1.0  0.83483  0.08805  0.41378  1.0000
  H   H1032     1.0  0.85086  0.16065  0.37960  1.0000
  N   N55       1.0  0.74984  0.16741  0.36733  1.0000
  C   C877      1.0  0.73683  0.14995  0.37931  1.0000
  C   C878      1.0  0.73658  0.18571  0.36512  1.0000
  C   C879      1.0  0.74585  0.15070  0.35454  1.0000
  C   C880      1.0  0.77791  0.18255  0.36969  1.0000
  C   C881      1.0  0.79124  0.18035  0.38224  1.0000
  C   C882      1.0  0.79279  0.20041  0.35926  1.0000
  C   C883      1.0  0.81761  0.19574  0.38426  1.0000
  C   C884      1.0  0.81911  0.21561  0.36134  1.0000
  C   C885      1.0  0.83148  0.21343  0.37386  1.0000
  H   H1033     1.0  0.73863  0.16117  0.38930  1.0000
  H   H1034     1.0  0.71566  0.13943  0.37721  1.0000
  H   H1035     1.0  0.74451  0.13438  0.38099  1.0000
  H   H1036     1.0  0.73900  0.19863  0.37450  1.0000
  H   H1037     1.0  0.71545  0.17503  0.36300  1.0000
  H   H1038     1.0  0.74405  0.19867  0.35582  1.0000
  H   H1039     1.0  0.75615  0.13717  0.35554  1.0000
  H   H1040     1.0  0.72497  0.13842  0.35273  1.0000
  H   H1041     1.0  0.75264  0.16237  0.34472  1.0000
  H   H1042     1.0  0.78166  0.16709  0.39070  1.0000
  H   H1043     1.0  0.78411  0.20301  0.34942  1.0000
  H   H1044     1.0  0.82724  0.19418  0.39403  1.0000
  H   H1045     1.0  0.82981  0.22938  0.35319  1.0000
  H   H1046     1.0  0.85180  0.22566  0.37549  1.0000
  H   H1047     1.0  0.96882  0.44889  0.32417  1.0000
  H   H1048     1.0  0.53865  0.49033  0.28451  1.0000
  C   C886      1.0  0.88838  0.19295  0.40139  1.0000
  H   H1049     1.0  0.90675  0.21060  0.40240  1.0000
  H   H1050     1.0  0.77600  0.48193  0.33689  1.0000
  C   C887      1.0  0.52864  0.28743  0.33619  1.0000
  H   H1051     1.0  0.53837  0.04695  0.27623  1.0000
  H   H1052     1.0  0.96394  0.29338  0.40650  1.0000
  H   H1053     1.0  0.80126  0.08627  0.39613  1.0000
  H   H1054     1.0  0.97129  0.30998  0.31956  1.0000
  H   H1055     1.0  0.94416  0.47525  0.32610  1.0000
  H   H1056     1.0  0.60486  0.07000  0.29034  1.0000
  H   H1057     1.0  0.97826  0.42832  0.29660  1.0000
  C   C888      1.0  0.80146  0.44556  0.31922  1.0000
  C   C889      1.0  0.91268  0.16681  0.40702  1.0000
  C   C890      1.0  0.82443  0.12356  0.38682  1.0000
  H   H1058     1.0  0.83904  0.43248  0.35102  1.0000
  H   H1059     1.0  0.54697  0.34162  0.34210  1.0000
  C   C891      1.0  0.81494  0.00083  0.49353  1.0000
  C   C892      1.0  0.66242  0.01494  0.39062  1.0000
  H   H1060     1.0  0.60552  0.08257  0.30793  1.0000
  H   H1061     1.0  0.64243  0.03786  0.38194  1.0000
  H   H1062     1.0  0.92230  0.18169  0.46889  1.0000
  H   H1063     1.0  0.98501  0.35260  0.35081  1.0000
  H   H1064     1.0  0.52367  0.00929  0.26047  1.0000
  S   S244      1.0  0.80725  0.02115  0.42059  1.0000
  C   C893      1.0  0.95247  0.43565  0.31752  1.0000
  C   C894      1.0  0.53140  0.34012  0.33432  1.0000
  S   S245      1.0  0.79440  0.01249  0.45437  1.0000
  H   H1065     1.0  0.69904  0.06184  0.27343  1.0000
  C   C895      1.0  0.67258  0.00794  0.40281  1.0000
  C   C896      1.0  0.97518  0.33583  0.34355  1.0000
  C   C897      1.0  0.80304  0.42109  0.32081  1.0000
  C   C898      1.0  0.98212  0.37086  0.28910  1.0000
  H   H1066     1.0  0.71395  0.04715  0.42915  1.0000
  H   H1067     1.0  0.87609  0.19799  0.39359  1.0000
  H   H1068     1.0  0.80956  0.12275  0.37917  1.0000
  H   H1069     1.0  0.49910  0.34617  0.35275  1.0000
  H   H1070     1.0  0.64856  0.00888  0.44288  1.0000
  H   H1071     1.0  0.95439  0.41639  0.31702  1.0000
  H   H1072     1.0  0.93159  0.18390  0.40644  1.0000
  N   N56       1.0  0.99154  0.32137  0.33967  1.0000
  H   H1073     1.0  0.91117  0.42825  0.30001  1.0000
  H   H1074     1.0  0.87630  0.12462  0.41447  1.0000
  H   H1075     1.0  0.56666  0.03040  0.32003  1.0000
  C   C899      1.0  0.84824  0.14506  0.38709  1.0000
  H   H1076     1.0  0.66563  0.00817  0.38031  1.0000
  H   H1077     1.0  0.63870  0.01433  0.30571  1.0000
  N   N57       1.0  0.95239  0.44666  0.30315  1.0000
  C   C900      1.0  0.64932  0.03168  0.39152  1.0000
  N   N58       1.0  0.56847  0.05368  0.30125  1.0000
  C   C901      1.0  0.56013  0.07531  0.29751  1.0000
  C   C902      1.0  0.55954  0.04516  0.31586  1.0000
  C   C903      1.0  0.59716  0.06460  0.30124  1.0000
  C   C904      1.0  0.55842  0.03099  0.29143  1.0000
  C   C905      1.0  0.56400  0.00842  0.29392  1.0000
  H   H1078     1.0  0.93398  0.43174  0.32313  1.0000
  H   H1079     1.0  0.77378  0.47754  0.31800  1.0000
  C   C906      1.0  0.82814  0.43606  0.34227  1.0000
  C   C907      1.0  0.92938  0.42832  0.29535  1.0000
  H   H1080     1.0  0.56759  0.08387  0.28699  1.0000
  H   H1081     1.0  0.53868  0.06870  0.29763  1.0000
  H   H1082     1.0  0.56782  0.09186  0.30522  1.0000
  H   H1083     1.0  0.53802  0.03672  0.31639  1.0000
  H   H1084     1.0  0.70810  0.03107  0.44607  1.0000
  C   C908      1.0  0.52780  0.26183  0.33669  1.0000
  H   H1085     1.0  0.92574  0.14000  0.47572  1.0000
  C   C909      1.0  0.50054  0.47696  0.31964  1.0000
  C   C910      1.0  0.78557  0.49023  0.32670  1.0000
  N   N59       1.0  0.81279  0.49239  0.32668  1.0000
  C   C911      1.0  0.68396  0.01989  0.27125  1.0000
  H   H1086     1.0  0.53725  0.33658  0.32354  1.0000
  C   C912      1.0  0.64587  0.04116  0.40468  1.0000
  C   C913      1.0  0.50474  0.24084  0.33974  1.0000
  H   H1087     1.0  0.92639  0.21511  0.48697  1.0000
  C   C914      1.0  0.66961  0.01745  0.41642  1.0000
  C   C915      1.0  0.97613  0.44751  0.29593  1.0000
  H   H1088     1.0  0.96908  0.34407  0.33408  1.0000
  C   C916      1.0  0.68794  0.04956  0.25187  1.0000
  H   H1089     1.0  0.95824  0.28702  0.33349  1.0000
  C   C917      1.0  0.97676  0.30113  0.32904  1.0000
  H   H1090     1.0  0.88075  0.48913  0.31962  1.0000
  H   H1091     1.0  0.69318  0.06943  0.24807  1.0000
  N   N60       1.0  0.68049  0.01092  0.42957  1.0000
  C   C918      1.0  0.73824  0.00938  0.48348  1.0000
  S   S246      1.0  0.49630  0.39106  0.33818  1.0000
  C   C919      1.0  0.52574  0.49602  0.31904  1.0000
  C   C920      1.0  0.49961  0.32624  0.35259  1.0000
  C   C921      1.0  0.50247  0.46766  0.29469  1.0000
  H   H1092     1.0  0.71200  0.00393  0.42002  1.0000
  C   C922      1.0  0.52779  0.48665  0.29428  1.0000
  H   H1093     1.0  0.83888  0.10564  0.49337  1.0000
  H   H1094     1.0  0.99356  0.25251  0.36834  1.0000
  H   H1095     1.0  0.99380  0.46260  0.30081  1.0000
  S   S247      1.0  0.72446  0.99923  0.46647  1.0000
  Fe  Fe128     1.0  0.96271  0.19204  0.57323  1.0000
  S   S248      1.0  0.96413  0.22964  0.56326  1.0000
  S   S249      1.0  0.93198  0.15071  0.56929  1.0000
  H   H1096     1.0  0.96510  0.14402  0.51832  1.0000
  C   C923      1.0  0.83385  0.12314  0.52785  1.0000
  H   H1097     1.0  0.82170  0.07336  0.53753  1.0000
  C   C924      1.0  0.91038  0.30611  0.69179  1.0000
  C   C925      1.0  0.85122  0.14985  0.52680  1.0000
  H   H1098     1.0  0.78117  0.09283  0.54866  1.0000
  C   C926      1.0  0.79191  0.10125  0.53877  1.0000
  C   C927      1.0  0.62114  0.02527  0.67917  1.0000
  H   H1099     1.0  0.98320  0.42973  0.68628  1.0000
  H   H1100     1.0  0.49599  0.07384  0.71326  1.0000
  H   H1101     1.0  0.78428  0.23369  0.73382  1.0000
  H   H1102     1.0  0.81804  0.08039  0.55551  1.0000
  Fe  Fe129     1.0  0.78912  0.04360  0.57776  1.0000
  S   S250      1.0  0.81446  0.08424  0.58640  1.0000
  S   S251      1.0  0.75371  0.04022  0.56501  1.0000
  H   H1103     1.0  0.95717  0.20404  0.53083  1.0000
  H   H1104     1.0  0.67342  0.02476  0.70892  1.0000
  N   N61       1.0  0.66221  0.03087  0.66646  1.0000
  C   C928      1.0  0.66041  0.06168  0.68612  1.0000
  H   H1105     1.0  0.75175  0.19266  0.74394  1.0000
  H   H1106     1.0  0.64478  0.04315  0.64886  1.0000
  C   C929      1.0  0.65036  0.03149  0.72537  1.0000
  C   C930      1.0  0.84245  0.11794  0.50276  1.0000
  C   C931      1.0  0.62590  0.02211  0.73159  1.0000
  C   C932      1.0  0.54974  0.01799  0.71847  1.0000
  H   H1107     1.0  0.95765  0.38348  0.69942  1.0000
  H   H1108     1.0  0.60989  0.05903  0.70663  1.0000
  C   C933      1.0  0.93981  0.30750  0.71106  1.0000
  C   C934      1.0  0.97141  0.36394  0.73172  1.0000
  C   C935      1.0  0.95750  0.37051  0.72104  1.0000
  H   H1109     1.0  0.57683  0.03406  0.73565  1.0000
  H   H1110     1.0  0.93781  0.36835  0.72294  1.0000
  C   C936      1.0  0.77479  0.03564  0.49826  1.0000
  H   H1111     1.0  0.58720  0.02054  0.69120  1.0000
  H   H1112     1.0  0.94523  0.18079  0.54459  1.0000
  H   H1113     1.0  0.81612  0.12063  0.56298  1.0000
  C   C937      1.0  0.93126  0.31513  0.68248  1.0000
  H   H1114     1.0  0.88166  0.28443  0.73808  1.0000
  C   C938      1.0  0.87965  0.31343  0.71598  1.0000
  H   H1115     1.0  0.84763  0.13771  0.55607  1.0000
  H   H1116     1.0  0.79428  0.05034  0.49908  1.0000
  H   H1117     1.0  0.84887  0.09618  0.54706  1.0000
  C   C939      1.0  0.64843  0.02577  0.65253  1.0000
  H   H1118     1.0  0.65666  0.08475  0.70373  1.0000
  C   C940      1.0  0.60752  0.03244  0.68955  1.0000
  C   C941      1.0  0.89970  0.13265  0.57488  1.0000
  C   C942      1.0  0.88784  0.10601  0.57109  1.0000
  C   C943      1.0  0.86207  0.09081  0.57486  1.0000
  C   C944      1.0  0.84763  0.10217  0.58232  1.0000
  C   C945      1.0  0.85953  0.12880  0.58620  1.0000
  C   C946      1.0  0.88542  0.14400  0.58250  1.0000
  H   H1119     1.0  0.89875  0.09695  0.56531  1.0000
  H   H1120     1.0  0.85336  0.07029  0.57198  1.0000
  H   H1121     1.0  0.84861  0.13776  0.59205  1.0000
  H   H1122     1.0  0.89428  0.16445  0.58554  1.0000
  C   C947      1.0  0.66389  0.00624  0.67152  1.0000
  N   N62       1.0  0.51391  0.06976  0.73304  1.0000
  H   H1123     1.0  0.78506  0.08517  0.53080  1.0000
  H   H1124     1.0  0.69869  0.04357  0.65547  1.0000
  C   C948      1.0  0.64661  0.06860  0.69654  1.0000
  S   S252      1.0  0.98527  0.21223  0.59270  1.0000
  S   S253      1.0  0.80310  0.02248  0.56179  1.0000
  C   C949      1.0  0.96502  0.16102  0.52451  1.0000
  H   H1125     1.0  0.81676  0.08711  0.51542  1.0000
  H   H1126     1.0  0.86341  0.30829  0.72364  1.0000
  C   C950      1.0  0.87208  0.26812  0.71158  1.0000
  C   C951      1.0  0.96892  0.37928  0.70771  1.0000
  H   H1127     1.0  0.49887  0.03374  0.71022  1.0000
  C   C952      1.0  0.95629  0.32037  0.68741  1.0000
  S   S254      1.0  0.67620  0.06018  0.73165  1.0000
  H   H1128     1.0  0.87658  0.18057  0.51341  1.0000
  H   H1129     1.0  0.89983  0.14023  0.52782  1.0000
  C   C953      1.0  0.82666  0.13018  0.55321  1.0000
  H   H1130     1.0  0.82098  0.14695  0.55096  1.0000
  C   C954      1.0  0.93439  0.16885  0.50873  1.0000
  H   H1131     1.0  0.97020  0.15822  0.53567  1.0000
  H   H1132     1.0  0.70150  0.05286  0.67362  1.0000
  C   C955      1.0  0.54789  0.05069  0.73495  1.0000
  H   H1133     1.0  0.94477  0.30583  0.72201  1.0000
  C   C956      1.0  0.91403  0.30230  0.70642  1.0000
  S   S255      1.0  0.77868  0.03153  0.52682  1.0000
  H   H1134     1.0  0.80851  0.01051  0.50213  1.0000
  C   C957      1.0  0.96048  0.31627  0.70161  1.0000
  N   N63       1.0  0.93980  0.16385  0.52361  1.0000
  C   C958      1.0  0.98715  0.25195  0.51260  1.0000
  C   C959      1.0  0.97914  0.25664  0.49901  1.0000
  H   H1135     1.0  0.93424  0.20824  0.51161  1.0000
  H   H1136     1.0  0.92260  0.18803  0.53379  1.0000
  H   H1137     1.0  0.85540  0.26098  0.71901  1.0000
  H   H1138     1.0  0.65959  0.02064  0.64417  1.0000
  N   N64       1.0  0.82035  0.11146  0.54112  1.0000
  C   C960      1.0  0.68900  0.05017  0.66401  1.0000
  C   C961      1.0  0.65449  0.01784  0.71369  1.0000
  H   H1139     1.0  0.90767  0.27627  0.73215  1.0000
  H   H1140     1.0  0.55035  0.10031  0.73942  1.0000
  C   C962      1.0  0.89888  0.29107  0.73109  1.0000
  H   H1141     1.0  0.98636  0.30501  0.62497  1.0000
  H   H1142     1.0  0.54067  0.10244  0.72145  1.0000
  H   H1143     1.0  0.68090  0.07342  0.68572  1.0000
  H   H1144     1.0  0.78570  0.11699  0.53504  1.0000
  H   H1145     1.0  0.98093  0.17886  0.52044  1.0000
  H   H1146     1.0  0.87136  0.31499  0.70545  1.0000
  H   H1147     1.0  0.92231  0.13552  0.54009  1.0000
  C   C963      1.0  0.96330  0.48651  0.72069  1.0000
  C   C964      1.0  0.52563  0.05157  0.72801  1.0000
  C   C965      1.0  0.85935  0.14415  0.50209  1.0000
  H   H1148     1.0  0.93375  0.13176  0.50045  1.0000
  C   C966      1.0  0.64798  0.03976  0.67703  1.0000
  H   H1149     1.0  0.85546  0.16326  0.53566  1.0000
  H   H1150     1.0  0.98335  0.26146  0.52181  1.0000
  H   H1151     1.0  0.68907  0.06952  0.66074  1.0000
  C   C967      1.0  0.62024  0.05403  0.69825  1.0000
  H   H1152     1.0  0.98008  0.32093  0.70546  1.0000
  H   H1153     1.0  0.55896  0.00520  0.71479  1.0000
  C   C968      1.0  0.82759  0.08946  0.54545  1.0000
  C   C969      1.0  0.82984  0.10754  0.51542  1.0000
  H   H1154     1.0  0.89407  0.33327  0.71889  1.0000
  H   H1155     1.0  0.52506  0.11142  0.73591  1.0000
  H   H1156     1.0  0.92815  0.31848  0.67141  1.0000
  H   H1157     1.0  0.61063  0.00771  0.67317  1.0000
  C   C970      1.0  0.91922  0.13927  0.52873  1.0000
  C   C971      1.0  0.97983  0.45642  0.71008  1.0000
  H   H1158     1.0  0.89138  0.30258  0.68749  1.0000
  H   H1159     1.0  0.62258  0.03208  0.74074  1.0000
  H   H1160     1.0  0.95096  0.49057  0.72833  1.0000
  C   C972      1.0  0.76164  0.02341  0.51052  1.0000
  C   C973      1.0  0.94114  0.18516  0.53354  1.0000
  H   H1161     1.0  0.91855  0.12172  0.52280  1.0000
  S   S256      1.0  0.98461  0.27905  0.59836  1.0000
  N   N65       1.0  0.89172  0.29387  0.71616  1.0000
  C   C974      1.0  0.51580  0.03463  0.71613  1.0000
  Fe  Fe130     1.0  0.98961  0.25040  0.58220  1.0000
  C   C975      1.0  0.53333  0.09710  0.73241  1.0000
  H   H1162     1.0  0.91266  0.31009  0.73550  1.0000
  H   H1163     1.0  0.86379  0.26897  0.70094  1.0000
  C   C976      1.0  0.73633  0.00458  0.50929  1.0000
  C   C977      1.0  0.86365  0.16009  0.51405  1.0000
  H   H1164     1.0  0.88061  0.25303  0.71119  1.0000
  Fe  Fe131     1.0  0.76699  0.01755  0.54938  1.0000
  S   S257      1.0  0.76741  0.00691  0.59037  1.0000
  H   H1165     1.0  0.95251  0.44651  0.72723  1.0000
  C   C978      1.0  0.93196  0.19240  0.50436  1.0000
  H   H1166     1.0  0.97971  0.43683  0.70995  1.0000
  Fe  Fe132     1.0  0.73316  0.00162  0.57634  1.0000
  H   H1167     1.0  0.90921  0.45287  0.73515  1.0000
  C   C979      1.0  0.52785  0.01823  0.71145  1.0000
  C   C980      1.0  0.55973  0.03418  0.73020  1.0000
  H   H1168     1.0  0.96893  0.26959  0.49787  1.0000
  C   C981      1.0  0.93181  0.14998  0.49800  1.0000
  C   C982      1.0  0.96415  0.46173  0.72002  1.0000
  H   H1169     1.0  0.55643  0.06294  0.74409  1.0000
  H   H1170     1.0  0.97259  0.32816  0.68029  1.0000
  H   H1171     1.0  0.52018  0.00563  0.70230  1.0000
  H   H1172     1.0  0.83589  0.00533  0.49534  1.0000
  H   H1173     1.0  0.62958  0.00867  0.65277  1.0000
  H   H1174     1.0  0.67360  0.00899  0.68209  1.0000
  C   C983      1.0  0.60577  0.99969  0.72602  1.0000
  C   C984      1.0  0.99370  0.44816  0.68038  1.0000
  H   H1175     1.0  0.97897  0.45395  0.67501  1.0000
  C   C985      1.0  0.99453  0.38206  0.70493  1.0000
  H   H1176     1.0  0.67491  0.99900  0.66406  1.0000
  C   C986      1.0  0.96945  0.26136  0.83151  1.0000
  C   C987      1.0  0.52472  0.33670  0.76037  1.0000
  H   H1177     1.0  0.95451  0.30757  0.92826  1.0000
  S   S258      1.0  0.70736  0.02639  0.97728  1.0000
  Fe  Fe133     1.0  0.68637  0.09895  0.90807  1.0000
  S   S259      1.0  0.67005  0.11919  0.92340  1.0000
  S   S260      1.0  0.70856  0.07405  0.91541  1.0000
  Fe  Fe134     1.0  0.67446  0.12748  0.88230  1.0000
  S   S261      1.0  0.65805  0.15009  0.89625  1.0000
  S   S262      1.0  0.67478  0.14011  0.85931  1.0000
  Fe  Fe135     1.0  0.69186  0.15547  0.91070  1.0000
  S   S263      1.0  0.71819  0.19257  0.92194  1.0000
  Fe  Fe136     1.0  0.63786  0.11177  0.90730  1.0000
  S   S264      1.0  0.59482  0.09272  0.91204  1.0000
  S   S265      1.0  0.70978  0.13575  0.89610  1.0000
  S   S266      1.0  0.65260  0.08863  0.89265  1.0000
  Fe  Fe137     1.0  0.86031  0.30691  0.75883  1.0000
  S   S267      1.0  0.89555  0.30191  0.76757  1.0000
  C   C988      1.0  0.69880  0.20005  0.75636  1.0000
  Fe  Fe138     1.0  0.87910  0.36322  0.77016  1.0000
  S   S268      1.0  0.91560  0.36206  0.77966  1.0000
  C   C989      1.0  0.89094  0.42766  0.75271  1.0000
  C   C990      1.0  0.54819  0.29812  0.91115  1.0000
  Fe  Fe139     1.0  0.88973  0.32200  0.78722  1.0000
  S   S269      1.0  0.88659  0.30346  0.80903  1.0000
  S   S270      1.0  0.85303  0.32423  0.77892  1.0000
  Fe  Fe140     1.0  0.66512  0.09506  0.78083  1.0000
  S   S271      1.0  0.67392  0.13779  0.77819  1.0000
  S   S272      1.0  0.65756  0.07464  0.80222  1.0000
  H   H1178     1.0  0.75189  0.13170  0.79573  1.0000
  Fe  Fe141     1.0  0.70781  0.13926  0.76517  1.0000
  H   H1179     1.0  0.73526  0.17641  0.80339  1.0000
  C   C991      1.0  0.93272  0.21050  0.94921  1.0000
  N   N66       1.0  0.70007  0.21987  0.76722  1.0000
  S   S273      1.0  0.70017  0.09671  0.76889  1.0000
  S   S274      1.0  0.63853  0.08262  0.76167  1.0000
  H   H1180     1.0  0.57401  0.36096  0.75204  1.0000
  Fe  Fe142     1.0  0.89434  0.31769  0.91834  1.0000
  S   S275      1.0  0.85417  0.31788  0.91921  1.0000
  S   S276      1.0  0.90293  0.30003  0.93887  1.0000
  Fe  Fe143     1.0  0.90172  0.34036  0.88821  1.0000
  S   S277      1.0  0.86247  0.34156  0.88724  1.0000
  S   S278      1.0  0.92615  0.35649  0.86874  1.0000
  Fe  Fe144     1.0  0.87119  0.35794  0.90923  1.0000
  S   S279      1.0  0.85799  0.38984  0.91680  1.0000
  Fe  Fe145     1.0  0.84892  0.30168  0.89716  1.0000
  S   S280      1.0  0.81384  0.26986  0.88707  1.0000
  S   S281      1.0  0.91177  0.35921  0.90993  1.0000
  S   S282      1.0  0.88790  0.29905  0.89657  1.0000
  C   C992      1.0  0.90856  0.45947  0.82134  1.0000
  C   C993      1.0  0.57609  0.14586  0.75539  1.0000
  C   C994      1.0  0.56369  0.48307  0.89718  1.0000
  C   C995      1.0  0.57509  0.46823  0.90447  1.0000
  C   C996      1.0  0.56002  0.44217  0.90839  1.0000
  C   C997      1.0  0.53339  0.43061  0.90515  1.0000
  C   C998      1.0  0.52193  0.44545  0.89788  1.0000
  C   C999      1.0  0.53706  0.47148  0.89385  1.0000
  H   H1181     1.0  0.59552  0.47682  0.90711  1.0000
  H   H1182     1.0  0.56909  0.43090  0.91403  1.0000
  H   H1183     1.0  0.56322  0.39580  0.78216  1.0000
  C   C1000     1.0  0.58281  0.47558  0.77881  1.0000
  C   C1001     1.0  0.58744  0.47111  0.76473  1.0000
  H   H1184     1.0  0.90663  0.40278  0.83730  1.0000
  C   C1002     1.0  0.54661  0.43283  0.76372  1.0000
  C   C1003     1.0  0.54181  0.43741  0.77777  1.0000
  C   C1004     1.0  0.56000  0.45866  0.78531  1.0000
  H   H1185     1.0  0.52423  0.42448  0.78282  1.0000
  H   H1186     1.0  0.55643  0.46217  0.79618  1.0000
  C   C1005     1.0  0.88460  0.47268  0.89758  1.0000
  C   C1006     1.0  0.86812  0.46575  0.90923  1.0000
  C   C1007     1.0  0.86018  0.44033  0.91502  1.0000
  C   C1008     1.0  0.86879  0.42170  0.90931  1.0000
  C   C1009     1.0  0.88546  0.42874  0.89773  1.0000
  C   C1010     1.0  0.89326  0.45407  0.89190  1.0000
  H   H1187     1.0  0.67875  0.18901  0.75231  1.0000
  H   H1188     1.0  0.84729  0.43506  0.92398  1.0000
  H   H1189     1.0  0.89227  0.41463  0.89325  1.0000
  H   H1190     1.0  0.90620  0.45930  0.88297  1.0000
  C   C1011     1.0  0.95264  0.26460  0.82140  1.0000
  H   H1191     1.0  0.90826  0.27637  0.96499  1.0000
  N   N67       1.0  0.91089  0.47254  0.80739  1.0000
  C   C1012     1.0  0.54492  0.11672  0.77176  1.0000
  C   C1013     1.0  0.56314  0.10630  0.77573  1.0000
  C   C1014     1.0  0.58761  0.11533  0.76943  1.0000
  Fe  Fe146     1.0  0.91832  0.34253  0.75899  1.0000
  C   C1015     1.0  0.73018  0.12086  0.82077  1.0000
  C   C1016     1.0  0.87629  0.42487  0.76496  1.0000
  C   C1017     1.0  0.53958  0.44191  0.82859  1.0000
  H   H1192     1.0  0.81542  0.21428  0.83711  1.0000
  C   C1018     1.0  0.56389  0.28387  0.91211  1.0000
  H   H1193     1.0  0.98663  0.27102  0.85189  1.0000
  H   H1194     1.0  0.50847  0.20338  0.89826  1.0000
  H   H1195     1.0  0.90201  0.42622  0.85872  1.0000
  Fe  Fe147     1.0  0.73811  0.01662  0.98922  1.0000
  C   C1019     1.0  0.89454  0.32139  0.82512  1.0000
  C   C1020     1.0  0.91542  0.34567  0.82615  1.0000
  C   C1021     1.0  0.92419  0.35705  0.83956  1.0000
  C   C1022     1.0  0.91183  0.34454  0.85199  1.0000
  C   C1023     1.0  0.88994  0.32115  0.85087  1.0000
  C   C1024     1.0  0.88165  0.30942  0.83752  1.0000
  H   H1196     1.0  0.92567  0.35491  0.81668  1.0000
  H   H1197     1.0  0.94116  0.37514  0.84033  1.0000
  H   H1198     1.0  0.88019  0.31133  0.86035  1.0000
  H   H1199     1.0  0.86557  0.29060  0.83683  1.0000
  C   C1025     1.0  0.68373  0.20658  0.77941  1.0000
  S   S283      1.0  0.88332  0.34646  0.74905  1.0000
  C   C1026     1.0  0.88463  0.15049  0.96780  1.0000
  C   C1027     1.0  0.90311  0.46022  0.84717  1.0000
  N   N68       1.0  0.74423  0.14778  0.81523  1.0000
  C   C1028     1.0  0.54133  0.35316  0.78365  1.0000
  C   C1029     1.0  0.74482  0.21400  0.91225  1.0000
  C   C1030     1.0  0.76480  0.23442  0.91929  1.0000
  C   C1031     1.0  0.78633  0.25154  0.91177  1.0000
  C   C1032     1.0  0.78780  0.24845  0.89713  1.0000
  C   C1033     1.0  0.76765  0.22826  0.89010  1.0000
  C   C1034     1.0  0.74635  0.21097  0.89763  1.0000
  H   H1200     1.0  0.76368  0.23694  0.93060  1.0000
  H   H1201     1.0  0.80170  0.26710  0.91728  1.0000
  H   H1202     1.0  0.76849  0.22596  0.87877  1.0000
  H   H1203     1.0  0.73093  0.19552  0.89207  1.0000
  C   C1035     1.0  0.66774  0.12048  0.84389  1.0000
  C   C1036     1.0  0.66524  0.13194  0.83097  1.0000
  C   C1037     1.0  0.66155  0.11790  0.81818  1.0000
  C   C1038     1.0  0.66026  0.09219  0.81820  1.0000
  C   C1039     1.0  0.66186  0.08038  0.83119  1.0000
  C   C1040     1.0  0.66573  0.09451  0.84401  1.0000
  H   H1204     1.0  0.66653  0.15193  0.83086  1.0000
  H   H1205     1.0  0.65983  0.12700  0.80830  1.0000
  H   H1206     1.0  0.66074  0.06041  0.83128  1.0000
  H   H1207     1.0  0.66767  0.08550  0.85390  1.0000
  C   C1041     1.0  0.57192  0.10737  0.91019  1.0000
  C   C1042     1.0  0.57942  0.13417  0.90754  1.0000
  C   C1043     1.0  0.56052  0.14492  0.90590  1.0000
  C   C1044     1.0  0.53398  0.12897  0.90673  1.0000
  C   C1045     1.0  0.52648  0.10216  0.90928  1.0000
  C   C1046     1.0  0.54539  0.09147  0.91110  1.0000
  H   H1208     1.0  0.59976  0.14664  0.90687  1.0000
  H   H1209     1.0  0.56652  0.16569  0.90395  1.0000
  H   H1210     1.0  0.55676  0.45801  0.82495  1.0000
  H   H1211     1.0  0.53939  0.07072  0.91315  1.0000
  C   C1047     1.0  0.70862  0.04011  0.96013  1.0000
  C   C1048     1.0  0.72710  0.04061  0.95015  1.0000
  C   C1049     1.0  0.72665  0.05082  0.93647  1.0000
  C   C1050     1.0  0.70803  0.06100  0.93269  1.0000
  C   C1051     1.0  0.68978  0.06076  0.94274  1.0000
  C   C1052     1.0  0.68998  0.05019  0.95632  1.0000
  H   H1212     1.0  0.74156  0.03291  0.95291  1.0000
  H   H1213     1.0  0.74087  0.05095  0.92878  1.0000
  H   H1214     1.0  0.67521  0.06831  0.93996  1.0000
  H   H1215     1.0  0.67547  0.04973  0.96391  1.0000
  C   C1053     1.0  0.96922  0.28030  0.95806  1.0000
  C   C1054     1.0  0.97206  0.29219  0.94465  1.0000
  C   C1055     1.0  0.95204  0.29836  0.93855  1.0000
  C   C1056     1.0  0.92891  0.29271  0.94585  1.0000
  C   C1057     1.0  0.92609  0.28078  0.95927  1.0000
  C   C1058     1.0  0.94607  0.27458  0.96535  1.0000
  C   C1059     1.0  0.51778  0.43216  0.81977  1.0000
  Fe  Fe148     1.0  0.65064  0.12591  0.75808  1.0000
  H   H1216     1.0  0.55032  0.40652  0.80483  1.0000
  C   C1060     1.0  0.54329  0.38614  0.80155  1.0000
  H   H1217     1.0  0.73027  0.25023  0.77895  1.0000
  H   H1218     1.0  0.60496  0.48396  0.75964  1.0000
  H   H1219     1.0  0.50921  0.29645  0.91206  1.0000
  C   C1061     1.0  0.51059  0.25858  0.91563  1.0000
  S   S284      1.0  0.86701  0.39656  0.77553  1.0000
  H   H1220     1.0  0.53758  0.14499  0.75865  1.0000
  N   N69       1.0  0.78293  0.32950  0.89328  1.0000
  C   C1062     1.0  0.79828  0.32525  0.90516  1.0000
  C   C1063     1.0  0.76804  0.34466  0.89861  1.0000
  C   C1064     1.0  0.76386  0.30343  0.88860  1.0000
  C   C1065     1.0  0.80081  0.34413  0.88191  1.0000
  C   C1066     1.0  0.81711  0.37102  0.88377  1.0000
  C   C1067     1.0  0.80373  0.33199  0.86912  1.0000
  C   C1068     1.0  0.83436  0.38510  0.87327  1.0000
  C   C1069     1.0  0.82120  0.34623  0.85872  1.0000
  C   C1070     1.0  0.83635  0.37275  0.86075  1.0000
  H   H1221     1.0  0.81249  0.34404  0.90956  1.0000
  H   H1222     1.0  0.78582  0.31428  0.91403  1.0000
  H   H1223     1.0  0.80947  0.31368  0.90158  1.0000
  H   H1224     1.0  0.78044  0.36259  0.90453  1.0000
  H   H1225     1.0  0.75284  0.33308  0.90622  1.0000
  H   H1226     1.0  0.75842  0.35073  0.88971  1.0000
  H   H1227     1.0  0.77341  0.28978  0.88596  1.0000
  H   H1228     1.0  0.74992  0.29332  0.89711  1.0000
  H   H1229     1.0  0.75252  0.30520  0.87920  1.0000
  H   H1230     1.0  0.81740  0.38124  0.89357  1.0000
  H   H1231     1.0  0.79335  0.31133  0.86706  1.0000
  H   H1232     1.0  0.84673  0.40553  0.87506  1.0000
  H   H1233     1.0  0.82348  0.33646  0.84917  1.0000
  H   H1234     1.0  0.85012  0.38355  0.85276  1.0000
  C   C1071     1.0  0.94325  0.29385  0.83731  1.0000
  H   H1235     1.0  0.89939  0.43818  0.79400  1.0000
  H   H1236     1.0  0.87169  0.48451  0.76496  1.0000
  H   H1237     1.0  0.91043  0.42246  0.81405  1.0000
  H   H1238     1.0  0.50140  0.43700  0.89551  1.0000
  H   H1239     1.0  0.58109  0.16121  0.74751  1.0000
  N   N70       1.0  0.54803  0.34559  0.76965  1.0000
  C   C1072     1.0  0.53940  0.41089  0.87001  1.0000
  H   H1240     1.0  0.56628  0.24705  0.91544  1.0000
  C   C1073     1.0  0.64080  0.17935  0.78868  1.0000
  C   C1074     1.0  0.52394  0.33392  0.79268  1.0000
  H   H1241     1.0  0.93268  0.30624  0.83898  1.0000
  H   H1242     1.0  0.52799  0.48283  0.88831  1.0000
  S   S285      1.0  0.51584  0.39736  0.91002  1.0000
  H   H1243     1.0  0.53763  0.40149  0.88063  1.0000
  C   C1075     1.0  0.69402  0.20601  0.79321  1.0000
  C   C1076     1.0  0.55147  0.13667  0.76164  1.0000
  H   H1244     1.0  0.55665  0.40944  0.86500  1.0000
  H   H1245     1.0  0.88258  0.48901  0.81197  1.0000
  H   H1246     1.0  0.70332  0.25040  0.75216  1.0000
  H   H1247     1.0  0.91773  0.46794  0.78520  1.0000
  H   H1248     1.0  0.63919  0.16822  0.81060  1.0000
  H   H1249     1.0  0.62021  0.16851  0.78681  1.0000
  H   H1250     1.0  0.89578  0.14691  0.97634  1.0000
  H   H1251     1.0  0.99182  0.36366  0.98149  1.0000
  C   C1077     1.0  0.53928  0.43114  0.84208  1.0000
  C   C1078     1.0  0.75476  0.18517  0.85018  1.0000
  C   C1079     1.0  0.65148  0.17908  0.80204  1.0000
  C   C1080     1.0  0.80578  0.24655  0.75337  1.0000
  C   C1081     1.0  0.78374  0.18355  0.82653  1.0000
  H   H1252     1.0  0.73656  0.22115  0.77547  1.0000
  H   H1253     1.0  0.90081  0.47037  0.85658  1.0000
  H   H1254     1.0  0.79600  0.18424  0.81767  1.0000
  C   C1082     1.0  0.78083  0.20177  0.84950  1.0000
  H   H1255     1.0  0.78987  0.21535  0.85810  1.0000
  H   H1256     1.0  0.68620  0.19222  0.81475  1.0000
  H   H1257     1.0  0.97685  0.34574  0.86865  1.0000
  H   H1258     1.0  0.68929  0.25302  0.76888  1.0000
  C   C1083     1.0  0.74305  0.16777  0.83906  1.0000
  H   H1259     1.0  0.58461  0.29379  0.91068  1.0000
  H   H1260     1.0  0.71461  0.14300  0.79952  1.0000
  C   C1084     1.0  0.79522  0.20105  0.83767  1.0000
  H   H1261     1.0  0.51781  0.44064  0.80940  1.0000
  H   H1262     1.0  0.54325  0.43190  0.87207  1.0000
  H   H1263     1.0  0.54638  0.21283  0.93160  1.0000
  C   C1085     1.0  0.56878  0.36739  0.76230  1.0000
  C   C1086     1.0  0.59408  0.13498  0.75917  1.0000
  C   C1087     1.0  0.55700  0.32376  0.77123  1.0000
  C   C1088     1.0  0.90636  0.42222  0.83631  1.0000
  C   C1089     1.0  0.80721  0.24045  0.76766  1.0000
  H   H1264     1.0  0.85739  0.44301  0.77853  1.0000
  H   H1265     1.0  0.92428  0.30236  0.86243  1.0000
  H   H1266     1.0  0.71420  0.11954  0.82795  1.0000
  C   C1090     1.0  0.55306  0.25692  0.91494  1.0000
  C   C1091     1.0  0.84336  0.13667  0.95554  1.0000
  C   C1092     1.0  0.97424  0.33413  0.85869  1.0000
  H   H1267     1.0  0.57330  0.44621  0.74640  1.0000
  C   C1093     1.0  0.69044  0.23890  0.76079  1.0000
  H   H1268     1.0  0.77204  0.16501  0.79864  1.0000
  H   H1269     1.0  0.97564  0.32997  0.97657  1.0000
  C   C1094     1.0  0.52631  0.36673  0.81017  1.0000
  C   C1095     1.0  0.92601  0.20425  0.97421  1.0000
  H   H1270     1.0  0.98990  0.29672  0.93893  1.0000
  H   H1271     1.0  0.94621  0.21868  0.97585  1.0000
  C   C1096     1.0  0.76880  0.19967  0.76486  1.0000
  H   H1272     1.0  0.79637  0.10933  0.98663  1.0000
  C   C1097     1.0  0.52094  0.08652  0.84422  1.0000
  S   S286      1.0  0.51108  0.14359  0.90474  1.0000
  C   C1098     1.0  0.98121  0.34369  0.98582  1.0000
  C   C1099     1.0  0.49748  0.21070  0.93305  1.0000
  C   C1100     1.0  0.86917  0.44535  0.76923  1.0000
  H   H1273     1.0  0.56246  0.38358  0.75953  1.0000
  S   S287      1.0  0.51419  0.10385  0.77960  1.0000
  H   H1274     1.0  0.71440  0.21564  0.79568  1.0000
  H   H1275     1.0  0.96122  0.18891  0.96137  1.0000
  H   H1276     1.0  0.89639  0.41188  0.74932  1.0000
  H   H1277     1.0  0.93740  0.16309  0.95115  1.0000
  H   H1278     1.0  0.54371  0.20261  0.91314  1.0000
  C   C1101     1.0  0.55068  0.37962  0.78846  1.0000
  N   N71       1.0  0.92321  0.19033  0.96051  1.0000
  H   H1279     1.0  0.88747  0.48570  0.79360  1.0000
  H   H1280     1.0  0.92141  0.19061  0.98340  1.0000
  N   N72       1.0  0.51560  0.39808  0.86124  1.0000
  C   C1102     1.0  0.89169  0.47165  0.74925  1.0000
  C   C1103     1.0  0.56947  0.44969  0.75726  1.0000
  H   H1281     1.0  0.50613  0.08968  0.90999  1.0000
  H   H1282     1.0  0.58670  0.37556  0.76892  1.0000
  C   C1104     1.0  0.72777  0.23446  0.77107  1.0000
  H   H1283     1.0  0.51216  0.08154  0.83375  1.0000
  H   H1284     1.0  0.52288  0.18188  0.92601  1.0000
  H   H1285     1.0  0.56390  0.31893  0.76101  1.0000
  H   H1286     1.0  0.64736  0.19219  0.76735  1.0000
  C   C1105     1.0  0.93873  0.29777  0.86877  1.0000
  N   N73       1.0  0.58284  0.09191  0.86409  1.0000
  C   C1106     1.0  0.57921  0.07100  0.87470  1.0000
  C   C1107     1.0  0.59608  0.08640  0.85169  1.0000
  C   C1108     1.0  0.60048  0.11737  0.87022  1.0000
  C   C1109     1.0  0.55735  0.09281  0.86058  1.0000
  C   C1110     1.0  0.54297  0.09907  0.87123  1.0000
  C   C1111     1.0  0.54565  0.08669  0.84688  1.0000
  C   C1112     1.0  0.76707  0.20590  0.75061  1.0000
  S   S288      1.0  0.74600  0.17101  0.77287  1.0000
  C   C1113     1.0  0.94038  0.17555  0.96077  1.0000
  H   H1287     1.0  0.56604  0.05149  0.87057  1.0000
  H   H1288     1.0  0.59792  0.06976  0.87781  1.0000
  H   H1289     1.0  0.57062  0.07442  0.88469  1.0000
  H   H1290     1.0  0.58470  0.06683  0.84695  1.0000
  H   H1291     1.0  0.61525  0.08617  0.85473  1.0000
  H   H1292     1.0  0.59991  0.10173  0.84338  1.0000
  H   H1293     1.0  0.59395  0.12136  0.88071  1.0000
  H   H1294     1.0  0.62036  0.11793  0.87207  1.0000
  H   H1295     1.0  0.60222  0.13393  0.86306  1.0000
  H   H1296     1.0  0.55053  0.10381  0.88187  1.0000
  H   H1297     1.0  0.55501  0.08176  0.83806  1.0000
  H   H1298     1.0  0.71079  0.15792  0.81568  1.0000
  H   H1299     1.0  0.82341  0.12300  0.95435  1.0000
  N   N74       1.0  0.75290  0.15118  0.94724  1.0000
  C   C1114     1.0  0.73715  0.16296  0.95494  1.0000
  C   C1115     1.0  0.77291  0.17200  0.93894  1.0000
  C   C1116     1.0  0.73562  0.13196  0.93687  1.0000
  C   C1117     1.0  0.76512  0.13939  0.95769  1.0000
  C   C1118     1.0  0.78471  0.15554  0.96715  1.0000
  C   C1119     1.0  0.75704  0.11183  0.95940  1.0000
  C   C1120     1.0  0.79593  0.14476  0.97738  1.0000
  C   C1121     1.0  0.76830  0.10125  0.96971  1.0000
  C   C1122     1.0  0.78775  0.11767  0.97865  1.0000
  H   H1300     1.0  0.72701  0.17154  0.94750  1.0000
  H   H1301     1.0  0.72199  0.14799  0.96138  1.0000
  H   H1302     1.0  0.74912  0.17902  0.96218  1.0000
  H   H1303     1.0  0.78459  0.18933  0.94546  1.0000
  H   H1304     1.0  0.76404  0.17989  0.93040  1.0000
  H   H1305     1.0  0.78623  0.16428  0.93375  1.0000
  H   H1306     1.0  0.71822  0.11724  0.94197  1.0000
  H   H1307     1.0  0.72797  0.14163  0.92865  1.0000
  H   H1308     1.0  0.74594  0.12143  0.93110  1.0000
  H   H1309     1.0  0.79123  0.17664  0.96686  1.0000
  H   H1310     1.0  0.74187  0.09798  0.95298  1.0000
  C   C1123     1.0  0.67800  0.19249  0.80432  1.0000
  H   H1311     1.0  0.86132  0.47985  0.91372  1.0000
  C   C1124     1.0  0.98220  0.30058  0.87145  1.0000
  H   H1312     1.0  0.93013  0.27635  0.87095  1.0000
  H   H1313     1.0  0.85080  0.11677  0.97362  1.0000
  H   H1314     1.0  0.93388  0.45416  0.79721  1.0000
  H   H1315     1.0  0.86970  0.45699  0.80389  1.0000
  C   C1125     1.0  0.72537  0.15667  0.80819  1.0000
  H   H1316     1.0  0.96099  0.33983  0.85192  1.0000
  C   C1126     1.0  0.50725  0.09238  0.85502  1.0000
  H   H1317     1.0  0.82263  0.25361  0.77432  1.0000
  C   C1127     1.0  0.51832  0.09881  0.86848  1.0000
  C   C1128     1.0  0.87721  0.46884  0.76155  1.0000
  H   H1318     1.0  0.74345  0.18580  0.85934  1.0000
  H   H1319     1.0  0.94974  0.25461  0.81126  1.0000
  C   C1129     1.0  0.76230  0.14603  0.80424  1.0000
  C   C1130     1.0  0.87941  0.17545  0.94777  1.0000
  H   H1320     1.0  0.73967  0.24395  0.76169  1.0000
  H   H1321     1.0  0.57316  0.32885  0.77910  1.0000
  H   H1322     1.0  0.92216  0.22389  0.94913  1.0000
  H   H1323     1.0  0.93103  0.20135  0.93856  1.0000
  H   H1324     1.0  0.72077  0.10651  0.81209  1.0000
  N   N75       1.0  0.96393  0.30552  0.86148  1.0000
  H   H1325     1.0  0.51045  0.36047  0.87014  1.0000
  C   C1131     1.0  0.51137  0.37005  0.85965  1.0000
  C   C1132     1.0  0.90868  0.43393  0.82295  1.0000
  H   H1326     1.0  0.95355  0.22344  0.95084  1.0000
  H   H1327     1.0  0.84146  0.16061  0.93798  1.0000
  H   H1328     1.0  0.60143  0.10701  0.77252  1.0000
  H   H1329     1.0  0.52010  0.37196  0.82012  1.0000
  H   H1330     1.0  0.94350  0.26544  0.97565  1.0000
  C   C1133     1.0  0.53266  0.20283  0.92285  1.0000
  C   C1134     1.0  0.65658  0.19300  0.77756  1.0000
  H   H1331     1.0  0.55821  0.09099  0.78364  1.0000
  H   H1332     1.0  0.72264  0.15580  0.84003  1.0000
  S   S289      1.0  0.77789  0.02045  0.98287  1.0000
  H   H1333     1.0  0.88600  0.19151  0.94035  1.0000
  C   C1135     1.0  0.75724  0.16610  0.82697  1.0000
  C   C1136     1.0  0.90369  0.43536  0.84839  1.0000
  C   C1137     1.0  0.91574  0.45750  0.79551  1.0000
  S   S290      1.0  0.62434  0.14581  0.75081  1.0000
  H   H1334     1.0  0.51494  0.31360  0.78945  1.0000
  Fe  Fe149     1.0  0.67429  0.08759  0.74942  1.0000
  H   H1335     1.0  0.94061  0.30845  0.87900  1.0000
  C   C1138     1.0  0.78890  0.21712  0.77333  1.0000
  H   H1336     1.0  0.76170  0.08013  0.97088  1.0000
  H   H1337     1.0  0.74345  0.11385  0.82675  1.0000
  H   H1338     1.0  0.77725  0.13969  0.80886  1.0000
  C   C1139     1.0  0.96025  0.29112  0.84786  1.0000
  H   H1339     1.0  0.93718  0.16260  0.97020  1.0000
  C   C1140     1.0  0.85881  0.13311  0.96632  1.0000
  H   H1340     1.0  0.79038  0.21263  0.78439  1.0000
  S   S291      1.0  0.95744  0.35057  0.74836  1.0000
  C   C1141     1.0  0.89585  0.17209  0.95853  1.0000
  C   C1142     1.0  0.90544  0.47210  0.83387  1.0000
  C   C1143     1.0  0.93955  0.28081  0.82431  1.0000
  H   H1341     1.0  0.55662  0.31901  0.90906  1.0000
  H   H1342     1.0  0.52876  0.33119  0.74959  1.0000
  C   C1144     1.0  0.85360  0.15784  0.94632  1.0000
  C   C1145     1.0  0.97331  0.27437  0.84458  1.0000
  H   H1343     1.0  0.55670  0.43980  0.84842  1.0000
  C   C1146     1.0  0.51692  0.41003  0.84705  1.0000
  C   C1147     1.0  0.49697  0.20132  0.90806  1.0000
  H   H1344     1.0  0.50904  0.22204  0.94224  1.0000
  H   H1345     1.0  0.92646  0.28340  0.81643  1.0000
  C   C1148     1.0  0.88658  0.47616  0.80411  1.0000
  C   C1149     1.0  0.52597  0.24352  0.91702  1.0000
  H   H1346     1.0  0.91293  0.21504  0.97467  1.0000
  C   C1150     1.0  0.50545  0.06357  0.74794  1.0000
  N   N76       1.0  0.51371  0.21513  0.92019  1.0000
  C   C1151     1.0  0.51665  0.34066  0.80575  1.0000
  H   H1347     1.0  0.70585  0.18538  0.76079  1.0000
  C   C1152     1.0  0.52156  0.28545  0.91285  1.0000
  S   S292      1.0  0.52530  0.40563  0.75404  1.0000
  H   H1348     1.0  0.71099  0.20910  0.74702  1.0000
  H   H1349     1.0  0.50864  0.31940  0.76476  1.0000
  H   H1350     1.0  0.67090  0.22913  0.75588  1.0000
  H   H1351     1.0  0.54129  0.30523  0.77470  1.0000
  H   H1352     1.0  0.52716  0.36778  0.85347  1.0000
  S   S293      1.0  0.82902  0.27535  0.74569  1.0000
  H   H1353     1.0  0.51735  0.35253  0.75906  1.0000
  C   C1153     1.0  0.78555  0.22918  0.74489  1.0000
  H   H1354     1.0  0.50760  0.10329  0.87690  1.0000
  H   H1355     1.0  0.81099  0.15743  0.98445  1.0000
  H   H1356     1.0  0.90467  0.49129  0.83347  1.0000
  H   H1357     1.0  0.97962  0.24874  0.82916  1.0000
  H   H1358     1.0  0.50269  0.32568  0.81221  1.0000
  H   H1359     1.0  0.52188  0.06669  0.75540  1.0000
  H   H1360     1.0  0.97525  0.27948  0.87438  1.0000
  H   H1361     1.0  0.99315  0.34078  0.85317  1.0000
  H   H1362     1.0  0.94079  0.49152  0.92505  1.0000
  H   H1363     1.0  0.72736  0.09529  0.99093  1.0000
  H   H1364     1.0  0.98433  0.31172  0.88155  1.0000
  H   H1365     1.0  0.95112  0.49704  0.81082  1.0000
  H   H1366     1.0  0.96302  0.34343  0.99058  1.0000
  H   H1367     1.0  0.97838  0.29513  0.99121  1.0000
  C   C1154     1.0  0.49530  0.40045  0.83767  1.0000
  C   C1155     1.0  0.93261  0.49868  0.80774  1.0000
  C   C1156     1.0  0.89831  0.45091  0.74475  1.0000
  C   C1157     1.0  0.49574  0.41143  0.82429  1.0000
  H   H1368     1.0  0.49568  0.07630  0.75191  1.0000
  S   S294      1.0  0.68508  0.13061  0.74467  1.0000
  C   C1158     1.0  0.62842  0.68710  0.23643  1.0000
  H   H1369     1.0  0.56446  0.87933  0.15050  1.0000
  S   S295      1.0  0.72558  0.99060  0.04164  1.0000
  C   C1159     1.0  0.82208  0.83916  0.01790  1.0000
  H   H1370     1.0  0.54604  0.55010  0.12953  1.0000
  C   C1160     1.0  0.98846  0.50577  0.24161  1.0000
  C   C1161     1.0  0.74936  0.88001  0.00723  1.0000
  C   C1162     1.0  0.63603  0.64790  0.23115  1.0000
  H   H1371     1.0  0.97550  0.73625  0.04646  1.0000
  H   H1372     1.0  0.92614  0.66821  0.04747  1.0000
  C   C1163     1.0  0.60697  0.67639  0.02553  1.0000
  Fe  Fe150     1.0  0.73929  0.73751  0.01401  1.0000
  H   H1373     1.0  0.69556  0.98555  0.22866  1.0000
  S   S296      1.0  0.71789  0.71009  0.03206  1.0000
  H   H1374     1.0  0.63482  0.99750  0.22663  1.0000
  H   H1375     1.0  0.98219  0.68652  0.02245  1.0000
  H   H1376     1.0  0.67401  0.66863  0.01276  1.0000
  S   S297      1.0  0.77259  0.77650  0.01680  1.0000
  Fe  Fe151     1.0  0.58817  0.91554  0.08350  1.0000
  S   S298      1.0  0.56161  0.87266  0.08315  1.0000
  S   S299      1.0  0.60858  0.92937  0.06214  1.0000
  Fe  Fe152     1.0  0.57447  0.92059  0.11470  1.0000
  S   S300      1.0  0.54858  0.87811  0.11630  1.0000
  S   S301      1.0  0.57289  0.94501  0.13371  1.0000
  Fe  Fe153     1.0  0.57940  0.87101  0.10428  1.0000
  S   S302      1.0  0.59684  0.84164  0.10974  1.0000
  Fe  Fe154     1.0  0.53290  0.88400  0.09513  1.0000
  S   S303      1.0  0.60712  0.91325  0.10433  1.0000
  S   S304      1.0  0.55759  0.92697  0.09383  1.0000
  S   S305      1.0  0.57138  0.69812  0.23115  1.0000
  Fe  Fe155     1.0  0.51920  0.62895  0.22377  1.0000
  S   S306      1.0  0.56138  0.63615  0.22643  1.0000
  Fe  Fe156     1.0  0.56836  0.67139  0.21266  1.0000
  S   S307      1.0  0.59857  0.68692  0.19558  1.0000
  S   S308      1.0  0.52639  0.66201  0.20841  1.0000
  Fe  Fe157     1.0  0.57746  0.92221  0.21507  1.0000
  S   S309      1.0  0.53948  0.88793  0.21396  1.0000
  S   S310      1.0  0.60575  0.93196  0.19696  1.0000
  S   S311      1.0  0.56326  0.94846  0.22750  1.0000
  C   C1164     1.0  0.97867  0.69996  0.06560  1.0000
  Fe  Fe158     1.0  0.58972  0.68277  0.08281  1.0000
  S   S312      1.0  0.54867  0.67726  0.07718  1.0000
  S   S313      1.0  0.61881  0.70812  0.06630  1.0000
  Fe  Fe159     1.0  0.57248  0.65820  0.11236  1.0000
  S   S314      1.0  0.53097  0.65196  0.10858  1.0000
  S   S315      1.0  0.57840  0.64056  0.13321  1.0000
  Fe  Fe160     1.0  0.53581  0.63728  0.08716  1.0000
  C   C1165     1.0  0.96239  0.68120  0.02682  1.0000
  Fe  Fe161     1.0  0.54741  0.69225  0.09907  1.0000
  S   S316      1.0  0.52814  0.72038  0.10362  1.0000
  S   S317      1.0  0.57695  0.64132  0.09119  1.0000
  S   S318      1.0  0.58870  0.69981  0.10453  1.0000
  C   C1166     1.0  0.59030  0.67568  0.17793  1.0000
  C   C1167     1.0  0.56914  0.65237  0.17488  1.0000
  C   C1168     1.0  0.56477  0.64242  0.16093  1.0000
  C   C1169     1.0  0.58099  0.65610  0.14985  1.0000
  C   C1170     1.0  0.60142  0.68001  0.15281  1.0000
  C   C1171     1.0  0.60619  0.68961  0.16681  1.0000
  H   H1377     1.0  0.55689  0.64138  0.18339  1.0000
  H   H1378     1.0  0.54930  0.62363  0.15883  1.0000
  H   H1379     1.0  0.61450  0.69031  0.14444  1.0000
  H   H1380     1.0  0.62274  0.70751  0.16909  1.0000
  C   C1172     1.0  0.50464  0.90856  0.12781  1.0000
  C   C1173     1.0  0.53264  0.58038  0.11122  1.0000
  H   H1381     1.0  0.53614  0.84595  0.19326  1.0000
  C   C1174     1.0  0.68734  0.97081  0.06172  1.0000
  C   C1175     1.0  0.57754  0.80816  0.10752  1.0000
  C   C1176     1.0  0.55072  0.79931  0.10567  1.0000
  C   C1177     1.0  0.53574  0.77231  0.10433  1.0000
  C   C1178     1.0  0.54758  0.75416  0.10449  1.0000
  C   C1179     1.0  0.57446  0.76314  0.10613  1.0000
  C   C1180     1.0  0.58934  0.79003  0.10783  1.0000
  H   H1382     1.0  0.54148  0.81321  0.10540  1.0000
  H   H1383     1.0  0.51494  0.76548  0.10307  1.0000
  H   H1384     1.0  0.58386  0.74945  0.10612  1.0000
  H   H1385     1.0  0.61013  0.79683  0.10913  1.0000
  C   C1181     1.0  0.59461  0.93251  0.17938  1.0000
  C   C1182     1.0  0.57208  0.93689  0.17654  1.0000
  C   C1183     1.0  0.56519  0.93992  0.16245  1.0000
  C   C1184     1.0  0.58021  0.93769  0.15108  1.0000
  C   C1185     1.0  0.60197  0.93194  0.15391  1.0000
  C   C1186     1.0  0.60930  0.92968  0.16802  1.0000
  H   H1386     1.0  0.56067  0.93924  0.18520  1.0000
  H   H1387     1.0  0.54854  0.94470  0.16035  1.0000
  H   H1388     1.0  0.61385  0.93047  0.14525  1.0000
  H   H1389     1.0  0.62675  0.92629  0.17011  1.0000
  C   C1187     1.0  0.69075  0.71024  0.04174  1.0000
  C   C1188     1.0  0.68027  0.72912  0.03945  1.0000
  C   C1189     1.0  0.65842  0.72814  0.04713  1.0000
  C   C1190     1.0  0.64664  0.70831  0.05718  1.0000
  C   C1191     1.0  0.65699  0.68931  0.05939  1.0000
  C   C1192     1.0  0.67892  0.69033  0.05174  1.0000
  H   H1390     1.0  0.68904  0.74452  0.03180  1.0000
  H   H1391     1.0  0.65053  0.74286  0.04524  1.0000
  H   H1392     1.0  0.64817  0.67388  0.06702  1.0000
  H   H1393     1.0  0.68677  0.67557  0.05359  1.0000
  C   C1193     1.0  0.64161  0.94493  0.05690  1.0000
  C   C1194     1.0  0.64762  0.94531  0.04241  1.0000
  C   C1195     1.0  0.67328  0.95823  0.03761  1.0000
  C   C1196     1.0  0.69328  0.97157  0.04721  1.0000
  H   H1394     1.0  0.59512  0.73988  0.19015  1.0000
  C   C1197     1.0  0.66176  0.95744  0.06656  1.0000
  H   H1395     1.0  0.63226  0.93558  0.03483  1.0000
  H   H1396     1.0  0.67753  0.95811  0.02647  1.0000
  H   H1397     1.0  0.57576  0.81290  0.20933  1.0000
  H   H1398     1.0  0.65756  0.95741  0.07773  1.0000
  C   C1198     1.0  0.62570  0.64354  0.21714  1.0000
  S   S319      1.0  0.74852  0.82995  0.00484  1.0000
  C   C1199     1.0  0.62283  0.60020  0.23322  1.0000
  C   C1200     1.0  0.53014  0.72195  0.18764  1.0000
  H   H1399     1.0  0.86388  0.84112  0.00548  1.0000
  C   C1201     1.0  0.50859  0.76491  0.22666  1.0000
  H   H1400     1.0  0.66471  0.69291  0.21718  1.0000
  H   H1401     1.0  0.74981  0.91912  0.00977  1.0000
  C   C1202     1.0  0.90546  0.75339  0.00497  1.0000
  N   N77       1.0  0.65839  0.97985  0.23730  1.0000
  C   C1203     1.0  0.85894  0.74448  0.00651  1.0000
  H   H1402     1.0  0.52524  0.69054  0.13313  1.0000
  C   C1204     1.0  0.56908  0.72829  0.14028  1.0000
  S   S320      1.0  0.93148  0.74299  0.00857  1.0000
  S   S321      1.0  0.72794  0.97741  0.99992  1.0000
  N   N78       1.0  0.63080  0.85925  0.06447  1.0000
  C   C1205     1.0  0.62933  0.87137  0.07826  1.0000
  C   C1206     1.0  0.65761  0.87281  0.05919  1.0000
  C   C1207     1.0  0.61308  0.86441  0.05421  1.0000
  C   C1208     1.0  0.62286  0.83056  0.06625  1.0000
  C   C1209     1.0  0.59747  0.81485  0.07083  1.0000
  C   C1210     1.0  0.63962  0.81734  0.06343  1.0000
  C   C1211     1.0  0.58923  0.78766  0.07224  1.0000
  C   C1212     1.0  0.63121  0.79013  0.06505  1.0000
  C   C1213     1.0  0.60609  0.77533  0.06941  1.0000
  H   H1403     1.0  0.64149  0.86706  0.08651  1.0000
  H   H1404     1.0  0.63561  0.89306  0.07744  1.0000
  H   H1405     1.0  0.60935  0.86392  0.08239  1.0000
  H   H1406     1.0  0.67210  0.87076  0.06674  1.0000
  H   H1407     1.0  0.66279  0.89430  0.05791  1.0000
  H   H1408     1.0  0.65999  0.86517  0.04862  1.0000
  H   H1409     1.0  0.59302  0.85809  0.05827  1.0000
  H   H1410     1.0  0.61936  0.88571  0.05191  1.0000
  H   H1411     1.0  0.61213  0.85405  0.04400  1.0000
  H   H1412     1.0  0.58380  0.82349  0.07351  1.0000
  H   H1413     1.0  0.65932  0.82751  0.06002  1.0000
  H   H1414     1.0  0.56975  0.77609  0.07579  1.0000
  H   H1415     1.0  0.64421  0.78028  0.06294  1.0000
  H   H1416     1.0  0.59975  0.75425  0.07069  1.0000
  N   N79       1.0  0.56959  0.83575  0.19216  1.0000
  C   C1214     1.0  0.58741  0.86031  0.19909  1.0000
  C   C1215     1.0  0.54279  0.83040  0.19670  1.0000
  C   C1216     1.0  0.57658  0.81408  0.19753  1.0000
  C   C1217     1.0  0.57108  0.83876  0.17655  1.0000
  C   C1218     1.0  0.56657  0.85974  0.16997  1.0000
  C   C1219     1.0  0.57651  0.82109  0.16744  1.0000
  C   C1220     1.0  0.56760  0.86295  0.15527  1.0000
  C   C1221     1.0  0.57765  0.82463  0.15272  1.0000
  C   C1222     1.0  0.57321  0.84548  0.14668  1.0000
  C   C1223     1.0  0.61402  0.61828  0.21147  1.0000
  C   C1224     1.0  0.55466  0.72973  0.19379  1.0000
  S   S322      1.0  0.76077  0.72343  0.99782  1.0000
  C   C1225     1.0  0.81682  0.88841  0.01703  1.0000
  H   H1417     1.0  0.54122  0.82942  0.20844  1.0000
  H   H1418     1.0  0.52887  0.81143  0.19232  1.0000
  H   H1419     1.0  0.59669  0.81701  0.19458  1.0000
  H   H1420     1.0  0.54299  0.75923  0.14582  1.0000
  H   H1421     1.0  0.56291  0.79460  0.19361  1.0000
  H   H1422     1.0  0.56243  0.87407  0.17616  1.0000
  H   H1423     1.0  0.58019  0.80456  0.17141  1.0000
  H   H1424     1.0  0.56527  0.72573  0.12865  1.0000
  H   H1425     1.0  0.58231  0.81140  0.14585  1.0000
  H   H1426     1.0  0.57435  0.84828  0.13530  1.0000
  H   H1427     1.0  0.82399  0.94985  0.00686  1.0000
  C   C1226     1.0  0.90931  0.77739  0.99852  1.0000
  H   H1428     1.0  0.66834  0.96616  0.21765  1.0000
  C   C1227     1.0  0.86285  0.76871  0.00030  1.0000
  H   H1429     1.0  0.62629  0.65965  0.21046  1.0000
  C   C1228     1.0  0.88009  0.73699  0.00888  1.0000
  H   H1430     1.0  0.69345  0.68555  0.99823  1.0000
  H   H1431     1.0  0.62428  0.96297  0.22407  1.0000
  H   H1432     1.0  0.51341  0.71757  0.19440  1.0000
  H   H1433     1.0  0.66252  0.99342  0.01905  1.0000
  H   H1434     1.0  0.70261  0.98094  0.06928  1.0000
  C   C1229     1.0  0.53151  0.73829  0.14315  1.0000
  C   C1230     1.0  0.51054  0.58769  0.13134  1.0000
  H   H1435     1.0  0.61921  0.97566  0.24080  1.0000
  H   H1436     1.0  0.95092  0.68610  0.01840  1.0000
  H   H1437     1.0  0.50868  0.68709  0.14951  1.0000
  H   H1438     1.0  0.62268  0.68980  0.22541  1.0000
  H   H1439     1.0  0.58816  0.85821  0.21084  1.0000
  C   C1231     1.0  0.99252  0.69449  0.07670  1.0000
  C   C1232     1.0  0.57333  0.73218  0.17051  1.0000
  H   H1440     1.0  0.92435  0.69306  0.03561  1.0000
  C   C1233     1.0  0.49737  0.54330  0.12265  1.0000
  Fe  Fe162     1.0  0.52564  0.91287  0.22787  1.0000
  C   C1234     1.0  0.53946  0.56503  0.13400  1.0000
  C   C1235     1.0  0.57617  0.73480  0.18526  1.0000
  H   H1441     1.0  0.52301  0.90790  0.13192  1.0000
  H   H1442     1.0  0.60590  0.61556  0.20082  1.0000
  S   S323      1.0  0.50828  0.71510  0.22556  1.0000
  Fe  Fe163     1.0  0.76903  0.98266  0.99531  1.0000
  C   C1236     1.0  0.52824  0.69356  0.14482  1.0000
  H   H1443     1.0  0.58134  0.87690  0.19734  1.0000
  Fe  Fe164     1.0  0.55175  0.87482  0.23441  1.0000
  C   C1237     1.0  0.93584  0.68920  0.04442  1.0000
  H   H1444     1.0  0.52624  0.60757  0.13211  1.0000
  H   H1445     1.0  0.51945  0.58528  0.10396  1.0000
  H   H1446     1.0  0.60747  0.67881  0.03697  1.0000
  C   C1238     1.0  0.75679  0.86298  0.99895  1.0000
  Fe  Fe165     1.0  0.97402  0.75746  0.00148  1.0000
  H   H1447     1.0  0.96936  0.71333  0.06778  1.0000
  C   C1239     1.0  0.60546  0.67013  0.99614  1.0000
  C   C1240     1.0  0.54855  0.72427  0.16388  1.0000
  H   H1448     1.0  0.56685  0.67044  0.02373  1.0000
  N   N80       1.0  0.51964  0.56863  0.12465  1.0000
  C   C1241     1.0  0.62926  0.67517  0.00339  1.0000
  H   H1449     1.0  0.59078  0.73585  0.16461  1.0000
  H   H1450     1.0  0.93434  0.70130  0.05347  1.0000
  C   C1242     1.0  0.67033  0.69078  0.22833  1.0000
  C   C1243     1.0  0.81462  0.91272  0.01724  1.0000
  H   H1451     1.0  0.49762  0.54130  0.09934  1.0000
  C   C1244     1.0  0.62926  0.67800  0.01838  1.0000
  N   N81       1.0  0.96307  0.69550  0.04024  1.0000
  H   H1452     1.0  0.73880  0.87278  0.01690  1.0000
  H   H1453     1.0  0.51180  0.73273  0.14753  1.0000
  C   C1245     1.0  0.54844  0.76117  0.23397  1.0000
  H   H1454     1.0  0.58224  0.74915  0.14198  1.0000
  N   N82       1.0  0.64772  0.67488  0.23697  1.0000
  C   C1246     1.0  0.58404  0.67170  0.01807  1.0000
  H   H1455     1.0  0.92862  0.79035  0.99548  1.0000
  H   H1456     1.0  0.57948  0.71542  0.14311  1.0000
  H   H1457     1.0  0.53740  0.68013  0.14872  1.0000
  C   C1247     1.0  0.86160  0.86029  0.00532  1.0000
  H   H1458     1.0  0.82476  0.82026  0.01716  1.0000
  H   H1459     1.0  0.83968  0.73173  0.00975  1.0000
  H   H1460     1.0  0.60748  0.86642  0.19505  1.0000
  Fe  Fe166     1.0  0.52881  0.68690  0.22767  1.0000
  C   C1248     1.0  0.97744  0.68893  0.05189  1.0000
  H   H1461     1.0  0.96534  0.72968  0.02840  1.0000
  H   H1462     1.0  0.87674  0.71840  0.01391  1.0000
  C   C1249     1.0  0.83148  0.88224  0.00645  1.0000
  H   H1463     1.0  0.55689  0.58364  0.13528  1.0000
  H   H1464     1.0  0.61054  0.67478  0.24212  1.0000
  S   S324      1.0  0.59064  0.90815  0.23471  1.0000
  H   H1465     1.0  0.54960  0.59911  0.11311  1.0000
  C   C1250     1.0  0.51952  0.79212  0.22941  1.0000
  C   C1251     1.0  0.63454  0.62540  0.23900  1.0000
  S   S325      1.0  0.83724  0.78009  0.99764  1.0000
  Fe  Fe167     1.0  0.75329  0.79125  0.99966  1.0000
  C   C1252     1.0  0.61251  0.59663  0.21952  1.0000
  H   H1466     1.0  0.95339  0.65959  0.02836  1.0000
  C   C1253     1.0  0.97549  0.72392  0.03718  1.0000
  C   C1254     1.0  0.54497  0.80394  0.23453  1.0000
  C   C1255     1.0  0.67604  0.68363  0.00447  1.0000
  H   H1467     1.0  0.53229  0.55878  0.14486  1.0000
  C   C1256     1.0  0.75560  0.90638  0.00321  1.0000
  Fe  Fe168     1.0  0.79252  0.76404  0.99924  1.0000
  H   H1468     1.0  0.68065  0.70283  0.00984  1.0000
  N   N83       1.0  0.54465  0.72124  0.14832  1.0000
  H   H1469     1.0  0.87242  0.87197  0.01461  1.0000
  C   C1257     1.0  0.82656  0.93140  0.00693  1.0000
  H   H1470     1.0  0.64216  0.63502  0.99703  1.0000
  C   C1258     1.0  0.52294  0.74928  0.22899  1.0000
  S   S326      1.0  0.71875  0.75261  0.99791  1.0000
  H   H1471     1.0  0.50268  0.90232  0.11649  1.0000
  H   H1472     1.0  0.50815  0.80382  0.22777  1.0000
  H   H1473     1.0  0.87135  0.87035  0.99555  1.0000
  S   S327      1.0  0.98355  0.72276  0.99564  1.0000
  S   S328      1.0  0.50652  0.59990  0.07691  1.0000
  S   S329      1.0  0.51780  0.65265  0.24277  1.0000
  H   H1474     1.0  0.55685  0.73123  0.20524  1.0000
  N   N84       1.0  0.83390  0.85655  0.00571  1.0000
  H   H1475     1.0  0.68014  0.71102  0.23264  1.0000
  H   H1476     1.0  0.80625  0.87458  0.02506  1.0000
  H   H1477     1.0  0.50753  0.71256  0.16871  1.0000
  H   H1478     1.0  0.57899  0.79724  0.24078  1.0000
  C   C1259     1.0  0.52702  0.71913  0.17292  1.0000
  H   H1479     1.0  0.68483  0.68162  0.22799  1.0000
  H   H1480     1.0  0.60329  0.57704  0.21513  1.0000
  C   C1260     1.0  0.84331  0.90173  0.99607  1.0000
  H   H1481     1.0  0.54006  0.56716  0.10555  1.0000
  H   H1482     1.0  0.64620  0.68147  0.02491  1.0000
  H   H1483     1.0  0.64661  0.93781  0.23577  1.0000
  H   H1484     1.0  0.66850  0.89837  0.99813  1.0000
  H   H1485     1.0  0.49582  0.87877  0.18473  1.0000
  H   H1486     1.0  0.49683  0.95355  0.17245  1.0000
  H   H1487     1.0  0.50351  0.58200  0.14228  1.0000
  C   C1261     1.0  0.88820  0.78498  0.99627  1.0000
  H   H1488     1.0  0.52879  0.73702  0.13145  1.0000
  N   N85       1.0  0.65243  0.67658  0.99545  1.0000
  C   C1262     1.0  0.55932  0.78831  0.23677  1.0000
  H   H1489     1.0  0.62163  0.58332  0.23948  1.0000
  H   H1490     1.0  0.80281  0.91678  0.02517  1.0000
  C   C1263     1.0  0.99117  0.67232  0.04997  1.0000
  H   H1491     1.0  0.83092  0.84845  0.02815  1.0000
  H   H1492     1.0  0.50710  0.92946  0.12787  1.0000
  C   C1264     1.0  0.58325  0.66849  0.00340  1.0000
  H   H1493     1.0  0.80077  0.83389  0.01827  1.0000
  C   C1265     1.0  0.63313  0.97901  0.23197  1.0000
  H   H1494     1.0  0.56528  0.66465  0.99766  1.0000
  C   C1266     1.0  0.67582  0.98326  0.22505  1.0000
  C   C1267     1.0  0.49639  0.91688  0.18010  1.0000
  H   H1495     1.0  0.99235  0.66385  0.03984  1.0000
  H   H1496     1.0  0.63581  0.70684  0.24150  1.0000
  C   C1268     1.0  0.84083  0.92591  0.99634  1.0000
  S   S330      1.0  0.56033  0.83813  0.23789  1.0000
  H   H1497     1.0  0.55966  0.74941  0.23590  1.0000
  H   H1498     1.0  0.68892  0.86626  0.99537  1.0000
  H   H1499     1.0  0.49731  0.86093  0.13681  1.0000
  H   H1500     1.0  0.50024  0.92353  0.19103  1.0000
  C   C1269     1.0  0.65395  0.95394  0.24373  1.0000
  H   H1501     1.0  0.99373  0.70356  0.08701  1.0000
  H   H1502     1.0  0.78438  0.50977  0.32528  1.0000
  C   C1270     1.0  0.98556  0.62261  0.27762  1.0000
  S   S331      1.0  0.96940  0.74670  0.46388  1.0000
  C   C1271     1.0  0.97596  0.66444  0.41411  1.0000
  S   S332      1.0  0.57895  0.66167  0.26645  1.0000
  C   C1272     1.0  0.92334  0.74632  0.36404  1.0000
  C   C1273     1.0  0.76636  0.86300  0.48959  1.0000
  H   H1503     1.0  0.49884  0.52669  0.30703  1.0000
  S   S333      1.0  0.59321  0.95174  0.26788  1.0000
  C   C1274     1.0  0.50896  0.54569  0.30223  1.0000
  C   C1275     1.0  0.93949  0.68798  0.43755  1.0000
  C   C1276     1.0  0.76141  0.87143  0.47627  1.0000
  Fe  Fe169     1.0  0.61661  0.54213  0.34070  1.0000
  S   S334      1.0  0.64151  0.54153  0.32218  1.0000
  Fe  Fe170     1.0  0.65144  0.60106  0.34712  1.0000
  S   S335      1.0  0.67735  0.60407  0.32851  1.0000
  S   S336      1.0  0.65544  0.63647  0.36115  1.0000
  Fe  Fe171     1.0  0.64039  0.58089  0.31635  1.0000
  S   S337      1.0  0.62971  0.58611  0.29323  1.0000
  Fe  Fe172     1.0  0.67660  0.56490  0.33580  1.0000
  S   S338      1.0  0.71369  0.55795  0.34171  1.0000
  S   S339      1.0  0.61459  0.58068  0.33436  1.0000
  S   S340      1.0  0.65158  0.56277  0.35491  1.0000
  Fe  Fe173     1.0  0.86573  0.57964  0.32643  1.0000
  S   S341      1.0  0.87463  0.57107  0.34865  1.0000
  S   S342      1.0  0.82578  0.57470  0.31727  1.0000
  Fe  Fe174     1.0  0.92330  0.59564  0.31757  1.0000
  S   S343      1.0  0.93533  0.58841  0.33958  1.0000
  S   S344      1.0  0.94845  0.60019  0.29784  1.0000
  Fe  Fe175     1.0  0.89907  0.55133  0.33894  1.0000
  Fe  Fe176     1.0  0.90996  0.60894  0.34732  1.0000
  S   S345      1.0  0.91280  0.63539  0.36657  1.0000
  S   S346      1.0  0.88805  0.55755  0.31680  1.0000
  S   S347      1.0  0.89997  0.61842  0.32528  1.0000
  Fe  Fe177     1.0  0.96739  0.79659  0.41991  1.0000
  S   S348      1.0  0.93522  0.80660  0.41031  1.0000
  S   S349      1.0  0.95995  0.75444  0.42396  1.0000
  H   H1504     1.0  0.95498  0.80721  0.37952  1.0000
  C   C1277     1.0  0.73653  0.82669  0.46934  1.0000
  S   S350      1.0  0.80413  0.95338  0.44145  1.0000
  H   H1505     1.0  0.73274  0.79726  0.48452  1.0000
  H   H1506     1.0  0.54607  0.61388  0.28572  1.0000
  H   H1507     1.0  0.64510  0.97855  0.43454  1.0000
  Fe  Fe178     1.0  0.74179  0.75905  0.44994  1.0000
  S   S351      1.0  0.77605  0.79743  0.44896  1.0000
  S   S352      1.0  0.71346  0.74805  0.46817  1.0000
  Fe  Fe179     1.0  0.75115  0.74090  0.42033  1.0000
  S   S353      1.0  0.78640  0.77828  0.41703  1.0000
  S   S354      1.0  0.74179  0.70415  0.40638  1.0000
  Fe  Fe180     1.0  0.79674  0.77365  0.43963  1.0000
  S   S355      1.0  0.83594  0.77886  0.44859  1.0000
  Fe  Fe181     1.0  0.76320  0.79958  0.42659  1.0000
  S   S356      1.0  0.76127  0.83656  0.41689  1.0000
  S   S357      1.0  0.76339  0.73507  0.44251  1.0000
  S   S358      1.0  0.72704  0.76263  0.42803  1.0000
  C   C1278     1.0  0.79041  0.92058  0.43503  1.0000
  C   C1279     1.0  0.77532  0.91384  0.42265  1.0000
  C   C1280     1.0  0.76628  0.88796  0.41738  1.0000
  C   C1281     1.0  0.77178  0.86839  0.42453  1.0000
  C   C1282     1.0  0.78630  0.87494  0.43713  1.0000
  C   C1283     1.0  0.79578  0.90096  0.44226  1.0000
  H   H1508     1.0  0.77110  0.92870  0.41694  1.0000
  H   H1509     1.0  0.75507  0.88312  0.40763  1.0000
  H   H1510     1.0  0.79059  0.86007  0.44278  1.0000
  H   H1511     1.0  0.80749  0.90597  0.45183  1.0000
  H   H1512     1.0  0.56506  0.59919  0.30564  1.0000
  S   S359      1.0  0.74960  0.98044  0.43097  1.0000
  C   C1284     1.0  0.93793  0.75724  0.38815  1.0000
  H   H1513     1.0  0.75981  0.94580  0.49051  1.0000
  C   C1285     1.0  0.54618  0.58653  0.30150  1.0000
  C   C1286     1.0  0.90692  0.79668  0.42055  1.0000
  C   C1287     1.0  0.88417  0.79774  0.41477  1.0000
  C   C1288     1.0  0.86186  0.79129  0.42310  1.0000
  C   C1289     1.0  0.86237  0.78413  0.43730  1.0000
  C   C1290     1.0  0.88500  0.78266  0.44296  1.0000
  C   C1291     1.0  0.90714  0.78867  0.43459  1.0000
  H   H1514     1.0  0.88391  0.80395  0.40393  1.0000
  H   H1515     1.0  0.84454  0.79249  0.41867  1.0000
  H   H1516     1.0  0.88553  0.77716  0.45394  1.0000
  H   H1517     1.0  0.92457  0.78779  0.43915  1.0000
  C   C1292     1.0  0.65666  0.67603  0.25194  1.0000
  C   C1293     1.0  0.53517  0.59473  0.29006  1.0000
  C   C1294     1.0  0.93785  0.66305  0.37440  1.0000
  C   C1295     1.0  0.93228  0.67424  0.38667  1.0000
  C   C1296     1.0  0.95131  0.69628  0.39328  1.0000
  H   H1518     1.0  0.84441  0.50350  0.31207  1.0000
  H   H1519     1.0  0.90919  0.68338  0.35234  1.0000
  C   C1297     1.0  0.96278  0.67426  0.36879  1.0000
  H   H1520     1.0  0.91313  0.66567  0.39116  1.0000
  H   H1521     1.0  0.94675  0.70438  0.40277  1.0000
  H   H1522     1.0  0.67207  0.66816  0.25314  1.0000
  H   H1523     1.0  0.94057  0.71739  0.36691  1.0000
  C   C1298     1.0  0.68009  0.65554  0.37336  1.0000
  C   C1299     1.0  0.70044  0.64834  0.37746  1.0000
  C   C1300     1.0  0.71910  0.66353  0.38750  1.0000
  C   C1301     1.0  0.71773  0.68616  0.39360  1.0000
  C   C1302     1.0  0.69737  0.69340  0.38952  1.0000
  C   C1303     1.0  0.67868  0.67814  0.37949  1.0000
  H   H1524     1.0  0.70133  0.63069  0.37313  1.0000
  H   H1525     1.0  0.73450  0.65750  0.39073  1.0000
  H   H1526     1.0  0.69600  0.71074  0.39404  1.0000
  H   H1527     1.0  0.66295  0.68385  0.37646  1.0000
  C   C1304     1.0  0.74461  0.56241  0.33455  1.0000
  C   C1305     1.0  0.75110  0.56941  0.32042  1.0000
  C   C1306     1.0  0.77593  0.57301  0.31538  1.0000
  C   C1307     1.0  0.79487  0.57016  0.32440  1.0000
  C   C1308     1.0  0.78850  0.56342  0.33857  1.0000
  C   C1309     1.0  0.76351  0.55936  0.34355  1.0000
  H   H1528     1.0  0.73689  0.57179  0.31332  1.0000
  H   H1529     1.0  0.78051  0.57813  0.30438  1.0000
  H   H1530     1.0  0.80275  0.56126  0.34571  1.0000
  H   H1531     1.0  0.75882  0.55397  0.35450  1.0000
  H   H1532     1.0  0.95415  0.52265  0.28055  1.0000
  C   C1310     1.0  0.97083  0.64644  0.40295  1.0000
  Fe  Fe182     1.0  0.57329  0.93152  0.24723  1.0000
  N   N86       1.0  0.96192  0.68007  0.43678  1.0000
  H   H1533     1.0  0.92041  0.63329  0.43272  1.0000
  H   H1534     1.0  0.68274  0.97489  0.42227  1.0000
  C   C1311     1.0  0.59285  0.64029  0.27365  1.0000
  C   C1312     1.0  0.60347  0.64503  0.28745  1.0000
  C   C1313     1.0  0.61443  0.62847  0.29370  1.0000
  C   C1314     1.0  0.61501  0.60695  0.28618  1.0000
  C   C1315     1.0  0.60435  0.60220  0.27238  1.0000
  C   C1316     1.0  0.59322  0.61866  0.26616  1.0000
  H   H1535     1.0  0.60321  0.66162  0.29340  1.0000
  H   H1536     1.0  0.62263  0.63248  0.30430  1.0000
  H   H1537     1.0  0.60466  0.58560  0.26648  1.0000
  H   H1538     1.0  0.58505  0.61462  0.25557  1.0000
  C   C1317     1.0  0.93992  0.79234  0.37277  1.0000
  H   H1539     1.0  0.95219  0.77144  0.39545  1.0000
  H   H1540     1.0  0.53623  0.60650  0.26131  1.0000
  C   C1318     1.0  0.53946  0.50066  0.30645  1.0000
  C   C1319     1.0  0.93486  0.63766  0.42457  1.0000
  C   C1320     1.0  0.82435  0.50284  0.31276  1.0000
  C   C1321     1.0  0.80827  0.96198  0.48017  1.0000
  C   C1322     1.0  0.82719  0.51201  0.33764  1.0000
  C   C1323     1.0  0.54049  0.98718  0.27277  1.0000
  H   H1541     1.0  0.79656  0.94079  0.47835  1.0000
  N   N87       1.0  0.49971  0.58770  0.27205  1.0000
  C   C1324     1.0  0.74657  0.85331  0.46618  1.0000
  S   S360      1.0  0.98847  0.81064  0.44051  1.0000
  H   H1542     1.0  0.72502  0.81251  0.46147  1.0000
  H   H1543     1.0  0.86789  0.73290  0.34413  1.0000
  H   H1544     1.0  0.96739  0.66592  0.35936  1.0000
  H   H1545     1.0  0.66692  0.99106  0.44938  1.0000
  C   C1325     1.0  0.67307  0.99845  0.26208  1.0000
  C   C1326     1.0  0.98182  0.69635  0.37541  1.0000
  C   C1327     1.0  0.72297  0.74321  0.48555  1.0000
  H   H1546     1.0  0.51801  0.62948  0.27643  1.0000
  H   H1547     1.0  0.87276  0.69072  0.34080  1.0000
  C   C1328     1.0  0.98604  0.75855  0.48005  1.0000
  C   C1329     1.0  0.51661  0.59092  0.25960  1.0000
  H   H1548     1.0  0.92117  0.79132  0.37714  1.0000
  C   C1330     1.0  0.88402  0.72988  0.34911  1.0000
  Fe  Fe183     1.0  0.79088  0.98644  0.43550  1.0000
  S   S361      1.0  0.89982  0.51284  0.34763  1.0000
  C   C1331     1.0  0.98557  0.70434  0.43504  1.0000
  H   H1549     1.0  0.91188  0.60273  0.41283  1.0000
  H   H1550     1.0  0.98778  0.71871  0.44372  1.0000
  H   H1551     1.0  0.49605  0.92134  0.26163  1.0000
  S   S362      1.0  0.57744  0.51045  0.34809  1.0000
  C   C1332     1.0  0.69516  0.99408  0.42707  1.0000
  H   H1552     1.0  0.64034  0.66489  0.25907  1.0000
  H   H1553     1.0  0.81899  0.50603  0.34838  1.0000
  H   H1554     1.0  0.93996  0.73830  0.38953  1.0000
  H   H1555     1.0  0.76904  0.89210  0.47367  1.0000
  S   S363      1.0  0.53476  0.89718  0.24844  1.0000
  H   H1556     1.0  0.95199  0.73984  0.49270  1.0000
  C   C1333     1.0  0.60962  0.98418  0.27471  1.0000
  H   H1557     1.0  0.61456  0.97008  0.29541  1.0000
  C   C1334     1.0  0.94840  0.52317  0.30294  1.0000
  H   H1558     1.0  0.94217  0.80014  0.36178  1.0000
  H   H1559     1.0  0.53496  0.50693  0.32851  1.0000
  C   C1335     1.0  0.53309  0.56210  0.30760  1.0000
  N   N88       1.0  0.76469  0.63678  0.35439  1.0000
  C   C1336     1.0  0.74868  0.61496  0.36366  1.0000
  C   C1337     1.0  0.76510  0.66186  0.36021  1.0000
  C   C1338     1.0  0.75172  0.63293  0.34026  1.0000
  C   C1339     1.0  0.79131  0.63727  0.35393  1.0000
  C   C1340     1.0  0.80698  0.64283  0.36640  1.0000
  C   C1341     1.0  0.80197  0.63105  0.34151  1.0000
  C   C1342     1.0  0.83182  0.64248  0.36638  1.0000
  C   C1343     1.0  0.82682  0.63073  0.34163  1.0000
  C   C1344     1.0  0.84168  0.63633  0.35403  1.0000
  H   H1560     1.0  0.74994  0.59618  0.36041  1.0000
  H   H1561     1.0  0.75478  0.61838  0.37497  1.0000
  H   H1562     1.0  0.72780  0.61165  0.36307  1.0000
  H   H1563     1.0  0.77123  0.66492  0.37153  1.0000
  H   H1564     1.0  0.74554  0.66267  0.35981  1.0000
  H   H1565     1.0  0.77842  0.67890  0.35411  1.0000
  H   H1566     1.0  0.74847  0.61339  0.33571  1.0000
  H   H1567     1.0  0.73209  0.63346  0.34090  1.0000
  H   H1568     1.0  0.76304  0.64838  0.33265  1.0000
  H   H1569     1.0  0.79991  0.64695  0.37634  1.0000
  H   H1570     1.0  0.79129  0.62564  0.33163  1.0000
  H   H1571     1.0  0.83432  0.62536  0.33210  1.0000
  H   H1572     1.0  0.86072  0.63550  0.35413  1.0000
  N   N89       1.0  0.85223  0.86990  0.41588  1.0000
  C   C1345     1.0  0.86000  0.87960  0.40126  1.0000
  C   C1346     1.0  0.82810  0.84595  0.41470  1.0000
  C   C1347     1.0  0.84655  0.89038  0.42355  1.0000
  C   C1348     1.0  0.87219  0.86387  0.42380  1.0000
  C   C1349     1.0  0.89687  0.86798  0.41809  1.0000
  C   C1350     1.0  0.86712  0.85336  0.43770  1.0000
  C   C1351     1.0  0.91508  0.86172  0.42587  1.0000
  C   C1352     1.0  0.88550  0.84727  0.44537  1.0000
  C   C1353     1.0  0.90941  0.85142  0.43946  1.0000
  H   H1573     1.0  0.86387  0.86475  0.39477  1.0000
  H   H1574     1.0  0.84443  0.88377  0.39563  1.0000
  H   H1575     1.0  0.87745  0.89827  0.40131  1.0000
  H   H1576     1.0  0.83198  0.82941  0.41002  1.0000
  H   H1577     1.0  0.81322  0.84915  0.40790  1.0000
  H   H1578     1.0  0.81868  0.83932  0.42510  1.0000
  H   H1579     1.0  0.83134  0.89527  0.41799  1.0000
  H   H1580     1.0  0.83928  0.88408  0.43440  1.0000
  H   H1581     1.0  0.86417  0.90877  0.42465  1.0000
  H   H1582     1.0  0.90249  0.87549  0.40756  1.0000
  H   H1583     1.0  0.84861  0.84909  0.44264  1.0000
  H   H1584     1.0  0.93342  0.86400  0.42117  1.0000
  H   H1585     1.0  0.88072  0.83815  0.45571  1.0000
  H   H1586     1.0  0.92324  0.84574  0.44523  1.0000
  N   N90       1.0  0.67855  0.67228  0.43549  1.0000
  C   C1354     1.0  0.68255  0.69909  0.43072  1.0000
  C   C1355     1.0  0.65939  0.66470  0.44708  1.0000
  C   C1356     1.0  0.70360  0.67351  0.44152  1.0000
  C   C1357     1.0  0.66874  0.65356  0.42352  1.0000
  C   C1358     1.0  0.68152  0.63739  0.41876  1.0000
  C   C1359     1.0  0.64552  0.65100  0.41627  1.0000
  C   C1360     1.0  0.67157  0.61988  0.40745  1.0000
  C   C1361     1.0  0.63601  0.63374  0.40483  1.0000
  C   C1362     1.0  0.64899  0.61820  0.40044  1.0000
  H   H1587     1.0  0.66438  0.70082  0.42713  1.0000
  H   H1588     1.0  0.69053  0.71371  0.43943  1.0000
  H   H1589     1.0  0.69630  0.70515  0.42170  1.0000
  H   H1590     1.0  0.64066  0.66556  0.44376  1.0000
  H   H1591     1.0  0.66646  0.67805  0.45642  1.0000
  H   H1592     1.0  0.65531  0.64435  0.45073  1.0000
  H   H1593     1.0  0.71908  0.67971  0.43337  1.0000
  H   H1594     1.0  0.71064  0.68811  0.45032  1.0000
  H   H1595     1.0  0.70192  0.65432  0.44600  1.0000
  H   H1596     1.0  0.69955  0.63828  0.42335  1.0000
  H   H1597     1.0  0.63472  0.66260  0.41924  1.0000
  H   H1598     1.0  0.68187  0.60815  0.40375  1.0000
  H   H1599     1.0  0.61876  0.63270  0.39911  1.0000
  H   H1600     1.0  0.64193  0.60538  0.39131  1.0000
  C   C1363     1.0  0.74449  0.73690  0.48811  1.0000
  C   C1364     1.0  0.95779  0.66085  0.42515  1.0000
  H   H1601     1.0  0.98497  0.65061  0.30956  1.0000
  H   H1602     1.0  0.89854  0.76753  0.35860  1.0000
  C   C1365     1.0  0.90723  0.70201  0.35368  1.0000
  C   C1366     1.0  0.92986  0.61991  0.41330  1.0000
  H   H1603     1.0  0.66683  0.97931  0.26691  1.0000
  H   H1604     1.0  0.98089  0.66161  0.45032  1.0000
  H   H1605     1.0  0.82914  0.96531  0.48085  1.0000
  H   H1606     1.0  0.74278  0.85986  0.45586  1.0000
  C   C1367     1.0  0.94770  0.62443  0.40245  1.0000
  H   H1607     1.0  0.84339  0.64652  0.37605  1.0000
  H   H1608     1.0  0.98373  0.78730  0.37548  1.0000
  H   H1609     1.0  0.94343  0.61109  0.39348  1.0000
  C   C1368     1.0  0.96440  0.66806  0.45048  1.0000
  H   H1610     1.0  0.98755  0.58276  0.31512  1.0000
  C   C1369     1.0  0.97675  0.62568  0.29116  1.0000
  C   C1370     1.0  0.96917  0.77081  0.36938  1.0000
  C   C1371     1.0  0.49785  0.55359  0.29070  1.0000
  H   H1611     1.0  0.97414  0.75364  0.37178  1.0000
  H   H1612     1.0  0.98496  0.71438  0.42489  1.0000
  H   H1613     1.0  0.82630  0.53145  0.33551  1.0000
  H   H1614     1.0  0.94682  0.54212  0.30277  1.0000
  H   H1615     1.0  0.93565  0.69524  0.42714  1.0000
  C   C1372     1.0  0.97257  0.75157  0.49287  1.0000
  H   H1616     1.0  0.82537  0.52313  0.31095  1.0000
  H   H1617     1.0  0.97249  0.77529  0.35790  1.0000
  C   C1373     1.0  0.97621  0.70758  0.38765  1.0000
  C   C1374     1.0  0.51067  0.57857  0.28430  1.0000
  H   H1618     1.0  0.91826  0.75465  0.39183  1.0000
  C   C1375     1.0  0.74127  0.81809  0.48259  1.0000
  H   H1619     1.0  0.94282  0.70394  0.44546  1.0000
  H   H1620     1.0  0.92141  0.67172  0.44086  1.0000
  H   H1621     1.0  0.76845  0.97589  0.48079  1.0000
  C   C1376     1.0  0.92526  0.72174  0.36198  1.0000
  C   C1377     1.0  0.90195  0.74975  0.35743  1.0000
  H   H1622     1.0  0.54178  0.55593  0.31649  1.0000
  C   C1378     1.0  0.88668  0.70609  0.34723  1.0000
  H   H1623     1.0  0.70300  0.98949  0.43716  1.0000
  C   C1379     1.0  0.65931  0.99677  0.43950  1.0000
  C   C1380     1.0  0.99140  0.64793  0.29913  1.0000
  H   H1624     1.0  0.75572  0.73473  0.47930  1.0000
  H   H1625     1.0  0.66490  0.69648  0.25610  1.0000
  N   N91       1.0  0.94220  0.76648  0.37332  1.0000
  H   H1626     1.0  0.99392  0.68147  0.41350  1.0000
  C   C1381     1.0  0.94578  0.50961  0.31565  1.0000
  N   N92       1.0  0.79975  0.97209  0.49292  1.0000
  H   H1627     1.0  0.94191  0.51800  0.32533  1.0000
  H   H1628     1.0  0.98447  0.65011  0.39435  1.0000
  H   H1629     1.0  0.94665  0.65067  0.45305  1.0000
  H   H1630     1.0  0.80590  0.97202  0.47033  1.0000
  H   H1631     1.0  0.96782  0.68223  0.45944  1.0000
  H   H1632     1.0  0.97433  0.60560  0.27130  1.0000
  Fe  Fe184     1.0  0.98443  0.76914  0.44361  1.0000
  H   H1633     1.0  0.63906  0.94884  0.25220  1.0000
  H   H1634     1.0  0.55925  0.51506  0.30619  1.0000
  H   H1635     1.0  0.55951  0.96982  0.28690  1.0000
  H   H1636     1.0  0.50840  0.59647  0.24993  1.0000
  H   H1637     1.0  0.84808  0.51518  0.33792  1.0000
  H   H1638     1.0  0.51915  0.57241  0.25715  1.0000
  C   C1382     1.0  0.95249  0.51210  0.29042  1.0000
  H   H1639     1.0  0.53425  0.97065  0.26552  1.0000
  H   H1640     1.0  0.68336  0.99571  0.40117  1.0000
  C   C1383     1.0  0.61818  0.98729  0.28894  1.0000
  C   C1384     1.0  0.49847  0.61340  0.27540  1.0000
  H   H1641     1.0  0.67214  0.95346  0.24829  1.0000
  H   H1642     1.0  0.96259  0.52305  0.24942  1.0000
  C   C1385     1.0  0.98236  0.52646  0.24664  1.0000
  C   C1386     1.0  0.55481  0.98677  0.28482  1.0000
  C   C1387     1.0  0.77199  0.96716  0.49086  1.0000
  C   C1388     1.0  0.75657  0.83587  0.49310  1.0000
  H   H1643     1.0  0.64193  0.62663  0.24971  1.0000
  Fe  Fe185     1.0  0.56056  0.66167  0.24466  1.0000
  H   H1644     1.0  0.69423  0.53643  0.72137  1.0000
  S   S364      1.0  0.79264  0.95397  0.57903  1.0000
  S   S365      1.0  0.74351  0.97864  0.55933  1.0000
  H   H1645     1.0  0.73503  0.65934  0.74073  1.0000
  H   H1646     1.0  0.81314  0.67762  0.54132  1.0000
  Fe  Fe186     1.0  0.96025  0.78404  0.55739  1.0000
  S   S366      1.0  0.92213  0.78563  0.54962  1.0000
  S   S367      1.0  0.97313  0.75113  0.55246  1.0000
  Fe  Fe187     1.0  0.75208  0.80838  0.55866  1.0000
  S   S368      1.0  0.71689  0.77076  0.55725  1.0000
  S   S369      1.0  0.74787  0.84340  0.54834  1.0000
  Fe  Fe188     1.0  0.78549  0.78219  0.57255  1.0000
  S   S370      1.0  0.75243  0.74270  0.57237  1.0000
  S   S371      1.0  0.82387  0.78594  0.58280  1.0000
  Fe  Fe189     1.0  0.74516  0.75357  0.55005  1.0000
  S   S372      1.0  0.74448  0.72819  0.53098  1.0000
  Fe  Fe190     1.0  0.72702  0.76340  0.57970  1.0000
  S   S373      1.0  0.70141  0.75729  0.59948  1.0000
  S   S374      1.0  0.77963  0.79174  0.55001  1.0000
  S   S375      1.0  0.76091  0.80252  0.58130  1.0000
  N   N93       1.0  0.91830  0.66357  0.73406  1.0000
  H   H1647     1.0  0.50586  0.95152  0.71173  1.0000
  H   H1648     1.0  0.71534  0.88390  0.57514  1.0000
  S   S376      1.0  0.64538  0.57878  0.73098  1.0000
  Fe  Fe191     1.0  0.54113  0.91687  0.66159  1.0000
  S   S377      1.0  0.54513  0.89995  0.68276  1.0000
  Fe  Fe192     1.0  0.60012  0.93605  0.65556  1.0000
  S   S378      1.0  0.60685  0.92070  0.67669  1.0000
  S   S379      1.0  0.63925  0.96004  0.64520  1.0000
  Fe  Fe193     1.0  0.57168  0.88404  0.67166  1.0000
  S   S380      1.0  0.57975  0.84759  0.67819  1.0000
  Fe  Fe194     1.0  0.58013  0.93757  0.68600  1.0000
  S   S381      1.0  0.58321  0.95924  0.70705  1.0000
  S   S382      1.0  0.56586  0.89879  0.64999  1.0000
  S   S383      1.0  0.57526  0.95513  0.66537  1.0000
  Fe  Fe195     1.0  0.58566  0.66521  0.65126  1.0000
  S   S384      1.0  0.59860  0.69756  0.66752  1.0000
  S   S385      1.0  0.60590  0.66707  0.62996  1.0000
  Fe  Fe196     1.0  0.53601  0.63130  0.66815  1.0000
  S   S386      1.0  0.54641  0.66248  0.68512  1.0000
  Fe  Fe197     1.0  0.55680  0.69274  0.66778  1.0000
  S   S387      1.0  0.53936  0.72393  0.66481  1.0000
  Fe  Fe198     1.0  0.58717  0.66436  0.68353  1.0000
  S   S388      1.0  0.60874  0.66541  0.70444  1.0000
  S   S389      1.0  0.54404  0.66143  0.65077  1.0000
  S   S390      1.0  0.57671  0.63221  0.66728  1.0000
  C   C1389     1.0  0.56855  0.81343  0.67381  1.0000
  C   C1390     1.0  0.58240  0.79876  0.67905  1.0000
  C   C1391     1.0  0.57402  0.77156  0.67631  1.0000
  C   C1392     1.0  0.55137  0.75844  0.66841  1.0000
  C   C1393     1.0  0.53757  0.77312  0.66310  1.0000
  C   C1394     1.0  0.54614  0.80040  0.66569  1.0000
  H   H1649     1.0  0.59973  0.80848  0.68536  1.0000
  H   H1650     1.0  0.58487  0.76069  0.68055  1.0000
  H   H1651     1.0  0.52001  0.76332  0.65699  1.0000
  H   H1652     1.0  0.53514  0.81123  0.66161  1.0000
  C   C1395     1.0  0.63581  0.60346  0.72384  1.0000
  C   C1396     1.0  0.63682  0.62519  0.73175  1.0000
  C   C1397     1.0  0.62883  0.64412  0.72559  1.0000
  C   C1398     1.0  0.61970  0.64158  0.71148  1.0000
  C   C1399     1.0  0.61898  0.61998  0.70353  1.0000
  C   C1400     1.0  0.62694  0.60106  0.70969  1.0000
  C   C1401     1.0  0.55684  0.52365  0.73058  1.0000
  H   H1653     1.0  0.62954  0.66077  0.73183  1.0000
  H   H1654     1.0  0.61229  0.61789  0.69263  1.0000
  H   H1655     1.0  0.62616  0.58438  0.70345  1.0000
  H   H1656     1.0  0.91000  0.69877  0.71476  1.0000
  C   C1402     1.0  0.83613  0.71538  0.56101  1.0000
  H   H1657     1.0  0.71597  0.81662  0.59681  1.0000
  C   C1403     1.0  0.80319  0.95990  0.50636  1.0000
  H   H1658     1.0  0.58707  0.99237  0.73106  1.0000
  H   H1659     1.0  0.68907  0.59606  0.70284  1.0000
  H   H1660     1.0  0.55217  0.50271  0.73098  1.0000
  C   C1404     1.0  0.71516  0.84937  0.58477  1.0000
  H   H1661     1.0  0.58265  0.78481  0.63279  1.0000
  C   C1405     1.0  0.71503  0.87459  0.58523  1.0000
  H   H1662     1.0  0.71592  0.83733  0.61995  1.0000
  C   C1406     1.0  0.98557  0.75973  0.50595  1.0000
  H   H1663     1.0  0.58763  0.90947  0.70727  1.0000
  H   H1664     1.0  0.99148  0.85286  0.59205  1.0000
  C   C1407     1.0  0.67600  0.73106  0.60807  1.0000
  C   C1408     1.0  0.66193  0.70709  0.60137  1.0000
  C   C1409     1.0  0.64080  0.68774  0.60828  1.0000
  C   C1410     1.0  0.63350  0.69186  0.62203  1.0000
  C   C1411     1.0  0.64784  0.71566  0.62883  1.0000
  C   C1412     1.0  0.66876  0.73513  0.62185  1.0000
  H   H1665     1.0  0.66705  0.70359  0.59077  1.0000
  H   H1666     1.0  0.62995  0.66944  0.60289  1.0000
  H   H1667     1.0  0.64282  0.71904  0.63945  1.0000
  H   H1668     1.0  0.67940  0.75356  0.62716  1.0000
  C   C1413     1.0  0.73677  0.73548  0.51366  1.0000
  C   C1414     1.0  0.71563  0.74238  0.51111  1.0000
  H   H1669     1.0  0.73030  0.57468  0.74104  1.0000
  C   C1415     1.0  0.75100  0.73252  0.50208  1.0000
  H   H1670     1.0  0.70416  0.74413  0.51991  1.0000
  H   H1671     1.0  0.76702  0.72662  0.50390  1.0000
  C   C1416     1.0  0.71550  0.83605  0.59725  1.0000
  C   C1417     1.0  0.89622  0.78777  0.55943  1.0000
  C   C1418     1.0  0.89347  0.78255  0.57396  1.0000
  C   C1419     1.0  0.87139  0.78247  0.58102  1.0000
  C   C1420     1.0  0.85188  0.78751  0.57363  1.0000
  C   C1421     1.0  0.85508  0.79351  0.55920  1.0000
  C   C1422     1.0  0.87713  0.79363  0.55216  1.0000
  H   H1672     1.0  0.90797  0.77793  0.57968  1.0000
  H   H1673     1.0  0.86917  0.77802  0.59221  1.0000
  H   H1674     1.0  0.84045  0.79782  0.55342  1.0000
  H   H1675     1.0  0.87918  0.79787  0.54094  1.0000
  C   C1423     1.0  0.67710  0.97666  0.60090  1.0000
  C   C1424     1.0  0.65035  0.96173  0.60217  1.0000
  C   C1425     1.0  0.63845  0.95601  0.61558  1.0000
  C   C1426     1.0  0.65316  0.96536  0.62794  1.0000
  S   S391      1.0  0.50086  0.59364  0.67440  1.0000
  C   C1427     1.0  0.67996  0.98013  0.62668  1.0000
  H   H1676     1.0  0.61784  0.94472  0.61632  1.0000
  C   C1428     1.0  0.69672  0.63329  0.71206  1.0000
  H   H1677     1.0  0.63757  0.98547  0.69897  1.0000
  C   C1429     1.0  0.77981  0.92323  0.57049  1.0000
  C   C1430     1.0  0.78623  0.90274  0.57567  1.0000
  C   C1431     1.0  0.77641  0.87804  0.56902  1.0000
  C   C1432     1.0  0.76034  0.87387  0.55708  1.0000
  C   C1433     1.0  0.75396  0.89435  0.55188  1.0000
  C   C1434     1.0  0.76347  0.91890  0.55865  1.0000
  H   H1678     1.0  0.79880  0.90595  0.58486  1.0000
  H   H1679     1.0  0.78139  0.86232  0.57311  1.0000
  H   H1680     1.0  0.74147  0.89118  0.54266  1.0000
  H   H1681     1.0  0.75833  0.93447  0.55458  1.0000
  S   S392      1.0  0.69090  0.98345  0.58364  1.0000
  H   H1682     1.0  0.53278  0.52057  0.71255  1.0000
  H   H1683     1.0  0.98938  0.69441  0.61244  1.0000
  C   C1435     1.0  0.60961  0.98673  0.71398  1.0000
  C   C1436     1.0  0.91604  0.86028  0.57518  1.0000
  N   N94       1.0  0.60576  0.88626  0.71791  1.0000
  H   H1684     1.0  0.58177  0.85140  0.72912  1.0000
  C   C1437     1.0  0.58281  0.88958  0.71169  1.0000
  H   H1685     1.0  0.64397  0.89093  0.71139  1.0000
  C   C1438     1.0  0.61549  0.90403  0.73026  1.0000
  H   H1686     1.0  0.73840  0.55456  0.72906  1.0000
  C   C1439     1.0  0.55162  0.56144  0.71933  1.0000
  H   H1687     1.0  0.88320  0.83064  0.61059  1.0000
  C   C1440     1.0  0.85795  0.73830  0.53463  1.0000
  H   H1688     1.0  0.54273  0.54593  0.69174  1.0000
  C   C1441     1.0  0.62626  0.89286  0.70705  1.0000
  H   H1689     1.0  0.53646  0.60770  0.70090  1.0000
  C   C1442     1.0  0.81561  0.92849  0.51987  1.0000
  H   H1690     1.0  0.59061  0.84542  0.71174  1.0000
  C   C1443     1.0  0.86949  0.75084  0.52213  1.0000
  H   H1691     1.0  0.54051  0.57530  0.68527  1.0000
  S   S393      1.0  0.50516  0.92424  0.65419  1.0000
  C   C1444     1.0  0.80107  0.95808  0.53238  1.0000
  C   C1445     1.0  0.91180  0.63526  0.73162  1.0000
  N   N95       1.0  0.95834  0.85815  0.58279  1.0000
  H   H1692     1.0  0.61970  0.87981  0.69758  1.0000
  H   H1693     1.0  0.96697  0.89354  0.57054  1.0000
  S   S394      1.0  0.90379  0.57283  0.73962  1.0000
  C   C1446     1.0  0.93108  0.85397  0.58565  1.0000
  H   H1694     1.0  0.64440  0.99015  0.67251  1.0000
  C   C1447     1.0  0.62337  0.93153  0.72855  1.0000
  C   C1448     1.0  0.89012  0.85602  0.57748  1.0000
  H   H1695     1.0  0.77080  0.86122  0.51947  1.0000
  H   H1696     1.0  0.78282  0.83850  0.52665  1.0000
  C   C1449     1.0  0.85437  0.75424  0.51111  1.0000
  C   C1450     1.0  0.77925  0.84680  0.51644  1.0000
  C   C1451     1.0  0.72933  0.62207  0.73121  1.0000
  H   H1697     1.0  0.97214  0.86123  0.60446  1.0000
  C   C1452     1.0  0.57414  0.54009  0.74049  1.0000
  C   C1453     1.0  0.59785  0.85802  0.72136  1.0000
  C   C1454     1.0  0.87847  0.84560  0.59026  1.0000
  H   H1698     1.0  0.68348  0.63738  0.70490  1.0000
  H   H1699     1.0  0.92408  0.86810  0.56501  1.0000
  H   H1700     1.0  0.72239  0.79672  0.50832  1.0000
  H   H1701     1.0  0.79844  0.85719  0.51149  1.0000
  H   H1702     1.0  0.90239  0.62885  0.72107  1.0000
  H   H1703     1.0  0.88144  0.66082  0.72559  1.0000
  C   C1455     1.0  0.95944  0.84300  0.57006  1.0000
  H   H1704     1.0  0.70517  0.98288  0.49480  1.0000
  C   C1456     1.0  0.80090  0.72803  0.55532  1.0000
  C   C1457     1.0  0.83070  0.72905  0.53653  1.0000
  H   H1705     1.0  0.72754  0.82728  0.51684  1.0000
  H   H1706     1.0  0.62238  0.93994  0.71833  1.0000
  H   H1707     1.0  0.63208  0.91322  0.70307  1.0000
  H   H1708     1.0  0.71555  0.84026  0.57463  1.0000
  H   H1709     1.0  0.50150  0.56764  0.70111  1.0000
  H   H1710     1.0  0.69159  0.98747  0.63614  1.0000
  H   H1711     1.0  0.81167  0.74946  0.55665  1.0000
  H   H1712     1.0  0.82593  0.70594  0.57085  1.0000
  C   C1458     1.0  0.80137  0.68773  0.54603  1.0000
  H   H1713     1.0  0.87101  0.73664  0.54272  1.0000
  H   H1714     1.0  0.92915  0.63022  0.73210  1.0000
  N   N96       1.0  0.59341  0.75134  0.63087  1.0000
  C   C1459     1.0  0.57401  0.76347  0.63039  1.0000
  C   C1460     1.0  0.57906  0.72246  0.63007  1.0000
  C   C1461     1.0  0.61227  0.76204  0.61931  1.0000
  C   C1462     1.0  0.62740  0.78939  0.61858  1.0000
  C   C1463     1.0  0.61636  0.74602  0.60861  1.0000
  C   C1464     1.0  0.64565  0.79996  0.60791  1.0000
  C   C1465     1.0  0.63457  0.75685  0.59796  1.0000
  C   C1466     1.0  0.64932  0.78368  0.59767  1.0000
  H   H1715     1.0  0.56449  0.76081  0.61977  1.0000
  H   H1716     1.0  0.56789  0.71636  0.61997  1.0000
  H   H1717     1.0  0.56485  0.71513  0.63879  1.0000
  H   H1718     1.0  0.59236  0.71196  0.63110  1.0000
  H   H1719     1.0  0.60636  0.72493  0.60841  1.0000
  H   H1720     1.0  0.65723  0.82083  0.60764  1.0000
  H   H1721     1.0  0.63800  0.74418  0.59017  1.0000
  H   H1722     1.0  0.66391  0.79168  0.58960  1.0000
  N   N97       1.0  0.53969  0.57195  0.70809  1.0000
  H   H1723     1.0  0.76026  0.78891  0.49894  1.0000
  H   H1724     1.0  0.57013  0.57647  0.69337  1.0000
  C   C1467     1.0  0.70848  0.74571  0.49711  1.0000
  C   C1468     1.0  0.69189  0.98564  0.61328  1.0000
  C   C1469     1.0  0.96736  0.70728  0.70007  1.0000
  C   C1470     1.0  0.95886  0.67700  0.71965  1.0000
  S   S395      1.0  0.97959  0.79242  0.57888  1.0000
  H   H1725     1.0  0.96541  0.66450  0.72597  1.0000
  H   H1726     1.0  0.75701  0.58916  0.72897  1.0000
  H   H1727     1.0  0.70587  0.66901  0.72384  1.0000
  H   H1728     1.0  0.84822  0.70446  0.55786  1.0000
  H   H1729     1.0  0.84914  0.73575  0.56398  1.0000
  H   H1730     1.0  0.73942  0.80468  0.52485  1.0000
  C   C1471     1.0  0.73666  0.81310  0.51452  1.0000
  H   H1731     1.0  0.94759  0.82179  0.57154  1.0000
  H   H1732     1.0  0.97962  0.84522  0.56776  1.0000
  H   H1733     1.0  0.57405  0.87560  0.70280  1.0000
  N   N98       1.0  0.71552  0.91412  0.59934  1.0000
  C   C1472     1.0  0.73945  0.93138  0.60688  1.0000
  C   C1473     1.0  0.71501  0.92622  0.58534  1.0000
  C   C1474     1.0  0.69271  0.91377  0.60732  1.0000
  C   C1475     1.0  0.71510  0.88722  0.59837  1.0000
  H   H1734     1.0  0.75700  0.93105  0.60158  1.0000
  H   H1735     1.0  0.74132  0.95217  0.60708  1.0000
  H   H1736     1.0  0.74015  0.92548  0.61807  1.0000
  H   H1737     1.0  0.73241  0.92855  0.57905  1.0000
  H   H1738     1.0  0.71509  0.94628  0.58647  1.0000
  H   H1739     1.0  0.69728  0.91465  0.57910  1.0000
  H   H1740     1.0  0.69275  0.90743  0.61849  1.0000
  H   H1741     1.0  0.69202  0.93360  0.60779  1.0000
  H   H1742     1.0  0.67433  0.90041  0.60220  1.0000
  H   H1743     1.0  0.71559  0.88138  0.62125  1.0000
  Fe  Fe199     1.0  0.77847  0.98561  0.57298  1.0000
  H   H1744     1.0  0.61592  0.77874  0.64706  1.0000
  C   C1476     1.0  0.61742  0.89490  0.74416  1.0000
  H   H1745     1.0  0.62538  0.80273  0.62637  1.0000
  H   H1746     1.0  0.63868  0.95469  0.59269  1.0000
  H   H1747     1.0  0.85814  0.84160  0.59186  1.0000
  H   H1748     1.0  0.71245  0.99717  0.61251  1.0000
  H   H1749     1.0  0.89040  0.75822  0.52110  1.0000
  H   H1750     1.0  0.97755  0.52540  0.71212  1.0000
  H   H1751     1.0  0.92821  0.83770  0.60715  1.0000
  H   H1752     1.0  0.79160  0.67658  0.55559  1.0000
  C   C1477     1.0  0.60713  0.75738  0.64477  1.0000
  H   H1753     1.0  0.59378  0.74824  0.65367  1.0000
  C   C1478     1.0  0.93485  0.67895  0.72242  1.0000
  H   H1754     1.0  0.98221  0.60990  0.72049  1.0000
  H   H1755     1.0  0.78974  0.98392  0.51999  1.0000
  H   H1756     1.0  0.77771  0.79896  0.51506  1.0000
  H   H1757     1.0  0.81588  0.74770  0.50392  1.0000
  C   C1479     1.0  0.92784  0.69595  0.71351  1.0000
  C   C1480     1.0  0.70014  0.60968  0.71095  1.0000
  H   H1758     1.0  0.87874  0.86019  0.56919  1.0000
  H   H1759     1.0  0.79153  0.81501  0.49869  1.0000
  H   H1760     1.0  0.79294  0.72003  0.56587  1.0000
  N   N99       1.0  0.71889  0.57756  0.71944  1.0000
  C   C1481     1.0  0.72832  0.57466  0.70517  1.0000
  C   C1482     1.0  0.73704  0.57405  0.73006  1.0000
  C   C1483     1.0  0.69323  0.55611  0.72162  1.0000
  C   C1484     1.0  0.71642  0.60320  0.72055  1.0000
  H   H1761     1.0  0.67861  0.55603  0.71354  1.0000
  H   H1762     1.0  0.97278  0.89855  0.58929  1.0000
  C   C1485     1.0  0.97377  0.88633  0.58013  1.0000
  H   H1763     1.0  0.98797  0.64784  0.58591  1.0000
  C   C1486     1.0  0.89266  0.83935  0.60080  1.0000
  H   H1764     1.0  0.54004  0.60568  0.71971  1.0000
  C   C1487     1.0  0.81230  0.93924  0.50690  1.0000
  H   H1765     1.0  0.97500  0.75430  0.51576  1.0000
  H   H1766     1.0  0.81280  0.92972  0.54262  1.0000
  C   C1488     1.0  0.97481  0.69090  0.70865  1.0000
  C   C1489     1.0  0.70924  0.65110  0.72278  1.0000
  H   H1767     1.0  0.71433  0.57415  0.69663  1.0000
  C   C1490     1.0  0.56940  0.57767  0.72959  1.0000
  H   H1768     1.0  0.97976  0.71794  0.69150  1.0000
  C   C1491     1.0  0.79728  0.96867  0.51951  1.0000
  C   C1492     1.0  0.54615  0.60058  0.70935  1.0000
  H   H1769     1.0  0.79502  0.72580  0.52562  1.0000
  H   H1770     1.0  0.64370  0.62740  0.74262  1.0000
  H   H1771     1.0  0.69164  0.75032  0.49522  1.0000
  C   C1493     1.0  0.77330  0.80648  0.50481  1.0000
  H   H1772     1.0  0.79693  0.96553  0.54231  1.0000
  H   H1773     1.0  0.61439  0.85376  0.72560  1.0000
  H   H1774     1.0  0.62286  0.74985  0.64521  1.0000
  C   C1494     1.0  0.81587  0.73269  0.52504  1.0000
  H   H1775     1.0  0.78389  0.72518  0.54841  1.0000
  H   H1776     1.0  0.93827  0.72260  0.69576  1.0000
  H   H1777     1.0  0.57565  0.59874  0.72966  1.0000
  H   H1778     1.0  0.86344  0.76392  0.50143  1.0000
  C   C1495     1.0  0.81012  0.93798  0.53257  1.0000
  C   C1496     1.0  0.89348  0.66712  0.73541  1.0000
  H   H1779     1.0  0.82272  0.91287  0.52013  1.0000
  H   H1780     1.0  0.74699  0.59121  0.70289  1.0000
  H   H1781     1.0  0.95207  0.84909  0.56030  1.0000
  H   H1782     1.0  0.55852  0.75461  0.63835  1.0000
  H   H1783     1.0  0.72597  0.99510  0.51868  1.0000
  C   C1497     1.0  0.91858  0.84341  0.59861  1.0000
  C   C1498     1.0  0.94397  0.70984  0.70250  1.0000
  C   C1499     1.0  0.71524  0.87296  0.61089  1.0000
  H   H1784     1.0  0.68533  0.55822  0.73209  1.0000
  H   H1785     1.0  0.78576  0.68620  0.53825  1.0000
  C   C1500     1.0  0.71547  0.84779  0.61028  1.0000
  N   N100      1.0  0.81773  0.71538  0.54955  1.0000
  C   C1501     1.0  0.97113  0.84981  0.59462  1.0000
  H   H1786     1.0  0.50381  0.55972  0.71941  1.0000
  H   H1787     1.0  0.73148  0.55607  0.70422  1.0000
  N   N101      1.0  0.76149  0.82598  0.50698  1.0000
  C   C1502     1.0  0.82761  0.74514  0.51255  1.0000
  H   H1788     1.0  0.56756  0.88641  0.71977  1.0000
  C   C1503     1.0  0.72559  0.64556  0.73229  1.0000
  H   H1789     1.0  0.56719  0.61215  0.70807  1.0000
  C   C1504     1.0  0.54579  0.53410  0.72011  1.0000
  C   C1505     1.0  0.51106  0.55858  0.70859  1.0000
  C   C1506     1.0  0.63422  0.99565  0.70799  1.0000
  H   H1790     1.0  0.96098  0.82850  0.59689  1.0000
  C   C1507     1.0  0.54863  0.56716  0.69403  1.0000
  H   H1791     1.0  0.63808  0.96974  0.73840  1.0000
  C   C1508     1.0  0.72460  0.99769  0.49576  1.0000
  S   S396      1.0  0.99138  0.72923  0.58943  1.0000
  H   H1792     1.0  0.74193  0.61892  0.73908  1.0000
  C   C1509     1.0  0.63241  0.94881  0.74000  1.0000
  H   H1793     1.0  0.76451  0.97574  0.49951  1.0000
  H   H1794     1.0  0.77777  0.87804  0.49696  1.0000
  H   H1795     1.0  0.89678  0.68782  0.73789  1.0000
  S   S397      1.0  0.90135  0.50078  0.73931  1.0000
  H   H1796     1.0  0.81714  0.93116  0.49748  1.0000
  S   S398      1.0  0.99442  0.81411  0.54658  1.0000
  H   H1797     1.0  0.89830  0.62299  0.73980  1.0000
  C   C1510     1.0  0.58034  0.56699  0.74000  1.0000
  H   H1798     1.0  0.50402  0.53757  0.70552  1.0000
  H   H1799     1.0  0.99301  0.68882  0.70677  1.0000
  H   H1800     1.0  0.99459  0.89012  0.57837  1.0000
  H   H1801     1.0  0.49558  0.67195  0.68209  1.0000
  C   C1511     1.0  0.97829  0.50614  0.71150  1.0000
  C   C1512     1.0  0.99408  0.50107  0.70151  1.0000
  H   H1802     1.0  0.49516  0.66667  0.65687  1.0000
  H   H1803     1.0  0.88145  0.65491  0.74416  1.0000
  H   H1804     1.0  0.68401  0.92238  0.94249  1.0000
  C   C1513     1.0  0.85184  0.66411  0.94321  1.0000
  H   H1805     1.0  0.60382  0.66726  0.98479  1.0000
  S   S399      1.0  0.77435  0.78041  0.98220  1.0000
  Fe  Fe200     1.0  0.74158  0.74040  0.98187  1.0000
  S   S400      1.0  0.72426  0.72157  0.96050  1.0000
  Fe  Fe201     1.0  0.91652  0.59502  0.91136  1.0000
  S   S401      1.0  0.88196  0.55812  0.91633  1.0000
  S   S402      1.0  0.94272  0.61206  0.93075  1.0000
  Fe  Fe202     1.0  0.89941  0.59245  0.87979  1.0000
  S   S403      1.0  0.86357  0.55629  0.88288  1.0000
  S   S404      1.0  0.90649  0.61257  0.85836  1.0000
  Fe  Fe203     1.0  0.85954  0.57597  0.90305  1.0000
  S   S405      1.0  0.82722  0.58659  0.91117  1.0000
  Fe  Fe204     1.0  0.88954  0.54172  0.89573  1.0000
  S   S406      1.0  0.89365  0.61338  0.89906  1.0000
  S   S407      1.0  0.92580  0.57747  0.89163  1.0000
  C   C1514     1.0  0.62364  0.59210  0.81074  1.0000
  S   S408      1.0  0.93572  0.55665  0.76524  1.0000
  Fe  Fe205     1.0  0.87762  0.57656  0.75677  1.0000
  S   S409      1.0  0.91073  0.59970  0.77125  1.0000
  C   C1515     1.0  0.72517  0.58874  0.95748  1.0000
  H   H1806     1.0  0.81508  0.53946  0.75454  1.0000
  Fe  Fe206     1.0  0.90660  0.56078  0.78025  1.0000
  S   S410      1.0  0.90304  0.54597  0.80294  1.0000
  S   S411      1.0  0.87192  0.53788  0.76671  1.0000
  Fe  Fe207     1.0  0.67909  0.58644  0.78366  1.0000
  S   S412      1.0  0.67870  0.54677  0.78838  1.0000
  S   S413      1.0  0.69460  0.61922  0.79974  1.0000
  C   C1516     1.0  0.93030  0.73333  0.95104  1.0000
  C   C1517     1.0  0.62426  0.60864  0.82196  1.0000
  Fe  Fe208     1.0  0.69539  0.54930  0.76659  1.0000
  S   S414      1.0  0.72634  0.53335  0.76172  1.0000
  S   S415      1.0  0.63892  0.57206  0.77417  1.0000
  S   S416      1.0  0.69854  0.59030  0.76242  1.0000
  Fe  Fe209     1.0  0.66349  0.58472  0.91619  1.0000
  S   S417      1.0  0.65098  0.54056  0.91504  1.0000
  S   S418      1.0  0.67047  0.60274  0.93859  1.0000
  Fe  Fe210     1.0  0.66564  0.58889  0.88366  1.0000
  S   S419      1.0  0.65405  0.54594  0.88031  1.0000
  S   S420      1.0  0.67495  0.61872  0.86605  1.0000
  Fe  Fe211     1.0  0.62430  0.54104  0.89711  1.0000
  H   H1807     1.0  0.60256  0.56164  0.87289  1.0000
  Fe  Fe212     1.0  0.68157  0.54917  0.89835  1.0000
  S   S421      1.0  0.70839  0.52767  0.89647  1.0000
  S   S422      1.0  0.63445  0.58457  0.89946  1.0000
  S   S423      1.0  0.69559  0.59282  0.90052  1.0000
  C   C1518     1.0  0.68838  0.61668  0.81816  1.0000
  C   C1519     1.0  0.67838  0.59278  0.82556  1.0000
  C   C1520     1.0  0.67407  0.59261  0.84036  1.0000
  C   C1521     1.0  0.67955  0.61636  0.84765  1.0000
  C   C1522     1.0  0.68954  0.63992  0.84016  1.0000
  C   C1523     1.0  0.69413  0.64010  0.82562  1.0000
  H   H1808     1.0  0.67386  0.57455  0.81987  1.0000
  H   H1809     1.0  0.66640  0.57423  0.84601  1.0000
  H   H1810     1.0  0.69386  0.65833  0.84565  1.0000
  H   H1811     1.0  0.70188  0.65861  0.82006  1.0000
  C   C1524     1.0  0.81444  0.57783  0.75701  1.0000
  C   C1525     1.0  0.80314  0.55045  0.75648  1.0000
  H   H1812     1.0  0.83993  0.52999  0.79491  1.0000
  C   C1526     1.0  0.76025  0.55113  0.76029  1.0000
  C   C1527     1.0  0.77162  0.57852  0.76111  1.0000
  H   H1813     1.0  0.72290  0.57187  0.96454  1.0000
  S   S424      1.0  0.60528  0.50176  0.78871  1.0000
  H   H1814     1.0  0.75292  0.62715  0.94027  1.0000
  C   C1528     1.0  0.79507  0.57046  0.90536  1.0000
  C   C1529     1.0  0.77873  0.58419  0.90563  1.0000
  C   C1530     1.0  0.75230  0.57138  0.90244  1.0000
  C   C1531     1.0  0.74190  0.54461  0.89932  1.0000
  C   C1532     1.0  0.75835  0.53096  0.89872  1.0000
  C   C1533     1.0  0.78498  0.54389  0.90167  1.0000
  H   H1815     1.0  0.78654  0.60474  0.90849  1.0000
  H   H1816     1.0  0.73995  0.58212  0.90270  1.0000
  H   H1817     1.0  0.80072  0.55523  0.87195  1.0000
  H   H1818     1.0  0.79749  0.53316  0.90157  1.0000
  C   C1534     1.0  0.90581  0.59404  0.84301  1.0000
  C   C1535     1.0  0.90997  0.60623  0.82966  1.0000
  C   C1536     1.0  0.90955  0.59191  0.81726  1.0000
  C   C1537     1.0  0.90490  0.56524  0.81816  1.0000
  C   C1538     1.0  0.90055  0.55303  0.83148  1.0000
  C   C1539     1.0  0.90101  0.56734  0.84386  1.0000
  H   H1819     1.0  0.91382  0.62692  0.82895  1.0000
  H   H1820     1.0  0.91308  0.60157  0.80707  1.0000
  H   H1821     1.0  0.89672  0.53239  0.83227  1.0000
  H   H1822     1.0  0.89777  0.55775  0.85408  1.0000
  C   C1540     1.0  0.68676  0.63594  0.94427  1.0000
  C   C1541     1.0  0.69381  0.64117  0.95867  1.0000
  C   C1542     1.0  0.70608  0.66717  0.96375  1.0000
  C   C1543     1.0  0.71089  0.68834  0.95453  1.0000
  C   C1544     1.0  0.70406  0.68308  0.94012  1.0000
  C   C1545     1.0  0.69233  0.65710  0.93498  1.0000
  H   H1823     1.0  0.68958  0.62502  0.96599  1.0000
  H   H1824     1.0  0.71145  0.67086  0.97482  1.0000
  H   H1825     1.0  0.70767  0.69927  0.93288  1.0000
  H   H1826     1.0  0.68697  0.65350  0.92390  1.0000
  C   C1546     1.0  0.79855  0.59179  0.75935  1.0000
  H   H1827     1.0  0.77597  0.85997  0.97979  1.0000
  H   H1828     1.0  0.82902  0.85391  0.98288  1.0000
  S   S425      1.0  0.84809  0.59532  0.75433  1.0000
  C   C1547     1.0  0.95883  0.66640  0.92839  1.0000
  C   C1548     1.0  0.95577  0.64501  0.93715  1.0000
  C   C1549     1.0  0.96424  0.64985  0.95137  1.0000
  C   C1550     1.0  0.97558  0.67567  0.95679  1.0000
  C   C1551     1.0  0.77673  0.89914  0.98245  1.0000
  H   H1829     1.0  0.98201  0.67900  0.96773  1.0000
  H   H1830     1.0  0.96212  0.63350  0.95824  1.0000
  C   C1552     1.0  0.78615  0.55610  0.94001  1.0000
  H   H1831     1.0  0.70170  0.97331  0.97121  1.0000
  H   H1832     1.0  0.71659  0.92473  0.94022  1.0000
  N   N102      1.0  0.73465  0.58513  0.94332  1.0000
  C   C1553     1.0  0.63398  0.93926  0.75348  1.0000
  H   H1833     1.0  0.73823  0.60697  0.96287  1.0000
  H   H1834     1.0  0.93496  0.55569  0.92878  1.0000
  H   H1835     1.0  0.64093  0.95276  0.76234  1.0000
  C   C1554     1.0  0.97188  0.54615  0.89582  1.0000
  Fe  Fe213     1.0  0.65802  0.57200  0.75332  1.0000
  H   H1836     1.0  0.67754  0.93443  0.98170  1.0000
  C   C1555     1.0  0.62655  0.91239  0.75555  1.0000
  S   S426      1.0  0.77842  0.94950  0.98530  1.0000
  C   C1556     1.0  0.70965  0.88456  0.97668  1.0000
  C   C1557     1.0  0.76339  0.56536  0.79647  1.0000
  H   H1837     1.0  0.71816  0.56019  0.92512  1.0000
  N   N103      1.0  0.82942  0.56129  0.80256  1.0000
  C   C1558     1.0  0.93179  0.53582  0.92465  1.0000
  C   C1559     1.0  0.70425  0.92424  0.96836  1.0000
  C   C1560     1.0  0.78343  0.55627  0.79600  1.0000
  H   H1838     1.0  0.74744  0.54388  0.93283  1.0000
  C   C1561     1.0  0.69700  0.96379  0.96060  1.0000
  H   H1839     1.0  0.75967  0.58949  0.76304  1.0000
  S   S427      1.0  0.99345  0.73012  0.95412  1.0000
  H   H1840     1.0  0.61635  0.59216  0.86393  1.0000
  S   S428      1.0  0.65598  0.53072  0.75622  1.0000
  H   H1841     1.0  0.79319  0.62091  0.81569  1.0000
  H   H1842     1.0  0.75125  0.95142  0.95645  1.0000
  H   H1843     1.0  0.78743  0.90643  0.97282  1.0000
  C   C1562     1.0  0.73966  0.60911  0.93478  1.0000
  C   C1563     1.0  0.60990  0.57063  0.86242  1.0000
  H   H1844     1.0  0.75136  0.59569  0.80361  1.0000
  C   C1564     1.0  0.97264  0.53793  0.93416  1.0000
  H   H1845     1.0  0.92419  0.67733  0.94901  1.0000
  C   C1565     1.0  0.97914  0.69708  0.94794  1.0000
  C   C1566     1.0  0.76689  0.58857  0.80354  1.0000
  H   H1846     1.0  0.98496  0.55973  0.87475  1.0000
  C   C1567     1.0  0.76947  0.91620  0.99080  1.0000
  H   H1847     1.0  0.62741  0.56674  0.85999  1.0000
  C   C1568     1.0  0.71554  0.90540  0.96716  1.0000
  C   C1569     1.0  0.89779  0.73088  0.96794  1.0000
  H   H1848     1.0  0.75041  0.51023  0.89624  1.0000
  H   H1849     1.0  0.85989  0.60016  0.80150  1.0000
  C   C1570     1.0  0.83687  0.55749  0.81729  1.0000
  H   H1850     1.0  0.94005  0.70078  0.96842  1.0000
  N   N104      1.0  0.91151  0.71574  0.96121  1.0000
  H   H1851     1.0  0.94454  0.75114  0.95637  1.0000
  H   H1852     1.0  0.59541  0.52369  0.85014  1.0000
  C   C1571     1.0  0.79043  0.60272  0.81031  1.0000
  H   H1853     1.0  0.57165  0.52385  0.86251  1.0000
  C   C1572     1.0  0.80427  0.59662  0.95315  1.0000
  C   C1573     1.0  0.57982  0.53108  0.85187  1.0000
  C   C1574     1.0  0.97070  0.69225  0.93372  1.0000
  H   H1854     1.0  0.85047  0.63042  0.93123  1.0000
  S   S429      1.0  0.99263  0.78053  0.98212  1.0000
  H   H1855     1.0  0.82556  0.57307  0.94747  1.0000
  Fe  Fe214     1.0  0.93669  0.59350  0.75466  1.0000
  H   H1856     1.0  0.82065  0.61131  0.95855  1.0000
  H   H1857     1.0  0.96393  0.52216  0.94213  1.0000
  H   H1858     1.0  0.96358  0.52616  0.89205  1.0000
  S   S430      1.0  0.97307  0.62922  0.74893  1.0000
  H   H1859     1.0  0.74847  0.60790  0.92445  1.0000
  H   H1860     1.0  0.97337  0.70861  0.92675  1.0000
  H   H1861     1.0  0.67565  0.95304  0.95966  1.0000
  H   H1862     1.0  0.94187  0.72359  0.94580  1.0000
  H   H1863     1.0  0.78866  0.53971  0.93491  1.0000
  H   H1864     1.0  0.56383  0.52173  0.84408  1.0000
  H   H1865     1.0  0.61192  0.87437  0.74652  1.0000
  S   S431      1.0  0.58194  0.51583  0.89173  1.0000
  H   H1866     1.0  0.77941  0.53844  0.79004  1.0000
  C   C1575     1.0  0.89408  0.69188  0.95360  1.0000
  C   C1576     1.0  0.69278  0.88207  0.98780  1.0000
  H   H1867     1.0  0.89673  0.63919  0.93537  1.0000
  C   C1577     1.0  0.80703  0.57498  0.94706  1.0000
  H   H1868     1.0  0.69518  0.56649  0.93566  1.0000
  H   H1869     1.0  0.63276  0.60033  0.80081  1.0000
  C   C1578     1.0  0.60107  0.55433  0.82543  1.0000
  H   H1870     1.0  0.72500  0.56231  0.85641  1.0000
  H   H1871     1.0  0.55323  0.56138  0.84553  1.0000
  N   N105      1.0  0.74886  0.60264  0.86156  1.0000
  C   C1579     1.0  0.74686  0.61141  0.84689  1.0000
  C   C1580     1.0  0.72585  0.57803  0.86398  1.0000
  C   C1581     1.0  0.74737  0.62254  0.87166  1.0000
  C   C1582     1.0  0.77389  0.59976  0.86348  1.0000
  C   C1583     1.0  0.79761  0.62174  0.86173  1.0000
  C   C1584     1.0  0.77567  0.57555  0.86709  1.0000
  C   C1585     1.0  0.82153  0.61966  0.86360  1.0000
  C   C1586     1.0  0.79974  0.57372  0.86888  1.0000
  C   C1587     1.0  0.82259  0.59572  0.86721  1.0000
  H   H1872     1.0  0.74827  0.59715  0.83896  1.0000
  H   H1873     1.0  0.72812  0.61344  0.84497  1.0000
  H   H1874     1.0  0.76215  0.63090  0.84451  1.0000
  H   H1875     1.0  0.83944  0.63674  0.86243  1.0000
  H   H1876     1.0  0.70741  0.58101  0.86257  1.0000
  H   H1877     1.0  0.72565  0.57064  0.87497  1.0000
  H   H1878     1.0  0.76218  0.64245  0.86963  1.0000
  H   H1879     1.0  0.72827  0.62438  0.87099  1.0000
  H   H1880     1.0  0.75007  0.61724  0.88278  1.0000
  H   H1881     1.0  0.79784  0.64080  0.85904  1.0000
  H   H1882     1.0  0.75882  0.55780  0.86887  1.0000
  H   H1883     1.0  0.57490  0.59004  0.85469  1.0000
  H   H1884     1.0  0.93534  0.50857  0.79722  1.0000
  H   H1885     1.0  0.84121  0.59432  0.86887  1.0000
  H   H1886     1.0  0.83160  0.66024  0.94125  1.0000
  C   C1588     1.0  0.81055  0.59371  0.81000  1.0000
  N   N106      1.0  0.59004  0.56017  0.85105  1.0000
  H   H1887     1.0  0.66468  0.65071  0.98319  1.0000
  H   H1888     1.0  0.61189  0.55219  0.80373  1.0000
  H   H1889     1.0  0.66077  0.71611  0.98860  1.0000
  C   C1589     1.0  0.60145  0.57068  0.83714  1.0000
  C   C1590     1.0  0.61331  0.59819  0.83496  1.0000
  H   H1890     1.0  0.85796  0.69848  0.95508  1.0000
  H   H1891     1.0  0.55904  0.56038  0.86431  1.0000
  C   C1591     1.0  0.75903  0.58085  0.94485  1.0000
  H   H1892     1.0  0.93797  0.72609  0.97909  1.0000
  H   H1893     1.0  0.59266  0.53320  0.82597  1.0000
  H   H1894     1.0  0.77965  0.61705  0.95665  1.0000
  C   C1592     1.0  0.77040  0.87274  0.98644  1.0000
  H   H1895     1.0  0.72955  0.90697  0.95907  1.0000
  H   H1896     1.0  0.86836  0.57472  0.79457  1.0000
  H   H1897     1.0  0.92032  0.73976  0.94247  1.0000
  H   H1898     1.0  0.84688  0.58564  0.78467  1.0000
  H   H1899     1.0  0.61467  0.61188  0.84339  1.0000
  H   H1900     1.0  0.95043  0.66725  0.74806  1.0000
  H   H1901     1.0  0.81865  0.53800  0.78344  1.0000
  N   N107      1.0  0.71099  0.94624  0.95816  1.0000
  C   C1593     1.0  0.64740  0.65074  0.98886  1.0000
  H   H1902     1.0  0.80667  0.51994  0.79967  1.0000
  C   C1594     1.0  0.70477  0.93582  0.94350  1.0000
  H   H1903     1.0  0.70881  0.54431  0.94210  1.0000
  H   H1904     1.0  0.70598  0.59032  0.95670  1.0000
  H   H1905     1.0  0.91148  0.74829  0.97381  1.0000
  C   C1595     1.0  0.92607  0.70868  0.97261  1.0000
  H   H1906     1.0  0.84949  0.94029  0.98813  1.0000
  C   C1596     1.0  0.76245  0.55887  0.93886  1.0000
  H   H1907     1.0  0.92055  0.66004  0.75679  1.0000
  C   C1597     1.0  0.73911  0.96249  0.95922  1.0000
  C   C1598     1.0  0.82088  0.84261  0.99264  1.0000
  C   C1599     1.0  0.86240  0.64726  0.93755  1.0000
  C   C1600     1.0  0.56836  0.56836  0.85400  1.0000
  H   H1908     1.0  0.82850  0.60539  0.81535  1.0000
  Fe  Fe215     1.0  0.90132  0.53624  0.75110  1.0000
  H   H1909     1.0  0.76758  0.51603  0.75735  1.0000
  C   C1601     1.0  0.85206  0.58134  0.79555  1.0000
  C   C1602     1.0  0.78069  0.59964  0.95204  1.0000
  H   H1910     1.0  0.72158  0.61219  0.93246  1.0000
  C   C1603     1.0  0.88844  0.65221  0.93988  1.0000
  C   C1604     1.0  0.90405  0.67413  0.94776  1.0000
  N   N108      1.0  0.95641  0.53335  0.92110  1.0000
  H   H1911     1.0  0.95260  0.66309  0.91741  1.0000
  H   H1912     1.0  0.81984  0.54426  0.82332  1.0000
  C   C1605     1.0  0.86733  0.68613  0.95114  1.0000
  Fe  Fe216     1.0  0.63960  0.53214  0.77761  1.0000
  H   H1913     1.0  0.63394  0.62968  0.82066  1.0000
  H   H1914     1.0  0.70247  0.98017  0.95280  1.0000
  C   C1606     1.0  0.71343  0.56302  0.93625  1.0000
  H   H1915     1.0  0.84568  0.57624  0.82327  1.0000
  H   H1916     1.0  0.79983  0.83861  0.99275  1.0000
  C   C1607     1.0  0.82322  0.53618  0.79481  1.0000
  H   H1917     1.0  0.74498  0.97992  0.95216  1.0000
  C   C1608     1.0  0.80771  0.57023  0.80279  1.0000
  H   H1918     1.0  0.88338  0.71881  0.97581  1.0000
  C   C1609     1.0  0.77619  0.53721  0.75803  1.0000
  H   H1919     1.0  0.85409  0.89819  0.98746  1.0000
  C   C1610     1.0  0.96986  0.55303  0.91015  1.0000
  C   C1611     1.0  0.68686  0.92099  0.97977  1.0000
  H   H1920     1.0  0.74462  0.96967  0.97025  1.0000
  C   C1612     1.0  0.61206  0.56502  0.81246  1.0000
  H   H1921     1.0  0.85162  0.54863  0.81750  1.0000
  H   H1922     1.0  0.92924  0.51249  0.81523  1.0000
  C   C1613     1.0  0.95016  0.50586  0.91650  1.0000
  H   H1923     1.0  0.74512  0.55452  0.79107  1.0000
  H   H1924     1.0  0.88793  0.73875  0.95997  1.0000
  H   H1925     1.0  0.67653  0.69929  0.97847  1.0000
  C   C1614     1.0  0.68139  0.90023  0.98934  1.0000
  H   H1926     1.0  0.91273  0.69396  0.97994  1.0000
  H   H1927     1.0  0.62780  0.90508  0.76609  1.0000
  H   H1928     1.0  0.80713  0.61297  0.75984  1.0000
  H   H1929     1.0  0.63137  0.64509  0.98092  1.0000
  C   C1615     1.0  0.98018  0.58019  0.91351  1.0000
  C   C1616     1.0  0.99425  0.59181  0.88940  1.0000
  H   H1930     1.0  0.92071  0.52131  0.93277  1.0000
  H   H1931     1.0  0.70851  0.95185  0.93561  1.0000
  C   C1617     1.0  0.93246  0.67124  0.74777  1.0000
  H   H1932     1.0  0.91915  0.53248  0.91508  1.0000
  H   H1933     1.0  0.97491  0.55648  0.93963  1.0000
  H   H1934     1.0  0.89160  0.80377  0.99147  1.0000
  H   H1935     1.0  0.71890  0.87068  0.97572  1.0000
  H   H1936     1.0  0.93824  0.69253  0.74992  1.0000
  C   C1618     1.0  0.98407  0.56536  0.88567  1.0000
  C   C1619     1.0  0.65830  0.69666  0.98411  1.0000
  C   C1620     1.0  0.99222  0.59921  0.90328  1.0000
  H   H1937     1.0  0.82277  0.82342  0.99154  1.0000
  H   H1938     1.0  0.64298  0.69149  0.97578  1.0000
  H   H1939     1.0  0.59436  0.57974  0.74752  1.0000
  H   H1940     1.0  0.97821  0.58712  0.92396  1.0000
  S   S432      1.0  0.89548  0.50431  0.88980  1.0000
  H   H1941     1.0  0.99233  0.53879  0.93167  1.0000
  H   H1942     1.0  0.58306  0.53202  0.74845  1.0000
  H   H1943     1.0  0.96785  0.50292  0.91323  1.0000
  H   H1944     1.0  0.93600  0.50014  0.90753  1.0000
