data_image0
_chemical_formula_structural       FeS2FeS2FeSFeHS2FeS2FeCFeCFeS3HC3H2C3H2C6H5C3H3CSHC3H3CH3C3NHCHSCH4C3HC2HCHCH7C2H3NHC2HCHCH5CH3C3H2C2HSCS2CHS2C2H3FeCHC2NCHC2H5C4H2NHCHCH2CHCHC5HCH3SH4FeSC2H2CHCHNHC4FeH3C3HCSHC2H4CHC2HC2HCFeS2FeH2FeHFeS3FeS2FeCFeSFeCS2H3NHCHCH3C6H4C3HCH2C3H2C3H2CNHSC4HC2H2SC4H2CSH7C2NH3SH2CSH2CHC3HC2HCHCHCH7CHC2SCH2CH4C2HS2FeHS2CHC2NSH2CFeH3C4HCHCHC2H2C2HCH2NC3HC2H2C2H3CHSH3CH6C2H4CSCHNH2CH3CHC2H2CHCSC2FeC3H4CFeCH2CH2CH4SCSCFeCH2SCFeSH5CHCS2C2H2CH5NH2C4NCHCH2CH2C2NFeC2H2C2SCH9CHC2HC2HC4HC2FeS2FeHCSCFeS2H2S2CHC4H4CHCHNHCHFeCHCH2CH3C2H6CHC2H7C2HCSCHC2HCFeCSHSH2NCHCSCHCH2FeSFeHC2SHFeSHC2HCSH3CSC2HCH3CH2CHCH2CH2C2HC2HNC2SHSC2NCH2CHC2SHFeHS2HFeSH2CHSHCH3CS2CH3CHFeC2NFeH4CHC2NH3CHCHC2H2CHCHCH3C2HCHCHSC2HC2H2CH2C2HSFeCSHFeSCHSHFeHCS2CH2CH8C2SCH4C2H2CH3SHNHCHC3NC6H2CHFeHFeH2C4H6C4H7C2HC2HCHCH2SHC3HCSCFeHFeS2FeHFeHS2FeSHFeS2H2FeSCSH2C4HC2HCHC9H7NHFeH4C3H6SCHCH2CHSC2HCHCNHCH2SHCH4NC3SHCSHCHCH3CHC2H2NC3H2CSC2HCH2SCFeH2S2CHFeHC3FeH2CHFeHCH4CH2C3H5SCHSC2NH2C2H2SHC3HCHC3H2CSHC3NH2CH2CHC3HNC2H3CHCH4C2H6CSCH4C2HC2HFeCHCFeCFeS2FeHFeHS2FeSCFeSCFeCFeSCS2C2HCHSHCSH2CH2C6H4C4H3C2SHSC2HSC2HC2NH2C2HC2HC5H5CH2CH2NSC2H5CH7CSHNCHCH2CH2C
_chemical_formula_sum              "Fe64 S128 H576 C480 N32"
_cell_length_a       41.434
_cell_length_b       41.4163
_cell_length_c       35.0717
_cell_angle_alpha    89.1218
_cell_angle_beta     89.5527
_cell_angle_gamma    110.452

_space_group_name_H-M_alt    "P 1"
_space_group_IT_number       1

loop_
  _space_group_symop_operation_xyz
  'x, y, z'

loop_
  _atom_site_type_symbol
  _atom_site_label
  _atom_site_symmetry_multiplicity
  _atom_site_fract_x
  _atom_site_fract_y
  _atom_site_fract_z
  _atom_site_occupancy
  Fe  Fe1       1.0  0.16991  0.33963  0.41099  1.0000
  S   S1        1.0  0.14340  0.35325  0.46156  1.0000
  S   S2        1.0  0.14912  0.33991  0.35099  1.0000
  Fe  Fe2       1.0  0.21778  0.31642  0.46132  1.0000
  S   S3        1.0  0.20234  0.44655  0.05848  1.0000
  S   S4        1.0  0.25808  0.29114  0.45245  1.0000
  Fe  Fe3       1.0  0.14316  0.30365  0.48864  1.0000
  S   S5        1.0  0.32135  0.20659  0.04063  1.0000
  Fe  Fe4       1.0  0.19716  0.37726  0.48498  1.0000
  H   H1        1.0  0.21513  0.40904  0.17311  1.0000
  S   S6        1.0  0.16581  0.28842  0.43668  1.0000
  S   S7        1.0  0.22350  0.36719  0.43217  1.0000
  Fe  Fe5       1.0  0.20407  0.34494  0.13528  1.0000
  S   S8        1.0  0.16159  0.36480  0.12160  1.0000
  S   S9        1.0  0.22959  0.34988  0.19322  1.0000
  Fe  Fe6       1.0  0.21031  0.32529  0.05239  1.0000
  C   C1        1.0  0.20478  0.43749  0.24075  1.0000
  Fe  Fe7       1.0  0.19423  0.38994  0.07004  1.0000
  C   C2        1.0  0.29730  0.25659  0.48415  1.0000
  Fe  Fe8       1.0  0.13986  0.31773  0.08543  1.0000
  S   S10       1.0  0.08427  0.28059  0.09134  1.0000
  S   S11       1.0  0.23800  0.37263  0.08575  1.0000
  S   S12       1.0  0.18042  0.29582  0.10318  1.0000
  H   H2        1.0  0.27300  0.26941  0.26949  1.0000
  C   C3        1.0  0.05179  0.26866  0.05613  1.0000
  C   C4        1.0  0.27672  0.27664  0.49126  1.0000
  C   C5        1.0  0.28137  0.24433  0.06062  1.0000
  H   H3        1.0  0.19824  0.29459  0.35301  1.0000
  H   H4        1.0  0.18766  0.41366  0.22919  1.0000
  C   C6        1.0  0.18062  0.26222  0.24156  1.0000
  C   C7        1.0  0.26378  0.30234  0.33779  1.0000
  C   C8        1.0  0.29747  0.50560  0.48705  1.0000
  H   H5        1.0  0.28464  0.23687  0.08962  1.0000
  H   H6        1.0  0.25103  0.27519  0.07716  1.0000
  C   C9        1.0  0.17216  0.34390  0.30738  1.0000
  C   C10       1.0  0.20806  0.35388  0.30605  1.0000
  C   C11       1.0  0.22535  0.35604  0.27080  1.0000
  C   C12       1.0  0.20696  0.34856  0.23660  1.0000
  C   C13       1.0  0.17114  0.33955  0.23782  1.0000
  C   C14       1.0  0.15387  0.33721  0.27308  1.0000
  H   H7        1.0  0.22242  0.36019  0.33217  1.0000
  H   H8        1.0  0.25311  0.36354  0.26995  1.0000
  H   H9        1.0  0.15667  0.33376  0.21170  1.0000
  H   H10       1.0  0.12610  0.32983  0.27381  1.0000
  H   H11       1.0  0.18261  0.24806  0.35783  1.0000
  C   C15       1.0  0.22968  0.46903  0.29713  1.0000
  C   C16       1.0  0.31221  0.24427  0.51443  1.0000
  C   C17       1.0  0.04320  0.27968  0.50879  1.0000
  H   H12       1.0  0.06073  0.30319  0.49576  1.0000
  H   H13       1.0  0.25857  0.43837  0.17055  1.0000
  H   H14       1.0  0.23109  0.43249  0.12986  1.0000
  C   C18       1.0  0.23794  0.26496  0.22431  1.0000
  S   S13       1.0  0.16849  0.34462  0.03265  1.0000
  H   H15       1.0  0.12493  0.24133  0.05524  1.0000
  C   C19       1.0  0.20590  0.27178  0.35897  1.0000
  C   C20       1.0  0.24507  0.46607  0.51718  1.0000
  C   C21       1.0  0.25965  0.01864  0.03377  1.0000
  H   H16       1.0  0.23745  0.49148  0.12169  1.0000
  H   H17       1.0  0.16690  0.42901  0.17515  1.0000
  H   H18       1.0  0.16971  0.26601  0.29982  1.0000
  C   C22       1.0  0.24285  0.24036  0.34386  1.0000
  H   H19       1.0  0.23423  0.13961  0.47397  1.0000
  H   H20       1.0  0.28711  0.30187  0.32242  1.0000
  H   H21       1.0  0.19242  0.41765  0.29830  1.0000
  C   C23       1.0  0.24116  0.49458  0.15310  1.0000
  C   C24       1.0  0.22308  0.26767  0.29189  1.0000
  C   C25       1.0  0.24641  0.49545  0.23447  1.0000
  N   N1        1.0  0.23346  0.27052  0.33239  1.0000
  H   H22       1.0  0.15522  0.26134  0.23304  1.0000
  C   C26       1.0  0.18383  0.45473  0.16421  1.0000
  H   H23       1.0  0.33246  0.32248  0.02734  1.0000
  S   S14       1.0  0.19520  0.32805  0.51559  1.0000
  C   C27       1.0  0.20485  0.26245  0.21374  1.0000
  H   H24       1.0  0.13664  0.20981  0.51335  1.0000
  H   H25       1.0  0.26526  0.23897  0.32727  1.0000
  H   H26       1.0  0.22093  0.21585  0.33960  1.0000
  H   H27       1.0  0.25686  0.26590  0.20239  1.0000
  C   C28       1.0  0.29626  0.23236  0.03034  1.0000
  C   C29       1.0  0.24697  0.26732  0.26278  1.0000
  C   C30       1.0  0.24912  0.49697  0.27423  1.0000
  H   H28       1.0  0.09072  0.15396  0.02242  1.0000
  C   C31       1.0  0.22397  0.46554  0.21650  1.0000
  C   C32       1.0  0.13498  0.14007  0.02845  1.0000
  H   H29       1.0  0.26812  0.45485  0.46628  1.0000
  C   C33       1.0  0.24344  0.51054  0.03133  1.0000
  H   H30       1.0  0.26644  0.13280  0.50381  1.0000
  C   C34       1.0  0.23180  0.43451  0.16148  1.0000
  H   H31       1.0  0.23186  0.47022  0.32791  1.0000
  H   H32       1.0  0.18040  0.45406  0.13272  1.0000
  H   H33       1.0  0.11998  0.11402  0.03785  1.0000
  H   H34       1.0  0.25850  0.32545  0.32740  1.0000
  H   H35       1.0  0.07263  0.20021  0.02805  1.0000
  H   H36       1.0  0.21458  0.27386  0.38903  1.0000
  H   H37       1.0  0.23731  0.02555  0.04003  1.0000
  C   C35       1.0  0.26239  0.26608  0.05366  1.0000
  C   C36       1.0  0.20750  0.43940  0.28041  1.0000
  H   H38       1.0  0.25003  0.24138  0.37457  1.0000
  H   H39       1.0  0.17370  0.47434  0.17548  1.0000
  H   H40       1.0  0.19825  0.26178  0.18383  1.0000
  N   N2        1.0  0.22046  0.46273  0.17456  1.0000
  H   H41       1.0  0.04017  0.22840  0.38197  1.0000
  C   C37       1.0  0.27003  0.47361  0.48807  1.0000
  C   C38       1.0  0.17076  0.15022  0.02587  1.0000
  H   H42       1.0  0.27078  0.30638  0.36846  1.0000
  C   C39       1.0  0.18946  0.26499  0.28009  1.0000
  H   H43       1.0  0.30171  0.25055  0.45512  1.0000
  C   C40       1.0  0.24822  0.14715  0.50121  1.0000
  H   H44       1.0  0.26926  0.50106  0.15769  1.0000
  H   H45       1.0  0.18354  0.13220  0.03322  1.0000
  H   H46       1.0  0.32803  0.22894  0.50861  1.0000
  H   H47       1.0  0.26452  0.17485  0.49865  1.0000
  H   H48       1.0  0.33890  0.35710  0.47486  1.0000
  C   C41       1.0  0.13227  0.25143  0.02558  1.0000
  H   H49       1.0  0.16061  0.26518  0.02473  1.0000
  H   H50       1.0  0.19264  0.09071  0.51159  1.0000
  H   H51       1.0  0.23604  0.02836  0.49805  1.0000
  C   C42       1.0  0.18926  0.21299  0.51920  1.0000
  C   C43       1.0  0.25381  0.01650  0.50846  1.0000
  C   C44       1.0  0.15390  0.19550  0.51753  1.0000
  H   H52       1.0  0.31656  0.51116  0.46434  1.0000
  H   H53       1.0  0.19938  0.24089  0.51611  1.0000
  C   C45       1.0  0.23829  0.47511  0.03266  1.0000
  C   C46       1.0  0.02044  0.24190  0.06457  1.0000
  H   H54       1.0  0.12026  0.27120  0.02008  1.0000
  S   S15       1.0  0.10031  0.26003  0.51946  1.0000
  C   C47       1.0  0.05660  0.28457  0.02001  1.0000
  S   S16       1.0  0.20934  0.42659  0.51951  1.0000
  S   S17       1.0  0.32590  0.23826  0.59091  1.0000
  C   C48       1.0  0.05294  0.29295  0.60500  1.0000
  H   H55       1.0  0.05421  0.31351  0.58483  1.0000
  S   S18       1.0  0.32493  0.14590  0.61709  1.0000
  S   S19       1.0  0.32071  0.13812  0.95999  1.0000
  C   C49       1.0  0.33921  0.16821  0.77374  1.0000
  C   C50       1.0  0.13750  0.19768  0.00687  1.0000
  H   H56       1.0  0.21807  0.19176  0.01254  1.0000
  H   H57       1.0  0.28252  0.27895  0.58810  1.0000
  H   H58       1.0  0.04214  0.20432  0.54927  1.0000
  Fe  Fe9       1.0  0.34945  0.19661  0.58607  1.0000
  C   C51       1.0  0.30402  0.06762  0.77366  1.0000
  H   H59       1.0  0.31968  0.18001  0.77454  1.0000
  C   C52       1.0  0.19017  0.18369  0.01412  1.0000
  C   C53       1.0  0.03261  0.22401  0.53896  1.0000
  N   N3        1.0  0.12112  0.22337  0.99765  1.0000
  C   C54       1.0  0.28659  0.27252  0.55909  1.0000
  H   H60       1.0  0.26154  0.13721  0.57504  1.0000
  C   C55       1.0  0.02120  0.27204  0.62057  1.0000
  C   C56       1.0  0.35141  0.16136  0.73824  1.0000
  H   H61       1.0  0.30554  0.08914  0.75480  1.0000
  H   H62       1.0  0.30700  0.03495  0.72777  1.0000
  H   H63       1.0  0.26986  0.27152  0.95700  1.0000
  H   H64       1.0  0.30353  0.23328  0.96944  1.0000
  H   H65       1.0  0.29736  0.02179  0.93461  1.0000
  C   C57       1.0  0.16304  0.14118  0.52682  1.0000
  C   C58       1.0  0.27245  0.06019  0.89192  1.0000
  C   C59       1.0  0.19934  0.15833  0.52873  1.0000
  C   C60       1.0  0.08148  0.25988  0.63904  1.0000
  H   H66       1.0  0.30199  0.50353  0.84411  1.0000
  H   H67       1.0  0.03452  0.28575  0.96463  1.0000
  N   N4        1.0  0.30123  0.04869  0.88042  1.0000
  H   H68       1.0  0.34139  0.16798  0.71203  1.0000
  C   C61       1.0  0.33417  0.07565  0.89061  1.0000
  H   H69       1.0  0.10722  0.30217  0.60043  1.0000
  C   C62       1.0  0.24801  0.49092  0.54520  1.0000
  H   H70       1.0  0.26065  0.17944  0.56749  1.0000
  H   H71       1.0  0.08033  0.30551  0.01322  1.0000
  C   C63       1.0  0.27139  0.28454  0.52887  1.0000
  H   H72       1.0  0.07257  0.18731  0.97869  1.0000
  C   C64       1.0  0.30699  0.25232  0.55204  1.0000
  H   H73       1.0  0.15996  0.25399  0.95704  1.0000
  C   C65       1.0  0.25826  0.27604  0.01629  1.0000
  C   C66       1.0  0.30627  0.02082  0.54106  1.0000
  C   C67       1.0  0.31919  0.03553  0.01152  1.0000
  C   C68       1.0  0.13197  0.23844  0.95890  1.0000
  C   C69       1.0  0.04996  0.23904  0.65520  1.0000
  H   H74       1.0  0.25779  0.43611  0.01394  1.0000
  C   C70       1.0  0.21164  0.19477  0.52488  1.0000
  H   H75       1.0  0.30676  0.47719  0.97691  1.0000
  H   H76       1.0  0.22670  0.14841  0.59468  1.0000
  H   H77       1.0  0.12638  0.21793  0.93723  1.0000
  S   S20       1.0  0.29074  0.08107  0.53485  1.0000
  H   H78       1.0  0.33578  0.07980  0.92184  1.0000
  H   H79       1.0  0.07136  0.22864  0.99030  1.0000
  H   H80       1.0  0.32921  0.03588  0.55600  1.0000
  H   H81       1.0  0.23877  0.20947  0.52629  1.0000
  Fe  Fe10      1.0  0.34649  0.18538  0.99440  1.0000
  S   S21       1.0  0.23446  0.30305  0.00609  1.0000
  C   C71       1.0  0.30196  0.07085  0.81313  1.0000
  C   C72       1.0  0.08292  0.28665  0.61382  1.0000
  H   H82       1.0  0.22607  0.08873  0.54201  1.0000
  H   H83       1.0  0.05018  0.21860  0.67456  1.0000
  C   C73       1.0  0.28353  0.03659  0.52782  1.0000
  H   H84       1.0  0.30193  0.09528  0.82350  1.0000
  C   C74       1.0  0.29205  0.24223  0.99296  1.0000
  H   H85       1.0  0.25577  0.30012  0.53469  1.0000
  N   N5        1.0  0.22388  0.13985  0.53418  1.0000
  H   H86       1.0  0.11850  0.25644  0.95040  1.0000
  C   C75       1.0  0.08282  0.20898  0.99873  1.0000
  C   C76       1.0  0.20693  0.10181  0.53779  1.0000
  C   C77       1.0  0.26148  0.46330  0.01323  1.0000
  C   C78       1.0  0.27303  0.26394  0.98600  1.0000
  Fe  Fe11      1.0  0.33587  0.12191  0.56348  1.0000
  H   H87       1.0  0.22891  0.48532  0.56791  1.0000
  H   H88       1.0  0.19011  0.23283  0.99620  1.0000
  H   H89       1.0  0.24731  0.04188  0.88214  1.0000
  C   C79       1.0  0.30104  0.04362  0.83870  1.0000
  C   C80       1.0  0.29789  0.01718  0.90340  1.0000
  C   C81       1.0  0.24395  0.15179  0.56932  1.0000
  H   H90       1.0  0.10493  0.25505  0.64561  1.0000
  C   C82       1.0  0.28921  0.48665  0.99220  1.0000
  S   S22       1.0  0.33585  0.16936  0.85195  1.0000
  H   H91       1.0  0.27552  0.08626  0.88028  1.0000
  C   C83       1.0  0.05581  0.25440  0.52203  1.0000
  C   C84       1.0  0.03051  0.27338  0.99254  1.0000
  H   H92       1.0  0.27077  0.06214  0.92352  1.0000
  H   H93       1.0  0.18917  0.09432  0.56295  1.0000
  H   H94       1.0  0.15114  0.11353  0.52951  1.0000
  H   H95       1.0  0.29095  0.07025  0.01500  1.0000
  C   C85       1.0  0.30496  0.03713  0.75841  1.0000
  H   H96       1.0  0.34178  0.33823  0.54141  1.0000
  C   C86       1.0  0.17387  0.20707  0.00472  1.0000
  C   C87       1.0  0.14082  0.15969  0.52137  1.0000
  H   H97       1.0  0.33739  0.10096  0.87685  1.0000
  C   C88       1.0  0.35230  0.16023  0.80807  1.0000
  C   C89       1.0  0.29004  0.04405  0.01950  1.0000
  H   H98       1.0  0.11322  0.14627  0.52013  1.0000
  C   C90       1.0  0.11842  0.16337  0.01929  1.0000
  Fe  Fe12      1.0  0.17875  0.85321  0.40451  1.0000
  S   S23       1.0  0.16691  0.87934  0.45616  1.0000
  S   S24       1.0  0.16756  0.87025  0.34545  1.0000
  Fe  Fe13      1.0  0.20501  0.80619  0.45319  1.0000
  H   H99       1.0  0.14892  0.77601  0.24947  1.0000
  H   H100      1.0  0.27670  0.72682  0.08132  1.0000
  Fe  Fe14      1.0  0.14436  0.82549  0.48157  1.0000
  H   H101      1.0  0.07429  0.82498  0.19495  1.0000
  Fe  Fe15      1.0  0.21796  0.88020  0.47847  1.0000
  S   S25       1.0  0.09440  0.79124  0.08232  1.0000
  S   S26       1.0  0.15291  0.79939  0.42849  1.0000
  S   S27       1.0  0.23129  0.85800  0.42493  1.0000
  Fe  Fe16      1.0  0.21255  0.84498  0.13052  1.0000
  S   S28       1.0  0.17312  0.86882  0.11683  1.0000
  S   S29       1.0  0.22963  0.83704  0.19027  1.0000
  Fe  Fe17      1.0  0.22291  0.83152  0.04666  1.0000
  C   C91       1.0  0.27277  0.60680  0.46040  1.0000
  Fe  Fe18      1.0  0.20930  0.89629  0.06859  1.0000
  S   S30       1.0  0.21916  0.95359  0.05856  1.0000
  Fe  Fe19      1.0  0.15126  0.82494  0.07629  1.0000
  C   C92       1.0  0.29705  0.72889  0.02421  1.0000
  S   S31       1.0  0.25038  0.87520  0.08514  1.0000
  S   S32       1.0  0.18884  0.79923  0.09331  1.0000
  H   H102      1.0  0.26228  0.51795  0.21848  1.0000
  H   H103      1.0  0.20780  0.95560  0.13755  1.0000
  H   H104      1.0  0.13876  0.73165  0.05567  1.0000
  N   N6        1.0  0.24485  0.60330  0.48878  1.0000
  H   H105      1.0  0.04397  0.76306  0.19870  1.0000
  C   C93       1.0  0.24700  0.74928  0.48585  1.0000
  H   H106      1.0  0.22389  0.96600  0.48745  1.0000
  C   C94       1.0  0.23432  0.96294  0.28718  1.0000
  H   H107      1.0  0.25822  0.01436  0.18519  1.0000
  H   H108      1.0  0.19343  0.92698  0.17801  1.0000
  H   H109      1.0  0.26245  0.60005  0.43127  1.0000
  C   C95       1.0  0.18487  0.86043  0.30267  1.0000
  C   C96       1.0  0.17482  0.87047  0.26754  1.0000
  C   C97       1.0  0.18814  0.86324  0.23293  1.0000
  C   C98       1.0  0.21165  0.84591  0.23312  1.0000
  C   C99       1.0  0.22161  0.83575  0.26820  1.0000
  C   C100      1.0  0.20831  0.84296  0.30286  1.0000
  H   H110      1.0  0.15676  0.88404  0.26722  1.0000
  H   H111      1.0  0.18058  0.87138  0.20616  1.0000
  H   H112      1.0  0.23987  0.82238  0.26863  1.0000
  H   H113      1.0  0.21627  0.83512  0.32972  1.0000
  C   C101      1.0  0.24684  0.98109  0.50236  1.0000
  C   C102      1.0  0.25793  0.98442  0.03997  1.0000
  C   C103      1.0  0.19927  0.62778  0.50677  1.0000
  H   H114      1.0  0.25702  0.94216  0.12467  1.0000
  C   C104      1.0  0.23437  0.96991  0.24801  1.0000
  H   H115      1.0  0.12032  0.84257  0.19784  1.0000
  H   H116      1.0  0.06979  0.75212  0.46904  1.0000
  C   C105      1.0  0.27366  0.73619  0.48014  1.0000
  C   C106      1.0  0.28385  0.71871  0.50977  1.0000
  C   C107      1.0  0.25955  0.93728  0.15566  1.0000
  H   H117      1.0  0.05699  0.80093  0.32102  1.0000
  H   H118      1.0  0.19999  0.97200  0.18165  1.0000
  C   C108      1.0  0.27953  0.73911  0.05343  1.0000
  C   C109      1.0  0.09842  0.82081  0.18663  1.0000
  C   C110      1.0  0.04915  0.75209  0.48813  1.0000
  H   H119      1.0  0.09984  0.82285  0.15491  1.0000
  H   H120      1.0  0.30436  0.70874  0.50493  1.0000
  C   C111      1.0  0.21321  0.67088  0.44220  1.0000
  N   N7        1.0  0.09944  0.78720  0.20078  1.0000
  H   H121      1.0  0.14967  0.77757  0.31838  1.0000
  S   S33       1.0  0.26210  0.92072  0.50909  1.0000
  C   C112      1.0  0.06784  0.75941  0.18834  1.0000
  C   C113      1.0  0.10092  0.78705  0.24299  1.0000
  C   C114      1.0  0.12768  0.78065  0.26345  1.0000
  C   C115      1.0  0.18123  0.65028  0.50069  1.0000
  H   H122      1.0  0.17509  0.69010  0.46439  1.0000
  C   C116      1.0  0.07640  0.79480  0.30478  1.0000
  C   C117      1.0  0.10318  0.78886  0.32388  1.0000
  H   H123      1.0  0.15402  0.80228  0.18929  1.0000
  H   H124      1.0  0.20764  0.56042  0.46124  1.0000
  S   S34       1.0  0.31414  0.69617  0.03392  1.0000
  C   C118      1.0  0.26531  0.76490  0.04671  1.0000
  C   C119      1.0  0.24915  0.93972  0.30087  1.0000
  C   C120      1.0  0.24861  0.95304  0.22121  1.0000
  C   C121      1.0  0.05482  0.77859  0.51434  1.0000
  H   H125      1.0  0.23356  0.51688  0.16094  1.0000
  H   H126      1.0  0.02333  0.74769  0.08848  1.0000
  C   C122      1.0  0.26453  0.92375  0.27552  1.0000
  S   S35       1.0  0.19483  0.82826  0.50797  1.0000
  H   H127      1.0  0.27554  0.90524  0.28631  1.0000
  H   H128      1.0  0.25170  0.77245  0.06935  1.0000
  H   H129      1.0  0.28843  0.86722  0.47840  1.0000
  H   H130      1.0  0.21926  0.68861  0.41788  1.0000
  H   H131      1.0  0.23519  0.54867  0.49377  1.0000
  H   H132      1.0  0.28611  0.94965  0.03630  1.0000
  H   H133      1.0  0.13103  0.75626  0.19008  1.0000
  C   C123      1.0  0.18824  0.67181  0.46849  1.0000
  C   C124      1.0  0.28702  0.97586  0.03177  1.0000
  N   N8        1.0  0.24673  0.95956  0.17975  1.0000
  H   H134      1.0  0.26649  0.51993  0.28741  1.0000
  H   H135      1.0  0.10483  0.79086  0.35466  1.0000
  H   H136      1.0  0.28621  0.73918  0.45248  1.0000
  S   S36       1.0  0.33527  0.57051  0.51183  1.0000
  H   H137      1.0  0.22219  0.97508  0.30712  1.0000
  H   H138      1.0  0.22265  0.98822  0.23886  1.0000
  C   C125      1.0  0.06246  0.77502  0.04701  1.0000
  S   S37       1.0  0.23283  0.76799  0.44670  1.0000
  H   H139      1.0  0.06621  0.75843  0.15660  1.0000
  H   H140      1.0  0.05381  0.79857  0.25150  1.0000
  C   C126      1.0  0.26769  0.99589  0.17020  1.0000
  H   H141      1.0  0.29227  0.63337  0.45988  1.0000
  C   C127      1.0  0.02922  0.75334  0.05849  1.0000
  C   C128      1.0  0.12847  0.78138  0.30331  1.0000
  C   C129      1.0  0.30473  0.85107  0.48266  1.0000
  H   H142      1.0  0.06727  0.73376  0.19901  1.0000
  C   C130      1.0  0.12936  0.78171  0.18206  1.0000
  C   C131      1.0  0.07504  0.79367  0.26497  1.0000
  H   H143      1.0  0.12761  0.78217  0.15043  1.0000
  C   C132      1.0  0.30052  0.53034  0.51520  1.0000
  H   H144      1.0  0.24810  0.93351  0.33115  1.0000
  C   C133      1.0  0.21047  0.95328  0.16895  1.0000
  H   H145      1.0  0.24478  0.90947  0.16146  1.0000
  C   C134      1.0  0.26428  0.93008  0.23625  1.0000
  H   H146      1.0  0.29509  0.00175  0.17821  1.0000
  H   H147      1.0  0.28738  0.94209  0.16019  1.0000
  H   H148      1.0  0.27555  0.91571  0.21837  1.0000
  H   H149      1.0  0.22556  0.51992  0.04612  1.0000
  H   H150      1.0  0.32700  0.86172  0.46274  1.0000
  H   H151      1.0  0.28965  0.82454  0.47331  1.0000
  H   H152      1.0  0.25130  0.65016  0.42713  1.0000
  C   C135      1.0  0.22533  0.62654  0.48089  1.0000
  H   H153      1.0  0.28706  0.58914  0.46727  1.0000
  C   C136      1.0  0.23167  0.64872  0.44814  1.0000
  C   C137      1.0  0.22113  0.56693  0.48891  1.0000
  S   S38       1.0  0.18372  0.85445  0.02683  1.0000
  C   C138      1.0  0.26954  0.96530  0.51567  1.0000
  H   H154      1.0  0.20116  0.56135  0.51184  1.0000
  H   H155      1.0  0.26722  0.00150  0.13899  1.0000
  C   C139      1.0  0.12253  0.72131  0.03043  1.0000
  H   H156      1.0  0.16182  0.68913  0.05106  1.0000
  H   H157      1.0  0.10847  0.69319  0.03476  1.0000
  H   H158      1.0  0.10266  0.73377  0.03025  1.0000
  H   H159      1.0  0.20605  0.66342  0.04635  1.0000
  C   C140      1.0  0.17574  0.69251  0.02431  1.0000
  C   C141      1.0  0.20107  0.67739  0.02203  1.0000
  H   H160      1.0  0.35190  0.79145  0.07129  1.0000
  S   S39       1.0  0.09574  0.81169  0.51917  1.0000
  S   S40       1.0  0.32895  0.55009  0.96273  1.0000
  Fe  Fe20      1.0  0.34684  0.60885  0.96177  1.0000
  H   H161      1.0  0.21003  0.75483  0.52626  1.0000
  S   S41       1.0  0.31998  0.62167  0.60377  1.0000
  S   S42       1.0  0.31549  0.64080  0.94318  1.0000
  C   C142      1.0  0.07446  0.73791  0.58680  1.0000
  H   H162      1.0  0.34584  0.88724  0.56315  1.0000
  C   C143      1.0  0.30063  0.74489  0.98825  1.0000
  C   C144      1.0  0.05000  0.74953  0.65770  1.0000
  N   N9        1.0  0.14333  0.72868  0.99451  1.0000
  S   S43       1.0  0.35002  0.68614  0.84676  1.0000
  H   H163      1.0  0.34940  0.68057  0.70693  1.0000
  H   H164      1.0  0.32026  0.00862  0.89879  1.0000
  C   C145      1.0  0.22081  0.68093  0.98889  1.0000
  Fe  Fe21      1.0  0.32466  0.67380  0.57903  1.0000
  H   H165      1.0  0.08382  0.73420  0.55881  1.0000
  H   H166      1.0  0.32503  0.61151  0.85980  1.0000
  H   H167      1.0  0.33269  0.52949  0.71915  1.0000
  C   C146      1.0  0.29434  0.52207  0.99078  1.0000
  C   C147      1.0  0.16949  0.71178  0.99306  1.0000
  C   C148      1.0  0.35054  0.68335  0.76853  1.0000
  C   C149      1.0  0.26732  0.71407  0.54540  1.0000
  H   H168      1.0  0.16231  0.65167  0.52150  1.0000
  C   C150      1.0  0.30324  0.59258  0.74585  1.0000
  H   H169      1.0  0.31701  0.97351  0.54548  1.0000
  C   C151      1.0  0.30436  0.58906  0.78550  1.0000
  H   H170      1.0  0.33370  0.69825  0.76981  1.0000
  C   C152      1.0  0.02769  0.77796  0.53912  1.0000
  C   C153      1.0  0.31553  0.56343  0.80256  1.0000
  H   H171      1.0  0.17532  0.77472  0.96373  1.0000
  H   H172      1.0  0.09927  0.79044  0.66242  1.0000
  C   C154      1.0  0.04119  0.71772  0.59897  1.0000
  C   C155      1.0  0.32553  0.79945  0.55453  1.0000
  H   H173      1.0  0.18812  0.73047  0.93555  1.0000
  C   C156      1.0  0.21559  0.69988  0.95794  1.0000
  H   H174      1.0  0.03187  0.79822  0.55963  1.0000
  H   H175      1.0  0.12029  0.78070  0.59891  1.0000
  N   N10       1.0  0.31516  0.85085  0.52301  1.0000
  C   C157      1.0  0.26858  0.78068  0.01066  1.0000
  C   C158      1.0  0.32438  0.54577  0.73784  1.0000
  C   C159      1.0  0.04395  0.76709  0.98105  1.0000
  H   H176      1.0  0.09800  0.72810  0.96391  1.0000
  C   C160      1.0  0.33517  0.82763  0.52796  1.0000
  C   C161      1.0  0.33672  0.88642  0.53329  1.0000
  H   H177      1.0  0.27501  0.56113  0.00972  1.0000
  H   H178      1.0  0.02627  0.69877  0.57915  1.0000
  C   C162      1.0  0.27564  0.52276  0.54441  1.0000
  C   C163      1.0  0.31361  0.57130  0.72210  1.0000
  H   H179      1.0  0.26531  0.81460  0.53967  1.0000
  H   H180      1.0  0.30930  0.58053  0.89770  1.0000
  H   H181      1.0  0.31399  0.57513  0.69140  1.0000
  C   C164      1.0  0.08306  0.76984  0.64497  1.0000
  H   H182      1.0  0.28061  0.58253  0.86105  1.0000
  S   S44       1.0  0.25051  0.81265  0.00079  1.0000
  H   H183      1.0  0.27771  0.54129  0.56649  1.0000
  H   H184      1.0  0.30248  0.79262  0.57203  1.0000
  H   H185      1.0  0.10668  0.68848  0.96282  1.0000
  C   C165      1.0  0.24093  0.72754  0.55127  1.0000
  H   H186      1.0  0.26737  0.51997  0.84872  1.0000
  H   H187      1.0  0.24203  0.60409  0.55064  1.0000
  H   H188      1.0  0.31401  0.73713  0.96551  1.0000
  H   H189      1.0  0.27625  0.63884  0.52897  1.0000
  H   H190      1.0  0.09470  0.79942  0.99886  1.0000
  H   H191      1.0  0.30446  0.98601  0.77053  1.0000
  C   C166      1.0  0.32513  0.54164  0.77745  1.0000
  C   C167      1.0  0.11901  0.71707  0.96247  1.0000
  H   H192      1.0  0.28902  0.84143  0.57783  1.0000
  H   H193      1.0  0.29725  0.60742  0.80199  1.0000
  H   H194      1.0  0.29551  0.61285  0.73343  1.0000
  H   H195      1.0  0.30135  0.99062  0.83923  1.0000
  C   C168      1.0  0.30179  0.01270  0.82220  1.0000
  S   S45       1.0  0.27881  0.69165  0.58325  1.0000
  C   C169      1.0  0.34540  0.77842  0.55877  1.0000
  H   H196      1.0  0.32213  0.90446  0.53090  1.0000
  N   N11       1.0  0.31765  0.55919  0.84438  1.0000
  H   H197      1.0  0.28899  0.78281  0.95357  1.0000
  H   H198      1.0  0.13181  0.72514  0.93420  1.0000
  C   C170      1.0  0.06959  0.78215  0.00812  1.0000
  H   H199      1.0  0.04178  0.75496  0.68542  1.0000
  H   H200      1.0  0.22801  0.72403  0.57877  1.0000
  H   H201      1.0  0.04974  0.77260  0.95100  1.0000
  C   C171      1.0  0.28642  0.77070  0.98154  1.0000
  H   H202      1.0  0.29488  0.52070  0.88840  1.0000
  C   C172      1.0  0.27143  0.53397  0.01067  1.0000
  C   C173      1.0  0.19045  0.71521  0.95992  1.0000
  H   H203      1.0  0.23184  0.70348  0.93268  1.0000
  H   H204      1.0  0.19322  0.61189  0.53240  1.0000
  C   C174      1.0  0.09513  0.76422  0.60942  1.0000
  H   H205      1.0  0.24095  0.66981  0.98763  1.0000
  C   C175      1.0  0.26107  0.61090  0.52671  1.0000
  S   S46       1.0  0.35082  0.66798  0.52472  1.0000
  C   C176      1.0  0.30767  0.58463  0.86646  1.0000
  C   C177      1.0  0.30363  0.00967  0.78260  1.0000
  Fe  Fe22      1.0  0.34260  0.67706  0.98909  1.0000
  C   C178      1.0  0.29448  0.52432  0.85679  1.0000
  C   C179      1.0  0.02775  0.72325  0.63477  1.0000
  C   C180      1.0  0.29926  0.98540  0.53503  1.0000
  H   H206      1.0  0.33381  0.52157  0.78830  1.0000
  H   H207      1.0  0.26876  0.85863  0.54231  1.0000
  H   H208      1.0  0.27363  0.99566  0.89702  1.0000
  H   H209      1.0  0.33981  0.99440  0.01145  1.0000
  C   C181      1.0  0.16083  0.76651  0.99111  1.0000
  Fe  Fe23      1.0  0.34880  0.61707  0.55077  1.0000
  C   C182      1.0  0.28325  0.84076  0.54688  1.0000
  H   H210      1.0  0.14233  0.78046  0.99308  1.0000
  H   H211      1.0  0.27870  0.59635  0.53215  1.0000
  C   C183      1.0  0.23087  0.74521  0.52168  1.0000
  H   H212      1.0  0.17987  0.77593  0.01416  1.0000
  H   H213      1.0  0.33737  0.75685  0.57892  1.0000
  C   C184      1.0  0.31746  0.00130  0.01766  1.0000
  H   H214      1.0  0.47767  0.28571  0.06180  1.0000
  H   H215      1.0  0.62410  0.26068  0.13767  1.0000
  H   H216      1.0  0.61162  0.32770  0.19826  1.0000
  H   H217      1.0  0.67934  0.38294  0.20661  1.0000
  S   S47       1.0  0.68107  0.36037  0.02147  1.0000
  C   C185      1.0  0.65837  0.26250  0.28518  1.0000
  S   S48       1.0  0.66825  0.38456  0.45603  1.0000
  C   C186      1.0  0.55077  0.26239  0.48781  1.0000
  Fe  Fe24      1.0  0.64652  0.33153  0.48364  1.0000
  C   C187      1.0  0.57686  0.25850  0.18983  1.0000
  H   H218      1.0  0.61443  0.31423  0.15073  1.0000
  H   H219      1.0  0.56887  0.23169  0.20156  1.0000
  S   S49       1.0  0.66589  0.37613  0.11049  1.0000
  C   C188      1.0  0.38058  0.34153  0.45525  1.0000
  Fe  Fe25      1.0  0.64864  0.33066  0.07117  1.0000
  S   S50       1.0  0.59336  0.29191  0.07737  1.0000
  H   H220      1.0  0.47933  0.31720  0.02621  1.0000
  H   H221      1.0  0.42122  0.32352  0.44239  1.0000
  H   H222      1.0  0.41749  0.29244  0.11031  1.0000
  H   H223      1.0  0.67827  0.25268  0.29400  1.0000
  H   H224      1.0  0.65482  0.39110  0.26902  1.0000
  C   C189      1.0  0.41257  0.31709  0.04088  1.0000
  H   H225      1.0  0.45991  0.36250  0.03418  1.0000
  C   C190      1.0  0.41423  0.27348  0.08721  1.0000
  S   S51       1.0  0.45417  0.19496  0.51201  1.0000
  S   S52       1.0  0.65229  0.30373  0.43089  1.0000
  C   C191      1.0  0.40475  0.32630  0.46513  1.0000
  C   C192      1.0  0.63218  0.25982  0.16784  1.0000
  H   H226      1.0  0.51143  0.22103  0.45999  1.0000
  H   H227      1.0  0.56155  0.27190  0.20474  1.0000
  C   C193      1.0  0.62329  0.31272  0.18031  1.0000
  H   H228      1.0  0.44233  0.28142  0.45911  1.0000
  H   H229      1.0  0.66359  0.25191  0.22721  1.0000
  H   H230      1.0  0.56904  0.25708  0.15932  1.0000
  H   H231      1.0  0.42694  0.25497  0.09615  1.0000
  H   H232      1.0  0.65022  0.27769  0.34185  1.0000
  N   N12       1.0  0.43120  0.29748  0.51456  1.0000
  H   H233      1.0  0.62617  0.23220  0.17573  1.0000
  H   H234      1.0  0.61223  0.19323  0.46332  1.0000
  C   C194      1.0  0.62431  0.27598  0.23430  1.0000
  C   C195      1.0  0.61775  0.29013  0.30107  1.0000
  C   C196      1.0  0.60869  0.28994  0.26275  1.0000
  C   C197      1.0  0.64964  0.26230  0.24669  1.0000
  N   N13       1.0  0.61450  0.27655  0.19380  1.0000
  C   C198      1.0  0.67332  0.37806  0.26795  1.0000
  H   H235      1.0  0.66064  0.27332  0.16783  1.0000
  C   C199      1.0  0.56047  0.27644  0.04290  1.0000
  H   H236      1.0  0.65160  0.32634  0.18016  1.0000
  H   H237      1.0  0.56849  0.26802  0.46375  1.0000
  C   C200      1.0  0.52961  0.24982  0.05354  1.0000
  H   H238      1.0  0.35976  0.28071  0.04319  1.0000
  H   H239      1.0  0.52669  0.23891  0.08212  1.0000
  C   C201      1.0  0.51840  0.23576  0.48578  1.0000
  C   C202      1.0  0.40688  0.31485  0.50319  1.0000
  N   N14       1.0  0.42853  0.29110  0.05042  1.0000
  Fe  Fe26      1.0  0.67777  0.35665  0.40452  1.0000
  C   C203      1.0  0.37624  0.30712  0.03830  1.0000
  C   C204      1.0  0.59668  0.19113  0.48980  1.0000
  H   H240      1.0  0.58287  0.16325  0.49631  1.0000
  H   H241      1.0  0.60657  0.30225  0.32210  1.0000
  C   C205      1.0  0.45580  0.29682  0.48373  1.0000
  C   C206      1.0  0.64250  0.27640  0.31228  1.0000
  S   S53       1.0  0.66376  0.37121  0.34565  1.0000
  C   C207      1.0  0.38016  0.36536  0.02224  1.0000
  H   H242      1.0  0.57691  0.20279  0.48258  1.0000
  H   H243      1.0  0.47930  0.21604  0.03586  1.0000
  H   H244      1.0  0.58996  0.30169  0.25550  1.0000
  H   H245      1.0  0.38626  0.25791  0.08559  1.0000
  H   H246      1.0  0.39555  0.24707  0.50189  1.0000
  H   H247      1.0  0.47455  0.32569  0.07623  1.0000
  H   H248      1.0  0.66520  0.19385  0.47665  1.0000
  H   H249      1.0  0.37905  0.34979  0.42605  1.0000
  H   H250      1.0  0.47158  0.32332  0.47369  1.0000
  C   C208      1.0  0.41595  0.37610  0.02429  1.0000
  H   H251      1.0  0.43281  0.24534  0.02572  1.0000
  C   C209      1.0  0.68336  0.36619  0.30204  1.0000
  C   C210      1.0  0.46663  0.30581  0.05382  1.0000
  H   H252      1.0  0.62152  0.25885  0.50196  1.0000
  C   C211      1.0  0.35807  0.34591  0.48271  1.0000
  C   C212      1.0  0.43212  0.35244  0.03335  1.0000
  H   H253      1.0  0.65640  0.24586  0.48684  1.0000
  C   C213      1.0  0.66437  0.18461  0.50578  1.0000
  C   C214      1.0  0.63839  0.24442  0.51104  1.0000
  C   C215      1.0  0.50263  0.23684  0.02737  1.0000
  C   C216      1.0  0.49488  0.22817  0.51667  1.0000
  H   H254      1.0  0.47424  0.28438  0.49360  1.0000
  C   C217      1.0  0.36035  0.33090  0.02915  1.0000
  C   C218      1.0  0.42057  0.26496  0.02023  1.0000
  Fe  Fe27      1.0  0.37875  0.15174  0.63405  1.0000
  S   S54       1.0  0.38849  0.12417  0.58230  1.0000
  S   S55       1.0  0.39432  0.13875  0.69294  1.0000
  Fe  Fe28      1.0  0.40889  0.17720  0.55459  1.0000
  H   H255      1.0  0.62861  0.18261  0.59457  1.0000
  C   C219      1.0  0.43087  0.26252  0.86333  1.0000
  S   S56       1.0  0.40281  0.20474  0.60742  1.0000
  C   C220      1.0  0.43513  0.24220  0.79785  1.0000
  Fe  Fe29      1.0  0.41871  0.19534  0.96351  1.0000
  S   S57       1.0  0.37739  0.21550  0.94469  1.0000
  S   S58       1.0  0.47275  0.23582  0.95621  1.0000
  H   H256      1.0  0.39347  0.25948  0.55030  1.0000
  H   H257      1.0  0.49490  0.26721  0.86830  1.0000
  S   S59       1.0  0.35685  0.17276  0.53157  1.0000
  S   S60       1.0  0.39897  0.14811  0.92711  1.0000
  C   C221      1.0  0.64177  0.19030  0.53341  1.0000
  H   H258      1.0  0.43588  0.31275  0.57372  1.0000
  C   C222      1.0  0.37692  0.14647  0.73677  1.0000
  C   C223      1.0  0.53643  0.27420  0.55177  1.0000
  C   C224      1.0  0.37719  0.14453  0.80660  1.0000
  C   C225      1.0  0.38954  0.13788  0.77112  1.0000
  H   H259      1.0  0.38688  0.13731  0.83266  1.0000
  H   H260      1.0  0.40900  0.12600  0.77021  1.0000
  H   H261      1.0  0.49199  0.28943  0.82456  1.0000
  H   H262      1.0  0.41210  0.19533  0.85603  1.0000
  C   C226      1.0  0.44994  0.22744  0.76937  1.0000
  H   H263      1.0  0.66981  0.15489  0.61005  1.0000
  C   C227      1.0  0.44029  0.20944  0.85373  1.0000
  H   H264      1.0  0.50010  0.24953  0.82383  1.0000
  N   N15       1.0  0.44750  0.24457  0.83762  1.0000
  H   H265      1.0  0.43552  0.28937  0.85317  1.0000
  C   C228      1.0  0.40794  0.25356  0.78629  1.0000
  H   H266      1.0  0.57791  0.18328  0.56396  1.0000
  Fe  Fe30      1.0  0.36501  0.12227  0.97773  1.0000
  C   C229      1.0  0.48522  0.26352  0.83847  1.0000
  H   H267      1.0  0.39243  0.25060  0.01814  1.0000
  C   C230      1.0  0.59394  0.20964  0.55371  1.0000
  H   H268      1.0  0.40268  0.23300  0.69235  1.0000
  H   H269      1.0  0.38249  0.31045  0.55954  1.0000
  C   C231      1.0  0.43855  0.22460  0.73173  1.0000
  H   H270      1.0  0.40255  0.24843  0.86591  1.0000
  H   H271      1.0  0.45147  0.19377  0.83614  1.0000
  H   H272      1.0  0.44928  0.21201  0.71076  1.0000
  C   C232      1.0  0.50407  0.24757  0.54973  1.0000
  C   C233      1.0  0.41215  0.23629  0.72129  1.0000
  H   H273      1.0  0.45095  0.21010  0.88285  1.0000
  H   H274      1.0  0.39426  0.26410  0.80596  1.0000
  H   H275      1.0  0.64896  0.18376  0.96151  1.0000
  H   H276      1.0  0.58746  0.31065  0.99717  1.0000
  H   H277      1.0  0.46985  0.21711  0.77614  1.0000
  H   H278      1.0  0.44099  0.26409  0.89288  1.0000
  C   C234      1.0  0.50609  0.25060  0.99026  1.0000
  H   H279      1.0  0.60792  0.22490  0.57817  1.0000
  C   C235      1.0  0.64422  0.17896  0.57144  1.0000
  C   C236      1.0  0.53687  0.27732  0.97967  1.0000
  H   H280      1.0  0.46533  0.34302  0.54105  1.0000
  H   H281      1.0  0.53989  0.28816  0.95105  1.0000
  H   H282      1.0  0.65412  0.25861  0.53510  1.0000
  H   H283      1.0  0.47183  0.30383  0.55522  1.0000
  H   H284      1.0  0.48633  0.24194  0.57378  1.0000
  H   H285      1.0  0.35663  0.06846  0.88192  1.0000
  H   H286      1.0  0.54340  0.28893  0.57755  1.0000
  C   C237      1.0  0.39686  0.25069  0.74849  1.0000
  C   C238      1.0  0.38343  0.31964  0.53036  1.0000
  H   H287      1.0  0.36768  0.38371  0.01519  1.0000
  C   C239      1.0  0.66774  0.16279  0.58082  1.0000
  S   S61       1.0  0.38904  0.16785  0.01548  1.0000
  C   C240      1.0  0.67565  0.23849  0.96002  1.0000
  H   H288      1.0  0.57573  0.22247  0.54418  1.0000
  C   C241      1.0  0.56395  0.29013  0.00576  1.0000
  C   C242      1.0  0.67236  0.20452  0.95286  1.0000
  H   H289      1.0  0.37559  0.25876  0.74040  1.0000
  C   C243      1.0  0.45186  0.31509  0.54752  1.0000
  Fe  Fe31      1.0  0.35598  0.16668  0.91170  1.0000
  C   C244      1.0  0.55999  0.28174  0.52090  1.0000
  S   S62       1.0  0.60081  0.31480  0.52562  1.0000
  H   H290      1.0  0.65500  0.24422  0.97426  1.0000
  S   S63       1.0  0.35796  0.06646  0.99306  1.0000
  H   H291      1.0  0.42863  0.24724  0.53465  1.0000
  H   H292      1.0  0.42998  0.27706  0.99178  1.0000
  N   N16       1.0  0.61797  0.20843  0.52250  1.0000
  C   C245      1.0  0.41135  0.26132  0.52588  1.0000
  H   H293      1.0  0.43124  0.40298  0.01874  1.0000
  C   C246      1.0  0.35971  0.33526  0.52023  1.0000
  S   S64       1.0  0.60378  0.76594  0.49890  1.0000
  C   C247      1.0  0.45923  0.78956  0.07823  1.0000
  H   H294      1.0  0.38887  0.72005  0.05466  1.0000
  C   C248      1.0  0.68487  0.83294  0.22813  1.0000
  H   H295      1.0  0.66437  0.75258  0.48183  1.0000
  H   H296      1.0  0.47016  0.81727  0.07970  1.0000
  Fe  Fe32      1.0  0.67849  0.85934  0.40234  1.0000
  S   S65       1.0  0.66812  0.87737  0.34335  1.0000
  Fe  Fe33      1.0  0.64570  0.81319  0.47221  1.0000
  H   H297      1.0  0.62625  0.69898  0.46201  1.0000
  C   C249      1.0  0.37082  0.77906  0.07956  1.0000
  C   C250      1.0  0.61796  0.67745  0.05063  1.0000
  S   S66       1.0  0.65706  0.87067  0.10857  1.0000
  H   H298      1.0  0.56135  0.80932  0.48872  1.0000
  Fe  Fe34      1.0  0.63691  0.83517  0.05928  1.0000
  S   S67       1.0  0.67244  0.80494  0.41892  1.0000
  H   H299      1.0  0.44001  0.83794  0.03550  1.0000
  C   C251      1.0  0.64888  0.70477  0.04479  1.0000
  C   C252      1.0  0.46930  0.73579  0.08738  1.0000
  H   H300      1.0  0.65119  0.88964  0.26656  1.0000
  C   C253      1.0  0.67435  0.85932  0.29950  1.0000
  S   S68       1.0  0.64827  0.86644  0.45377  1.0000
  H   H301      1.0  0.48645  0.72209  0.09480  1.0000
  H   H302      1.0  0.63867  0.66204  0.45739  1.0000
  H   H303      1.0  0.57544  0.75257  0.05022  1.0000
  C   C254      1.0  0.52779  0.72248  0.02332  1.0000
  S   S69       1.0  0.66247  0.79786  0.07809  1.0000
  C   C255      1.0  0.64213  0.68493  0.47516  1.0000
  C   C256      1.0  0.42518  0.77186  0.06541  1.0000
  H   H304      1.0  0.39867  0.84067  0.04579  1.0000
  C   C257      1.0  0.66369  0.87069  0.26541  1.0000
  H   H305      1.0  0.42505  0.83696  0.08439  1.0000
  H   H306      1.0  0.68053  0.73365  0.42385  1.0000
  H   H307      1.0  0.65994  0.86603  0.20402  1.0000
  C   C258      1.0  0.50984  0.77759  0.50730  1.0000
  H   H308      1.0  0.35973  0.89722  0.51433  1.0000
  H   H309      1.0  0.50700  0.78558  0.09782  1.0000
  C   C259      1.0  0.38518  0.81174  0.51034  1.0000
  H   H310      1.0  0.37481  0.85419  0.48552  1.0000
  C   C260      1.0  0.41434  0.73535  0.06416  1.0000
  H   H311      1.0  0.49938  0.79787  0.50281  1.0000
  H   H312      1.0  0.37828  0.78561  0.10965  1.0000
  C   C261      1.0  0.48079  0.77159  0.08909  1.0000
  H   H313      1.0  0.35664  0.75081  0.07908  1.0000
  H   H314      1.0  0.42778  0.68992  0.07232  1.0000
  C   C262      1.0  0.41715  0.82804  0.05498  1.0000
  C   C263      1.0  0.66868  0.85742  0.22992  1.0000
  H   H315      1.0  0.61519  0.65948  0.07426  1.0000
  C   C264      1.0  0.43623  0.71772  0.07474  1.0000
  C   C265      1.0  0.54502  0.78416  0.49922  1.0000
  H   H316      1.0  0.67027  0.70812  0.06386  1.0000
  N   N17       1.0  0.40146  0.78987  0.05379  1.0000
  C   C266      1.0  0.55909  0.75841  0.50559  1.0000
  C   C267      1.0  0.55363  0.75336  0.03397  1.0000
  S   S70       1.0  0.68087  0.86572  0.02050  1.0000
  H   H317      1.0  0.63078  0.67562  0.50391  1.0000
  S   S71       1.0  0.58256  0.82485  0.03668  1.0000
  C   C268      1.0  0.36576  0.83322  0.50614  1.0000
  C   C269      1.0  0.67944  0.73923  0.49753  1.0000
  N   N18       1.0  0.67879  0.70743  0.47804  1.0000
  C   C270      1.0  0.55089  0.78511  0.02398  1.0000
  H   H318      1.0  0.52981  0.69802  0.03161  1.0000
  H   H319      1.0  0.40823  0.81614  0.49309  1.0000
  C   C271      1.0  0.59054  0.67346  0.02619  1.0000
  H   H320      1.0  0.56638  0.65231  0.03091  1.0000
  C   C272      1.0  0.53738  0.72585  0.51923  1.0000
  C   C273      1.0  0.38491  0.65486  0.80055  1.0000
  S   S72       1.0  0.40114  0.64049  0.57736  1.0000
  H   H321      1.0  0.46297  0.76549  0.67030  1.0000
  Fe  Fe35      1.0  0.40071  0.69173  0.55593  1.0000
  H   H322      1.0  0.66792  0.73359  0.52673  1.0000
  S   S73       1.0  0.39170  0.63945  0.68682  1.0000
  S   S74       1.0  0.37429  0.70153  0.60859  1.0000
  H   H323      1.0  0.57532  0.74635  0.95444  1.0000
  Fe  Fe36      1.0  0.41295  0.67271  0.96953  1.0000
  S   S75       1.0  0.38651  0.70950  0.95133  1.0000
  H   H324      1.0  0.47392  0.75530  0.97727  1.0000
  H   H325      1.0  0.51944  0.80999  0.99600  1.0000
  C   C274      1.0  0.39362  0.64468  0.76488  1.0000
  H   H326      1.0  0.59617  0.76040  0.59873  1.0000
  S   S76       1.0  0.39113  0.63603  0.92156  1.0000
  H   H327      1.0  0.38988  0.76757  0.53951  1.0000
  C   C275      1.0  0.35944  0.67340  0.73283  1.0000
  H   H328      1.0  0.58956  0.72062  0.92146  1.0000
  H   H329      1.0  0.46996  0.70172  0.70247  1.0000
  H   H330      1.0  0.39526  0.64817  0.82645  1.0000
  C   C276      1.0  0.65710  0.75187  0.93267  1.0000
  S   S77       1.0  0.46814  0.68311  0.98888  1.0000
  S   S78       1.0  0.44449  0.73909  0.53285  1.0000
  C   C277      1.0  0.50210  0.71912  0.52675  1.0000
  H   H331      1.0  0.46289  0.70263  0.59681  1.0000
  H   H332      1.0  0.51167  0.70548  0.68550  1.0000
  H   H333      1.0  0.54611  0.72082  0.63315  1.0000
  C   C278      1.0  0.51471  0.75348  0.62869  1.0000
  H   H334      1.0  0.54407  0.83205  0.58165  1.0000
  Fe  Fe37      1.0  0.37217  0.64923  0.62871  1.0000
  C   C279      1.0  0.59728  0.74572  0.93622  1.0000
  C   C280      1.0  0.47101  0.69684  0.62548  1.0000
  N   N19       1.0  0.48400  0.72856  0.64816  1.0000
  Fe  Fe38      1.0  0.36149  0.67040  0.90629  1.0000
  H   H335      1.0  0.67679  0.74916  0.01164  1.0000
  H   H336      1.0  0.41025  0.62958  0.76362  1.0000
  H   H337      1.0  0.44557  0.74725  0.62502  1.0000
  H   H338      1.0  0.43261  0.72239  0.66809  1.0000
  C   C281      1.0  0.38077  0.65370  0.73089  1.0000
  H   H339      1.0  0.65209  0.72591  0.92057  1.0000
  C   C282      1.0  0.35349  0.56324  0.85481  1.0000
  C   C283      1.0  0.49309  0.71933  0.68665  1.0000
  N   N20       1.0  0.62886  0.75169  0.95904  1.0000
  H   H340      1.0  0.37189  0.58855  0.84449  1.0000
  H   H341      1.0  0.50457  0.74275  0.70404  1.0000
  H   H342      1.0  0.37337  0.79502  0.00365  1.0000
  C   C284      1.0  0.62474  0.72556  0.98979  1.0000
  H   H343      1.0  0.48575  0.69380  0.53663  1.0000
  C   C285      1.0  0.59375  0.69697  0.99606  1.0000
  H   H344      1.0  0.41242  0.78627  0.99419  1.0000
  C   C286      1.0  0.54447  0.80810  0.59417  1.0000
  C   C287      1.0  0.57363  0.79912  0.58941  1.0000
  H   H345      1.0  0.57127  0.69252  0.97865  1.0000
  H   H346      1.0  0.61862  0.78675  0.99782  1.0000
  C   C288      1.0  0.63787  0.78633  0.97581  1.0000
  H   H347      1.0  0.66332  0.79467  0.98971  1.0000
  C   C289      1.0  0.51530  0.78569  0.61333  1.0000
  H   H348      1.0  0.68248  0.75951  0.94710  1.0000
  C   C290      1.0  0.52190  0.78555  0.00362  1.0000
  H   H349      1.0  0.44833  0.67711  0.63952  1.0000
  H   H350      1.0  0.63929  0.80663  0.95405  1.0000
  H   H351      1.0  0.49058  0.68450  0.62112  1.0000
  C   C291      1.0  0.45516  0.74171  0.65309  1.0000
  C   C292      1.0  0.54495  0.74522  0.62334  1.0000
  H   H352      1.0  0.49328  0.79384  0.61469  1.0000
  C   C293      1.0  0.57385  0.76773  0.60389  1.0000
  H   H353      1.0  0.59565  0.81593  0.57315  1.0000
  C   C294      1.0  0.65234  0.72834  0.01477  1.0000
  H   H354      1.0  0.60111  0.76603  0.91372  1.0000
  S   S79       1.0  0.37074  0.64286  0.01061  1.0000
  C   C295      1.0  0.49602  0.75462  0.99302  1.0000
  C   C296      1.0  0.48822  0.74517  0.52139  1.0000
  H   H355      1.0  0.66049  0.77068  0.90863  1.0000
  C   C297      1.0  0.49898  0.72289  0.00267  1.0000
  C   C298      1.0  0.36301  0.67394  0.80256  1.0000
  H   H356      1.0  0.37427  0.75307  0.01163  1.0000
  H   H357      1.0  0.54794  0.70569  0.52404  1.0000
  C   C299      1.0  0.37496  0.78436  0.53656  1.0000
  H   H358      1.0  0.36197  0.54283  0.84285  1.0000
  H   H359      1.0  0.35642  0.56191  0.88630  1.0000
  C   C300      1.0  0.39000  0.78075  0.01414  1.0000
  C   C301      1.0  0.89255  0.32995  0.08128  1.0000
  H   H360      1.0  0.78356  0.36738  0.48262  1.0000
  S   S80       1.0  0.72805  0.26839  0.44847  1.0000
  Fe  Fe39      1.0  0.72019  0.38551  0.47558  1.0000
  C   C302      1.0  0.70763  0.34973  0.30035  1.0000
  S   S81       1.0  0.73101  0.36114  0.42225  1.0000
  H   H361      1.0  0.77629  0.45549  0.02911  1.0000
  Fe  Fe40      1.0  0.72310  0.34324  0.04505  1.0000
  S   S82       1.0  0.69799  0.33471  0.50743  1.0000
  C   C303      1.0  0.77709  0.48110  0.02120  1.0000
  H   H362      1.0  0.91007  0.29103  0.05795  1.0000
  S   S83       1.0  0.74528  0.38891  0.08269  1.0000
  H   H363      1.0  0.71561  0.34050  0.32636  1.0000
  Fe  Fe41      1.0  0.70511  0.31050  0.45301  1.0000
  H   H364      1.0  0.87645  0.10293  0.44575  1.0000
  C   C304      1.0  0.79087  0.04619  0.02722  1.0000
  S   S84       1.0  0.68951  0.31018  0.09125  1.0000
  S   S85       1.0  0.72651  0.34677  0.18646  1.0000
  C   C305      1.0  0.79902  0.35053  0.48765  1.0000
  H   H365      1.0  0.81619  0.51069  0.10090  1.0000
  H   H366      1.0  0.81598  0.36583  0.10524  1.0000
  C   C306      1.0  0.99424  0.23092  0.03720  1.0000
  H   H367      1.0  0.72886  0.26742  0.05316  1.0000
  H   H368      1.0  0.94364  0.13590  0.49176  1.0000
  H   H369      1.0  0.79361  0.20367  0.50873  1.0000
  H   H370      1.0  0.95510  0.13360  0.38861  1.0000
  H   H371      1.0  0.84015  0.48235  0.43347  1.0000
  H   H372      1.0  0.75784  0.29311  0.16028  1.0000
  H   H373      1.0  0.78667  0.32858  0.08323  1.0000
  H   H374      1.0  0.75687  0.50423  0.12054  1.0000
  C   C307      1.0  0.92392  0.14820  0.48769  1.0000
  C   C308      1.0  0.71039  0.35572  0.23066  1.0000
  S   S86       1.0  0.70869  0.46017  0.04566  1.0000
  C   C309      1.0  0.96850  0.20746  0.43851  1.0000
  H   H375      1.0  0.73913  0.33102  0.26378  1.0000
  H   H376      1.0  0.77417  0.34537  0.12546  1.0000
  H   H377      1.0  0.77309  0.22948  0.45387  1.0000
  H   H378      1.0  0.85923  0.39799  0.50567  1.0000
  C   C310      1.0  0.76214  0.02184  0.04577  1.0000
  C   C311      1.0  0.72091  0.34437  0.26479  1.0000
  H   H379      1.0  0.91788  0.10145  0.43491  1.0000
  H   H380      1.0  0.78539  0.26828  0.16434  1.0000
  C   C312      1.0  0.00040  0.22704  0.42229  1.0000
  H   H381      1.0  0.89998  0.13185  0.50290  1.0000
  H   H382      1.0  0.83287  0.31898  0.18908  1.0000
  H   H383      1.0  0.80189  0.34059  0.18760  1.0000
  S   S87       1.0  0.80127  0.19698  0.03569  1.0000
  H   H384      1.0  0.89903  0.30957  0.49285  1.0000
  N   N21       1.0  0.91771  0.15245  0.44667  1.0000
  H   H385      1.0  0.81215  0.25283  0.11365  1.0000
  C   C313      1.0  0.95069  0.17300  0.42759  1.0000
  H   H386      1.0  0.76601  0.27211  0.11916  1.0000
  C   C314      1.0  0.96660  0.15949  0.39887  1.0000
  C   C315      1.0  0.89257  0.17053  0.44307  1.0000
  C   C316      1.0  0.76555  0.23325  0.48260  1.0000
  N   N22       1.0  0.80851  0.31726  0.13486  1.0000
  C   C317      1.0  0.82229  0.33501  0.17079  1.0000
  C   C318      1.0  0.79592  0.34025  0.11120  1.0000
  C   C319      1.0  0.77821  0.28620  0.14506  1.0000
  C   C320      1.0  0.83606  0.30945  0.11396  1.0000
  C   C321      1.0  0.83415  0.27527  0.10583  1.0000
  C   C322      1.0  0.86622  0.33658  0.10120  1.0000
  H   H387      1.0  0.93307  0.17322  0.50255  1.0000
  H   H388      1.0  0.86778  0.34932  0.48301  1.0000
  C   C323      1.0  0.75180  0.26591  0.03962  1.0000
  H   H389      1.0  0.84320  0.36022  0.16551  1.0000
  Fe  Fe42      1.0  0.70829  0.35705  0.12773  1.0000
  H   H390      1.0  0.95805  0.21946  0.46010  1.0000
  Fe  Fe43      1.0  0.70167  0.40446  0.06213  1.0000
  H   H391      1.0  0.99855  0.29476  0.50313  1.0000
  H   H392      1.0  0.01639  0.22953  0.09247  1.0000
  C   C324      1.0  0.76112  0.23667  0.04556  1.0000
  C   C325      1.0  0.90140  0.11743  0.43092  1.0000
  C   C326      1.0  0.77023  0.47048  0.51162  1.0000
  C   C327      1.0  0.79047  0.23411  0.02752  1.0000
  H   H393      1.0  0.89555  0.11868  0.40013  1.0000
  H   H394      1.0  0.90039  0.19498  0.45915  1.0000
  H   H395      1.0  0.01375  0.25314  0.43169  1.0000
  H   H396      1.0  0.74535  0.21578  0.06391  1.0000
  H   H397      1.0  0.97033  0.21022  0.04406  1.0000
  H   H398      1.0  0.86955  0.36321  0.10628  1.0000
  C   C328      1.0  0.74380  0.25226  0.48845  1.0000
  C   C329      1.0  0.86076  0.26896  0.08610  1.0000
  C   C330      1.0  0.99844  0.17945  0.38255  1.0000
  C   C331      1.0  0.88979  0.29618  0.07369  1.0000
  H   H399      1.0  0.72138  0.46762  0.48854  1.0000
  H   H400      1.0  0.77935  0.47063  0.41721  1.0000
  H   H401      1.0  0.91517  0.35107  0.07141  1.0000
  H   H402      1.0  0.86670  0.15451  0.45471  1.0000
  H   H403      1.0  0.88935  0.17684  0.41270  1.0000
  H   H404      1.0  0.85851  0.24270  0.07968  1.0000
  H   H405      1.0  0.74393  0.03054  0.06094  1.0000
  C   C332      1.0  0.77726  0.21864  0.51365  1.0000
  C   C333      1.0  0.79642  0.49692  0.42161  1.0000
  H   H406      1.0  0.81848  0.35658  0.46422  1.0000
  C   C334      1.0  0.74481  0.48398  0.50166  1.0000
  C   C335      1.0  0.74755  0.48978  0.02564  1.0000
  H   H407      1.0  0.82406  0.02514  0.09877  1.0000
  C   C336      1.0  0.86043  0.33166  0.50716  1.0000
  H   H408      1.0  0.81510  0.02102  0.46527  1.0000
  C   C337      1.0  0.00793  0.27486  0.51314  1.0000
  H   H409      1.0  0.78159  0.32343  0.48419  1.0000
  H   H410      1.0  0.79457  0.07336  0.02810  1.0000
  S   S88       1.0  0.76604  0.42714  0.50222  1.0000
  H   H411      1.0  0.01021  0.16874  0.36073  1.0000
  C   C338      1.0  0.01536  0.21307  0.39437  1.0000
  C   C339      1.0  0.87853  0.30909  0.51252  1.0000
  C   C340      1.0  0.68700  0.37320  0.23248  1.0000
  H   H412      1.0  0.70499  0.16472  0.49403  1.0000
  C   C341      1.0  0.83071  0.50360  0.43093  1.0000
  S   S89       1.0  0.83673  0.07698  0.51783  1.0000
  C   C342      1.0  0.68745  0.16808  0.51543  1.0000
  Fe  Fe44      1.0  0.82084  0.17913  0.58592  1.0000
  H   H413      1.0  0.96065  0.20639  0.71743  1.0000
  Fe  Fe45      1.0  0.86729  0.15447  0.63679  1.0000
  S   S90       1.0  0.89711  0.14540  0.58638  1.0000
  S   S91       1.0  0.88784  0.14659  0.69504  1.0000
  Fe  Fe46      1.0  0.89685  0.19608  0.56353  1.0000
  H   H414      1.0  0.73726  0.21507  0.84923  1.0000
  Fe  Fe47      1.0  0.84525  0.12170  0.55876  1.0000
  H   H415      1.0  0.00603  0.21521  0.71760  1.0000
  S   S92       1.0  0.87052  0.20692  0.61547  1.0000
  S   S93       1.0  0.81540  0.12679  0.61099  1.0000
  Fe  Fe48      1.0  0.85953  0.12219  0.97697  1.0000
  S   S94       1.0  0.81570  0.13837  0.95910  1.0000
  H   H416      1.0  0.74796  0.16550  0.93355  1.0000
  Fe  Fe49      1.0  0.91193  0.19594  0.96854  1.0000
  S   S95       1.0  0.87103  0.21710  0.94962  1.0000
  S   S96       1.0  0.96785  0.23282  0.96467  1.0000
  H   H417      1.0  0.83082  0.49896  0.00448  1.0000
  H   H418      1.0  0.82213  0.08279  0.91366  1.0000
  Fe  Fe50      1.0  0.85147  0.17017  0.91320  1.0000
  S   S97       1.0  0.82746  0.17176  0.85521  1.0000
  C   C343      1.0  0.81061  0.26108  0.00366  1.0000
  S   S98       1.0  0.89422  0.15116  0.92840  1.0000
  H   H419      1.0  0.72448  0.17333  0.87219  1.0000
  H   H420      1.0  0.83734  0.26622  0.59198  1.0000
  C   C344      1.0  0.80052  0.49219  0.52871  1.0000
  C   C345      1.0  0.81944  0.06232  0.82037  1.0000
  C   C346      1.0  0.99920  0.24653  0.00093  1.0000
  C   C347      1.0  0.98568  0.22327  0.70441  1.0000
  H   H421      1.0  0.70809  0.14564  0.56051  1.0000
  C   C348      1.0  0.98037  0.18459  0.65218  1.0000
  C   C349      1.0  0.82554  0.30709  0.56329  1.0000
  H   H422      1.0  0.83359  0.25961  0.99014  1.0000
  C   C350      1.0  0.80132  0.29032  0.99775  1.0000
  H   H423      1.0  0.95652  0.25487  0.65613  1.0000
  C   C351      1.0  0.73421  0.25700  0.52567  1.0000
  C   C352      1.0  0.68924  0.15732  0.55289  1.0000
  C   C353      1.0  0.73286  0.25815  0.93150  1.0000
  C   C354      1.0  0.87094  0.15429  0.73920  1.0000
  C   C355      1.0  0.84062  0.16182  0.74143  1.0000
  C   C356      1.0  0.82774  0.16720  0.77717  1.0000
  C   C357      1.0  0.84516  0.16543  0.81094  1.0000
  C   C358      1.0  0.87564  0.15817  0.80870  1.0000
  C   C359      1.0  0.88833  0.15243  0.77299  1.0000
  H   H424      1.0  0.82695  0.16328  0.71565  1.0000
  H   H425      1.0  0.80415  0.17282  0.77858  1.0000
  H   H426      1.0  0.88949  0.15704  0.83441  1.0000
  H   H427      1.0  0.91184  0.14667  0.77154  1.0000
  H   H428      1.0  0.81787  0.03953  0.80308  1.0000
  H   H429      1.0  0.79926  0.07268  0.81102  1.0000
  H   H430      1.0  0.84374  0.10748  0.87315  1.0000
  N   N23       1.0  0.81643  0.05381  0.86189  1.0000
  H   H431      1.0  0.88411  0.26800  0.54702  1.0000
  Fe  Fe51      1.0  0.83875  0.18380  0.99673  1.0000
  H   H432      1.0  0.77565  0.20175  0.95864  1.0000
  H   H433      1.0  0.75568  0.28016  0.92490  1.0000
  H   H434      1.0  0.78469  0.26420  0.87680  1.0000
  H   H435      1.0  0.80105  0.25905  0.92339  1.0000
  C   C360      1.0  0.76860  0.19107  0.92979  1.0000
  C   C361      1.0  0.76680  0.22245  0.55079  1.0000
  C   C362      1.0  0.73040  0.22374  0.92385  1.0000
  H   H436      1.0  0.85215  0.39604  0.55641  1.0000
  H   H437      1.0  0.95467  0.16648  0.66190  1.0000
  H   H438      1.0  0.79632  0.35629  0.58378  1.0000
  H   H439      1.0  0.75952  0.01677  0.81692  1.0000
  H   H440      1.0  0.81061  0.23798  0.88313  1.0000
  H   H441      1.0  0.93078  0.21053  0.66111  1.0000
  S   S99       1.0  0.84720  0.17235  0.53221  1.0000
  C   C363      1.0  0.82008  0.08590  0.88235  1.0000
  H   H442      1.0  0.73705  0.24471  0.58533  1.0000
  C   C364      1.0  0.81494  0.03537  0.00815  1.0000
  H   H443      1.0  0.78207  0.04425  0.57452  1.0000
  H   H444      1.0  0.95280  0.22596  0.61678  1.0000
  C   C365      1.0  0.83324  0.33129  0.53232  1.0000
  H   H445      1.0  0.99898  0.27782  0.61133  1.0000
  S   S100      1.0  0.94062  0.23986  0.53482  1.0000
  C   C366      1.0  0.99727  0.21901  0.54285  1.0000
  C   C367      1.0  0.77915  0.02689  0.55101  1.0000
  H   H446      1.0  0.84738  0.03917  0.90368  1.0000
  C   C368      1.0  0.74541  0.24187  0.55668  1.0000
  H   H447      1.0  0.84310  0.01764  0.85897  1.0000
  C   C369      1.0  0.70572  0.26519  0.94915  1.0000
  N   N24       1.0  0.98551  0.22073  0.66226  1.0000
  H   H448      1.0  0.84459  0.08273  0.81286  1.0000
  C   C370      1.0  0.98484  0.24465  0.53041  1.0000
  H   H449      1.0  0.79127  0.18608  0.91782  1.0000
  H   H450      1.0  0.98208  0.18198  0.62081  1.0000
  S   S101      1.0  0.85168  0.06515  0.98469  1.0000
  H   H451      1.0  0.81713  0.31121  0.97943  1.0000
  C   C371      1.0  0.78639  0.35136  0.55426  1.0000
  H   H452      1.0  0.76694  0.19220  0.85279  1.0000
  H   H453      1.0  0.71736  0.27141  0.53053  1.0000
  H   H454      1.0  0.99960  0.17501  0.66550  1.0000
  H   H455      1.0  0.99009  0.25019  0.71319  1.0000
  N   N25       1.0  0.75841  0.21513  0.90503  1.0000
  C   C372      1.0  0.74615  0.19820  0.86827  1.0000
  C   C373      1.0  0.78994  0.24556  0.89678  1.0000
  C   C374      1.0  0.01872  0.24412  0.64600  1.0000
  S   S102      1.0  0.76105  0.32987  0.00717  1.0000
  H   H456      1.0  0.97971  0.19539  0.55542  1.0000
  C   C375      1.0  0.83903  0.39154  0.52838  1.0000
  S   S103      1.0  0.77861  0.20219  0.59034  1.0000
  H   H457      1.0  0.82562  0.41054  0.52510  1.0000
  C   C376      1.0  0.84563  0.04261  0.87228  1.0000
  H   H458      1.0  0.79565  0.02734  0.93370  1.0000
  C   C377      1.0  0.84398  0.28482  0.56847  1.0000
  H   H459      1.0  0.87086  0.06202  0.86317  1.0000
  H   H460      1.0  0.77274  0.36983  0.54849  1.0000
  H   H461      1.0  0.76649  0.32512  0.55327  1.0000
  C   C378      1.0  0.95524  0.22852  0.64830  1.0000
  H   H462      1.0  0.82028  0.48199  0.53668  1.0000
  C   C379      1.0  0.80800  0.50581  0.00714  1.0000
  C   C380      1.0  0.69919  0.19716  0.93490  1.0000
  H   H463      1.0  0.79775  0.09437  0.87713  1.0000
  H   H464      1.0  0.69544  0.17040  0.93001  1.0000
  N   N26       1.0  0.81459  0.35558  0.52604  1.0000
  C   C381      1.0  0.87026  0.28567  0.54308  1.0000
  C   C382      1.0  0.77192  0.29284  0.01568  1.0000
  C   C383      1.0  0.78345  0.02667  0.87332  1.0000
  H   H465      1.0  0.80505  0.30432  0.58367  1.0000
  H   H466      1.0  0.70835  0.29162  0.95519  1.0000
  C   C384      1.0  0.77689  0.01598  0.91212  1.0000
  S   S104      1.0  0.88069  0.16543  0.01850  1.0000
  C   C385      1.0  0.80197  0.03673  0.51984  1.0000
  C   C386      1.0  0.82999  0.94589  0.10906  1.0000
  H   H467      1.0  0.80307  0.64577  0.13645  1.0000
  C   C387      1.0  0.79423  0.98590  0.13896  1.0000
  H   H468      1.0  0.80031  0.90567  0.14627  1.0000
  H   H469      1.0  0.82421  0.65988  0.09103  1.0000
  S   S105      1.0  0.73015  0.88274  0.43012  1.0000
  C   C388      1.0  0.83723  0.97954  0.09562  1.0000
  Fe  Fe52      1.0  0.70791  0.83061  0.04256  1.0000
  H   H470      1.0  0.76773  0.96395  0.46676  1.0000
  H   H471      1.0  0.73669  0.55231  0.11611  1.0000
  S   S106      1.0  0.72113  0.95723  0.07059  1.0000
  S   S107      1.0  0.73359  0.86588  0.09008  1.0000
  C   C389      1.0  0.78370  0.52386  0.41949  1.0000
  H   H472      1.0  0.87872  0.54107  0.44566  1.0000
  Fe  Fe53      1.0  0.72163  0.82865  0.45093  1.0000
  H   H473      1.0  0.79308  0.57691  0.42624  1.0000
  C   C390      1.0  0.69857  0.68869  0.49794  1.0000
  C   C391      1.0  0.77991  0.74970  0.05280  1.0000
  C   C392      1.0  0.76066  0.77117  0.04539  1.0000
  Fe  Fe54      1.0  0.70307  0.89848  0.07073  1.0000
  H   H474      1.0  0.78212  0.74156  0.08181  1.0000
  H   H475      1.0  0.74813  0.77938  0.06856  1.0000
  C   C393      1.0  0.84033  0.56540  0.43633  1.0000
  H   H476      1.0  0.78989  0.67328  0.10452  1.0000
  Fe  Fe55      1.0  0.70002  0.88628  0.48247  1.0000
  H   H477      1.0  0.78372  0.90504  0.21127  1.0000
  C   C394      1.0  0.89378  0.61105  0.41800  1.0000
  H   H478      1.0  0.89346  0.62807  0.49195  1.0000
  H   H479      1.0  0.73960  0.89548  0.22431  1.0000
  H   H480      1.0  0.74805  0.95159  0.24071  1.0000
  H   H481      1.0  0.71868  0.59338  0.09154  1.0000
  C   C395      1.0  0.84724  0.62722  0.44140  1.0000
  H   H482      1.0  0.86632  0.82598  0.49887  1.0000
  H   H483      1.0  0.82547  0.62205  0.46225  1.0000
  C   C396      1.0  0.87654  0.60164  0.48418  1.0000
  C   C397      1.0  0.77178  0.62679  0.04712  1.0000
  C   C398      1.0  0.77452  0.52925  0.11091  1.0000
  H   H484      1.0  0.70480  0.92352  0.18988  1.0000
  H   H485      1.0  0.72017  0.91664  0.14379  1.0000
  H   H486      1.0  0.85592  0.98988  0.07272  1.0000
  H   H487      1.0  0.69045  0.69517  0.42085  1.0000
  H   H488      1.0  0.73899  0.60808  0.13682  1.0000
  S   S108      1.0  0.76336  0.80512  0.44635  1.0000
  C   C399      1.0  0.81894  0.59235  0.08183  1.0000
  H   H489      1.0  0.70803  0.80265  0.26110  1.0000
  S   S109      1.0  0.69503  0.83342  0.50508  1.0000
  C   C400      1.0  0.81027  0.75196  0.50965  1.0000
  C   C401      1.0  0.78522  0.58986  0.09341  1.0000
  N   N27       1.0  0.77377  0.61976  0.08841  1.0000
  H   H490      1.0  0.70598  0.75824  0.49906  1.0000
  H   H491      1.0  0.80299  0.76079  0.45006  1.0000
  C   C402      1.0  0.76670  0.96237  0.21665  1.0000
  C   C403      1.0  0.71940  0.63987  0.50064  1.0000
  H   H492      1.0  0.73229  0.63784  0.10284  1.0000
  H   H493      1.0  0.90967  0.59445  0.42116  1.0000
  S   S110      1.0  0.82086  0.71244  0.03384  1.0000
  H   H494      1.0  0.91148  0.63793  0.42313  1.0000
  C   C404      1.0  0.69332  0.71767  0.43905  1.0000
  C   C405      1.0  0.79673  0.73920  0.02304  1.0000
  C   C406      1.0  0.81937  0.99948  0.11051  1.0000
  H   H495      1.0  0.83834  0.92008  0.47080  1.0000
  C   C407      1.0  0.77791  0.78711  0.48572  1.0000
  H   H496      1.0  0.72132  0.73326  0.44007  1.0000
  C   C408      1.0  0.72590  0.93428  0.16837  1.0000
  C   C409      1.0  0.80793  0.53279  0.09977  1.0000
  C   C410      1.0  0.80509  0.55762  0.42696  1.0000
  H   H497      1.0  0.83753  0.62851  0.41215  1.0000
  H   H498      1.0  0.82557  0.73604  0.50419  1.0000
  C   C411      1.0  0.76315  0.55726  0.10789  1.0000
  S   S111      1.0  0.69388  0.81707  0.18407  1.0000
  H   H499      1.0  0.77983  0.00177  0.14803  1.0000
  C   C412      1.0  0.00339  0.73874  0.03144  1.0000
  C   C413      1.0  0.85246  0.53729  0.43805  1.0000
  C   C414      1.0  0.83010  0.56428  0.08529  1.0000
  N   N28       1.0  0.86380  0.60074  0.44471  1.0000
  H   H500      1.0  0.86565  0.65349  0.44766  1.0000
  H   H501      1.0  0.76295  0.64897  0.04184  1.0000
  C   C415      1.0  0.78054  0.97549  0.02530  1.0000
  H   H502      1.0  0.97797  0.72203  0.04063  1.0000
  H   H503      1.0  0.83796  0.86648  0.48134  1.0000
  C   C416      1.0  0.75686  0.98641  0.04508  1.0000
  H   H504      1.0  0.76394  0.98730  0.20860  1.0000
  C   C417      1.0  0.77088  0.98124  0.49037  1.0000
  C   C418      1.0  0.80516  0.93216  0.13785  1.0000
  C   C419      1.0  0.73941  0.61434  0.10579  1.0000
  H   H505      1.0  0.79731  0.63360  0.03260  1.0000
  N   N29       1.0  0.76005  0.93827  0.18431  1.0000
  C   C420      1.0  0.75840  0.90422  0.20014  1.0000
  C   C421      1.0  0.79876  0.65078  0.10601  1.0000
  H   H506      1.0  0.74960  0.88362  0.17853  1.0000
  H   H507      1.0  0.89189  0.58470  0.48861  1.0000
  H   H508      1.0  0.88526  0.60970  0.38786  1.0000
  C   C422      1.0  0.79749  0.76606  0.47904  1.0000
  H   H509      1.0  0.79311  0.96785  0.22782  1.0000
  C   C423      1.0  0.78679  0.95203  0.15409  1.0000
  H   H510      1.0  0.68692  0.64702  0.45709  1.0000
  H   H511      1.0  0.85468  0.59323  0.50499  1.0000
  H   H512      1.0  0.83662  0.61566  0.06867  1.0000
  H   H513      1.0  0.72444  0.95910  0.15751  1.0000
  C   C424      1.0  0.98982  0.72445  0.51205  1.0000
  C   C425      1.0  0.70023  0.65763  0.48290  1.0000
  H   H514      1.0  0.85554  0.56652  0.07486  1.0000
  H   H515      1.0  0.75368  0.60398  0.03267  1.0000
  H   H516      1.0  0.84320  0.93009  0.09655  1.0000
  H   H517      1.0  0.77688  0.94832  0.02468  1.0000
  H   H518      1.0  0.72057  0.61628  0.48868  1.0000
  H   H519      1.0  0.01290  0.70468  0.46693  1.0000
  C   C426      1.0  0.01686  0.72517  0.48709  1.0000
  S   S112      1.0  0.95000  0.68928  0.51040  1.0000
  C   C427      1.0  0.74997  0.51897  0.50811  1.0000
  H   H520      1.0  0.73031  0.52924  0.49986  1.0000
  H   H521      1.0  0.69858  0.82565  0.32365  1.0000
  H   H522      1.0  0.75669  0.51829  0.41339  1.0000
  H   H523      1.0  0.82608  0.95306  0.49116  1.0000
  C   C428      1.0  0.69549  0.82156  0.26219  1.0000
  C   C429      1.0  0.69021  0.83459  0.29770  1.0000
  H   H524      1.0  0.78432  0.87304  0.48787  1.0000
  C   C430      1.0  0.83744  0.93298  0.49814  1.0000
  C   C431      1.0  0.78277  0.88873  0.51283  1.0000
  H   H525      1.0  0.76899  0.90609  0.50330  1.0000
  Fe  Fe56      1.0  0.68607  0.83585  0.12462  1.0000
  C   C432      1.0  0.84410  0.86471  0.51104  1.0000
  H   H526      1.0  0.86438  0.94638  0.50744  1.0000
  C   C433      1.0  0.79772  0.01366  0.48960  1.0000
  Fe  Fe57      1.0  0.84485  0.70246  0.58006  1.0000
  C   C434      1.0  0.83889  0.58835  0.87478  1.0000
  Fe  Fe58      1.0  0.87322  0.65800  0.62961  1.0000
  S   S113      1.0  0.88168  0.62857  0.57918  1.0000
  S   S114      1.0  0.89193  0.64572  0.68703  1.0000
  Fe  Fe59      1.0  0.90326  0.68050  0.54954  1.0000
  H   H527      1.0  0.77979  0.58140  0.91063  1.0000
  Fe  Fe60      1.0  0.82976  0.62721  0.55942  1.0000
  H   H528      1.0  0.96745  0.66748  0.69407  1.0000
  S   S115      1.0  0.89822  0.70994  0.60111  1.0000
  S   S116      1.0  0.81946  0.65244  0.61234  1.0000
  Fe  Fe61      1.0  0.86208  0.62751  0.96960  1.0000
  S   S117      1.0  0.82230  0.64952  0.95132  1.0000
  C   C435      1.0  0.79274  0.53357  0.87118  1.0000
  Fe  Fe62      1.0  0.92154  0.69790  0.96124  1.0000
  S   S118      1.0  0.88523  0.72469  0.94204  1.0000
  C   C436      1.0  0.99535  0.75115  0.53794  1.0000
  Fe  Fe63      1.0  0.84990  0.69393  0.98884  1.0000
  C   C437      1.0  0.75259  0.99432  0.55199  1.0000
  Fe  Fe64      1.0  0.86084  0.67815  0.90580  1.0000
  S   S119      1.0  0.83909  0.68099  0.84683  1.0000
  C   C438      1.0  0.80554  0.52710  0.53547  1.0000
  S   S120      1.0  0.89916  0.65332  0.92165  1.0000
  S   S121      1.0  0.88768  0.66988  0.01065  1.0000
  C   C439      1.0  0.81008  0.58380  0.73725  1.0000
  C   C440      1.0  0.97337  0.72676  0.65668  1.0000
  H   H529      1.0  0.97289  0.74291  0.63115  1.0000
  C   C441      1.0  0.74822  0.97131  0.52172  1.0000
  H   H530      1.0  0.72637  0.53011  0.01803  1.0000
  S   S122      1.0  0.73432  0.80941  0.99726  1.0000
  H   H531      1.0  0.82794  0.99123  0.99232  1.0000
  C   C442      1.0  0.80980  0.53946  0.99737  1.0000
  S   S123      1.0  0.97996  0.72614  0.95687  1.0000
  H   H532      1.0  0.98481  0.74440  0.68037  1.0000
  H   H533      1.0  0.97480  0.75118  0.55710  1.0000
  C   C443      1.0  0.79379  0.75000  0.98567  1.0000
  H   H534      1.0  0.77268  0.77994  0.94930  1.0000
  H   H535      1.0  0.80664  0.74213  0.96252  1.0000
  C   C444      1.0  0.87862  0.65789  0.73104  1.0000
  C   C445      1.0  0.85300  0.67259  0.73294  1.0000
  C   C446      1.0  0.84168  0.68007  0.76862  1.0000
  C   C447      1.0  0.85615  0.67341  0.80267  1.0000
  C   C448      1.0  0.88253  0.65966  0.80066  1.0000
  C   C449      1.0  0.89348  0.65167  0.76501  1.0000
  H   H536      1.0  0.84137  0.67756  0.70703  1.0000
  H   H537      1.0  0.82137  0.69082  0.76988  1.0000
  H   H538      1.0  0.89430  0.65489  0.82652  1.0000
  H   H539      1.0  0.91338  0.64040  0.76381  1.0000
  C   C450      1.0  0.01069  0.74536  0.99248  1.0000
  C   C451      1.0  0.97190  0.67793  0.62009  1.0000
  C   C452      1.0  0.85761  0.85432  0.58717  1.0000
  C   C453      1.0  0.80490  0.57459  0.81780  1.0000
  H   H540      1.0  0.79087  0.52992  0.90285  1.0000
  H   H541      1.0  0.96905  0.69099  0.59299  1.0000
  H   H542      1.0  0.77924  0.78592  0.58284  1.0000
  C   C454      1.0  0.73741  0.65244  0.53376  1.0000
  C   C455      1.0  0.80394  0.75927  0.54716  1.0000
  S   S124      1.0  0.85000  0.57019  0.98229  1.0000
  H   H543      1.0  0.94619  0.71231  0.66571  1.0000
  S   S125      1.0  0.82129  0.74397  0.58636  1.0000
  C   C456      1.0  0.99376  0.68365  0.68367  1.0000
  C   C457      1.0  0.86692  0.83602  0.55874  1.0000
  H   H544      1.0  0.79411  0.91268  0.58257  1.0000
  S   S126      1.0  0.71545  0.92987  0.52562  1.0000
  C   C458      1.0  0.86025  0.84127  0.52075  1.0000
  C   C459      1.0  0.73613  0.68265  0.54944  1.0000
  H   H545      1.0  0.84502  0.55600  0.73926  1.0000
  C   C460      1.0  0.75808  0.78230  0.00805  1.0000
  C   C461      1.0  0.72625  0.98479  0.85913  1.0000
  N   N30       1.0  0.80393  0.57059  0.85990  1.0000
  H   H546      1.0  0.73527  0.98690  0.57640  1.0000
  H   H547      1.0  0.83667  0.94453  0.57347  1.0000
  C   C462      1.0  0.78694  0.59323  0.79801  1.0000
  C   C463      1.0  0.80955  0.99990  0.00713  1.0000
  H   H548      1.0  0.83484  0.89103  0.60129  1.0000
  C   C464      1.0  0.78040  0.54079  0.52481  1.0000
  C   C465      1.0  0.78941  0.59743  0.75831  1.0000
  H   H549      1.0  0.78870  0.61382  0.87411  1.0000
  C   C466      1.0  0.77451  0.77142  0.97825  1.0000
  C   C467      1.0  0.81181  0.92918  0.56029  1.0000
  C   C468      1.0  0.84176  0.87815  0.57778  1.0000
  C   C469      1.0  0.82559  0.56089  0.79537  1.0000
  C   C470      1.0  0.78003  0.54788  0.00066  1.0000
  H   H550      1.0  0.82887  0.54336  0.54879  1.0000
  H   H551      1.0  0.75054  0.69254  0.57505  1.0000
  H   H552      1.0  0.77640  0.61266  0.74389  1.0000
  H   H553      1.0  0.79940  0.94779  0.55073  1.0000
  H   H554      1.0  0.75338  0.57326  0.86915  1.0000
  C   C471      1.0  0.77092  0.79378  0.52327  1.0000
  H   H555      1.0  0.83923  0.58687  0.90645  1.0000
  H   H556      1.0  0.84076  0.54730  0.80845  1.0000
  C   C472      1.0  0.71708  0.70065  0.53196  1.0000
  H   H557      1.0  0.78103  0.57351  0.99273  1.0000
  H   H558      1.0  0.75253  0.63880  0.54726  1.0000
  N   N31       1.0  0.99232  0.70312  0.64827  1.0000
  S   S127      1.0  0.78619  0.58510  0.53024  1.0000
  C   C473      1.0  0.78029  0.58538  0.87908  1.0000
  C   C474      1.0  0.78412  0.78010  0.55385  1.0000
  H   H559      1.0  0.98367  0.65823  0.61362  1.0000
  H   H560      1.0  0.77177  0.60592  0.81255  1.0000
  H   H561      1.0  0.86206  0.84934  0.61676  1.0000
  H   H562      1.0  0.76624  0.87082  0.53489  1.0000
  H   H563      1.0  0.84834  0.61606  0.86615  1.0000
  C   C475      1.0  0.83465  0.88417  0.53921  1.0000
  H   H564      1.0  0.85803  0.57722  0.86431  1.0000
  H   H565      1.0  0.94535  0.66349  0.63087  1.0000
  H   H566      1.0  0.75578  0.80980  0.52880  1.0000
  H   H567      1.0  0.71776  0.72412  0.54544  1.0000
  H   H568      1.0  0.74185  0.98296  0.95394  1.0000
  H   H569      1.0  0.87816  0.81677  0.56628  1.0000
  H   H570      1.0  0.81307  0.58843  0.70667  1.0000
  C   C476      1.0  0.72080  0.97492  0.89752  1.0000
  S   S128      1.0  0.85174  0.67720  0.52605  1.0000
  H   H571      1.0  0.81115  0.52122  0.86149  1.0000
  N   N32       1.0  0.81708  0.90845  0.52815  1.0000
  C   C477      1.0  0.82816  0.56560  0.75573  1.0000
  H   H572      1.0  0.00859  0.66622  0.67888  1.0000
  C   C478      1.0  0.74608  0.99055  0.92398  1.0000
  H   H573      1.0  0.00599  0.70090  0.70745  1.0000
  H   H574      1.0  0.76707  0.51895  0.85922  1.0000
  C   C479      1.0  0.74911  0.52320  0.01487  1.0000
  H   H575      1.0  0.69695  0.95515  0.90689  1.0000
  H   H576      1.0  0.70643  0.97256  0.83867  1.0000
  C   C480      1.0  0.75706  0.01032  0.84699  1.0000
