data_image0
_chemical_formula_structural       HSHFeC4SH2C2H3CHSCNFeS4HFeCSH3C2H2SNHCH2C4HCH8CHC2HCH2CHC3H2CH3FeCHCHCSCH2SCNCHCHFeHSH3C2HCHNH4C2H3CH2C2HFeH3C2HC2H3C3H2CH2CSH3C4HSHC2HCHC7H2CH8C3HCH2CHCHCHC2FeS2FeSCFeS2FeCFeS3FeS2C2Fe2S2CH2CH2CSHC2HSC2SHC2HCH2C7H5C2HC2H2CH3C3FeHNCHCSFeC2HCNC9H14CHCH2NC2HC3H3C2H2CHCNC6HCH10CNH3SH2C2SCH3CFeCSHCSC4H2C7SHNH2C2HCH4CHSHSHSH2NH2CHCHSH5CH2CSCH2FeCHCH6FeS2HFeS2FeS2FeSFeS3FeS2CHSCHC7H4CHC2H3C4HCHFeSHFeS2FeSFeS3C5H3C6H4CH2CH5NC9H16C9HCH2CH2C2HNC2H5NC2HCHCH5CHCHCH4NC3HNH3C2NHCH8CHC2H2CH5CH2CHCSC4SHC2H2SH2C2NFeSH2CH2C2HCH2C2H4CH4CSCH2FeHSCH2SFeS2C6H4C5HCSCH4NHCSHCH2SCH2SFeHFeS2FeS2FeSFeS2C6H3C5HC5HSH2CHCH2C2NCFeHCSHFeCHNC9H14NC9H14CSHCHCHC2H7CSC3HC3H3C2SCHNCH2C3H3CH3SCH5CH3CH2CHSHC3H5C2HC2SHC2H7CHNH2FeCH3CHCSHCHSH2FeC2HC2SC4NHCHCFeH2CHCHC2H2NHCSHCHSHC3H2FeHC2H2FeCFeC2HCH2SHCHFe2CFeC3H4NHCHCHC3HNHCHC2HCH2S2CHCSH2S2H7C2HCHCH2SFeHCSHCHCSC2HCHFeS2FeS2FeS2FeSFeS3C2H2CH4C3H3CH4C2HFeC2H3CH2CNCH3C6H4C4H2C2HC3HFeH5C2H5SNC5H3CH2FeCHCSH4FeSNC2H5CSH3C2HCNC7HCH3CHSH2CHCSHC2H3C4H2C3H4SH2C6H4SC3HC2H2NH6CHCNSC3HFeCH2FeHC2SH5C3H2CSCH2CH2CHSFe2HS2FeHSHC3H3SHFeS2FeS2FeSFeS3CH3CH2SHFeS2FeS2FeSFeS3CH3C4HC2H3C3HCHC6H4C6H4NC4HC2H7CHCHNCHCHC2HC4H5CH3C2NCHCH8CH2CH5CHCHCH4C3HCH2C3H3C2H3C2HC3HFeHC3NH2NH2SCH3C4H2C4HC2H2C3HC4H3CH2CHCH3C2H2CSFe2S2H4CS3CH2NFeS2FeS2FeSFeCS2FeS2HC6H10FeHCNHCHFeCFe2C6HCH2C6FeHFeH3CH2CS2C6H3CH3C4H4CH2CH2CH2NC9H10C2HCH2C3HC2H2CSH2CHC4HCH6FeHCH2SCHC2HNFeHC2SH2CH2CHCH2FeH2NHCS2HCSHCSH2CSH2CHSC2SCFeH4SCHS2CS2H2SFeS2CS2C2HCHCHFeSHCSH5C2HCH3CHFeC2H7NHCHC2SCH2CHFeCHSHC2H2C2SCFeC2HCSCHCHNHFeCHNC9H15FeCH4CHC2S2HC2SNH2CHCHCHCFe
_chemical_formula_sum              "H864 S192 Fe96 C720 N48"
_cell_length_a       53.5941
_cell_length_b       53.711
_cell_length_c       43.91
_cell_angle_alpha    90.1309
_cell_angle_beta     89.8672
_cell_angle_gamma    119.774

_space_group_name_H-M_alt    "P 1"
_space_group_IT_number       1

loop_
  _space_group_symop_operation_xyz
  'x, y, z'

loop_
  _atom_site_type_symbol
  _atom_site_label
  _atom_site_symmetry_multiplicity
  _atom_site_fract_x
  _atom_site_fract_y
  _atom_site_fract_z
  _atom_site_occupancy
  H   H1        1.0  0.25365  0.01241  0.08274  1.0000
  S   S1        1.0  0.19787  0.20751  0.49973  1.0000
  H   H2        1.0  0.22246  0.05878  0.09258  1.0000
  Fe  Fe1       1.0  0.24844  0.20100  0.02797  1.0000
  C   C1        1.0  0.20127  0.25668  0.10045  1.0000
  C   C2        1.0  0.24251  0.13194  0.49729  1.0000
  C   C3        1.0  0.11428  0.24680  0.49911  1.0000
  C   C4        1.0  0.01282  0.16030  0.48688  1.0000
  S   S2        1.0  0.01322  0.28135  0.50009  1.0000
  H   H3        1.0  0.05797  0.28766  0.45666  1.0000
  H   H4        1.0  0.19114  0.00219  0.12840  1.0000
  C   C5        1.0  0.12400  0.99787  0.46975  1.0000
  C   C6        1.0  0.16570  0.01188  0.50113  1.0000
  H   H5        1.0  0.27553  0.04993  0.09050  1.0000
  H   H6        1.0  0.11368  0.24815  0.47458  1.0000
  H   H7        1.0  0.05654  0.29861  0.15354  1.0000
  C   C7        1.0  0.25121  0.00131  0.14403  1.0000
  H   H8        1.0  0.25336  0.07598  0.11646  1.0000
  S   S3        1.0  0.28322  0.24591  0.01560  1.0000
  C   C8        1.0  0.24607  0.08542  0.02369  1.0000
  N   N1        1.0  0.07477  0.29402  0.41084  1.0000
  Fe  Fe2       1.0  0.26118  0.26168  0.04794  1.0000
  S   S4        1.0  0.28439  0.30281  0.07648  1.0000
  S   S5        1.0  0.22925  0.21711  0.06353  1.0000
  S   S6        1.0  0.26436  0.16853  0.03068  1.0000
  S   S7        1.0  0.25145  0.06152  0.48423  1.0000
  H   H9        1.0  0.18821  0.27403  0.15861  1.0000
  Fe  Fe3       1.0  0.23986  0.24535  0.48384  1.0000
  C   C9        1.0  0.21505  0.11447  0.03179  1.0000
  S   S8        1.0  0.24151  0.25683  0.43342  1.0000
  H   H10       1.0  0.19230  0.05804  0.42863  1.0000
  H   H11       1.0  0.01571  0.14492  0.47232  1.0000
  H   H12       1.0  0.21761  0.05550  0.13283  1.0000
  C   C10       1.0  0.26477  0.28974  0.41472  1.0000
  C   C11       1.0  0.26210  0.29165  0.38304  1.0000
  H   H13       1.0  0.21372  0.31041  0.19760  1.0000
  H   H14       1.0  0.24641  0.27301  0.37063  1.0000
  S   S9        1.0  0.26710  0.22992  0.50768  1.0000
  N   N2        1.0  0.19397  0.27969  0.09639  1.0000
  H   H15       1.0  0.41963  0.01611  0.27914  1.0000
  C   C12       1.0  0.18235  0.06523  0.44519  1.0000
  H   H16       1.0  0.04362  0.24982  0.42057  1.0000
  H   H17       1.0  0.18946  0.02508  0.50276  1.0000
  C   C13       1.0  0.18957  0.09405  0.44334  1.0000
  C   C14       1.0  0.25010  0.11211  0.48553  1.0000
  C   C15       1.0  0.99629  0.28805  0.15821  1.0000
  C   C16       1.0  0.08331  0.31409  0.38474  1.0000
  H   H18       1.0  0.26267  0.11718  0.46482  1.0000
  C   C17       1.0  0.26707  0.03910  0.19319  1.0000
  H   H19       1.0  0.35419  0.01242  0.03153  1.0000
  H   H20       1.0  0.99596  0.31504  0.43573  1.0000
  H   H21       1.0  0.99433  0.16189  0.47762  1.0000
  H   H22       1.0  0.25929  0.26502  0.12980  1.0000
  H   H23       1.0  0.06763  0.21133  0.04351  1.0000
  H   H24       1.0  0.24900  0.15193  0.48554  1.0000
  H   H25       1.0  0.15423  0.25560  0.12157  1.0000
  H   H26       1.0  0.05964  0.25556  0.38352  1.0000
  C   C18       1.0  0.27027  0.28707  0.13744  1.0000
  H   H27       1.0  0.00549  0.31368  0.19918  1.0000
  C   C19       1.0  0.10611  0.20790  0.04057  1.0000
  C   C20       1.0  0.26033  0.11566  0.02467  1.0000
  H   H28       1.0  0.07932  0.32440  0.44580  1.0000
  C   C21       1.0  0.24132  0.08573  0.50014  1.0000
  H   H29       1.0  0.24496  0.03721  0.06571  1.0000
  H   H30       1.0  0.31419  0.99537  0.36973  1.0000
  C   C22       1.0  0.16362  0.04698  0.46836  1.0000
  H   H31       1.0  0.15610  0.28389  0.09801  1.0000
  C   C23       1.0  0.06250  0.28645  0.10954  1.0000
  C   C24       1.0  0.16847  0.00655  0.44742  1.0000
  C   C25       1.0  0.20899  0.30222  0.11975  1.0000
  H   H32       1.0  0.11285  0.00182  0.48894  1.0000
  H   H33       1.0  0.25825  0.07450  0.02053  1.0000
  C   C26       1.0  0.26274  0.99630  0.17028  1.0000
  H   H34       1.0  0.18946  0.23878  0.08407  1.0000
  H   H35       1.0  0.27336  0.05375  0.21236  1.0000
  H   H36       1.0  0.20444  0.10781  0.42600  1.0000
  Fe  Fe4       1.0  0.20154  0.21823  0.02535  1.0000
  C   C27       1.0  0.20169  0.29032  0.06464  1.0000
  H   H37       1.0  0.27757  0.31837  0.34281  1.0000
  C   C28       1.0  0.28487  0.30923  0.11640  1.0000
  H   H38       1.0  0.25335  0.06326  0.16727  1.0000
  C   C29       1.0  0.20542  0.00513  0.10868  1.0000
  S   S10       1.0  0.19746  0.03129  0.02884  1.0000
  C   C30       1.0  0.13338  0.21831  0.02717  1.0000
  H   H39       1.0  0.19244  0.01880  0.44832  1.0000
  H   H40       1.0  0.46013  0.99680  0.34281  1.0000
  S   S11       1.0  0.15441  0.20244  0.03730  1.0000
  C   C31       1.0  0.28469  0.32190  0.17927  1.0000
  N   N3        1.0  0.23464  0.02997  0.11351  1.0000
  C   C32       1.0  0.25298  0.03246  0.08705  1.0000
  H   H41       1.0  0.27964  0.01114  0.21509  1.0000
  C   C33       1.0  0.23200  0.05624  0.11414  1.0000
  H   H42       1.0  0.15353  0.24451  0.49895  1.0000
  Fe  Fe5       1.0  0.23960  0.01677  0.50103  1.0000
  H   H43       1.0  0.18997  0.27279  0.04775  1.0000
  S   S12       1.0  0.06370  0.24790  0.49779  1.0000
  H   H44       1.0  0.00733  0.31397  0.08593  1.0000
  H   H45       1.0  0.21098  0.29136  0.42069  1.0000
  H   H46       1.0  0.11543  0.00146  0.44814  1.0000
  C   C34       1.0  0.08838  0.21942  0.03274  1.0000
  C   C35       1.0  0.24713  0.02542  0.14157  1.0000
  H   H47       1.0  0.15058  0.25089  0.08151  1.0000
  C   C36       1.0  0.16239  0.26707  0.09963  1.0000
  H   H48       1.0  0.28348  0.12775  0.02237  1.0000
  N   N4        1.0  0.15569  0.01643  0.47135  1.0000
  H   H49       1.0  0.16136  0.00867  0.42425  1.0000
  H   H50       1.0  0.42814  0.01608  0.33647  1.0000
  H   H51       1.0  0.20292  0.12545  0.03505  1.0000
  H   H52       1.0  0.03335  0.26606  0.39124  1.0000
  C   C37       1.0  0.01112  0.31534  0.34896  1.0000
  C   C38       1.0  0.27066  0.01515  0.19482  1.0000
  H   H53       1.0  0.09436  0.27801  0.44236  1.0000
  H   H54       1.0  0.09899  0.29112  0.35661  1.0000
  H   H55       1.0  0.19625  0.30734  0.05955  1.0000
  C   C39       1.0  0.20083  0.08419  0.03139  1.0000
  H   H56       1.0  0.28753  0.31285  0.45482  1.0000
  H   H57       1.0  0.07210  0.27909  0.06386  1.0000
  C   C40       1.0  0.07035  0.30590  0.13376  1.0000
  C   C41       1.0  0.10244  0.32138  0.07993  1.0000
  H   H58       1.0  0.25826  0.27613  0.18455  1.0000
  Fe  Fe6       1.0  0.21539  0.00213  0.01504  1.0000
  H   H59       1.0  0.18531  0.12825  0.46376  1.0000
  H   H60       1.0  0.19509  0.00789  0.08793  1.0000
  H   H61       1.0  0.19612  0.24709  0.12356  1.0000
  C   C42       1.0  0.06342  0.30275  0.43720  1.0000
  C   C43       1.0  0.26997  0.29342  0.16858  1.0000
  H   H62       1.0  0.04314  0.30257  0.43137  1.0000
  C   C44       1.0  0.21621  0.06947  0.02732  1.0000
  C   C45       1.0  0.25548  0.04430  0.16702  1.0000
  H   H63       1.0  0.15317  0.09791  0.50468  1.0000
  H   H64       1.0  0.22459  0.26505  0.09650  1.0000
  H   H65       1.0  0.01238  0.15594  0.01260  1.0000
  C   C46       1.0  0.09588  0.30946  0.35833  1.0000
  C   C47       1.0  0.27972  0.31739  0.36721  1.0000
  C   C48       1.0  0.05200  0.26513  0.40108  1.0000
  H   H66       1.0  0.09859  0.19068  0.05702  1.0000
  H   H67       1.0  0.11338  0.32411  0.31323  1.0000
  C   C49       1.0  0.16053  0.08841  0.48757  1.0000
  H   H68       1.0  0.22503  0.29879  0.06010  1.0000
  H   H69       1.0  0.10804  0.28264  0.40464  1.0000
  C   C50       1.0  0.09989  0.29202  0.42186  1.0000
  S   S13       1.0  0.99972  0.21463  0.04551  1.0000
  H   H70       1.0  0.04343  0.26545  0.11135  1.0000
  H   H71       1.0  0.11786  0.31355  0.42824  1.0000
  H   H72       1.0  0.99456  0.26985  0.35437  1.0000
  C   C51       1.0  0.20317  0.29556  0.15118  1.0000
  C   C52       1.0  0.24496  0.13039  0.02876  1.0000
  C   C53       1.0  0.28523  0.31398  0.43047  1.0000
  C   C54       1.0  0.00608  0.31389  0.17454  1.0000
  H   H73       1.0  0.17775  0.07209  0.03433  1.0000
  S   S14       1.0  0.02114  0.28018  0.02295  1.0000
  H   H74       1.0  0.13909  0.04722  0.50808  1.0000
  C   C55       1.0  0.99669  0.28785  0.12617  1.0000
  C   C56       1.0  0.99391  0.28927  0.39720  1.0000
  H   H75       1.0  0.18190  0.29923  0.45920  1.0000
  C   C57       1.0  0.20689  0.30915  0.41811  1.0000
  H   H76       1.0  0.11447  0.32735  0.05873  1.0000
  C   C58       1.0  0.00700  0.31381  0.11057  1.0000
  C   C59       1.0  0.00024  0.31497  0.41164  1.0000
  C   C60       1.0  0.17874  0.10562  0.46451  1.0000
  C   C61       1.0  0.99946  0.28962  0.36580  1.0000
  C   C62       1.0  0.07851  0.29413  0.08273  1.0000
  C   C63       1.0  0.15290  0.05950  0.48946  1.0000
  C   C64       1.0  0.21741  0.31626  0.17371  1.0000
  H   H77       1.0  0.03197  0.18194  0.48372  1.0000
  H   H78       1.0  0.32481  0.03193  0.01846  1.0000
  C   C65       1.0  0.19051  0.31357  0.43982  1.0000
  H   H79       1.0  0.08795  0.32579  0.19433  1.0000
  H   H80       1.0  0.01514  0.31528  0.32482  1.0000
  H   H81       1.0  0.23114  0.32345  0.37723  1.0000
  H   H82       1.0  0.99495  0.28101  0.61758  1.0000
  H   H83       1.0  0.34193  0.04987  0.83741  1.0000
  H   H84       1.0  0.02839  0.19495  0.53517  1.0000
  H   H85       1.0  0.28054  0.24936  0.68009  1.0000
  H   H86       1.0  0.21916  0.05994  0.53922  1.0000
  C   C66       1.0  0.34658  0.30147  0.65718  1.0000
  C   C67       1.0  0.37901  0.05875  0.91047  1.0000
  C   C68       1.0  0.02642  0.11975  0.54318  1.0000
  H   H87       1.0  0.39986  0.04709  0.87593  1.0000
  C   C69       1.0  0.23627  0.28134  0.60722  1.0000
  H   H88       1.0  0.39231  0.25827  0.65508  1.0000
  H   H89       1.0  0.16376  0.24878  0.99539  1.0000
  C   C70       1.0  0.00722  0.29169  0.77310  1.0000
  H   H90       1.0  0.13241  0.26879  0.98107  1.0000
  C   C71       1.0  0.09229  0.24670  0.51679  1.0000
  H   H91       1.0  0.37103  0.23304  0.73290  1.0000
  C   C72       1.0  0.09758  0.24119  0.01092  1.0000
  H   H92       1.0  0.30069  0.15636  0.52183  1.0000
  C   C73       1.0  0.03160  0.14593  0.52958  1.0000
  C   C74       1.0  0.36480  0.01769  0.00870  1.0000
  Fe  Fe7       1.0  0.25232  0.24384  0.98010  1.0000
  S   S15       1.0  0.26219  0.25356  0.92946  1.0000
  S   S16       1.0  0.21824  0.19849  0.99123  1.0000
  Fe  Fe8       1.0  0.38255  0.04116  0.79001  1.0000
  S   S17       1.0  0.41957  0.08462  0.80202  1.0000
  C   C75       1.0  0.05246  0.14272  0.99033  1.0000
  Fe  Fe9       1.0  0.38716  0.05471  0.72160  1.0000
  S   S18       1.0  0.42389  0.09957  0.72889  1.0000
  S   S19       1.0  0.37304  0.03655  0.67360  1.0000
  Fe  Fe10      1.0  0.44211  0.07943  0.76076  1.0000
  C   C76       1.0  0.33392  0.22660  0.63985  1.0000
  Fe  Fe11      1.0  0.39879  0.10119  0.76928  1.0000
  S   S20       1.0  0.38526  0.13318  0.78492  1.0000
  S   S21       1.0  0.40659  0.03454  0.75127  1.0000
  S   S22       1.0  0.36065  0.05775  0.75945  1.0000
  Fe  Fe12      1.0  0.41887  0.29137  0.76098  1.0000
  S   S23       1.0  0.43711  0.26344  0.74494  1.0000
  S   S24       1.0  0.37384  0.27408  0.77797  1.0000
  C   C77       1.0  0.12503  0.25189  0.99789  1.0000
  C   C78       1.0  0.27018  0.31988  0.63948  1.0000
  Fe  Fe13      1.0  0.20176  0.23562  0.53939  1.0000
  Fe  Fe14      1.0  0.26603  0.25584  0.54775  1.0000
  S   S25       1.0  0.22603  0.21968  0.56769  1.0000
  S   S26       1.0  0.30686  0.28490  0.57459  1.0000
  C   C79       1.0  0.31367  0.03480  0.87658  1.0000
  H   H93       1.0  0.12244  0.15920  0.98627  1.0000
  H   H94       1.0  0.33952  0.13173  0.61205  1.0000
  C   C80       1.0  0.31638  0.18201  0.66752  1.0000
  H   H95       1.0  0.36763  0.31636  0.66612  1.0000
  H   H96       1.0  0.02775  0.31089  0.77978  1.0000
  C   C81       1.0  0.21743  0.09926  0.53858  1.0000
  S   S27       1.0  0.38389  0.30958  0.86162  1.0000
  H   H97       1.0  0.20458  0.09408  0.55908  1.0000
  C   C82       1.0  0.14290  0.24063  0.00602  1.0000
  C   C83       1.0  0.32478  0.28290  0.67696  1.0000
  H   H98       1.0  0.27623  0.14678  0.65149  1.0000
  S   S28       1.0  0.07571  0.25556  0.99866  1.0000
  C   C84       1.0  0.31332  0.28290  0.61395  1.0000
  C   C85       1.0  0.00287  0.13716  0.95436  1.0000
  S   S29       1.0  0.16562  0.23940  0.56290  1.0000
  H   H99       1.0  0.33973  0.23373  0.71925  1.0000
  C   C86       1.0  0.34005  0.02502  0.65429  1.0000
  C   C87       1.0  0.31656  0.02509  0.66814  1.0000
  H   H100      1.0  0.21218  0.31497  0.60182  1.0000
  C   C88       1.0  0.10421  0.18127  0.96235  1.0000
  H   H101      1.0  0.32578  0.19201  0.56248  1.0000
  H   H102      1.0  0.37063  0.00090  0.00392  1.0000
  C   C89       1.0  0.36462  0.05154  0.93848  1.0000
  C   C90       1.0  0.40017  0.16933  0.77340  1.0000
  C   C91       1.0  0.38855  0.18567  0.78541  1.0000
  C   C92       1.0  0.39982  0.21460  0.77715  1.0000
  C   C93       1.0  0.42282  0.22741  0.75671  1.0000
  C   C94       1.0  0.43432  0.21102  0.74451  1.0000
  C   C95       1.0  0.42305  0.18207  0.75280  1.0000
  H   H103      1.0  0.37083  0.17590  0.80133  1.0000
  H   H104      1.0  0.39086  0.22699  0.78679  1.0000
  H   H105      1.0  0.45213  0.22079  0.72869  1.0000
  H   H106      1.0  0.43218  0.16968  0.74347  1.0000
  H   H107      1.0  0.35759  0.31645  0.61084  1.0000
  C   C96       1.0  0.29634  0.27000  0.91116  1.0000
  C   C97       1.0  0.32211  0.28222  0.92755  1.0000
  H   H108      1.0  0.37256  0.26846  0.68116  1.0000
  C   C98       1.0  0.32406  0.28206  0.86359  1.0000
  C   C99       1.0  0.29751  0.27008  0.87913  1.0000
  H   H109      1.0  0.32456  0.28188  0.83896  1.0000
  H   H110      1.0  0.27772  0.26071  0.86621  1.0000
  C   C100      1.0  0.34867  0.29427  0.91201  1.0000
  H   H111      1.0  0.11638  0.24081  0.58672  1.0000
  H   H112      1.0  0.00622  0.16850  0.56274  1.0000
  H   H113      1.0  0.35569  0.23937  0.86433  1.0000
  C   C101      1.0  0.37229  0.01084  0.94218  1.0000
  C   C102      1.0  0.29939  0.01284  0.89815  1.0000
  C   C103      1.0  0.33081  0.03256  0.85354  1.0000
  Fe  Fe15      1.0  0.22544  0.19437  0.52641  1.0000
  H   H114      1.0  0.30744  0.22555  0.60236  1.0000
  N   N5        1.0  0.34573  0.01888  0.98499  1.0000
  C   C104      1.0  0.10304  0.16011  0.98151  1.0000
  H   H115      1.0  0.04481  0.09602  0.56366  1.0000
  C   C105      1.0  0.38977  0.04204  0.89824  1.0000
  S   S30       1.0  0.27942  0.01797  0.92749  1.0000
  Fe  Fe16      1.0  0.39222  0.31136  0.81032  1.0000
  C   C106      1.0  0.11588  0.24254  0.56220  1.0000
  C   C107      1.0  0.34982  0.29427  0.87998  1.0000
  H   H116      1.0  0.27081  0.24865  0.62485  1.0000
  C   C108      1.0  0.00240  0.26708  0.88436  1.0000
  N   N6        1.0  0.28267  0.18181  0.93257  1.0000
  C   C109      1.0  0.29413  0.20366  0.95714  1.0000
  C   C110      1.0  0.25998  0.18442  0.91601  1.0000
  C   C111      1.0  0.26882  0.15318  0.94743  1.0000
  C   C112      1.0  0.30607  0.18666  0.91114  1.0000
  C   C113      1.0  0.31358  0.16531  0.90422  1.0000
  C   C114      1.0  0.32190  0.21341  0.89600  1.0000
  C   C115      1.0  0.33556  0.17067  0.88343  1.0000
  C   C116      1.0  0.34389  0.21861  0.87542  1.0000
  C   C117      1.0  0.35069  0.19725  0.86910  1.0000
  H   H117      1.0  0.30217  0.22577  0.94856  1.0000
  H   H118      1.0  0.27723  0.19996  0.97415  1.0000
  H   H119      1.0  0.31194  0.20320  0.96964  1.0000
  H   H120      1.0  0.26819  0.20606  0.90587  1.0000
  H   H121      1.0  0.24205  0.18113  0.93143  1.0000
  H   H122      1.0  0.25088  0.16854  0.89715  1.0000
  H   H123      1.0  0.28453  0.15016  0.96124  1.0000
  H   H124      1.0  0.25157  0.15050  0.96361  1.0000
  H   H125      1.0  0.25844  0.13546  0.93056  1.0000
  H   H126      1.0  0.30281  0.14429  0.91451  1.0000
  H   H127      1.0  0.31732  0.23058  0.89992  1.0000
  H   H128      1.0  0.34092  0.15409  0.87832  1.0000
  H   H129      1.0  0.22088  0.27491  0.58792  1.0000
  H   H130      1.0  0.36773  0.20132  0.85306  1.0000
  C   C118      1.0  0.33600  0.03884  0.99603  1.0000
  H   H131      1.0  0.28023  0.32210  0.57680  1.0000
  C   C119      1.0  0.09316  0.24453  0.54845  1.0000
  H   H132      1.0  0.27072  0.17471  0.60988  1.0000
  H   H133      1.0  0.35438  0.06095  0.99912  1.0000
  N   N7        1.0  0.02618  0.16525  0.96554  1.0000
  C   C120      1.0  0.36097  0.02735  0.95534  1.0000
  C   C121      1.0  0.22717  0.31945  0.62129  1.0000
  H   H134      1.0  0.06628  0.18842  0.51710  1.0000
  C   C122      1.0  0.28933  0.18471  0.62478  1.0000
  C   C123      1.0  0.08325  0.16408  0.53714  1.0000
  C   C124      1.0  0.00830  0.17399  0.53809  1.0000
  H   H135      1.0  0.27199  0.01361  0.66352  1.0000
  H   H136      1.0  0.04536  0.20942  0.95104  1.0000
  H   H137      1.0  0.48359  0.04395  0.78662  1.0000
  C   C125      1.0  0.13783  0.24255  0.54451  1.0000
  C   C126      1.0  0.07961  0.18342  0.95711  1.0000
  H   H138      1.0  0.08244  0.20101  0.94290  1.0000
  H   H139      1.0  0.32027  0.03959  0.98000  1.0000
  C   C127      1.0  0.04916  0.11609  0.55329  1.0000
  H   H140      1.0  0.25271  0.27537  0.60098  1.0000
  C   C128      1.0  0.28735  0.00351  0.62248  1.0000
  N   N8        1.0  0.31268  0.08572  0.57027  1.0000
  C   C129      1.0  0.32638  0.08094  0.59734  1.0000
  C   C130      1.0  0.28151  0.06456  0.57148  1.0000
  C   C131      1.0  0.32513  0.07982  0.54278  1.0000
  C   C132      1.0  0.31677  0.11506  0.56864  1.0000
  C   C133      1.0  0.30615  0.12334  0.54333  1.0000
  C   C134      1.0  0.33088  0.13601  0.59182  1.0000
  H   H141      1.0  0.21350  0.30640  0.64058  1.0000
  C   C135      1.0  0.33424  0.16350  0.58936  1.0000
  H   H142      1.0  0.10535  0.18135  0.53507  1.0000
  H   H143      1.0  0.34998  0.09605  0.59783  1.0000
  H   H144      1.0  0.31656  0.08279  0.61900  1.0000
  H   H145      1.0  0.32362  0.05902  0.59740  1.0000
  H   H146      1.0  0.27102  0.06859  0.59131  1.0000
  H   H147      1.0  0.27754  0.04223  0.57360  1.0000
  H   H148      1.0  0.27001  0.06500  0.55062  1.0000
  H   H149      1.0  0.34804  0.09658  0.53962  1.0000
  H   H150      1.0  0.32422  0.05867  0.54428  1.0000
  H   H151      1.0  0.31333  0.07891  0.52158  1.0000
  C   C136      1.0  0.05278  0.16386  0.97069  1.0000
  N   N9        1.0  0.24998  0.31246  0.61360  1.0000
  H   H152      1.0  0.09509  0.13544  0.55833  1.0000
  H   H153      1.0  0.32160  0.28243  0.95218  1.0000
  H   H154      1.0  0.07638  0.24435  0.56235  1.0000
  S   S31       1.0  0.24209  0.27407  0.52232  1.0000
  H   H155      1.0  0.34048  0.99944  0.72491  1.0000
  H   H156      1.0  0.29518  0.10858  0.52489  1.0000
  C   C137      1.0  0.33720  0.01470  0.62428  1.0000
  C   C138      1.0  0.22572  0.12540  0.52367  1.0000
  S   S32       1.0  0.21312  0.14811  0.53812  1.0000
  C   C139      1.0  0.29029  0.01421  0.65234  1.0000
  H   H157      1.0  0.00917  0.18723  0.93888  1.0000
  H   H158      1.0  0.12463  0.19675  0.95236  1.0000
  H   H159      1.0  0.31171  0.05388  0.87787  1.0000
  C   C140      1.0  0.29250  0.16905  0.64820  1.0000
  Fe  Fe17      1.0  0.37183  0.30435  0.74387  1.0000
  C   C141      1.0  0.31104  0.00408  0.60838  1.0000
  S   S33       1.0  0.27335  0.00532  0.51448  1.0000
  H   H160      1.0  0.34514  0.17923  0.60715  1.0000
  C   C142      1.0  0.31008  0.21334  0.62051  1.0000
  S   S34       1.0  0.32992  0.28358  0.71692  1.0000
  C   C143      1.0  0.06072  0.16792  0.52691  1.0000
  C   C144      1.0  0.32339  0.17080  0.56421  1.0000
  C   C145      1.0  0.02974  0.18735  0.94294  1.0000
  C   C146      1.0  0.38309  0.25518  0.67839  1.0000
  H   H161      1.0  0.39897  0.21933  0.69710  1.0000
  H   H162      1.0  0.38591  0.20837  0.65907  1.0000
  C   C147      1.0  0.01681  0.17211  0.99459  1.0000
  C   C148      1.0  0.29182  0.26369  0.63364  1.0000
  C   C149      1.0  0.29749  0.26391  0.66497  1.0000
  C   C150      1.0  0.37911  0.20889  0.68290  1.0000
  C   C151      1.0  0.07726  0.14096  0.99560  1.0000
  C   C152      1.0  0.30931  0.15072  0.54129  1.0000
  C   C153      1.0  0.33400  0.00830  0.85189  1.0000
  S   S35       1.0  0.21115  0.99561  0.54111  1.0000
  H   H163      1.0  0.00957  0.13045  0.93330  1.0000
  N   N10       1.0  0.36275  0.22446  0.68497  1.0000
  H   H164      1.0  0.00503  0.10182  0.54641  1.0000
  H   H165      1.0  0.40171  0.26430  0.69436  1.0000
  C   C154      1.0  0.33779  0.21127  0.66406  1.0000
  C   C155      1.0  0.07750  0.13821  0.55031  1.0000
  H   H166      1.0  0.36844  0.30361  0.92493  1.0000
  C   C156      1.0  0.34078  0.30156  0.62586  1.0000
  H   H167      1.0  0.22395  0.26786  0.62691  1.0000
  H   H168      1.0  0.36659  0.18646  0.69131  1.0000
  H   H169      1.0  0.31785  0.16904  0.68545  1.0000
  H   H170      1.0  0.33919  0.20031  0.72482  1.0000
  C   C157      1.0  0.35263  0.22272  0.71677  1.0000
  H   H171      1.0  0.34869  0.24904  0.63561  1.0000
  S   S36       1.0  0.41613  0.31996  0.72529  1.0000
  H   H172      1.0  0.31847  0.03299  0.69118  1.0000
  S   S37       1.0  0.43820  0.32650  0.79616  1.0000
  H   H173      1.0  0.01096  0.27310  0.77184  1.0000
  S   S38       1.0  0.35657  0.00532  0.82412  1.0000
  H   H174      1.0  0.03706  0.18366  0.92051  1.0000
  H   H175      1.0  0.38084  0.07677  0.89753  1.0000
  N   N11       1.0  0.00820  0.15101  0.51924  1.0000
  H   H176      1.0  0.35585  0.06481  0.94588  1.0000
  H   H177      1.0  0.31187  0.00158  0.78160  1.0000
  C   C158      1.0  0.22543  0.07969  0.52713  1.0000
  H   H178      1.0  0.30181  0.00885  0.74498  1.0000
  C   C159      1.0  0.13690  0.24467  0.51285  1.0000
  H   H179      1.0  0.03311  0.12765  0.00218  1.0000
  S   S39       1.0  0.23274  0.26319  0.01099  1.0000
  H   H180      1.0  0.35526  0.01452  0.61342  1.0000
  H   H181      1.0  0.03345  0.19333  0.00342  1.0000
  H   H182      1.0  0.99669  0.17303  0.99167  1.0000
  H   H183      1.0  0.23745  0.29233  0.67239  1.0000
  H   H184      1.0  0.24817  0.32201  0.56610  1.0000
  C   C160      1.0  0.25989  0.30758  0.66864  1.0000
  H   H185      1.0  0.15642  0.01759  0.52075  1.0000
  H   H186      1.0  0.00659  0.26320  0.90753  1.0000
  C   C161      1.0  0.01511  0.29855  0.84076  1.0000
  S   S40       1.0  0.99609  0.22750  0.97327  1.0000
  C   C162      1.0  0.27851  0.31409  0.69340  1.0000
  H   H187      1.0  0.39409  0.00474  0.90390  1.0000
  H   H188      1.0  0.27042  0.30379  0.71524  1.0000
  Fe  Fe18      1.0  0.02121  0.24505  0.51203  1.0000
  C   C163      1.0  0.02114  0.29280  0.87004  1.0000
  H   H189      1.0  0.30902  0.99569  0.58554  1.0000
  C   C164      1.0  0.38637  0.01810  0.91401  1.0000
  H   H190      1.0  0.99640  0.11982  0.97148  1.0000
  H   H191      1.0  0.03009  0.31902  0.83086  1.0000
  H   H192      1.0  0.99456  0.29059  0.67305  1.0000
  H   H193      1.0  0.04001  0.30867  0.88214  1.0000
  H   H194      1.0  0.00245  0.29606  0.74959  1.0000
  H   H195      1.0  0.38509  0.03863  0.01061  1.0000
  Fe  Fe19      1.0  0.02971  0.24452  0.01012  1.0000
  S   S41       1.0  0.26232  0.01757  0.01061  1.0000
  S   S42       1.0  0.49065  0.09563  0.75521  1.0000
  H   H196      1.0  0.07673  0.12502  0.01111  1.0000
  Fe  Fe20      1.0  0.10215  0.39375  0.25888  1.0000
  S   S43       1.0  0.05592  0.35842  0.26038  1.0000
  S   S44       1.0  0.13218  0.37561  0.25185  1.0000
  Fe  Fe21      1.0  0.08535  0.44168  0.26012  1.0000
  S   S45       1.0  0.03833  0.40918  0.26140  1.0000
  S   S46       1.0  0.10468  0.49066  0.25594  1.0000
  Fe  Fe22      1.0  0.05057  0.38575  0.29588  1.0000
  S   S47       1.0  0.02993  0.37367  0.34300  1.0000
  Fe  Fe23      1.0  0.04812  0.38465  0.22583  1.0000
  S   S48       1.0  0.02806  0.37292  0.17836  1.0000
  S   S49       1.0  0.09745  0.41968  0.29643  1.0000
  S   S50       1.0  0.09460  0.41857  0.22261  1.0000
  Fe  Fe24      1.0  0.06832  0.62376  0.25253  1.0000
  S   S51       1.0  0.03608  0.63668  0.26832  1.0000
  S   S52       1.0  0.05210  0.57546  0.25943  1.0000
  C   C165      1.0  0.23763  0.34420  0.16570  1.0000
  H   H197      1.0  0.23006  0.40919  0.38358  1.0000
  S   S53       1.0  0.07760  0.64938  0.20889  1.0000
  C   C166      1.0  0.44815  0.46503  0.32677  1.0000
  H   H198      1.0  0.24946  0.35983  0.18332  1.0000
  C   C167      1.0  0.05981  0.50940  0.18462  1.0000
  C   C168      1.0  0.08967  0.51391  0.25812  1.0000
  C   C169      1.0  0.10771  0.54358  0.25333  1.0000
  C   C170      1.0  0.09682  0.56279  0.25407  1.0000
  C   C171      1.0  0.06755  0.55256  0.25941  1.0000
  C   C172      1.0  0.04954  0.52292  0.26445  1.0000
  C   C173      1.0  0.06047  0.50375  0.26388  1.0000
  H   H199      1.0  0.13033  0.55179  0.24891  1.0000
  H   H200      1.0  0.11104  0.58544  0.25015  1.0000
  H   H201      1.0  0.02687  0.51466  0.26855  1.0000
  H   H202      1.0  0.04631  0.48113  0.26794  1.0000
  C   C174      1.0  0.16903  0.39279  0.26136  1.0000
  H   H203      1.0  0.17421  0.35841  0.24283  1.0000
  C   C175      1.0  0.01130  0.34056  0.39468  1.0000
  C   C176      1.0  0.13383  0.36652  0.16492  1.0000
  H   H204      1.0  0.40062  0.39548  0.30445  1.0000
  H   H205      1.0  0.08135  0.55540  0.18978  1.0000
  H   H206      1.0  0.06040  0.56412  0.36656  1.0000
  C   C177      1.0  0.46654  0.47490  0.30086  1.0000
  C   C178      1.0  0.01142  0.43640  0.20374  1.0000
  C   C179      1.0  0.09967  0.37961  0.14590  1.0000
  C   C180      1.0  0.03324  0.48353  0.18046  1.0000
  H   H207      1.0  0.26812  0.39410  0.38594  1.0000
  C   C181      1.0  0.03598  0.53768  0.18363  1.0000
  H   H208      1.0  0.03270  0.56043  0.39228  1.0000
  Fe  Fe25      1.0  0.30323  0.36940  0.24729  1.0000
  S   S54       1.0  0.31443  0.41447  0.23471  1.0000
  H   H209      1.0  0.14891  0.37855  0.14615  1.0000
  Fe  Fe26      1.0  0.31802  0.38454  0.31475  1.0000
  S   S55       1.0  0.33047  0.43068  0.30704  1.0000
  S   S56       1.0  0.32307  0.37449  0.36400  1.0000
  Fe  Fe27      1.0  0.29101  0.41325  0.27778  1.0000
  S   S57       1.0  0.26485  0.43530  0.28537  1.0000
  Fe  Fe28      1.0  0.35335  0.42896  0.26508  1.0000
  S   S58       1.0  0.39816  0.46417  0.24954  1.0000
  S   S59       1.0  0.27689  0.36740  0.28857  1.0000
  S   S60       1.0  0.34381  0.38367  0.27458  1.0000
  C   C182      1.0  0.22805  0.41863  0.27563  1.0000
  C   C183      1.0  0.21228  0.43230  0.28304  1.0000
  C   C184      1.0  0.18285  0.41946  0.27591  1.0000
  C   C185      1.0  0.18479  0.37906  0.25409  1.0000
  C   C186      1.0  0.21421  0.39195  0.26109  1.0000
  H   H210      1.0  0.22286  0.45298  0.29428  1.0000
  H   H211      1.0  0.17090  0.43021  0.28160  1.0000
  H   H212      1.0  0.22618  0.38128  0.25516  1.0000
  C   C187      1.0  0.42406  0.49885  0.26356  1.0000
  C   C188      1.0  0.44977  0.51513  0.24712  1.0000
  C   C189      1.0  0.47094  0.54269  0.25711  1.0000
  C   C190      1.0  0.46661  0.55448  0.28370  1.0000
  C   C191      1.0  0.44088  0.53818  0.30014  1.0000
  C   C192      1.0  0.41981  0.51056  0.29027  1.0000
  H   H213      1.0  0.45342  0.50638  0.22646  1.0000
  H   H214      1.0  0.43724  0.54704  0.32071  1.0000
  H   H215      1.0  0.40037  0.49849  0.30340  1.0000
  H   H216      1.0  0.19247  0.37278  0.41106  1.0000
  C   C193      1.0  0.24385  0.35153  0.13512  1.0000
  H   H217      1.0  0.01284  0.62934  0.43279  1.0000
  H   H218      1.0  0.31882  0.35825  0.42700  1.0000
  C   C194      1.0  0.11047  0.34105  0.10396  1.0000
  H   H219      1.0  0.17300  0.34005  0.45389  1.0000
  H   H220      1.0  0.03290  0.45481  0.13042  1.0000
  H   H221      1.0  0.01807  0.41985  0.14760  1.0000
  H   H222      1.0  0.31153  0.36600  0.16625  1.0000
  H   H223      1.0  0.23673  0.33783  0.08926  1.0000
  N   N12       1.0  0.35116  0.51017  0.23624  1.0000
  C   C195      1.0  0.35079  0.49251  0.20994  1.0000
  C   C196      1.0  0.34312  0.49180  0.26372  1.0000
  C   C197      1.0  0.32880  0.51827  0.23073  1.0000
  C   C198      1.0  0.37942  0.53628  0.24112  1.0000
  C   C199      1.0  0.40395  0.54323  0.22279  1.0000
  C   C200      1.0  0.38310  0.55555  0.26518  1.0000
  C   C201      1.0  0.43028  0.56805  0.22820  1.0000
  C   C202      1.0  0.40963  0.58014  0.27056  1.0000
  C   C203      1.0  0.43315  0.58638  0.25208  1.0000
  H   H224      1.0  0.36609  0.48436  0.21333  1.0000
  H   H225      1.0  0.32922  0.47320  0.20673  1.0000
  H   H226      1.0  0.35625  0.50484  0.18827  1.0000
  H   H227      1.0  0.35967  0.48568  0.26887  1.0000
  H   H228      1.0  0.32220  0.47169  0.26069  1.0000
  H   H229      1.0  0.34066  0.50248  0.28427  1.0000
  H   H230      1.0  0.30741  0.49907  0.22612  1.0000
  H   H231      1.0  0.32561  0.52914  0.25069  1.0000
  H   H232      1.0  0.33458  0.53301  0.21089  1.0000
  H   H233      1.0  0.40370  0.52954  0.20462  1.0000
  H   H234      1.0  0.36560  0.55151  0.28037  1.0000
  H   H235      1.0  0.05660  0.43412  0.18260  1.0000
  H   H236      1.0  0.41222  0.59420  0.28951  1.0000
  H   H237      1.0  0.03072  0.55141  0.32470  1.0000
  H   H238      1.0  0.01410  0.57057  0.31196  1.0000
  H   H239      1.0  0.13761  0.34872  0.17179  1.0000
  C   C204      1.0  0.01674  0.34091  0.36326  1.0000
  C   C205      1.0  0.01093  0.62326  0.40899  1.0000
  C   C206      1.0  0.10000  0.35171  0.33393  1.0000
  C   C207      1.0  0.21408  0.35156  0.38951  1.0000
  C   C208      1.0  0.09476  0.33388  0.13174  1.0000
  C   C209      1.0  0.47756  0.51304  0.34905  1.0000
  C   C210      1.0  0.29998  0.33768  0.12717  1.0000
  C   C211      1.0  0.39647  0.43690  0.33304  1.0000
  C   C212      1.0  0.21576  0.35499  0.33446  1.0000
  H   H240      1.0  0.05638  0.61734  0.31654  1.0000
  C   C213      1.0  0.05020  0.57581  0.37705  1.0000
  H   H241      1.0  0.99705  0.43715  0.14565  1.0000
  H   H242      1.0  0.44133  0.47916  0.37115  1.0000
  C   C214      1.0  0.05897  0.45590  0.18349  1.0000
  H   H243      1.0  0.10603  0.36590  0.31441  1.0000
  H   H244      1.0  0.41536  0.42671  0.28104  1.0000
  C   C215      1.0  0.06099  0.53598  0.18590  1.0000
  C   C216      1.0  0.41943  0.41749  0.30192  1.0000
  H   H245      1.0  0.37715  0.41509  0.33384  1.0000
  N   N13       1.0  0.03099  0.45490  0.17933  1.0000
  C   C217      1.0  0.19701  0.35534  0.41194  1.0000
  C   C218      1.0  0.45447  0.48498  0.35087  1.0000
  H   H246      1.0  0.19193  0.34482  0.33340  1.0000
  H   H247      1.0  0.44719  0.42010  0.35431  1.0000
  H   H248      1.0  0.99970  0.54779  0.34488  1.0000
  H   H249      1.0  0.00569  0.60543  0.32310  1.0000
  H   H250      1.0  0.06849  0.46499  0.20610  1.0000
  N   N14       1.0  0.03887  0.58747  0.35356  1.0000
  C   C219      1.0  0.22130  0.39551  0.36293  1.0000
  C   C220      1.0  0.30029  0.34157  0.38293  1.0000
  H   H251      1.0  0.43852  0.41488  0.29795  1.0000
  C   C221      1.0  0.00705  0.60933  0.34730  1.0000
  H   H252      1.0  0.07466  0.46875  0.16542  1.0000
  C   C222      1.0  0.02487  0.60892  0.39781  1.0000
  H   H253      1.0  0.31158  0.35497  0.11117  1.0000
  H   H254      1.0  0.14032  0.38168  0.18458  1.0000
  H   H255      1.0  0.48160  0.52820  0.36731  1.0000
  H   H256      1.0  0.10517  0.39602  0.16406  1.0000
  H   H257      1.0  0.45395  0.60496  0.25689  1.0000
  C   C223      1.0  0.07914  0.33826  0.38435  1.0000
  H   H258      1.0  0.07698  0.37201  0.13913  1.0000
  C   C224      1.0  0.42682  0.42082  0.35592  1.0000
  H   H259      1.0  0.03722  0.60450  0.41406  1.0000
  C   C225      1.0  0.01604  0.33982  0.15893  1.0000
  H   H260      1.0  0.01549  0.36021  0.40592  1.0000
  H   H261      1.0  0.07624  0.59980  0.32524  1.0000
  H   H262      1.0  0.19790  0.38793  0.36099  1.0000
  H   H263      1.0  0.00996  0.41495  0.20414  1.0000
  N   N15       1.0  0.22713  0.37118  0.36327  1.0000
  C   C226      1.0  0.08755  0.35676  0.35932  1.0000
  C   C227      1.0  0.00824  0.48613  0.17751  1.0000
  C   C228      1.0  0.00966  0.51282  0.17928  1.0000
  H   H264      1.0  0.26963  0.39979  0.34544  1.0000
  N   N16       1.0  0.42327  0.43557  0.32913  1.0000
  H   H265      1.0  0.49053  0.55485  0.24415  1.0000
  H   H266      1.0  0.42724  0.43157  0.37771  1.0000
  H   H267      1.0  0.40869  0.39833  0.35793  1.0000
  C   C229      1.0  0.06357  0.60901  0.33561  1.0000
  C   C230      1.0  0.01991  0.56329  0.33311  1.0000
  N   N17       1.0  0.10327  0.35539  0.15650  1.0000
  H   H268      1.0  0.07822  0.62791  0.34979  1.0000
  C   C231      1.0  0.01923  0.44114  0.14945  1.0000
  H   H269      1.0  0.39616  0.44770  0.35451  1.0000
  H   H270      1.0  0.12878  0.36213  0.10038  1.0000
  H   H271      1.0  0.39364  0.44877  0.31386  1.0000
  H   H272      1.0  0.46312  0.46172  0.28100  1.0000
  H   H273      1.0  0.26529  0.36704  0.36012  1.0000
  H   H274      1.0  0.07997  0.50976  0.18779  1.0000
  H   H275      1.0  0.23166  0.40989  0.34300  1.0000
  H   H276      1.0  0.26050  0.37298  0.12905  1.0000
  C   C232      1.0  0.02317  0.60130  0.36650  1.0000
  H   H277      1.0  0.06733  0.59317  0.39103  1.0000
  C   C233      1.0  0.30004  0.34401  0.15842  1.0000
  C   C234      1.0  0.25881  0.38354  0.36374  1.0000
  H   H278      1.0  0.44896  0.57259  0.21455  1.0000
  H   H279      1.0  0.11346  0.39078  0.12594  1.0000
  C   C235      1.0  0.01627  0.33958  0.12689  1.0000
  H   H280      1.0  0.08367  0.37478  0.35929  1.0000
  H   H281      1.0  0.03702  0.55831  0.18580  1.0000
  H   H282      1.0  0.02371  0.35944  0.11455  1.0000
  H   H283      1.0  0.22472  0.36927  0.31426  1.0000
  H   H284      1.0  0.09304  0.36053  0.20290  1.0000
  C   C236      1.0  0.30293  0.33971  0.41461  1.0000
  H   H285      1.0  0.01908  0.44648  0.22652  1.0000
  H   H286      1.0  0.06879  0.34308  0.40275  1.0000
  C   C237      1.0  0.48978  0.50292  0.29948  1.0000
  H   H287      1.0  0.22139  0.33779  0.33153  1.0000
  C   C238      1.0  0.08601  0.34391  0.18475  1.0000
  S   S61       1.0  0.28182  0.32852  0.21854  1.0000
  C   C239      1.0  0.99508  0.63052  0.38951  1.0000
  C   C240      1.0  0.99313  0.62354  0.35874  1.0000
  C   C241      1.0  0.18553  0.33656  0.43672  1.0000
  C   C242      1.0  0.22996  0.33092  0.11236  1.0000
  S   S62       1.0  0.10492  0.65961  0.27829  1.0000
  H   H288      1.0  0.06302  0.33684  0.18090  1.0000
  C   C243      1.0  0.21844  0.32775  0.39330  1.0000
  C   C244      1.0  0.10413  0.32809  0.33338  1.0000
  H   H289      1.0  0.41917  0.37250  0.89189  1.0000
  H   H290      1.0  0.44085  0.38816  0.81259  1.0000
  S   S63       1.0  0.38687  0.34069  0.77776  1.0000
  H   H291      1.0  0.99250  0.63862  0.64455  1.0000
  H   H292      1.0  0.34161  0.35943  0.65889  1.0000
  C   C245      1.0  0.43888  0.39396  0.88921  1.0000
  C   C246      1.0  0.30779  0.33311  0.68994  1.0000
  N   N18       1.0  0.45351  0.39615  0.85978  1.0000
  Fe  Fe29      1.0  0.43213  0.35406  0.76195  1.0000
  S   S64       1.0  0.46363  0.40187  0.75216  1.0000
  H   H293      1.0  0.47496  0.37614  0.83791  1.0000
  H   H294      1.0  0.45271  0.39662  0.90913  1.0000
  C   C247      1.0  0.43183  0.38862  0.83531  1.0000
  H   H295      1.0  0.42347  0.40387  0.83449  1.0000
  H   H296      1.0  0.99464  0.65375  0.69801  1.0000
  C   C248      1.0  0.47889  0.42515  0.85633  1.0000
  C   C249      1.0  0.46292  0.37443  0.85924  1.0000
  H   H297      1.0  0.43219  0.41051  0.89086  1.0000
  C   C250      1.0  0.30028  0.33892  0.63665  1.0000
  H   H298      1.0  0.44429  0.35218  0.86046  1.0000
  H   H299      1.0  0.41283  0.36692  0.83878  1.0000
  C   C251      1.0  0.26398  0.32783  0.58497  1.0000
  C   C252      1.0  0.31864  0.34549  0.66167  1.0000
  H   H300      1.0  0.31039  0.34844  0.61523  1.0000
  H   H301      1.0  0.27463  0.35149  0.58795  1.0000
  H   H302      1.0  0.32227  0.33738  0.70896  1.0000
  H   H303      1.0  0.23665  0.34247  0.62760  1.0000
  C   C253      1.0  0.48243  0.44345  0.83133  1.0000
  H   H304      1.0  0.46680  0.43731  0.81325  1.0000
  H   H305      1.0  0.47705  0.37668  0.87872  1.0000
  H   H306      1.0  0.00018  0.33076  0.80537  1.0000
  H   H307      1.0  0.16209  0.98352  0.45046  1.0000
  C   C254      1.0  0.13857  0.81857  0.41478  1.0000
  S   S65       1.0  0.20678  0.96333  0.04313  1.0000
  C   C255      1.0  0.08799  0.78985  0.42753  1.0000
  H   H308      1.0  0.18885  0.91205  0.44317  1.0000
  H   H309      1.0  0.04450  0.77914  0.10939  1.0000
  Fe  Fe30      1.0  0.24689  0.96439  0.48750  1.0000
  H   H310      1.0  0.04761  0.74422  0.13786  1.0000
  S   S66       1.0  0.25776  0.93615  0.45753  1.0000
  C   C256      1.0  0.46130  0.98981  0.32007  1.0000
  H   H311      1.0  0.31751  0.95621  0.16462  1.0000
  H   H312      1.0  0.04054  0.77725  0.06892  1.0000
  S   S67       1.0  0.25057  0.81510  0.29670  1.0000
  Fe  Fe31      1.0  0.11178  0.68618  0.23630  1.0000
  S   S68       1.0  0.08312  0.70299  0.25204  1.0000
  S   S69       1.0  0.15345  0.71894  0.21404  1.0000
  C   C257      1.0  0.22493  0.78817  0.27275  1.0000
  C   C258      1.0  0.22214  0.79352  0.24216  1.0000
  C   C259      1.0  0.20049  0.77191  0.22416  1.0000
  C   C260      1.0  0.18114  0.74512  0.23680  1.0000
  C   C261      1.0  0.18412  0.73972  0.26731  1.0000
  C   C262      1.0  0.20619  0.76107  0.28510  1.0000
  H   H313      1.0  0.23638  0.81438  0.23245  1.0000
  H   H314      1.0  0.19831  0.77618  0.20052  1.0000
  H   H315      1.0  0.16957  0.71898  0.27708  1.0000
  H   H316      1.0  0.20846  0.75671  0.30867  1.0000
  C   C263      1.0  0.05171  0.69495  0.36161  1.0000
  C   C264      1.0  0.48939  0.97950  0.28414  1.0000
  C   C265      1.0  0.43851  0.98110  0.29872  1.0000
  C   C266      1.0  0.01511  0.70966  0.39434  1.0000
  C   C267      1.0  0.03794  0.70913  0.40913  1.0000
  H   H317      1.0  0.13120  0.78152  0.09342  1.0000
  C   C268      1.0  0.08469  0.86664  0.01810  1.0000
  S   S70       1.0  0.99189  0.71941  0.41338  1.0000
  C   C269      1.0  0.27434  0.91962  0.40544  1.0000
  H   H318      1.0  0.28741  0.90571  0.36511  1.0000
  H   H319      1.0  0.26393  0.89853  0.41564  1.0000
  H   H320      1.0  0.03201  0.74543  0.08945  1.0000
  H   H321      1.0  0.10148  0.76678  0.05084  1.0000
  N   N19       1.0  0.41078  0.97940  0.30650  1.0000
  H   H322      1.0  0.04157  0.71432  0.43311  1.0000
  C   C270      1.0  0.01116  0.68465  0.09805  1.0000
  S   S71       1.0  0.28755  0.98365  0.07029  1.0000
  H   H323      1.0  0.04683  0.66599  0.14980  1.0000
  C   C271      1.0  0.06993  0.74988  0.13644  1.0000
  H   H324      1.0  0.28945  0.98793  0.41971  1.0000
  H   H325      1.0  0.42568  0.96339  0.25279  1.0000
  S   S72       1.0  0.21590  0.97793  0.47090  1.0000
  C   C272      1.0  0.25412  0.93831  0.10931  1.0000
  H   H326      1.0  0.23638  0.93309  0.09404  1.0000
  H   H327      1.0  0.06623  0.72851  0.17917  1.0000
  S   S73       1.0  0.03247  0.81668  0.01773  1.0000
  Fe  Fe32      1.0  0.25340  0.97729  0.03528  1.0000
  H   H328      1.0  0.06715  0.77086  0.42406  1.0000
  Fe  Fe33      1.0  0.29198  0.90384  0.22841  1.0000
  S   S74       1.0  0.30097  0.86712  0.23076  1.0000
  S   S75       1.0  0.26533  0.90623  0.18894  1.0000
  Fe  Fe34      1.0  0.31296  0.92216  0.29427  1.0000
  S   S76       1.0  0.32343  0.88675  0.30114  1.0000
  S   S77       1.0  0.32154  0.95742  0.32881  1.0000
  Fe  Fe35      1.0  0.34275  0.89770  0.25413  1.0000
  S   S78       1.0  0.38391  0.89853  0.23708  1.0000
  Fe  Fe36      1.0  0.28130  0.85895  0.27727  1.0000
  S   S79       1.0  0.33506  0.93526  0.24834  1.0000
  S   S80       1.0  0.26951  0.89348  0.27402  1.0000
  C   C273      1.0  0.46694  0.90425  0.27660  1.0000
  C   C274      1.0  0.44670  0.90565  0.29608  1.0000
  C   C275      1.0  0.42080  0.90296  0.28468  1.0000
  C   C276      1.0  0.41498  0.89948  0.25341  1.0000
  C   C277      1.0  0.43494  0.89755  0.23400  1.0000
  C   C278      1.0  0.46060  0.89971  0.24548  1.0000
  H   H329      1.0  0.45131  0.90920  0.32017  1.0000
  H   H330      1.0  0.40563  0.90402  0.30006  1.0000
  H   H331      1.0  0.43082  0.89487  0.20977  1.0000
  C   C279      1.0  0.30235  0.95099  0.36375  1.0000
  C   C280      1.0  0.28773  0.92364  0.37677  1.0000
  C   C281      1.0  0.27470  0.94268  0.42117  1.0000
  C   C282      1.0  0.28882  0.96995  0.40788  1.0000
  C   C283      1.0  0.30285  0.97410  0.37951  1.0000
  H   H332      1.0  0.07377  0.70157  0.40443  1.0000
  C   C284      1.0  0.28130  0.96157  0.10284  1.0000
  C   C285      1.0  0.24983  0.92166  0.13565  1.0000
  C   C286      1.0  0.27259  0.92785  0.15581  1.0000
  C   C287      1.0  0.29982  0.95110  0.14933  1.0000
  C   C288      1.0  0.30409  0.96788  0.12302  1.0000
  H   H333      1.0  0.22868  0.90375  0.14043  1.0000
  S   S81       1.0  0.01553  0.67218  0.20144  1.0000
  H   H334      1.0  0.38554  0.93745  0.28640  1.0000
  H   H335      1.0  0.15826  0.89322  0.41843  1.0000
  C   C289      1.0  0.19319  0.86972  0.42029  1.0000
  H   H336      1.0  0.19872  0.85238  0.42231  1.0000
  C   C290      1.0  0.09230  0.87649  0.50494  1.0000
  H   H337      1.0  0.05345  0.83503  0.50446  1.0000
  H   H338      1.0  0.24559  0.98610  0.12555  1.0000
  C   C291      1.0  0.99527  0.68528  0.14988  1.0000
  C   C292      1.0  0.12659  0.76073  0.13592  1.0000
  N   N20       1.0  0.17049  0.86594  0.44234  1.0000
  C   C293      1.0  0.16763  0.89206  0.44059  1.0000
  Fe  Fe37      1.0  0.04853  0.66506  0.22685  1.0000
  H   H339      1.0  0.06676  0.73699  0.05959  1.0000
  C   C294      1.0  0.11786  0.83459  0.45390  1.0000
  S   S82       1.0  0.14172  0.92911  0.50388  1.0000
  H   H340      1.0  0.20563  0.98471  0.10548  1.0000
  Fe  Fe38      1.0  0.07306  0.67353  0.29200  1.0000
  C   C295      1.0  0.01434  0.67677  0.16150  1.0000
  H   H341      1.0  0.09667  0.81808  0.10304  1.0000
  N   N21       1.0  0.14280  0.78140  0.31025  1.0000
  C   C296      1.0  0.14201  0.78171  0.27655  1.0000
  C   C297      1.0  0.17249  0.80237  0.32030  1.0000
  C   C298      1.0  0.13672  0.75248  0.32041  1.0000
  C   C299      1.0  0.12105  0.78829  0.32222  1.0000
  C   C300      1.0  0.12816  0.81676  0.33020  1.0000
  C   C301      1.0  0.09161  0.76687  0.32445  1.0000
  C   C302      1.0  0.10731  0.82288  0.34142  1.0000
  C   C303      1.0  0.07100  0.77324  0.33577  1.0000
  C   C304      1.0  0.07885  0.80110  0.34448  1.0000
  H   H342      1.0  0.14709  0.80314  0.26774  1.0000
  H   H343      1.0  0.15781  0.77637  0.26634  1.0000
  H   H344      1.0  0.12042  0.76585  0.26762  1.0000
  H   H345      1.0  0.18098  0.82363  0.30911  1.0000
  H   H346      1.0  0.18823  0.79547  0.31391  1.0000
  H   H347      1.0  0.17364  0.80513  0.34544  1.0000
  H   H348      1.0  0.13200  0.74934  0.34525  1.0000
  H   H349      1.0  0.11826  0.73486  0.30814  1.0000
  H   H350      1.0  0.15489  0.74859  0.31584  1.0000
  H   H351      1.0  0.14965  0.83467  0.32767  1.0000
  H   H352      1.0  0.08404  0.74496  0.31740  1.0000
  H   H353      1.0  0.11317  0.84466  0.34762  1.0000
  H   H354      1.0  0.04870  0.75646  0.33761  1.0000
  H   H355      1.0  0.06270  0.80581  0.35327  1.0000
  N   N22       1.0  0.32867  0.80735  0.21640  1.0000
  C   C305      1.0  0.33735  0.78597  0.20788  1.0000
  C   C306      1.0  0.29769  0.79478  0.20876  1.0000
  C   C307      1.0  0.34504  0.83333  0.19737  1.0000
  C   C308      1.0  0.33515  0.81500  0.24900  1.0000
  C   C309      1.0  0.31379  0.81130  0.27064  1.0000
  C   C310      1.0  0.36366  0.82635  0.26006  1.0000
  C   C311      1.0  0.32069  0.81848  0.30129  1.0000
  C   C312      1.0  0.37028  0.83327  0.29079  1.0000
  C   C313      1.0  0.34886  0.82945  0.31135  1.0000
  H   H356      1.0  0.32668  0.76675  0.22288  1.0000
  H   H357      1.0  0.33155  0.77863  0.18388  1.0000
  H   H358      1.0  0.36095  0.79478  0.20975  1.0000
  H   H359      1.0  0.28409  0.77474  0.22184  1.0000
  H   H360      1.0  0.29346  0.78916  0.18417  1.0000
  H   H361      1.0  0.28985  0.81010  0.21346  1.0000
  H   H362      1.0  0.36869  0.84328  0.20035  1.0000
  H   H363      1.0  0.34051  0.82864  0.17267  1.0000
  H   H364      1.0  0.33957  0.85017  0.20347  1.0000
  H   H365      1.0  0.29155  0.80315  0.26454  1.0000
  H   H366      1.0  0.38126  0.83053  0.24493  1.0000
  H   H367      1.0  0.30404  0.81579  0.31726  1.0000
  H   H368      1.0  0.39230  0.84216  0.29853  1.0000
  H   H369      1.0  0.35413  0.83524  0.33507  1.0000
  C   C314      1.0  0.08036  0.74055  0.16047  1.0000
  S   S83       1.0  0.01489  0.72295  0.50101  1.0000
  H   H370      1.0  0.07277  0.80647  0.46310  1.0000
  C   C315      1.0  0.11169  0.79399  0.41045  1.0000
  H   H371      1.0  0.21362  0.89009  0.42443  1.0000
  C   C316      1.0  0.18064  0.86438  0.47328  1.0000
  H   H372      1.0  0.99300  0.70291  0.35154  1.0000
  C   C317      1.0  0.14237  0.83985  0.43660  1.0000
  C   C318      1.0  0.07908  0.76077  0.05700  1.0000
  H   H373      1.0  0.14847  0.76457  0.13573  1.0000
  H   H374      1.0  0.15599  0.82030  0.40092  1.0000
  H   H375      1.0  0.18273  0.84489  0.47592  1.0000
  H   H376      1.0  0.11833  0.81309  0.07505  1.0000
  H   H377      1.0  0.39376  0.93734  0.32590  1.0000
  H   H378      1.0  0.08768  0.81510  0.06334  1.0000
  H   H379      1.0  0.11630  0.73795  0.17852  1.0000
  C   C319      1.0  0.10854  0.74580  0.16014  1.0000
  S   S84       1.0  0.00990  0.68898  0.05808  1.0000
  C   C320      1.0  0.02883  0.69535  0.34687  1.0000
  C   C321      1.0  0.11647  0.77033  0.11185  1.0000
  C   C322      1.0  0.46769  0.97126  0.26259  1.0000
  H   H380      1.0  0.18679  0.87078  0.39645  1.0000
  C   C323      1.0  0.38833  0.94884  0.30841  1.0000
  C   C324      1.0  0.09113  0.81003  0.44935  1.0000
  C   C325      1.0  0.09588  0.80665  0.08157  1.0000
  H   H381      1.0  0.10905  0.77791  0.39378  1.0000
  H   H382      1.0  0.11747  0.97466  0.47099  1.0000
  H   H383      1.0  0.07279  0.87627  0.02750  1.0000
  C   C326      1.0  0.44252  0.97177  0.26975  1.0000
  C   C327      1.0  0.48628  0.98890  0.31274  1.0000
  S   S85       1.0  0.07542  0.68618  0.34211  1.0000
  C   C328      1.0  0.04735  0.76894  0.08859  1.0000
  H   H384      1.0  0.36710  0.94642  0.31464  1.0000
  N   N23       1.0  0.07750  0.77514  0.08524  1.0000
  C   C329      1.0  0.03032  0.67627  0.10967  1.0000
  H   H385      1.0  0.08286  0.88685  0.49199  1.0000
  H   H386      1.0  0.15391  0.89306  0.45903  1.0000
  C   C330      1.0  0.05619  0.70192  0.39279  1.0000
  C   C331      1.0  0.08778  0.76518  0.11133  1.0000
  C   C332      1.0  0.01064  0.70263  0.36319  1.0000
  H   H387      1.0  0.11925  0.84933  0.47139  1.0000
  H   H388      1.0  0.46979  0.96307  0.24069  1.0000
  H   H389      1.0  0.47590  0.89873  0.23010  1.0000
  C   C333      1.0  0.03200  0.67244  0.14122  1.0000
  H   H390      1.0  0.26560  0.97768  0.17153  1.0000
  H   H391      1.0  0.02507  0.69001  0.32292  1.0000
  H   H392      1.0  0.06987  0.76627  0.03712  1.0000
  S   S86       1.0  0.00037  0.77347  0.47949  1.0000
  C   C334      1.0  0.99376  0.68935  0.11835  1.0000
  H   H393      1.0  0.15983  0.98906  0.50439  1.0000
  H   H394      1.0  0.16569  0.86364  0.49132  1.0000
  H   H395      1.0  0.20205  0.88346  0.47831  1.0000
  H   H396      1.0  0.04391  0.67264  0.09418  1.0000
  H   H397      1.0  0.39795  0.98229  0.26036  1.0000
  C   C335      1.0  0.11441  0.88398  0.01236  1.0000
  H   H398      1.0  0.12513  0.90673  0.01720  1.0000
  H   H399      1.0  0.41418  0.98176  0.35561  1.0000
  H   H400      1.0  0.32519  0.98587  0.11831  1.0000
  C   C336      1.0  0.40244  0.99348  0.28267  1.0000
  H   H401      1.0  0.38221  0.99349  0.28880  1.0000
  H   H402      1.0  0.39015  0.99229  0.34053  1.0000
  C   C337      1.0  0.41109  0.99310  0.33607  1.0000
  H   H403      1.0  0.08336  0.76805  0.59540  1.0000
  S   S87       1.0  0.24573  0.95234  0.99176  1.0000
  H   H404      1.0  0.08746  0.82266  0.90359  1.0000
  C   C338      1.0  0.00504  0.66978  0.68034  1.0000
  C   C339      1.0  0.08646  0.84028  0.91423  1.0000
  C   C340      1.0  0.08750  0.83337  0.52861  1.0000
  H   H405      1.0  0.21278  0.92887  0.69799  1.0000
  H   H406      1.0  0.04203  0.86123  0.94774  1.0000
  H   H407      1.0  0.24288  0.94521  0.74356  1.0000
  H   H408      1.0  0.05154  0.78335  0.92813  1.0000
  H   H409      1.0  0.03687  0.79194  0.96058  1.0000
  C   C341      1.0  0.05982  0.83747  0.92375  1.0000
  C   C342      1.0  0.29327  0.94535  0.77010  1.0000
  H   H410      1.0  0.08343  0.73738  0.61187  1.0000
  C   C343      1.0  0.12111  0.89247  0.51437  1.0000
  C   C344      1.0  0.11623  0.84943  0.53830  1.0000
  S   S88       1.0  0.20418  0.97812  0.97044  1.0000
  H   H411      1.0  0.12564  0.83906  0.55127  1.0000
  C   C345      1.0  0.12994  0.87198  0.99949  1.0000
  C   C346      1.0  0.07343  0.75122  0.61339  1.0000
  H   H412      1.0  0.27072  0.93631  0.77804  1.0000
  H   H413      1.0  0.32165  0.96718  0.87199  1.0000
  H   H414      1.0  0.08753  0.90472  0.95529  1.0000
  H   H415      1.0  0.13305  0.90807  0.93830  1.0000
  H   H416      1.0  0.28617  0.94831  0.64284  1.0000
  H   H417      1.0  0.15505  0.89087  0.53879  1.0000
  H   H418      1.0  0.00805  0.78231  0.88189  1.0000
  C   C347      1.0  0.11246  0.86558  0.91921  1.0000
  H   H419      1.0  0.02869  0.81991  0.87237  1.0000
  N   N24       1.0  0.30147  0.96869  0.74759  1.0000
  H   H420      1.0  0.07962  0.76251  0.63568  1.0000
  H   H421      1.0  0.13268  0.86697  0.91286  1.0000
  Fe  Fe39      1.0  0.19912  0.94045  0.99807  1.0000
  C   C348      1.0  0.03124  0.71953  0.66475  1.0000
  H   H422      1.0  0.03620  0.76636  0.63354  1.0000
  H   H423      1.0  0.04180  0.74177  0.67161  1.0000
  H   H424      1.0  0.01286  0.67348  0.60404  1.0000
  C   C349      1.0  0.02872  0.80254  0.88612  1.0000
  H   H425      1.0  0.29559  0.92748  0.76028  1.0000
  C   C350      1.0  0.11556  0.84234  0.99330  1.0000
  S   S89       1.0  0.21952  0.94018  0.52808  1.0000
  H   H426      1.0  0.04513  0.73944  0.56084  1.0000
  C   C351      1.0  0.03599  0.72214  0.57827  1.0000
  H   H427      1.0  0.33775  0.96496  0.73185  1.0000
  S   S90       1.0  0.01434  0.73726  0.99366  1.0000
  H   H428      1.0  0.00732  0.81459  0.95461  1.0000
  H   H429      1.0  0.07534  0.80228  0.99434  1.0000
  Fe  Fe40      1.0  0.18986  0.95562  0.51238  1.0000
  C   C352      1.0  0.13299  0.87881  0.53118  1.0000
  C   C353      1.0  0.06091  0.86158  0.93859  1.0000
  H   H430      1.0  0.32518  0.97330  0.97554  1.0000
  C   C354      1.0  0.28328  0.95738  0.72005  1.0000
  C   C355      1.0  0.11274  0.88885  0.93354  1.0000
  S   S91       1.0  0.06766  0.79623  0.53724  1.0000
  C   C356      1.0  0.02952  0.71164  0.63360  1.0000
  C   C357      1.0  0.08704  0.88687  0.94315  1.0000
  C   C358      1.0  0.29734  0.99155  0.76169  1.0000
  C   C359      1.0  0.00668  0.81088  0.92953  1.0000
  N   N25       1.0  0.03267  0.81013  0.91895  1.0000
  H   H431      1.0  0.04584  0.79865  0.87701  1.0000
  C   C360      1.0  0.23563  0.93657  0.69613  1.0000
  H   H432      1.0  0.01364  0.76606  0.93322  1.0000
  C   C361      1.0  0.03384  0.78693  0.93587  1.0000
  Fe  Fe41      1.0  0.25128  0.99163  0.96748  1.0000
  H   H433      1.0  0.01249  0.70924  0.57379  1.0000
  H   H434      1.0  0.31736  0.96574  0.68668  1.0000
  C   C362      1.0  0.27691  0.94729  0.66512  1.0000
  H   H435      1.0  0.29099  0.97102  0.91228  1.0000
  C   C363      1.0  0.29467  0.95732  0.69074  1.0000
  H   H436      1.0  0.30706  0.95320  0.79089  1.0000
  C   C364      1.0  0.00379  0.66130  0.65015  1.0000
  C   C365      1.0  0.01888  0.69883  0.68766  1.0000
  H   H437      1.0  0.00424  0.82780  0.91762  1.0000
  H   H438      1.0  0.04590  0.70854  0.57386  1.0000
  N   N26       1.0  0.04181  0.73401  0.60968  1.0000
  H   H439      1.0  0.00571  0.74107  0.61188  1.0000
  C   C366      1.0  0.25311  0.94617  0.72202  1.0000
  S   S92       1.0  0.25333  0.98823  0.60447  1.0000
  H   H440      1.0  0.23421  0.93079  0.64746  1.0000
  C   C367      1.0  0.24757  0.93736  0.66769  1.0000
  H   H441      1.0  0.03682  0.76926  0.59329  1.0000
  S   S93       1.0  0.16677  0.89307  0.98911  1.0000
  H   H442      1.0  0.12740  0.83285  0.98338  1.0000
  C   C368      1.0  0.33264  0.98118  0.74119  1.0000
  C   C369      1.0  0.02960  0.75343  0.61231  1.0000
  C   C370      1.0  0.01566  0.68176  0.62698  1.0000
  H   H443      1.0  0.27524  0.98343  0.77058  1.0000
  H   H444      1.0  0.01955  0.70524  0.71122  1.0000
  Fe  Fe42      1.0  0.24348  0.98214  0.55358  1.0000
  H   H445      1.0  0.34576  0.98970  0.76220  1.0000
  C   C371      1.0  0.30207  0.98825  0.89612  1.0000
  C   C372      1.0  0.08593  0.82496  0.99929  1.0000
  H   H446      1.0  0.30496  0.99019  0.96469  1.0000
  H   H447      1.0  0.30792  0.98302  0.00418  1.0000
  Fe  Fe43      1.0  0.02299  0.76594  0.51833  1.0000
  C   C373      1.0  0.31935  0.98605  0.87311  1.0000
  Fe  Fe44      1.0  0.00177  0.76865  0.01109  1.0000
  C   C374      1.0  0.07556  0.84708  0.51196  1.0000
  C   C375      1.0  0.07020  0.83713  0.01127  1.0000
  H   H448      1.0  0.36981  0.99182  0.95328  1.0000
  C   C376      1.0  0.31990  0.99010  0.98221  1.0000
  H   H449      1.0  0.73454  0.03614  0.35858  1.0000
  H   H450      1.0  0.93313  0.15854  0.09904  1.0000
  S   S94       1.0  0.98782  0.21416  0.47965  1.0000
  H   H451      1.0  0.97742  0.10714  0.50782  1.0000
  C   C377      1.0  0.82320  0.09678  0.09640  1.0000
  H   H452      1.0  0.73078  0.05399  0.46693  1.0000
  Fe  Fe45      1.0  0.98864  0.24912  0.05598  1.0000
  Fe  Fe46      1.0  0.76896  0.02831  0.01684  1.0000
  C   C378      1.0  0.92896  0.17441  0.08724  1.0000
  Fe  Fe47      1.0  0.97923  0.25001  0.46867  1.0000
  C   C379      1.0  0.84804  0.09754  0.08574  1.0000
  C   C380      1.0  0.74069  0.02627  0.42268  1.0000
  C   C381      1.0  0.71229  0.02835  0.36440  1.0000
  H   H453      1.0  0.72507  0.00375  0.42907  1.0000
  H   H454      1.0  0.83446  0.12931  0.47953  1.0000
  H   H455      1.0  0.89260  0.12209  0.07730  1.0000
  H   H456      1.0  0.50312  0.99486  0.32953  1.0000
  N   N27       1.0  0.90444  0.17593  0.10112  1.0000
  H   H457      1.0  0.85131  0.16516  0.12103  1.0000
  C   C382      1.0  0.87688  0.14849  0.09959  1.0000
  H   H458      1.0  0.89514  0.19243  0.06075  1.0000
  C   C383      1.0  0.84574  0.12196  0.49412  1.0000
  H   H459      1.0  0.92246  0.21941  0.08473  1.0000
  C   C384      1.0  0.87453  0.12295  0.08704  1.0000
  C   C385      1.0  0.91187  0.18470  0.13338  1.0000
  C   C386      1.0  0.90174  0.19868  0.08485  1.0000
  H   H460      1.0  0.88575  0.20339  0.09554  1.0000
  N   N28       1.0  0.72582  0.04311  0.41904  1.0000
  H   H461      1.0  0.76362  0.08364  0.42934  1.0000
  C   C387      1.0  0.71368  0.04398  0.44923  1.0000
  H   H462      1.0  0.73693  0.08610  0.40662  1.0000
  C   C388      1.0  0.70392  0.03015  0.39469  1.0000
  C   C389      1.0  0.74743  0.07301  0.41086  1.0000
  H   H463      1.0  0.75744  0.03545  0.44078  1.0000
  C   C390      1.0  0.69202  0.01578  0.34110  1.0000
  H   H464      1.0  0.80533  0.12054  0.11734  1.0000
  H   H465      1.0  0.89577  0.18884  0.14481  1.0000
  S   S95       1.0  0.95179  0.23235  0.02249  1.0000
  S   S96       1.0  0.97918  0.25624  0.41729  1.0000
  C   C391      1.0  0.67399  0.01857  0.40013  1.0000
  H   H466      1.0  0.80260  0.07725  0.09421  1.0000
  C   C392      1.0  0.65396  0.00636  0.37655  1.0000
  S   S97       1.0  0.94375  0.23451  0.50381  1.0000
  H   H467      1.0  0.75985  0.07411  0.39013  1.0000
  H   H468      1.0  0.66532  0.01792  0.42252  1.0000
  S   S98       1.0  0.79538  0.06995  0.49288  1.0000
  S   S99       1.0  0.98356  0.25460  0.10679  1.0000
  H   H469      1.0  0.92520  0.16878  0.06262  1.0000
  H   H470      1.0  0.75174  0.02555  0.40156  1.0000
  H   H471      1.0  0.84649  0.07850  0.07527  1.0000
  H   H472      1.0  0.64721  0.99437  0.32920  1.0000
  H   H473      1.0  0.93295  0.20494  0.13540  1.0000
  H   H474      1.0  0.91336  0.16783  0.14661  1.0000
  H   H475      1.0  0.94927  0.19536  0.08867  1.0000
  C   C393      1.0  0.82479  0.12128  0.10916  1.0000
  C   C394      1.0  0.85121  0.14674  0.11096  1.0000
  H   H476      1.0  0.88512  0.16304  0.49413  1.0000
  C   C395      1.0  0.87450  0.14118  0.50240  1.0000
  H   H477      1.0  0.70246  0.05669  0.44842  1.0000
  C   C396      1.0  0.83165  0.09327  0.50409  1.0000
  H   H478      1.0  0.69832  0.02196  0.45760  1.0000
  H   H479      1.0  0.69871  0.01380  0.31831  1.0000
  S   S100      1.0  0.72430  0.02003  0.02687  1.0000
  Fe  Fe48      1.0  0.76707  0.02284  0.50635  1.0000
  H   H480      1.0  0.98826  0.26808  0.17051  1.0000
  C   C397      1.0  0.66293  0.00490  0.34715  1.0000
  S   S101      1.0  0.80111  0.07655  0.01751  1.0000
  H   H481      1.0  0.83974  0.13711  0.01737  1.0000
  C   C398      1.0  0.85253  0.12691  0.01357  1.0000
  H   H482      1.0  0.63118  0.99697  0.38128  1.0000
  C   C399      1.0  0.83892  0.09678  0.01213  1.0000
  S   S102      1.0  0.98433  0.29297  0.95459  1.0000
  C   C400      1.0  0.78693  0.11652  0.95362  1.0000
  C   C401      1.0  0.98159  0.28930  0.62623  1.0000
  H   H483      1.0  0.66195  0.16402  0.84945  1.0000
  C   C402      1.0  0.78119  0.07302  0.93077  1.0000
  H   H484      1.0  0.90191  0.23436  0.88691  1.0000
  Fe  Fe49      1.0  0.86455  0.28499  0.74215  1.0000
  S   S103      1.0  0.82444  0.25193  0.71766  1.0000
  S   S104      1.0  0.89829  0.27403  0.75437  1.0000
  Fe  Fe50      1.0  0.67607  0.05497  0.79006  1.0000
  S   S105      1.0  0.66014  0.08297  0.80988  1.0000
  S   S106      1.0  0.69675  0.03352  0.81658  1.0000
  Fe  Fe51      1.0  0.66884  0.06995  0.72453  1.0000
  S   S107      1.0  0.65304  0.10000  0.73972  1.0000
  S   S108      1.0  0.67108  0.06499  0.67320  1.0000
  Fe  Fe52      1.0  0.68818  0.11518  0.77466  1.0000
  S   S109      1.0  0.71505  0.16069  0.79185  1.0000
  Fe  Fe53      1.0  0.62601  0.06566  0.77337  1.0000
  S   S110      1.0  0.57852  0.05016  0.78425  1.0000
  S   S111      1.0  0.70629  0.08839  0.75675  1.0000
  S   S112      1.0  0.63968  0.03444  0.75621  1.0000
  C   C403      1.0  0.96707  0.30935  0.90305  1.0000
  C   C404      1.0  0.76390  0.07951  0.65134  1.0000
  H   H485      1.0  0.80035  0.04438  0.60178  1.0000
  H   H486      1.0  0.95253  0.26869  0.75779  1.0000
  C   C405      1.0  0.57491  0.00587  0.66393  1.0000
  H   H487      1.0  0.69598  0.02670  0.58356  1.0000
  H   H488      1.0  0.93270  0.24185  0.93217  1.0000
  H   H489      1.0  0.88662  0.09595  0.54568  1.0000
  H   H490      1.0  0.84558  0.06072  0.00634  1.0000
  C   C406      1.0  0.81703  0.09979  0.59359  1.0000
  C   C407      1.0  0.68296  0.04308  0.65522  1.0000
  C   C408      1.0  0.76780  0.12094  0.85976  1.0000
  H   H491      1.0  0.51583  0.12416  0.81589  1.0000
  H   H492      1.0  0.83616  0.06206  0.53051  1.0000
  H   H493      1.0  0.61394  0.04693  0.70182  1.0000
  C   C409      1.0  0.69029  0.02552  0.67194  1.0000
  H   H494      1.0  0.82787  0.20048  0.69206  1.0000
  H   H495      1.0  0.56155  0.00596  0.73988  1.0000
  H   H496      1.0  0.70559  0.99519  0.67001  1.0000
  H   H497      1.0  0.68867  0.02501  0.69653  1.0000
  C   C410      1.0  0.55399  0.06224  0.77408  1.0000
  C   C411      1.0  0.52534  0.04667  0.78442  1.0000
  H   H498      1.0  0.69565  0.08267  0.86977  1.0000
  Fe  Fe54      1.0  0.98530  0.26106  0.98820  1.0000
  C   C412      1.0  0.54234  0.09627  0.75051  1.0000
  C   C413      1.0  0.56221  0.08686  0.75655  1.0000
  H   H499      1.0  0.51860  0.02753  0.79789  1.0000
  H   H500      1.0  0.74264  0.08339  0.69141  1.0000
  H   H501      1.0  0.58392  0.09895  0.74795  1.0000
  C   C414      1.0  0.96408  0.30558  0.66935  1.0000
  H   H502      1.0  0.78355  0.13461  0.84302  1.0000
  H   H503      1.0  0.75117  0.06829  0.98128  1.0000
  C   C415      1.0  0.96521  0.29542  0.60601  1.0000
  N   N29       1.0  0.76644  0.08950  0.93787  1.0000
  C   C416      1.0  0.94964  0.30519  0.87735  1.0000
  H   H504      1.0  0.65410  0.13599  0.80175  1.0000
  H   H505      1.0  0.77721  0.13038  0.95743  1.0000
  H   H506      1.0  0.90119  0.25095  0.63644  1.0000
  C   C417      1.0  0.79502  0.22592  0.73901  1.0000
  C   C418      1.0  0.77372  0.20119  0.72435  1.0000
  C   C419      1.0  0.74956  0.18057  0.74054  1.0000
  C   C420      1.0  0.74617  0.18494  0.77135  1.0000
  C   C421      1.0  0.76742  0.20970  0.78597  1.0000
  C   C422      1.0  0.79193  0.22995  0.76998  1.0000
  H   H507      1.0  0.77586  0.19801  0.70036  1.0000
  H   H508      1.0  0.73323  0.16165  0.72903  1.0000
  H   H509      1.0  0.76499  0.21317  0.80981  1.0000
  H   H510      1.0  0.80820  0.24884  0.78154  1.0000
  C   C423      1.0  0.92610  0.27810  0.87128  1.0000
  C   C424      1.0  0.96122  0.28657  0.92296  1.0000
  C   C425      1.0  0.93755  0.25953  0.91701  1.0000
  C   C426      1.0  0.62046  0.11086  0.84916  1.0000
  H   H511      1.0  0.76861  0.08084  0.55984  1.0000
  H   H512      1.0  0.61158  0.10988  0.87234  1.0000
  C   C427      1.0  0.77091  0.06478  0.57358  1.0000
  C   C428      1.0  0.59998  0.00331  0.66146  1.0000
  H   H513      1.0  0.78142  0.05621  0.55828  1.0000
  C   C429      1.0  0.69153  0.02275  0.85538  1.0000
  C   C430      1.0  0.66795  0.01963  0.87224  1.0000
  C   C431      1.0  0.53686  0.12636  0.81958  1.0000
  H   H514      1.0  0.53672  0.99824  0.63795  1.0000
  Fe  Fe55      1.0  0.92977  0.31645  0.73435  1.0000
  H   H515      1.0  0.65232  0.02395  0.86162  1.0000
  H   H516      1.0  0.63163  0.16368  0.86781  1.0000
  H   H517      1.0  0.55906  0.16603  0.79520  1.0000
  H   H518      1.0  0.77588  0.11967  0.58700  1.0000
  H   H519      1.0  0.54918  0.11577  0.73765  1.0000
  C   C432      1.0  0.71831  0.09198  0.87498  1.0000
  C   C433      1.0  0.74627  0.11300  0.65668  1.0000
  H   H520      1.0  0.87673  0.16720  0.58175  1.0000
  H   H521      1.0  0.58948  0.05628  0.71875  1.0000
  H   H522      1.0  0.95076  0.23673  0.83088  1.0000
  H   H523      1.0  0.73497  0.12138  0.66999  1.0000
  H   H524      1.0  0.59674  0.06108  0.67849  1.0000
  S   S113      1.0  0.96461  0.28930  0.56613  1.0000
  N   N30       1.0  0.78766  0.07688  0.60192  1.0000
  C   C434      1.0  0.87526  0.10337  0.53133  1.0000
  C   C435      1.0  0.79033  0.05358  0.61705  1.0000
  C   C436      1.0  0.72687  0.08507  0.90227  1.0000
  C   C437      1.0  0.98051  0.31179  0.79659  1.0000
  C   C438      1.0  0.92014  0.25537  0.89131  1.0000
  H   H525      1.0  0.80728  0.12912  0.94077  1.0000
  H   H526      1.0  0.51997  0.08604  0.84262  1.0000
  H   H527      1.0  0.70985  0.07044  0.91719  1.0000
  C   C439      1.0  0.50535  0.05589  0.77801  1.0000
  H   H528      1.0  0.58659  0.99782  0.72230  1.0000
  H   H529      1.0  0.75176  0.13942  0.61788  1.0000
  Fe  Fe56      1.0  0.96507  0.19995  0.00984  1.0000
  C   C440      1.0  0.59331  0.04660  0.69808  1.0000
  H   H530      1.0  0.87259  0.24571  0.68176  1.0000
  C   C441      1.0  0.94721  0.31103  0.64920  1.0000
  S   S114      1.0  0.86699  0.30547  0.78729  1.0000
  H   H531      1.0  0.79337  0.11228  0.97627  1.0000
  H   H532      1.0  0.91870  0.19992  0.61253  1.0000
  H   H533      1.0  0.73183  0.11470  0.83244  1.0000
  H   H534      1.0  0.80380  0.06134  0.63792  1.0000
  Fe  Fe57      1.0  0.90362  0.29768  0.79825  1.0000
  S   S115      1.0  0.93753  0.15153  0.00338  1.0000
  N   N31       1.0  0.62050  0.13397  0.83055  1.0000
  C   C442      1.0  0.64035  0.16171  0.84545  1.0000
  C   C443      1.0  0.77664  0.11418  0.88696  1.0000
  H   H535      1.0  0.81671  0.11608  0.57830  1.0000
  H   H536      1.0  0.81139  0.15964  0.65637  1.0000
  H   H537      1.0  0.93331  0.22181  0.57904  1.0000
  H   H538      1.0  0.78841  0.06692  0.95187  1.0000
  H   H539      1.0  0.77973  0.31636  0.70521  1.0000
  C   C444      1.0  0.86559  0.22788  0.66594  1.0000
  S   S116      1.0  0.96538  0.31336  0.70889  1.0000
  H   H540      1.0  0.74892  0.04692  0.57879  1.0000
  H   H541      1.0  0.95716  0.24246  0.77815  1.0000
  H   H542      1.0  0.67940  0.05682  0.61016  1.0000
  C   C445      1.0  0.53926  0.10489  0.83467  1.0000
  C   C446      1.0  0.85573  0.08386  0.00744  1.0000
  H   H543      1.0  0.64431  0.18045  0.83131  1.0000
  C   C447      1.0  0.95645  0.26268  0.78086  1.0000
  N   N32       1.0  0.89013  0.21170  0.59064  1.0000
  C   C448      1.0  0.87796  0.18622  0.57025  1.0000
  C   C449      1.0  0.89244  0.23614  0.57269  1.0000
  C   C450      1.0  0.91939  0.21793  0.59938  1.0000
  C   C451      1.0  0.87284  0.20789  0.61844  1.0000
  C   C452      1.0  0.84693  0.18206  0.62510  1.0000
  C   C453      1.0  0.88172  0.23065  0.63981  1.0000
  C   C454      1.0  0.83107  0.17945  0.65151  1.0000
  H   H544      1.0  0.76658  0.05285  0.91835  1.0000
  C   C455      1.0  0.88948  0.13196  0.52101  1.0000
  H   H545      1.0  0.85633  0.18082  0.56166  1.0000
  H   H546      1.0  0.89175  0.19007  0.54973  1.0000
  H   H547      1.0  0.95428  0.32301  0.86251  1.0000
  C   C456      1.0  0.54238  0.01912  0.69125  1.0000
  H   H548      1.0  0.90489  0.23953  0.55126  1.0000
  S   S117      1.0  0.90358  0.27113  0.83897  1.0000
  H   H549      1.0  0.99011  0.17747  0.53202  1.0000
  H   H550      1.0  0.93070  0.23748  0.61364  1.0000
  C   C457      1.0  0.76922  0.11137  0.60975  1.0000
  H   H551      1.0  0.83841  0.16368  0.61024  1.0000
  C   C458      1.0  0.77355  0.08905  0.62113  1.0000
  S   S118      1.0  0.72192  0.01153  0.51900  1.0000
  H   H552      1.0  0.63405  0.15070  0.78495  1.0000
  C   C459      1.0  0.84032  0.20235  0.67178  1.0000
  C   C460      1.0  0.51383  0.08105  0.76137  1.0000
  H   H553      1.0  0.82900  0.09097  0.58098  1.0000
  H   H554      1.0  0.80061  0.08536  0.91643  1.0000
  H   H555      1.0  0.79945  0.12294  0.89031  1.0000
  C   C461      1.0  0.70795  0.00762  0.90011  1.0000
  C   C462      1.0  0.97105  0.25267  0.84037  1.0000
  C   C463      1.0  0.75067  0.09156  0.66876  1.0000
  C   C464      1.0  0.69470  0.02645  0.60814  1.0000
  H   H556      1.0  0.76555  0.06225  0.66188  1.0000
  H   H557      1.0  0.87087  0.23281  0.56652  1.0000
  C   C465      1.0  0.70227  0.00906  0.62490  1.0000
  C   C466      1.0  0.75558  0.12295  0.62725  1.0000
  C   C467      1.0  0.68515  0.04339  0.62327  1.0000
  H   H558      1.0  0.93732  0.25830  0.79488  1.0000
  H   H559      1.0  0.82973  0.11081  0.61428  1.0000
  H   H560      1.0  0.60778  0.08945  0.83803  1.0000
  H   H561      1.0  0.73055  0.08315  0.96593  1.0000
  S   S119      1.0  0.75543  0.99930  0.97578  1.0000
  H   H562      1.0  0.90394  0.25682  0.58520  1.0000
  H   H563      1.0  0.53898  0.02792  0.71297  1.0000
  C   C468      1.0  0.59162  0.13095  0.82707  1.0000
  C   C469      1.0  0.56612  0.10689  0.83827  1.0000
  C   C470      1.0  0.58831  0.15228  0.81146  1.0000
  C   C471      1.0  0.71147  0.01670  0.86951  1.0000
  C   C472      1.0  0.56130  0.14992  0.80783  1.0000
  C   C473      1.0  0.74284  0.07223  0.95967  1.0000
  H   H564      1.0  0.72768  0.05062  0.95037  1.0000
  H   H565      1.0  0.61821  0.11258  0.78847  1.0000
  H   H566      1.0  0.56615  0.08892  0.84920  1.0000
  H   H567      1.0  0.60651  0.17069  0.80142  1.0000
  S   S120      1.0  0.92567  0.15528  0.53248  1.0000
  C   C474      1.0  0.75645  0.09620  0.90921  1.0000
  C   C475      1.0  0.94811  0.30636  0.61771  1.0000
  C   C476      1.0  0.84659  0.08409  0.52281  1.0000
  H   H568      1.0  0.64257  0.11427  0.85225  1.0000
  C   C477      1.0  0.73867  0.10984  0.85377  1.0000
  C   C478      1.0  0.63219  0.13334  0.80012  1.0000
  H   H569      1.0  0.76887  0.03529  0.62335  1.0000
  H   H570      1.0  0.97614  0.31798  0.77389  1.0000
  N   N33       1.0  0.98343  0.28583  0.79448  1.0000
  H   H571      1.0  0.61529  0.00963  0.67992  1.0000
  H   H572      1.0  0.98288  0.13793  0.94918  1.0000
  H   H573      1.0  0.72323  0.00267  0.91053  1.0000
  H   H574      1.0  0.93413  0.31969  0.65775  1.0000
  H   H575      1.0  0.93552  0.31138  0.60228  1.0000
  H   H576      1.0  0.96247  0.30803  0.81204  1.0000
  C   C479      1.0  0.66429  0.01027  0.90276  1.0000
  H   H577      1.0  0.96207  0.12979  0.51306  1.0000
  C   C480      1.0  0.97908  0.12533  0.52158  1.0000
  N   N34       1.0  0.56914  0.01726  0.69221  1.0000
  S   S121      1.0  0.77201  0.99981  0.54639  1.0000
  C   C481      1.0  0.98127  0.29469  0.65769  1.0000
  C   C482      1.0  0.68422  0.00421  0.91685  1.0000
  C   C483      1.0  0.69992  0.00865  0.65682  1.0000
  H   H578      1.0  0.97317  0.11837  0.54565  1.0000
  Fe  Fe58      1.0  0.97878  0.26345  0.53659  1.0000
  C   C484      1.0  0.89946  0.13104  0.00626  1.0000
  H   H579      1.0  0.54322  0.03373  0.67283  1.0000
  H   H580      1.0  0.72966  0.01887  0.85659  1.0000
  Fe  Fe59      1.0  0.95565  0.20159  0.51741  1.0000
  H   H581      1.0  0.64580  0.00757  0.91550  1.0000
  C   C485      1.0  0.88585  0.10094  0.00456  1.0000
  C   C486      1.0  0.56649  0.99848  0.71819  1.0000
  S   S122      1.0  0.98963  0.22978  0.55142  1.0000
  H   H582      1.0  0.77432  0.29192  0.73573  1.0000
  H   H583      1.0  0.96252  0.22747  0.88122  1.0000
  H   H584      1.0  0.80576  0.31103  0.78308  1.0000
  H   H585      1.0  0.89866  0.09070  0.00116  1.0000
  H   H586      1.0  0.52301  0.99764  0.68810  1.0000
  C   C487      1.0  0.97755  0.24699  0.86948  1.0000
  C   C488      1.0  0.98977  0.27872  0.82504  1.0000
  C   C489      1.0  0.55628  0.99714  0.63826  1.0000
  H   H587      1.0  0.82295  0.30261  0.73699  1.0000
  H   H588      1.0  0.76424  0.31879  0.74064  1.0000
  C   C490      1.0  0.78081  0.31465  0.73040  1.0000
  S   S123      1.0  0.89553  0.32621  0.71858  1.0000
  C   C491      1.0  0.82961  0.32491  0.72967  1.0000
  H   H589      1.0  0.82994  0.32477  0.70433  1.0000
  H   H590      1.0  0.89272  0.16708  0.01162  1.0000
  C   C492      1.0  0.88261  0.14397  0.01060  1.0000
  H   H591      1.0  0.59879  0.64565  0.37573  1.0000
  H   H592      1.0  0.51259  0.54400  0.32167  1.0000
  C   C493      1.0  0.49518  0.52198  0.32341  1.0000
  H   H593      1.0  0.61308  0.62599  0.51082  1.0000
  S   S124      1.0  0.57270  0.61639  0.26384  1.0000
  Fe  Fe60      1.0  0.53783  0.62398  0.28281  1.0000
  Fe  Fe61      1.0  0.60132  0.64875  0.29927  1.0000
  H   H594      1.0  0.98731  0.46748  0.17420  1.0000
  S   S125      1.0  0.49206  0.58950  0.29721  1.0000
  S   S126      1.0  0.63778  0.64966  0.32668  1.0000
  Fe  Fe62      1.0  0.58420  0.65488  0.23380  1.0000
  H   H595      1.0  0.98150  0.63001  0.34347  1.0000
  S   S127      1.0  0.56619  0.65419  0.32006  1.0000
  H   H596      1.0  0.98491  0.64228  0.39809  1.0000
  C   C494      1.0  0.64218  0.65542  0.36658  1.0000
  C   C495      1.0  0.62427  0.65758  0.41695  1.0000
  C   C496      1.0  0.61973  0.65236  0.38541  1.0000
  H   H597      1.0  0.60665  0.65473  0.43137  1.0000
  H   H598      1.0  0.50315  0.51028  0.27924  1.0000
  H   H599      1.0  0.98909  0.43222  0.20092  1.0000
  S   S128      1.0  0.54758  0.66066  0.25066  1.0000
  H   H600      1.0  0.99026  0.51431  0.17764  1.0000
  Fe  Fe63      1.0  0.90282  0.58151  0.79235  1.0000
  S   S129      1.0  0.87212  0.53487  0.78118  1.0000
  S   S130      1.0  0.91344  0.59087  0.84304  1.0000
  Fe  Fe64      1.0  0.90983  0.59927  0.72487  1.0000
  S   S131      1.0  0.88045  0.55414  0.70900  1.0000
  S   S132      1.0  0.92888  0.64058  0.69673  1.0000
  Fe  Fe65      1.0  0.85227  0.55191  0.74818  1.0000
  S   S133      1.0  0.80448  0.53146  0.73909  1.0000
  Fe  Fe66      1.0  0.90252  0.54015  0.74329  1.0000
  S   S134      1.0  0.91761  0.50790  0.73101  1.0000
  S   S135      1.0  0.88011  0.59775  0.76228  1.0000
  S   S136      1.0  0.93469  0.58604  0.75613  1.0000
  C   C497      1.0  0.64326  0.45132  0.81771  1.0000
  H   H601      1.0  0.62172  0.44981  0.81822  1.0000
  H   H602      1.0  0.50983  0.48345  0.80852  1.0000
  H   H603      1.0  0.89226  0.64170  0.57676  1.0000
  C   C498      1.0  0.69328  0.47950  0.80299  1.0000
  H   H604      1.0  0.76866  0.48429  0.79756  1.0000
  H   H605      1.0  0.97284  0.54842  0.86474  1.0000
  S   S137      1.0  0.89208  0.38398  0.77775  1.0000
  H   H606      1.0  0.91955  0.47988  0.87864  1.0000
  Fe  Fe67      1.0  0.65711  0.60467  0.79822  1.0000
  S   S138      1.0  0.65545  0.56600  0.81944  1.0000
  S   S139      1.0  0.65889  0.64198  0.82495  1.0000
  Fe  Fe68      1.0  0.66626  0.58814  0.73400  1.0000
  S   S140      1.0  0.66536  0.54811  0.75109  1.0000
  S   S141      1.0  0.67796  0.59695  0.68356  1.0000
  Fe  Fe69      1.0  0.62723  0.54069  0.77974  1.0000
  S   S142      1.0  0.59298  0.49396  0.79119  1.0000
  Fe  Fe70      1.0  0.69291  0.57577  0.78911  1.0000
  S   S143      1.0  0.73300  0.57863  0.80921  1.0000
  S   S144      1.0  0.62613  0.57917  0.76014  1.0000
  S   S145      1.0  0.69654  0.61609  0.77032  1.0000
  C   C499      1.0  0.68882  0.62950  0.66364  1.0000
  H   H607      1.0  0.79934  0.59258  0.71854  1.0000
  H   H608      1.0  0.96818  0.55341  0.80861  1.0000
  H   H609      1.0  0.69737  0.61349  0.62215  1.0000
  C   C500      1.0  0.82477  0.65094  0.55014  1.0000
  C   C501      1.0  0.55749  0.46840  0.77871  1.0000
  C   C502      1.0  0.54190  0.47535  0.75824  1.0000
  C   C503      1.0  0.51347  0.45462  0.75014  1.0000
  H   H610      1.0  0.85420  0.62520  0.57348  1.0000
  C   C504      1.0  0.51600  0.41946  0.78213  1.0000
  C   C505      1.0  0.54431  0.44027  0.79048  1.0000
  H   H611      1.0  0.55156  0.49679  0.74896  1.0000
  H   H612      1.0  0.75933  0.63990  0.66681  1.0000
  H   H613      1.0  0.55601  0.43456  0.80638  1.0000
  C   C506      1.0  0.74374  0.50081  0.81896  1.0000
  C   C507      1.0  0.93482  0.64556  0.65687  1.0000
  C   C508      1.0  0.83851  0.61628  0.69442  1.0000
  H   H614      1.0  0.50157  0.46043  0.73461  1.0000
  C   C509      1.0  0.93080  0.62327  0.63735  1.0000
  H   H615      1.0  0.92312  0.60196  0.64643  1.0000
  C   C510      1.0  0.90915  0.47289  0.74365  1.0000
  C   C511      1.0  0.92276  0.45918  0.72952  1.0000
  C   C512      1.0  0.91747  0.43185  0.73914  1.0000
  C   C513      1.0  0.89868  0.41790  0.76340  1.0000
  C   C514      1.0  0.88492  0.43153  0.77743  1.0000
  C   C515      1.0  0.88993  0.45868  0.76753  1.0000
  H   H616      1.0  0.93767  0.46988  0.71102  1.0000
  H   H617      1.0  0.92830  0.42183  0.72809  1.0000
  H   H618      1.0  0.87033  0.42102  0.79618  1.0000
  H   H619      1.0  0.87905  0.46866  0.77847  1.0000
  C   C516      1.0  0.78509  0.54525  0.75830  1.0000
  C   C517      1.0  0.75712  0.53725  0.74868  1.0000
  C   C518      1.0  0.74108  0.54778  0.76378  1.0000
  C   C519      1.0  0.75270  0.56577  0.78904  1.0000
  C   C520      1.0  0.78065  0.57379  0.79862  1.0000
  C   C521      1.0  0.79692  0.56379  0.78312  1.0000
  H   H620      1.0  0.74788  0.52284  0.72952  1.0000
  H   H621      1.0  0.71965  0.54165  0.75617  1.0000
  H   H622      1.0  0.78980  0.58780  0.81811  1.0000
  H   H623      1.0  0.81842  0.57000  0.79075  1.0000
  N   N35       1.0  0.66505  0.47831  0.80313  1.0000
  C   C522      1.0  0.94421  0.44973  0.82791  1.0000
  C   C523      1.0  0.66624  0.62694  0.88330  1.0000
  C   C524      1.0  0.67327  0.63284  0.91437  1.0000
  C   C525      1.0  0.83405  0.42174  0.71712  1.0000
  H   H624      1.0  0.65641  0.60511  0.87502  1.0000
  C   C526      1.0  0.92913  0.62449  0.86241  1.0000
  C   C527      1.0  0.93044  0.62485  0.89444  1.0000
  H   H625      1.0  0.67300  0.49736  0.75858  1.0000
  H   H626      1.0  0.92147  0.60481  0.90675  1.0000
  H   H627      1.0  0.76190  0.51703  0.83170  1.0000
  H   H628      1.0  0.68038  0.44375  0.77132  1.0000
  H   H629      1.0  0.60058  0.59092  0.52567  1.0000
  H   H630      1.0  0.72767  0.44753  0.76795  1.0000
  H   H631      1.0  0.89894  0.65597  0.52201  1.0000
  C   C528      1.0  0.95422  0.47058  0.80526  1.0000
  H   H632      1.0  0.89070  0.50059  0.82237  1.0000
  C   C529      1.0  0.72450  0.46180  0.78293  1.0000
  H   H633      1.0  0.75064  0.62009  0.74788  1.0000
  N   N36       1.0  0.77094  0.62205  0.70466  1.0000
  C   C530      1.0  0.84280  0.38168  0.71406  1.0000
  H   H634      1.0  0.83161  0.34858  0.78496  1.0000
  C   C531      1.0  0.65721  0.62219  0.53532  1.0000
  H   H635      1.0  0.94697  0.56032  0.86895  1.0000
  C   C532      1.0  0.94942  0.54095  0.86613  1.0000
  C   C533      1.0  0.81686  0.65101  0.67365  1.0000
  H   H636      1.0  0.61505  0.56741  0.55915  1.0000
  C   C534      1.0  0.68851  0.65290  0.67727  1.0000
  C   C535      1.0  0.81112  0.61053  0.70337  1.0000
  C   C536      1.0  0.81854  0.36452  0.73281  1.0000
  C   C537      1.0  0.61165  0.56287  0.60730  1.0000
  H   H637      1.0  0.87278  0.65266  0.60156  1.0000
  H   H638      1.0  0.93485  0.61142  0.59134  1.0000
  H   H639      1.0  0.76407  0.61673  0.86638  1.0000
  H   H640      1.0  0.98522  0.33038  0.90756  1.0000
  H   H641      1.0  0.86924  0.42277  0.69269  1.0000
  C   C538      1.0  0.77669  0.65093  0.89930  1.0000
  H   H642      1.0  0.84704  0.60291  0.70267  1.0000
  H   H643      1.0  0.79771  0.41502  0.74388  1.0000
  H   H644      1.0  0.93309  0.53361  0.79102  1.0000
  C   C539      1.0  0.85022  0.40978  0.70633  1.0000
  C   C540      1.0  0.50022  0.42655  0.76205  1.0000
  N   N37       1.0  0.63459  0.62501  0.55195  1.0000
  C   C541      1.0  0.65579  0.47902  0.77141  1.0000
  H   H645      1.0  0.71612  0.51537  0.83512  1.0000
  C   C542      1.0  0.95144  0.49500  0.80845  1.0000
  H   H646      1.0  0.50630  0.39804  0.79143  1.0000
  H   H647      1.0  0.64421  0.50168  0.81885  1.0000
  H   H648      1.0  0.63618  0.48121  0.77073  1.0000
  H   H649      1.0  0.67007  0.50235  0.84451  1.0000
  H   H650      1.0  0.65011  0.45912  0.75849  1.0000
  H   H651      1.0  0.64061  0.43205  0.80537  1.0000
  H   H652      1.0  0.64938  0.44992  0.84160  1.0000
  H   H653      1.0  0.62662  0.61567  0.65861  1.0000
  C   C543      1.0  0.87965  0.65860  0.52457  1.0000
  H   H654      1.0  0.96321  0.46726  0.78451  1.0000
  H   H655      1.0  0.84051  0.44385  0.71173  1.0000
  C   C544      1.0  0.66538  0.50255  0.81988  1.0000
  H   H656      1.0  0.85696  0.37428  0.70571  1.0000
  H   H657      1.0  0.60476  0.54017  0.60650  1.0000
  H   H658      1.0  0.66874  0.61539  0.92977  1.0000
  H   H659      1.0  0.89865  0.53223  0.84374  1.0000
  H   H660      1.0  0.64995  0.59982  0.52803  1.0000
  C   C545      1.0  0.74757  0.48230  0.79979  1.0000
  H   H661      1.0  0.92415  0.43714  0.87179  1.0000
  C   C546      1.0  0.69762  0.46009  0.78474  1.0000
  H   H662      1.0  0.68152  0.52354  0.81005  1.0000
  C   C547      1.0  0.76245  0.63532  0.87322  1.0000
  H   H663      1.0  0.54896  0.49976  0.84619  1.0000
  H   H664      1.0  0.68209  0.65164  0.70086  1.0000
  H   H665      1.0  0.82098  0.63001  0.54332  1.0000
  H   H666      1.0  0.73468  0.63098  0.83585  1.0000
  C   C548      1.0  0.62372  0.60534  0.63661  1.0000
  C   C549      1.0  0.93868  0.49937  0.83490  1.0000
  C   C550      1.0  0.92941  0.47803  0.85791  1.0000
  H   H667      1.0  0.74771  0.58911  0.67135  1.0000
  C   C551      1.0  0.80229  0.37727  0.74305  1.0000
  H   H668      1.0  0.94105  0.52833  0.88741  1.0000
  H   H669      1.0  0.89385  0.50114  0.86310  1.0000
  C   C552      1.0  0.80117  0.65539  0.55041  1.0000
  C   C553      1.0  0.81008  0.40550  0.73538  1.0000
  C   C554      1.0  0.74591  0.64333  0.85585  1.0000
  H   H670      1.0  0.95863  0.50961  0.78936  1.0000
  H   H671      1.0  0.78364  0.36560  0.75741  1.0000
  H   H672      1.0  0.71106  0.65775  0.59226  1.0000
  C   C555      1.0  0.93755  0.62873  0.60614  1.0000
  C   C556      1.0  0.62754  0.60861  0.58080  1.0000
  H   H673      1.0  0.94542  0.43031  0.82468  1.0000
  H   H674      1.0  0.59084  0.61467  0.54440  1.0000
  H   H675      1.0  0.72685  0.58747  0.70414  1.0000
  C   C557      1.0  0.81024  0.33267  0.77550  1.0000
  C   C558      1.0  0.61480  0.57621  0.63537  1.0000
  H   H676      1.0  0.61082  0.56411  0.65632  1.0000
  C   C559      1.0  0.69718  0.63153  0.63293  1.0000
  C   C560      1.0  0.71708  0.49959  0.82064  1.0000
  C   C561      1.0  0.90303  0.51404  0.84214  1.0000
  H   H677      1.0  0.60148  0.64039  0.86110  1.0000
  Fe  Fe71      1.0  0.90015  0.34682  0.76487  1.0000
  H   H678      1.0  0.75272  0.57596  0.70697  1.0000
  C   C562      1.0  0.93202  0.45353  0.85429  1.0000
  C   C563      1.0  0.79948  0.62785  0.69352  1.0000
  C   C564      1.0  0.63022  0.62149  0.60987  1.0000
  N   N38       1.0  0.93419  0.52429  0.83861  1.0000
  H   H679      1.0  0.94412  0.65082  0.93541  1.0000
  H   H680      1.0  0.67669  0.62941  0.54971  1.0000
  N   N39       1.0  0.81011  0.33477  0.74180  1.0000
  H   H681      1.0  0.63799  0.64415  0.61276  1.0000
  H   H682      1.0  0.73993  0.63653  0.70099  1.0000
  S   S146      1.0  0.93713  0.34024  0.77921  1.0000
  C   C565      1.0  0.94813  0.65642  0.59406  1.0000
  H   H683      1.0  0.94131  0.56295  0.81597  1.0000
  H   H684      1.0  0.85187  0.33871  0.73819  1.0000
  H   H685      1.0  0.62907  0.66005  0.56796  1.0000
  C   C566      1.0  0.94327  0.65096  0.91080  1.0000
  C   C567      1.0  0.61775  0.57871  0.58036  1.0000
  C   C568      1.0  0.77187  0.62509  0.73829  1.0000
  C   C569      1.0  0.52934  0.47944  0.84945  1.0000
  H   H686      1.0  0.77784  0.61041  0.74973  1.0000
  H   H687      1.0  0.78797  0.64725  0.74543  1.0000
  C   C570      1.0  0.94471  0.54432  0.81235  1.0000
  C   C571      1.0  0.61699  0.65323  0.90677  1.0000
  C   C572      1.0  0.87397  0.64603  0.57783  1.0000
  C   C573      1.0  0.67063  0.64904  0.86339  1.0000
  H   H688      1.0  0.87669  0.64400  0.66912  1.0000
  C   C574      1.0  0.74870  0.59239  0.69645  1.0000
  C   C575      1.0  0.52643  0.46223  0.87440  1.0000
  H   H689      1.0  0.61563  0.63290  0.91226  1.0000
  H   H690      1.0  0.79391  0.33666  0.78655  1.0000
  C   C576      1.0  0.76149  0.64170  0.69205  1.0000
  C   C577      1.0  0.84434  0.65661  0.66488  1.0000
  C   C578      1.0  0.94086  0.65064  0.84687  1.0000
  H   H691      1.0  0.94009  0.65076  0.82226  1.0000
  C   C579      1.0  0.50725  0.47021  0.82821  1.0000
  C   C580      1.0  0.60862  0.61358  0.53246  1.0000
  C   C581      1.0  0.70475  0.65652  0.61585  1.0000
  C   C582      1.0  0.50157  0.43553  0.87794  1.0000
  H   H692      1.0  0.54375  0.46949  0.89081  1.0000
  H   H693      1.0  0.86089  0.63749  0.51870  1.0000
  H   H694      1.0  0.50046  0.42280  0.89744  1.0000
  C   C583      1.0  0.60904  0.65743  0.87792  1.0000
  H   H695      1.0  0.66389  0.63528  0.51407  1.0000
  H   H696      1.0  0.78017  0.63841  0.54338  1.0000
  C   C584      1.0  0.64531  0.65611  0.55647  1.0000
  H   H697      1.0  0.78900  0.64338  0.91169  1.0000
  C   C585      1.0  0.85520  0.63938  0.67540  1.0000
  H   H698      1.0  0.79411  0.66001  0.96083  1.0000
  H   H699      1.0  0.60129  0.73985  0.13843  1.0000
  H   H700      1.0  0.66954  0.89206  0.43128  1.0000
  C   C586      1.0  0.83448  0.73177  0.49727  1.0000
  C   C587      1.0  0.63690  0.72082  0.35467  1.0000
  H   H701      1.0  0.68482  0.71745  0.36405  1.0000
  H   H702      1.0  0.54920  0.79599  0.22055  1.0000
  C   C588      1.0  0.88017  0.73377  0.10581  1.0000
  S   S147      1.0  0.72202  0.79929  0.50520  1.0000
  Fe  Fe72      1.0  0.77068  0.75247  0.01659  1.0000
  Fe  Fe73      1.0  0.72019  0.72669  0.06181  1.0000
  S   S148      1.0  0.71238  0.71616  0.11256  1.0000
  S   S149      1.0  0.75265  0.77221  0.04919  1.0000
  H   H703      1.0  0.62814  0.70497  0.33568  1.0000
  H   H704      1.0  0.68918  0.77416  0.31278  1.0000
  H   H705      1.0  0.60275  0.79501  0.39080  1.0000
  H   H706      1.0  0.50828  0.97776  0.27891  1.0000
  C   C589      1.0  0.73204  0.87937  0.50891  1.0000
  S   S150      1.0  0.94797  0.70703  0.48969  1.0000
  S   S151      1.0  0.70033  0.95127  0.01751  1.0000
  S   S152      1.0  0.73742  0.73832  0.47149  1.0000
  C   C590      1.0  0.83163  0.71038  0.12568  1.0000
  H   H707      1.0  0.76208  0.94625  0.09103  1.0000
  H   H708      1.0  0.68889  0.94697  0.35464  1.0000
  N   N40       1.0  0.66696  0.74352  0.34864  1.0000
  Fe  Fe74      1.0  0.57617  0.89769  0.22696  1.0000
  S   S153      1.0  0.52989  0.86749  0.24022  1.0000
  S   S154      1.0  0.58669  0.89957  0.17616  1.0000
  Fe  Fe75      1.0  0.59565  0.91022  0.29365  1.0000
  S   S155      1.0  0.55117  0.88101  0.31156  1.0000
  S   S156      1.0  0.63797  0.93178  0.32027  1.0000
  Fe  Fe76      1.0  0.54837  0.85052  0.27488  1.0000
  S   S157      1.0  0.52660  0.80272  0.28370  1.0000
  Fe  Fe77      1.0  0.53539  0.90015  0.27558  1.0000
  C   C591      1.0  0.84909  0.75346  0.09527  1.0000
  S   S158      1.0  0.59377  0.87800  0.25932  1.0000
  S   S159      1.0  0.58077  0.93206  0.26006  1.0000
  Fe  Fe78      1.0  0.57871  0.68963  0.28607  1.0000
  S   S160      1.0  0.59612  0.73664  0.29689  1.0000
  S   S161      1.0  0.61551  0.68584  0.26724  1.0000
  H   H709      1.0  0.60673  0.67294  0.11931  1.0000
  C   C592      1.0  0.54609  0.78429  0.28449  1.0000
  C   C593      1.0  0.53124  0.75442  0.28841  1.0000
  C   C594      1.0  0.54628  0.73928  0.29106  1.0000
  C   C595      1.0  0.57629  0.75414  0.29047  1.0000
  C   C596      1.0  0.59115  0.78393  0.28595  1.0000
  C   C597      1.0  0.57607  0.79892  0.28250  1.0000
  H   H710      1.0  0.50800  0.74299  0.28984  1.0000
  H   H711      1.0  0.53469  0.71631  0.29461  1.0000
  H   H712      1.0  0.61439  0.79547  0.28519  1.0000
  H   H713      1.0  0.58764  0.82180  0.27876  1.0000
  H   H714      1.0  0.89037  0.71945  0.48286  1.0000
  H   H715      1.0  0.80735  0.75229  0.15567  1.0000
  H   H716      1.0  0.65088  0.68274  0.20378  1.0000
  H   H717      1.0  0.81532  0.69285  0.13883  1.0000
  H   H718      1.0  0.70090  0.95639  0.40957  1.0000
  H   H719      1.0  0.65331  0.76780  0.32115  1.0000
  Fe  Fe79      1.0  0.71786  0.98309  0.05610  1.0000
  H   H720      1.0  0.88118  0.67431  0.50710  1.0000
  C   C598      1.0  0.68060  0.84677  0.15741  1.0000
  N   N41       1.0  0.58680  0.73923  0.18458  1.0000
  H   H721      1.0  0.68750  0.80320  0.35133  1.0000
  C   C599      1.0  0.62651  0.67996  0.13176  1.0000
  H   H722      1.0  0.57930  0.73076  0.23292  1.0000
  Fe  Fe80      1.0  0.76310  0.72716  0.50434  1.0000
  C   C600      1.0  0.72042  0.84945  0.50678  1.0000
  Fe  Fe81      1.0  0.96022  0.75056  0.50842  1.0000
  Fe  Fe82      1.0  0.69891  0.70109  0.49246  1.0000
  C   C601      1.0  0.64495  0.93719  0.35996  1.0000
  C   C602      1.0  0.67264  0.94506  0.37064  1.0000
  C   C603      1.0  0.67961  0.95068  0.40178  1.0000
  C   C604      1.0  0.65904  0.94907  0.42257  1.0000
  C   C605      1.0  0.63119  0.94072  0.41197  1.0000
  C   C606      1.0  0.62410  0.93467  0.38087  1.0000
  H   H723      1.0  0.77225  0.74707  0.09814  1.0000
  C   C607      1.0  0.87572  0.75476  0.09257  1.0000
  H   H724      1.0  0.61510  0.93935  0.42786  1.0000
  H   H725      1.0  0.60278  0.92888  0.37297  1.0000
  C   C608      1.0  0.83820  0.75137  0.01396  1.0000
  C   C609      1.0  0.67008  0.88529  0.16299  1.0000
  C   C610      1.0  0.57720  0.81462  0.18217  1.0000
  C   C611      1.0  0.76787  0.85501  0.51139  1.0000
  C   C612      1.0  0.67860  0.70111  0.13156  1.0000
  C   C613      1.0  0.67763  0.69766  0.16340  1.0000
  Fe  Fe83      1.0  0.73525  0.76507  0.51011  1.0000
  H   H726      1.0  0.90047  0.73422  0.10245  1.0000
  Fe  Fe84      1.0  0.93848  0.72177  0.01951  1.0000
  H   H727      1.0  0.69736  0.70429  0.17581  1.0000
  H   H728      1.0  0.69479  0.67624  0.42076  1.0000
  H   H729      1.0  0.60994  0.71994  0.16425  1.0000
  C   C614      1.0  0.65127  0.68543  0.17935  1.0000
  H   H730      1.0  0.75806  0.93245  0.12921  1.0000
  H   H731      1.0  0.55458  0.75343  0.22229  1.0000
  C   C615      1.0  0.59607  0.73577  0.21536  1.0000
  S   S162      1.0  0.66700  0.95792  0.46173  1.0000
  S   S163      1.0  0.79745  0.71676  0.48815  1.0000
  C   C616      1.0  0.67163  0.95713  0.12498  1.0000
  C   C617      1.0  0.64706  0.93718  0.10930  1.0000
  C   C618      1.0  0.62126  0.91986  0.12533  1.0000
  C   C619      1.0  0.61967  0.92228  0.15714  1.0000
  C   C620      1.0  0.64428  0.94216  0.17281  1.0000
  C   C621      1.0  0.67010  0.95940  0.15680  1.0000
  H   H732      1.0  0.77985  0.69527  0.07953  1.0000
  H   H733      1.0  0.60234  0.90456  0.11298  1.0000
  H   H734      1.0  0.64343  0.94424  0.19725  1.0000
  C   C622      1.0  0.70764  0.90843  0.07342  1.0000
  H   H735      1.0  0.76941  0.72956  0.14882  1.0000
  H   H736      1.0  0.77278  0.68166  0.11769  1.0000
  H   H737      1.0  0.63236  0.88643  0.39570  1.0000
  C   C623      1.0  0.67958  0.75298  0.40426  1.0000
  C   C624      1.0  0.69877  0.81144  0.39783  1.0000
  C   C625      1.0  0.69052  0.77135  0.42934  1.0000
  C   C626      1.0  0.70021  0.80053  0.42611  1.0000
  H   H738      1.0  0.67257  0.73053  0.40803  1.0000
  H   H739      1.0  0.70647  0.83422  0.39550  1.0000
  H   H740      1.0  0.69183  0.76296  0.45140  1.0000
  H   H741      1.0  0.70906  0.81472  0.44558  1.0000
  C   C627      1.0  0.87187  0.72492  0.02477  1.0000
  H   H742      1.0  0.67415  0.85017  0.44664  1.0000
  H   H743      1.0  0.62249  0.73007  0.35747  1.0000
  C   C628      1.0  0.77488  0.69938  0.10297  1.0000
  H   H744      1.0  0.83280  0.69009  0.04317  1.0000
  H   H745      1.0  0.64063  0.80203  0.42587  1.0000
  C   C629      1.0  0.66704  0.75768  0.31959  1.0000
  H   H746      1.0  0.79060  0.71421  0.16103  1.0000
  H   H747      1.0  0.65158  0.84758  0.19101  1.0000
  N   N42       1.0  0.59028  0.83710  0.36888  1.0000
  C   C630      1.0  0.60374  0.85222  0.34011  1.0000
  C   C631      1.0  0.56914  0.80683  0.36120  1.0000
  C   C632      1.0  0.57391  0.85011  0.38230  1.0000
  C   C633      1.0  0.61306  0.84009  0.39014  1.0000
  C   C634      1.0  0.63314  0.86742  0.40203  1.0000
  C   C635      1.0  0.61658  0.81654  0.39904  1.0000
  C   C636      1.0  0.65476  0.87091  0.42224  1.0000
  C   C637      1.0  0.63841  0.82028  0.41919  1.0000
  C   C638      1.0  0.65737  0.84737  0.43088  1.0000
  H   H748      1.0  0.61635  0.84326  0.32920  1.0000
  H   H749      1.0  0.58733  0.85052  0.32343  1.0000
  H   H750      1.0  0.61869  0.87550  0.34374  1.0000
  H   H751      1.0  0.57932  0.79616  0.34860  1.0000
  H   H752      1.0  0.55182  0.80534  0.34595  1.0000
  H   H753      1.0  0.55836  0.79414  0.38194  1.0000
  H   H754      1.0  0.55537  0.84641  0.36770  1.0000
  H   H755      1.0  0.56538  0.84103  0.40522  1.0000
  H   H756      1.0  0.58714  0.87377  0.38469  1.0000
  H   H757      1.0  0.73663  0.94742  0.11594  1.0000
  C   C639      1.0  0.67805  0.76337  0.37498  1.0000
  C   C640      1.0  0.68783  0.79326  0.37254  1.0000
  H   H758      1.0  0.62980  0.75814  0.16626  1.0000
  C   C641      1.0  0.55854  0.71368  0.17790  1.0000
  H   H759      1.0  0.60060  0.71762  0.21618  1.0000
  H   H760      1.0  0.61170  0.78614  0.14378  1.0000
  C   C642      1.0  0.65288  0.69236  0.11583  1.0000
  C   C643      1.0  0.56297  0.79350  0.20410  1.0000
  C   C644      1.0  0.73822  0.83712  0.50809  1.0000
  H   H761      1.0  0.79812  0.74849  0.07139  1.0000
  C   C645      1.0  0.60793  0.73957  0.16235  1.0000
  C   C646      1.0  0.59805  0.78723  0.16121  1.0000
  H   H762      1.0  0.69141  0.92054  0.13281  1.0000
  H   H763      1.0  0.55989  0.69359  0.17796  1.0000
  C   C647      1.0  0.87894  0.72950  0.49240  1.0000
  S   S164      1.0  0.50046  0.91045  0.29209  1.0000
  H   H764      1.0  0.54196  0.71060  0.19509  1.0000
  H   H765      1.0  0.63495  0.70831  0.37547  1.0000
  C   C648      1.0  0.58404  0.76537  0.18355  1.0000
  H   H766      1.0  0.65807  0.74193  0.30052  1.0000
  C   C649      1.0  0.79421  0.74992  0.09609  1.0000
  C   C650      1.0  0.68488  0.72987  0.34391  1.0000
  C   C651      1.0  0.79091  0.73116  0.14630  1.0000
  C   C652      1.0  0.62552  0.67630  0.16356  1.0000
  H   H767      1.0  0.55042  0.71549  0.15518  1.0000
  C   C653      1.0  0.56625  0.76922  0.20486  1.0000
  H   H768      1.0  0.70768  0.74616  0.33929  1.0000
  H   H769      1.0  0.75266  0.88758  0.10317  1.0000
  H   H770      1.0  0.83858  0.69998  0.47109  1.0000
  H   H771      1.0  0.67692  0.71435  0.32453  1.0000
  H   H772      1.0  0.64791  0.93502  0.08488  1.0000
  H   H773      1.0  0.72174  0.91983  0.05366  1.0000
  Fe  Fe85      1.0  0.70760  0.97193  0.49017  1.0000
  H   H774      1.0  0.69033  0.88728  0.06508  1.0000
  C   C654      1.0  0.84248  0.71097  0.03246  1.0000
  H   H775      1.0  0.69741  0.92122  0.08047  1.0000
  H   H776      1.0  0.75528  0.90440  0.06748  1.0000
  S   S165      1.0  0.75250  0.98493  0.47462  1.0000
  C   C655      1.0  0.73979  0.89096  0.08553  1.0000
  H   H777      1.0  0.72486  0.87010  0.07443  1.0000
  C   C656      1.0  0.84961  0.71862  0.48563  1.0000
  C   C657      1.0  0.74614  0.93393  0.10923  1.0000
  H   H778      1.0  0.89268  0.77148  0.07900  1.0000
  N   N43       1.0  0.72419  0.90499  0.09845  1.0000
  Fe  Fe86      1.0  0.99002  0.72921  0.46378  1.0000
  H   H779      1.0  0.70971  0.85069  0.12255  1.0000
  C   C658      1.0  0.70439  0.88871  0.12367  1.0000
  C   C659      1.0  0.69938  0.86132  0.13329  1.0000
  S   S166      1.0  0.74080  0.70764  0.03200  1.0000
  H   H780      1.0  0.60528  0.82784  0.14345  1.0000
  H   H781      1.0  0.61584  0.75552  0.22278  1.0000
  C   C660      1.0  0.59455  0.81141  0.16068  1.0000
  H   H782      1.0  0.75313  0.69728  0.10246  1.0000
  H   H783      1.0  0.57461  0.83347  0.18172  1.0000
  C   C661      1.0  0.68898  0.90006  0.13916  1.0000
  H   H784      1.0  0.67731  0.82606  0.16460  1.0000
  C   C662      1.0  0.66609  0.85880  0.17231  1.0000
  H   H785      1.0  0.65848  0.89455  0.17424  1.0000
  H   H786      1.0  0.71808  0.88855  0.50823  1.0000
  Fe  Fe87      1.0  0.98740  0.70907  0.03228  1.0000
  H   H787      1.0  0.65325  0.69478  0.09137  1.0000
  H   H788      1.0  0.84697  0.76992  0.08342  1.0000
  N   N44       1.0  0.79713  0.72807  0.11403  1.0000
  H   H789      1.0  0.68653  0.66579  0.36537  1.0000
  C   C663      1.0  0.82599  0.73085  0.11159  1.0000
  S   S167      1.0  0.89242  0.70831  0.03411  1.0000
  S   S168      1.0  0.65580  0.67182  0.46985  1.0000
  H   H790      1.0  0.80922  0.77208  0.10415  1.0000
  C   C664      1.0  0.85827  0.71176  0.12255  1.0000
  S   S169      1.0  0.97675  0.74156  0.05122  1.0000
  H   H791      1.0  0.86188  0.69541  0.13265  1.0000
  C   C665      1.0  0.82568  0.72402  0.02689  1.0000
  S   S170      1.0  0.68856  0.72214  0.02588  1.0000
  H   H792      1.0  0.98149  0.68863  0.16538  1.0000
  H   H793      1.0  0.80317  0.71302  0.03280  1.0000
  C   C666      1.0  0.66911  0.66368  0.37968  1.0000
  S   S171      1.0  0.76369  0.99364  0.04908  1.0000
  H   H794      1.0  0.69744  0.83576  0.50433  1.0000
  H   H795      1.0  0.68903  0.97460  0.16920  1.0000
  C   C667      1.0  0.65139  0.66649  0.42990  1.0000
  H   H796      1.0  0.97881  0.69564  0.10973  1.0000
  S   S172      1.0  0.70536  0.97804  0.10653  1.0000
  C   C668      1.0  0.67389  0.66976  0.41106  1.0000
  C   C669      1.0  0.89348  0.75366  0.51103  1.0000
  S   S173      1.0  0.59168  0.66083  0.18245  1.0000
  C   C670      1.0  0.64596  0.75348  0.93357  1.0000
  Fe  Fe88      1.0  0.97330  0.71773  0.96629  1.0000
  H   H797      1.0  0.75428  0.70043  0.89657  1.0000
  H   H798      1.0  0.63475  0.70113  0.98388  1.0000
  H   H799      1.0  0.65020  0.66771  0.53437  1.0000
  H   H800      1.0  0.54905  0.97603  0.71420  1.0000
  S   S174      1.0  0.97271  0.71073  0.91471  1.0000
  C   C671      1.0  0.69590  0.67781  0.66013  1.0000
  H   H801      1.0  0.68881  0.75288  0.96113  1.0000
  S   S175      1.0  0.93024  0.76785  0.52092  1.0000
  S   S176      1.0  0.74282  0.75129  0.97755  1.0000
  C   C672      1.0  0.85283  0.67331  0.55759  1.0000
  S   S177      1.0  0.98395  0.74645  0.54870  1.0000
  S   S178      1.0  0.70812  0.94543  0.52988  1.0000
  H   H802      1.0  0.78661  0.68576  0.55774  1.0000
  H   H803      1.0  0.85749  0.67468  0.65022  1.0000
  S   S179      1.0  0.69094  0.66647  0.96570  1.0000
  Fe  Fe89      1.0  0.72366  0.71805  0.55800  1.0000
  S   S180      1.0  0.76400  0.75694  0.54146  1.0000
  S   S181      1.0  0.71179  0.71108  0.60840  1.0000
  C   C673      1.0  0.88420  0.75198  0.01113  1.0000
  S   S182      1.0  0.72404  0.68786  0.52294  1.0000
  S   S183      1.0  0.96254  0.75161  0.98105  1.0000
  C   C674      1.0  0.74678  0.89480  0.00520  1.0000
  C   C675      1.0  0.95129  0.67852  0.61339  1.0000
  H   H804      1.0  0.65631  0.77077  0.95109  1.0000
  C   C676      1.0  0.80713  0.68232  0.95214  1.0000
  H   H805      1.0  0.78630  0.89377  0.00983  1.0000
  C   C677      1.0  0.72014  0.83399  0.00460  1.0000
  H   H806      1.0  0.70398  0.88826  0.00054  1.0000
  Fe  Fe90      1.0  0.72595  0.98634  0.55725  1.0000
  S   S184      1.0  0.69542  0.72798  0.52931  1.0000
  H   H807      1.0  0.63574  0.67161  0.94934  1.0000
  C   C678      1.0  0.70387  0.67970  0.62931  1.0000
  S   S185      1.0  0.70249  0.79587  0.00283  1.0000
  H   H808      1.0  0.79555  0.73287  0.91964  1.0000
  H   H809      1.0  0.69519  0.69563  0.67079  1.0000
  H   H810      1.0  0.60587  0.68704  0.84774  1.0000
  H   H811      1.0  0.64242  0.73688  0.98979  1.0000
  H   H812      1.0  0.94802  0.69051  0.65959  1.0000
  C   C679      1.0  0.62293  0.70638  0.89151  1.0000
  C   C680      1.0  0.69146  0.68332  0.90552  1.0000
  H   H813      1.0  0.70170  0.70511  0.91367  1.0000
  C   C681      1.0  0.95397  0.67676  0.86322  1.0000
  H   H814      1.0  0.83778  0.76645  0.52480  1.0000
  H   H815      1.0  0.68773  0.74026  0.92318  1.0000
  H   H816      1.0  0.60909  0.71140  0.97188  1.0000
  C   C682      1.0  0.70370  0.84778  0.00223  1.0000
  H   H817      1.0  0.87597  0.71858  0.57208  1.0000
  Fe  Fe91      1.0  0.97390  0.70423  0.52844  1.0000
  C   C683      1.0  0.87839  0.76684  0.52268  1.0000
  C   C684      1.0  0.77461  0.67523  0.90876  1.0000
  H   H818      1.0  0.59260  0.97679  0.58965  1.0000
  H   H819      1.0  0.92389  0.69035  0.55983  1.0000
  H   H820      1.0  0.90679  0.76302  0.00522  1.0000
  H   H821      1.0  0.90661  0.70241  0.58584  1.0000
  H   H822      1.0  0.75386  0.69906  0.94935  1.0000
  H   H823      1.0  0.67874  0.71622  0.95497  1.0000
  H   H824      1.0  0.68704  0.69455  0.85937  1.0000
  N   N45       1.0  0.64627  0.72702  0.94285  1.0000
  H   H825      1.0  0.80989  0.66530  0.66485  1.0000
  C   C685      1.0  0.58760  0.98470  0.61019  1.0000
  H   H826      1.0  0.68062  0.83502  0.99976  1.0000
  C   C686      1.0  0.61178  0.68386  0.87039  1.0000
  C   C687      1.0  0.90564  0.69451  0.56220  1.0000
  S   S186      1.0  0.76476  0.93295  0.00611  1.0000
  C   C688      1.0  0.75745  0.68269  0.89051  1.0000
  H   H827      1.0  0.77645  0.66443  0.69840  1.0000
  H   H828      1.0  0.88949  0.78562  0.53700  1.0000
  C   C689      1.0  0.76692  0.68990  0.95846  1.0000
  H   H829      1.0  0.62497  0.72640  0.88394  1.0000
  Fe  Fe92      1.0  0.75389  0.96073  0.51601  1.0000
  C   C690      1.0  0.85553  0.70002  0.56658  1.0000
  H   H830      1.0  0.82437  0.68360  0.93689  1.0000
  S   S187      1.0  0.95692  0.66224  0.55473  1.0000
  H   H831      1.0  0.77684  0.70173  0.97995  1.0000
  C   C691      1.0  0.63181  0.70297  0.92099  1.0000
  C   C692      1.0  0.80782  0.72277  0.92848  1.0000
  H   H832      1.0  0.95906  0.69981  0.60439  1.0000
  H   H833      1.0  0.76294  0.84057  0.00945  1.0000
  C   C693      1.0  0.95527  0.67712  0.89527  1.0000
  C   C694      1.0  0.74997  0.85080  0.00769  1.0000
  S   S188      1.0  0.71503  0.98769  0.60726  1.0000
  C   C695      1.0  0.62835  0.67561  0.92797  1.0000
  Fe  Fe93      1.0  0.74649  0.96342  0.00905  1.0000
  C   C696      1.0  0.67667  0.73435  0.94566  1.0000
  C   C697      1.0  0.83167  0.70403  0.56727  1.0000
  H   H834      1.0  0.76671  0.89707  0.57668  1.0000
  C   C698      1.0  0.74358  0.66707  0.86435  1.0000
  S   S189      1.0  0.94730  0.68681  0.00335  1.0000
  C   C699      1.0  0.68342  0.67729  0.87464  1.0000
  H   H835      1.0  0.81833  0.69592  0.97225  1.0000
  C   C700      1.0  0.76317  0.88099  0.00782  1.0000
  H   H836      1.0  0.90993  0.71208  0.54594  1.0000
  N   N46       1.0  0.78896  0.69209  0.93646  1.0000
  H   H837      1.0  0.72646  0.90314  0.59461  1.0000
  Fe  Fe94      1.0  0.71049  0.98943  0.98730  1.0000
  C   C701      1.0  0.63244  0.71865  0.97331  1.0000
  H   H838      1.0  0.83440  0.72489  0.57304  1.0000
  N   N47       1.0  0.71911  0.79923  0.60326  1.0000
  C   C702      1.0  0.69309  0.77774  0.58679  1.0000
  C   C703      1.0  0.74408  0.79795  0.59028  1.0000
  C   C704      1.0  0.71653  0.79066  0.63571  1.0000
  C   C705      1.0  0.72169  0.82795  0.60089  1.0000
  C   C706      1.0  0.69914  0.83242  0.61149  1.0000
  C   C707      1.0  0.74628  0.85216  0.58842  1.0000
  C   C708      1.0  0.70090  0.85924  0.60925  1.0000
  C   C709      1.0  0.74792  0.87894  0.58663  1.0000
  C   C710      1.0  0.72521  0.88242  0.59672  1.0000
  H   H839      1.0  0.69371  0.78403  0.56251  1.0000
  H   H840      1.0  0.69121  0.75611  0.58707  1.0000
  H   H841      1.0  0.67291  0.77506  0.59686  1.0000
  H   H842      1.0  0.74676  0.80330  0.56555  1.0000
  H   H843      1.0  0.74134  0.77605  0.59238  1.0000
  H   H844      1.0  0.76440  0.81272  0.60231  1.0000
  H   H845      1.0  0.69686  0.78860  0.64659  1.0000
  H   H846      1.0  0.71535  0.76942  0.63831  1.0000
  H   H847      1.0  0.73536  0.80668  0.64906  1.0000
  H   H848      1.0  0.67987  0.81513  0.62143  1.0000
  H   H849      1.0  0.76441  0.85099  0.57935  1.0000
  H   H850      1.0  0.68329  0.86211  0.61710  1.0000
  H   H851      1.0  0.96319  0.69683  0.85094  1.0000
  H   H852      1.0  0.65844  0.76276  0.91227  1.0000
  H   H853      1.0  0.98666  0.79011  0.92520  1.0000
  Fe  Fe95      1.0  0.71189  0.70715  0.99455  1.0000
  C   C711      1.0  0.94481  0.67313  0.64464  1.0000
  H   H854      1.0  0.62361  0.74932  0.93043  1.0000
  H   H855      1.0  0.81978  0.73582  0.94873  1.0000
  H   H856      1.0  0.87737  0.78632  0.99585  1.0000
  H   H857      1.0  0.82395  0.72532  0.91094  1.0000
  C   C712      1.0  0.71689  0.87799  0.00268  1.0000
  H   H858      1.0  0.66558  0.66644  0.56993  1.0000
  C   C713      1.0  0.77952  0.88499  0.51340  1.0000
  C   C714      1.0  0.86746  0.76515  0.00591  1.0000
  S   S190      1.0  0.81833  0.76929  0.00769  1.0000
  S   S191      1.0  0.77734  0.93504  0.51630  1.0000
  H   H859      1.0  0.80249  0.89873  0.51597  1.0000
  C   C715      1.0  0.56268  0.98672  0.61185  1.0000
  C   C716      1.0  0.84906  0.75602  0.51581  1.0000
  S   S192      1.0  0.67859  0.99259  0.95537  1.0000
  N   N48       1.0  0.87768  0.66842  0.55567  1.0000
  H   H860      1.0  0.54828  0.98026  0.59247  1.0000
  H   H861      1.0  0.75155  0.66712  0.96438  1.0000
  C   C717      1.0  0.80467  0.68196  0.55873  1.0000
  H   H862      1.0  0.73055  0.67309  0.85074  1.0000
  C   C718      1.0  0.76169  0.89732  0.51223  1.0000
  H   H863      1.0  0.78184  0.84585  0.51220  1.0000
  C   C719      1.0  0.60619  0.99297  0.63496  1.0000
  H   H864      1.0  0.62574  0.99163  0.63362  1.0000
  C   C720      1.0  0.68545  0.66095  0.92578  1.0000
  Fe  Fe96      1.0  0.72197  0.76701  0.01169  1.0000
