data_image0
_chemical_formula_structural       FeS2FeS2FeSFeCS2FeS2FeS2FeHFeS3HC2H2CH2CH3CHC7H4CHC2H3CHCSCNHC2NH3C2H2CH3CH2C2H3CH4C3NHC5HCHCH2CHC2HCH2NH3CNCHSCH2CH4C3H4CHCHC4HCHC2H3C2HCHCHCH2FeS2FeS2FeSFeS3CSHFeS2FeSFeHSCHC2HCH2C2HC2NH2C4H2C6H4CHC4H4CNC9H12C2NCSH3C2HCHC2HFeNCH2CH2CH2CHCH2CH3C4H2CH2CH7C2H2CNCH10C2H2SCH3C2SFeSHFeSHFeSFeS3FeS2FeS2FeSFeS3H2C2H2CHC3HNCHC6HCH2C6SCH3C2H2C2HCH2CH7C2H4CHSH2C3HC3HCH4CHC2NCHCHCH2CNCH2C2H2CHNCH2C2H3C2H2SCSC3HCHC3H2CH2C2H2CH8C3HFeSCH2FeHFeSHSFeSHFeS2HFeSCSCH7C6H5SHCHCHC2HCHCHSC2SH3C3HSNSHC2H2CH4NHCH4FeHCHCH2C4H2C4HFeH2C3H2CNHC4H3CHCH7CH9FeSHFeSFeSFeSCSFeSFeSHFeSFeS3C5H2CHC6H4CH4NC4H4CH5CH6SCH2C2HNCH2CH2CHC3H2C3H5C2H2SCHCHCHCH6CHFeS2FeS2FeSFeS3FeS2FeHSFeSFeHS2CHC7H4CH2CHCHC2H2C6H4C3HCHSH3NH2C2HC3HCHSCHCHCH5CNC9H13CHCH4CH3C4HC2HCHC4HCH3CNCHCSHNSHC4H2SHCHC3H2C2HCH2CHC2SH3CH3C2HSC2HCH4C2HSHCH2CH3NH2C2HC3H3CHSFeHCHCSH2NH2CHCHC8NH6CHFeSFe2HCFeS2FeSHCSNSCFeSHFeSCHS2FeS2FeS2FeCSHCH3CHCHC3HCH2FeHC2H2CH2SC5HC2H3CHC2H4CH2C2HC3NH3CHCNCH2CHCS2HCHSHC7H2CSC2H2SC3H2FeHSHCNH4CHSH2C3H2CFeH2SC4HCH3C3H3C4H3CH3CHSC2FeC2H2SC3HFeCH3NCH3CHCH4CHCSH4CHCHCHNCHCH2C2H2SC4H3C2HCH4CHC
_chemical_formula_sum              "Fe64 S128 C480 H576 N32"
_cell_length_a       38.8597
_cell_length_b       38.7783
_cell_length_c       48.1179
_cell_angle_alpha    90.2272
_cell_angle_beta     90.0839
_cell_angle_gamma    90.1128

_space_group_name_H-M_alt    "P 1"
_space_group_IT_number       1

loop_
  _space_group_symop_operation_xyz
  'x, y, z'

loop_
  _atom_site_type_symbol
  _atom_site_label
  _atom_site_symmetry_multiplicity
  _atom_site_fract_x
  _atom_site_fract_y
  _atom_site_fract_z
  _atom_site_occupancy
  Fe  Fe1       1.0  0.38325  0.39678  0.07644  1.0000
  S   S1        1.0  0.32896  0.38199  0.08695  1.0000
  S   S2        1.0  0.40027  0.37263  0.03530  1.0000
  Fe  Fe2       1.0  0.39382  0.43225  0.13459  1.0000
  S   S3        1.0  0.33986  0.41893  0.14786  1.0000
  S   S4        1.0  0.43201  0.46515  0.16067  1.0000
  Fe  Fe3       1.0  0.35052  0.36650  0.12838  1.0000
  S   S5        1.0  0.33537  0.31571  0.14905  1.0000
  Fe  Fe4       1.0  0.32392  0.43527  0.10486  1.0000
  C   C1        1.0  0.39064  0.05194  0.27829  1.0000
  S   S6        1.0  0.40523  0.37890  0.11749  1.0000
  S   S7        1.0  0.37737  0.45116  0.09210  1.0000
  Fe  Fe5       1.0  0.37576  0.11439  0.11166  1.0000
  S   S8        1.0  0.41302  0.06931  0.11045  1.0000
  S   S9        1.0  0.39886  0.16667  0.12420  1.0000
  Fe  Fe6       1.0  0.31514  0.06865  0.09382  1.0000
  S   S10       1.0  0.34847  0.02184  0.09138  1.0000
  S   S11       1.0  0.25745  0.06833  0.08486  1.0000
  Fe  Fe7       1.0  0.37088  0.03944  0.13239  1.0000
  H   H1        1.0  0.42344  0.35052  0.26304  1.0000
  Fe  Fe8       1.0  0.38741  0.05590  0.06947  1.0000
  S   S12       1.0  0.40922  0.03494  0.02780  1.0000
  S   S13       1.0  0.33546  0.08527  0.13550  1.0000
  S   S14       1.0  0.35232  0.10207  0.06988  1.0000
  H   H2        1.0  0.18760  0.01186  0.01528  1.0000
  C   C2        1.0  0.37011  0.06784  0.23262  1.0000
  C   C3        1.0  0.42168  0.14515  0.20714  1.0000
  H   H3        1.0  0.37979  0.38980  0.20903  1.0000
  H   H4        1.0  0.08294  0.47698  0.07806  1.0000
  C   C4        1.0  0.36813  0.04688  0.25613  1.0000
  H   H5        1.0  0.10316  0.02782  0.14103  1.0000
  H   H6        1.0  0.38256  0.33398  0.23275  1.0000
  C   C5        1.0  0.23266  0.02999  0.08278  1.0000
  H   H7        1.0  0.24850  0.40319  0.04204  1.0000
  H   H8        1.0  0.18524  0.05731  0.07558  1.0000
  H   H9        1.0  0.38997  0.03454  0.29591  1.0000
  C   C6        1.0  0.27983  0.47152  0.99404  1.0000
  H   H10       1.0  0.09769  0.41383  0.03877  1.0000
  C   C7        1.0  0.43690  0.05099  0.00083  1.0000
  C   C8        1.0  0.35168  0.27457  0.13890  1.0000
  C   C9        1.0  0.38443  0.27087  0.12720  1.0000
  C   C10       1.0  0.39806  0.23770  0.12218  1.0000
  C   C11       1.0  0.37875  0.20776  0.12777  1.0000
  C   C12       1.0  0.34556  0.21147  0.13868  1.0000
  C   C13       1.0  0.33239  0.24465  0.14461  1.0000
  H   H11       1.0  0.39963  0.29352  0.12260  1.0000
  H   H12       1.0  0.42381  0.23520  0.11390  1.0000
  H   H13       1.0  0.33041  0.18879  0.14331  1.0000
  H   H14       1.0  0.30707  0.24714  0.15372  1.0000
  C   C14       1.0  0.48229  0.41453  0.26141  1.0000
  H   H15       1.0  0.29791  0.03785  0.04297  1.0000
  C   C15       1.0  0.31496  0.42050  0.99649  1.0000
  C   C16       1.0  0.41477  0.07852  0.27729  1.0000
  H   H16       1.0  0.24857  0.45191  0.14078  1.0000
  H   H17       1.0  0.32978  0.40233  0.00876  1.0000
  H   H18       1.0  0.19449  0.02237  0.16677  1.0000
  C   C17       1.0  0.09731  0.99995  0.19344  1.0000
  H   H19       1.0  0.42204  0.16062  0.18758  1.0000
  C   C18       1.0  0.10890  0.46479  0.07776  1.0000
  S   S15       1.0  0.28342  0.47319  0.08965  1.0000
  C   C19       1.0  0.40111  0.39040  0.00138  1.0000
  N   N1        1.0  0.39703  0.11589  0.20511  1.0000
  H   H20       1.0  0.16059  0.44746  0.00239  1.0000
  C   C20       1.0  0.09752  0.44142  0.03250  1.0000
  C   C21       1.0  0.19707  0.03222  0.07776  1.0000
  N   N2        1.0  0.30794  0.00017  0.01101  1.0000
  H   H21       1.0  0.14239  0.03169  0.12261  1.0000
  H   H22       1.0  0.43253  0.08194  0.29448  1.0000
  H   H23       1.0  0.19246  0.46962  0.16110  1.0000
  C   C22       1.0  0.31020  0.03587  0.02218  1.0000
  C   C23       1.0  0.01622  0.47260  0.99726  1.0000
  H   H24       1.0  0.36438  0.14695  0.17878  1.0000
  H   H25       1.0  0.16594  0.43854  0.09247  1.0000
  C   C24       1.0  0.13152  0.02904  0.14390  1.0000
  H   H26       1.0  0.42608  0.32227  0.16728  1.0000
  H   H27       1.0  0.07840  0.00168  0.17698  1.0000
  H   H28       1.0  0.44854  0.13600  0.21023  1.0000
  C   C25       1.0  0.48574  0.41868  0.23284  1.0000
  H   H29       1.0  0.41943  0.30597  0.22757  1.0000
  H   H30       1.0  0.13775  0.05313  0.15555  1.0000
  C   C26       1.0  0.17675  0.00220  0.07514  1.0000
  C   C27       1.0  0.41645  0.99907  0.21183  1.0000
  H   H31       1.0  0.41150  0.44260  0.01415  1.0000
  H   H32       1.0  0.12554  0.48146  0.09101  1.0000
  H   H33       1.0  0.29803  0.05493  0.00805  1.0000
  C   C28       1.0  0.45995  0.38957  0.27175  1.0000
  H   H34       1.0  0.37790  0.36411  0.17792  1.0000
  H   H35       1.0  0.22204  0.41216  0.08796  1.0000
  H   H36       1.0  0.45711  0.38683  0.29405  1.0000
  H   H37       1.0  0.21759  0.42092  0.99939  1.0000
  C   C29       1.0  0.45689  0.08088  0.00391  1.0000
  C   C30       1.0  0.29864  0.44796  0.00965  1.0000
  C   C31       1.0  0.24289  0.00875  0.01291  1.0000
  N   N3        1.0  0.12269  0.46180  0.04906  1.0000
  H   H38       1.0  0.30077  0.45110  0.03202  1.0000
  C   C32       1.0  0.23255  0.47039  0.13007  1.0000
  C   C33       1.0  0.15701  0.44533  0.04762  1.0000
  C   C34       1.0  0.17308  0.43982  0.02148  1.0000
  C   C35       1.0  0.40804  0.42528  0.99669  1.0000
  C   C36       1.0  0.40175  0.32457  0.21735  1.0000
  H   H39       1.0  0.33735  0.04444  0.02490  1.0000
  C   C37       1.0  0.39570  0.37758  0.19250  1.0000
  H   H40       1.0  0.43169  0.01660  0.19952  1.0000
  C   C38       1.0  0.44067  0.36886  0.25357  1.0000
  H   H41       1.0  0.39036  0.07187  0.17793  1.0000
  H   H42       1.0  0.10626  0.43913  0.08780  1.0000
  C   C39       1.0  0.41816  0.47158  0.21797  1.0000
  H   H43       1.0  0.40833  0.39874  0.18077  1.0000
  C   C40       1.0  0.44201  0.33859  0.18151  1.0000
  C   C41       1.0  0.20565  0.42466  0.01952  1.0000
  H   H44       1.0  0.45550  0.09549  0.02307  1.0000
  C   C42       1.0  0.41673  0.09998  0.25400  1.0000
  H   H45       1.0  0.34345  0.11045  0.19312  1.0000
  H   H46       1.0  0.07080  0.45112  0.03530  1.0000
  N   N4        1.0  0.42113  0.35346  0.20446  1.0000
  H   H47       1.0  0.38647  0.30983  0.20156  1.0000
  H   H48       1.0  0.14949  0.00423  0.07089  1.0000
  H   H49       1.0  0.41461  0.16308  0.22430  1.0000
  C   C43       1.0  0.44325  0.37278  0.22425  1.0000
  N   N5        1.0  0.14536  0.99829  0.15843  1.0000
  C   C44       1.0  0.36295  0.13060  0.19780  1.0000
  H   H50       1.0  0.39618  0.45499  0.21458  1.0000
  S   S16       1.0  0.36693  0.00147  0.16919  1.0000
  C   C45       1.0  0.39441  0.09515  0.23082  1.0000
  H   H51       1.0  0.45359  0.35865  0.16798  1.0000
  H   H52       1.0  0.35338  0.06138  0.21536  1.0000
  C   C46       1.0  0.20801  0.41947  0.06938  1.0000
  H   H53       1.0  0.99759  0.45830  0.00930  1.0000
  H   H54       1.0  0.43638  0.11966  0.25444  1.0000
  H   H55       1.0  0.10259  0.44264  0.00978  1.0000
  H   H56       1.0  0.43396  0.08125  0.18690  1.0000
  C   C47       1.0  0.17555  0.43475  0.07163  1.0000
  C   C48       1.0  0.40868  0.09332  0.18209  1.0000
  C   C49       1.0  0.24346  0.48433  0.10482  1.0000
  H   H57       1.0  0.27496  0.99535  0.08957  1.0000
  H   H58       1.0  0.24502  0.03520  0.01987  1.0000
  H   H59       1.0  0.35013  0.02546  0.25661  1.0000
  H   H60       1.0  0.41156  0.10799  0.16238  1.0000
  C   C50       1.0  0.22308  0.41455  0.04345  1.0000
  H   H61       1.0  0.40931  0.47629  0.26224  1.0000
  C   C51       1.0  0.46635  0.39844  0.21448  1.0000
  H   H62       1.0  0.35274  0.14683  0.21502  1.0000
  C   C52       1.0  0.20948  0.99563  0.01041  1.0000
  C   C53       1.0  0.10760  0.99398  0.24278  1.0000
  C   C54       1.0  0.43947  0.48031  0.19559  1.0000
  C   C55       1.0  0.42571  0.48375  0.24513  1.0000
  H   H63       1.0  0.46855  0.40428  0.19259  1.0000
  C   C56       1.0  0.20077  0.48048  0.14153  1.0000
  H   H64       1.0  0.46322  0.32232  0.18976  1.0000
  C   C57       1.0  0.24773  0.99746  0.08538  1.0000
  C   C58       1.0  0.15554  0.99319  0.21064  1.0000
  H   H65       1.0  0.19189  0.00112  0.13384  1.0000
  H   H66       1.0  0.45331  0.99705  0.24553  1.0000
  H   H67       1.0  0.36317  0.48713  0.17671  1.0000
  C   C59       1.0  0.18350  0.99944  0.15592  1.0000
  C   C60       1.0  0.13305  0.99762  0.18755  1.0000
  H   H68       1.0  0.35276  0.00951  0.98574  1.0000
  C   C61       1.0  0.08494  0.99847  0.22067  1.0000
  H   H69       1.0  0.05746  0.99933  0.22455  1.0000
  C   C62       1.0  0.99133  0.99068  0.98976  1.0000
  H   H70       1.0  0.09773  0.99143  0.26376  1.0000
  C   C63       1.0  0.14278  0.99134  0.23779  1.0000
  H   H71       1.0  0.31886  0.49028  0.16720  1.0000
  H   H72       1.0  0.02442  0.99254  0.49972  1.0000
  Fe  Fe9       1.0  0.39932  0.34224  0.83302  1.0000
  S   S17       1.0  0.44222  0.37996  0.84141  1.0000
  S   S18       1.0  0.40349  0.28356  0.83446  1.0000
  Fe  Fe10      1.0  0.34359  0.39791  0.83099  1.0000
  S   S19       1.0  0.38339  0.43930  0.83829  1.0000
  S   S20       1.0  0.28870  0.41983  0.83245  1.0000
  Fe  Fe11      1.0  0.41764  0.41213  0.80745  1.0000
  S   S21       1.0  0.45245  0.44693  0.78004  1.0000
  Fe  Fe12      1.0  0.40487  0.40467  0.87122  1.0000
  S   S22       1.0  0.41731  0.43090  0.91252  1.0000
  S   S23       1.0  0.37611  0.37275  0.79746  1.0000
  S   S24       1.0  0.36380  0.36480  0.86551  1.0000
  C   C64       1.0  0.39687  0.36821  0.97840  1.0000
  S   S25       1.0  0.03785  0.35314  0.82866  1.0000
  H   H73       1.0  0.99912  0.46726  0.69584  1.0000
  Fe  Fe13      1.0  0.04541  0.42490  0.88666  1.0000
  S   S26       1.0  0.06763  0.37164  0.89125  1.0000
  S   S27       1.0  0.05859  0.46767  0.91875  1.0000
  Fe  Fe14      1.0  0.08602  0.37688  0.84719  1.0000
  S   S28       1.0  0.13743  0.35364  0.83339  1.0000
  Fe  Fe15      1.0  0.01800  0.35242  0.87244  1.0000
  H   H74       1.0  0.24576  0.46330  0.91238  1.0000
  S   S29       1.0  0.06663  0.43113  0.84297  1.0000
  C   C65       1.0  0.04780  0.47980  0.95372  1.0000
  H   H75       1.0  0.43403  0.41812  0.72491  1.0000
  C   C66       1.0  0.44964  0.16172  0.76245  1.0000
  C   C67       1.0  0.01861  0.44772  0.69917  1.0000
  H   H76       1.0  0.46279  0.30201  0.87832  1.0000
  C   C68       1.0  0.27320  0.46329  0.90582  1.0000
  H   H77       1.0  0.32891  0.43626  0.88584  1.0000
  H   H78       1.0  0.44222  0.28170  0.96408  1.0000
  C   C69       1.0  0.41476  0.27993  0.91331  1.0000
  C   C70       1.0  0.07835  0.39320  0.77074  1.0000
  H   H79       1.0  0.01108  0.43932  0.96106  1.0000
  C   C71       1.0  0.06444  0.42316  0.72822  1.0000
  C   C72       1.0  0.47372  0.18964  0.93313  1.0000
  N   N6        1.0  0.08674  0.42344  0.75325  1.0000
  H   H80       1.0  0.41058  0.25500  0.76212  1.0000
  H   H81       1.0  0.08387  0.37427  0.71196  1.0000
  C   C73       1.0  0.47935  0.09154  0.98239  1.0000
  C   C74       1.0  0.40904  0.41504  0.94640  1.0000
  C   C75       1.0  0.02109  0.42016  0.68067  1.0000
  C   C76       1.0  0.40031  0.38056  0.95102  1.0000
  H   H82       1.0  0.46755  0.08051  0.73898  1.0000
  H   H83       1.0  0.39722  0.36329  0.93353  1.0000
  C   C77       1.0  0.24710  0.40039  0.83366  1.0000
  C   C78       1.0  0.24186  0.36513  0.82899  1.0000
  C   C79       1.0  0.20819  0.35129  0.82922  1.0000
  C   C80       1.0  0.17940  0.37230  0.83458  1.0000
  C   C81       1.0  0.18472  0.40743  0.83985  1.0000
  C   C82       1.0  0.21833  0.42136  0.83920  1.0000
  H   H84       1.0  0.26365  0.34866  0.82462  1.0000
  H   H85       1.0  0.20445  0.32412  0.82499  1.0000
  H   H86       1.0  0.16293  0.42399  0.84398  1.0000
  H   H87       1.0  0.22201  0.44868  0.84277  1.0000
  C   C83       1.0  0.44147  0.25835  0.83255  1.0000
  H   H88       1.0  0.45262  0.43397  0.67714  1.0000
  C   C84       1.0  0.02390  0.46164  0.96984  1.0000
  C   C85       1.0  0.29435  0.44044  0.95094  1.0000
  C   C86       1.0  0.46885  0.20175  0.83671  1.0000
  C   C87       1.0  0.46583  0.45608  0.74515  1.0000
  H   H89       1.0  0.47331  0.24704  0.76669  1.0000
  H   H90       1.0  0.41501  0.21167  0.84414  1.0000
  H   H91       1.0  0.13044  0.44292  0.73083  1.0000
  H   H92       1.0  0.03512  0.47054  0.73678  1.0000
  C   C88       1.0  0.45266  0.43854  0.72194  1.0000
  N   N7        1.0  0.09017  0.25899  0.88343  1.0000
  C   C89       1.0  0.08669  0.27860  0.90988  1.0000
  C   C90       1.0  0.12712  0.25065  0.87972  1.0000
  C   C91       1.0  0.07936  0.28220  0.86065  1.0000
  C   C92       1.0  0.06945  0.22686  0.88257  1.0000
  C   C93       1.0  0.06924  0.20584  0.85832  1.0000
  C   C94       1.0  0.04924  0.21537  0.90539  1.0000
  C   C95       1.0  0.04982  0.17547  0.85693  1.0000
  C   C96       1.0  0.03031  0.18468  0.90387  1.0000
  C   C97       1.0  0.03046  0.16488  0.87967  1.0000
  H   H93       1.0  0.09566  0.26331  0.92800  1.0000
  H   H94       1.0  0.10227  0.30277  0.90971  1.0000
  H   H95       1.0  0.05951  0.28669  0.91345  1.0000
  H   H96       1.0  0.13616  0.23254  0.89607  1.0000
  H   H97       1.0  0.14350  0.27429  0.88070  1.0000
  H   H98       1.0  0.13238  0.23852  0.85920  1.0000
  H   H99       1.0  0.05155  0.28834  0.86231  1.0000
  H   H100      1.0  0.09366  0.30705  0.86126  1.0000
  H   H101      1.0  0.08395  0.27112  0.83968  1.0000
  H   H102      1.0  0.08382  0.21293  0.84012  1.0000
  H   H103      1.0  0.04703  0.22987  0.92449  1.0000
  H   H104      1.0  0.32676  0.39541  0.95836  1.0000
  C   C98       1.0  0.43947  0.22289  0.83839  1.0000
  C   C99       1.0  0.31300  0.41675  0.96760  1.0000
  N   N8        1.0  0.29323  0.43612  0.92031  1.0000
  C   C100      1.0  0.45677  0.22469  0.76413  1.0000
  S   S30       1.0  0.99425  0.40543  0.87041  1.0000
  H   H105      1.0  0.39614  0.14597  0.75653  1.0000
  H   H106      1.0  0.26282  0.48733  0.95432  1.0000
  H   H107      1.0  0.14091  0.42278  0.76347  1.0000
  C   C101      1.0  0.46149  0.04339  0.95393  1.0000
  C   C102      1.0  0.12350  0.42141  0.74503  1.0000
  H   H108      1.0  0.46962  0.12064  0.72034  1.0000
  C   C103      1.0  0.41235  0.43742  0.96931  1.0000
  H   H109      1.0  0.10028  0.45467  0.78902  1.0000
  C   C104      1.0  0.03968  0.44926  0.72274  1.0000
  C   C105      1.0  0.45705  0.10729  0.73810  1.0000
  H   H110      1.0  0.42922  0.10485  0.73319  1.0000
  Fe  Fe16      1.0  0.01703  0.40718  0.82706  1.0000
  N   N9        1.0  0.46327  0.12616  0.76450  1.0000
  C   C106      1.0  0.27742  0.40237  0.91314  1.0000
  H   H111      1.0  0.08839  0.47869  0.75882  1.0000
  H   H112      1.0  0.40136  0.30525  0.91236  1.0000
  C   C107      1.0  0.43946  0.03241  0.97563  1.0000
  H   H113      1.0  0.04931  0.16022  0.83800  1.0000
  H   H114      1.0  0.05610  0.45681  0.77937  1.0000
  C   C108      1.0  0.42140  0.22924  0.76147  1.0000
  H   H115      1.0  0.41897  0.46419  0.96593  1.0000
  H   H116      1.0  0.99360  0.36613  0.75693  1.0000
  C   C109      1.0  0.32870  0.43699  0.90900  1.0000
  H   H117      1.0  0.27573  0.39857  0.89019  1.0000
  C   C110      1.0  0.39998  0.20063  0.75850  1.0000
  H   H118      1.0  0.45708  0.08185  0.79123  1.0000
  H   H119      1.0  0.01464  0.17663  0.92132  1.0000
  C   C111      1.0  0.08265  0.45484  0.77074  1.0000
  H   H120      1.0  0.28458  0.48931  0.90937  1.0000
  H   H121      1.0  0.43685  0.22502  0.94899  1.0000
  H   H122      1.0  0.42444  0.00913  0.97292  1.0000
  C   C112      1.0  0.47087  0.19155  0.76474  1.0000
  C   C113      1.0  0.06635  0.39549  0.70884  1.0000
  C   C114      1.0  0.46322  0.44772  0.69480  1.0000
  C   C115      1.0  0.44552  0.10768  0.78736  1.0000
  H   H123      1.0  0.27307  0.45919  0.88285  1.0000
  H   H124      1.0  0.44550  0.32420  0.95043  1.0000
  C   C116      1.0  0.47326  0.27259  0.82520  1.0000
  H   H125      1.0  0.41103  0.26712  0.89274  1.0000
  H   H126      1.0  0.37245  0.20434  0.75646  1.0000
  C   C117      1.0  0.48189  0.07296  0.95720  1.0000
  H   H127      1.0  0.47513  0.29982  0.82057  1.0000
  H   H128      1.0  0.34429  0.41462  0.91584  1.0000
  H   H129      1.0  0.46692  0.17455  0.84126  1.0000
  H   H130      1.0  0.12981  0.39680  0.73434  1.0000
  H   H131      1.0  0.25090  0.40029  0.92165  1.0000
  H   H132      1.0  0.09393  0.39284  0.79021  1.0000
  H   H133      1.0  0.45254  0.33539  0.90241  1.0000
  C   C118      1.0  0.41381  0.16734  0.75872  1.0000
  C   C119      1.0  0.27753  0.46795  0.96510  1.0000
  H   H134      1.0  0.41790  0.10289  0.78288  1.0000
  H   H135      1.0  0.05065  0.39345  0.77666  1.0000
  C   C120      1.0  0.48716  0.47449  0.69028  1.0000
  N   N10       1.0  0.45194  0.28390  0.91974  1.0000
  C   C121      1.0  0.04491  0.39409  0.68548  1.0000
  H   H136      1.0  0.08331  0.36833  0.75997  1.0000
  H   H137      1.0  0.40094  0.26427  0.92902  1.0000
  H   H138      1.0  0.46313  0.02858  0.93489  1.0000
  H   H139      1.0  0.39126  0.34124  0.98189  1.0000
  H   H140      1.0  0.29261  0.38028  0.92114  1.0000
  H   H141      1.0  0.31220  0.01622  0.96846  1.0000
  H   H142      1.0  0.44704  0.12274  0.80708  1.0000
  H   H143      1.0  0.01490  0.14166  0.87832  1.0000
  H   H144      1.0  0.04607  0.37229  0.67135  1.0000
  H   H145      1.0  0.34274  0.46071  0.91568  1.0000
  C   C122      1.0  0.46605  0.31015  0.90037  1.0000
  C   C123      1.0  0.45590  0.29762  0.94841  1.0000
  H   H146      1.0  0.00358  0.41840  0.66311  1.0000
  H   H147      1.0  0.38673  0.48267  0.71061  1.0000
  S   S31       1.0  0.99090  0.30737  0.89350  1.0000
  C   C124      1.0  0.45795  0.22201  0.93458  1.0000
  H   H148      1.0  0.46464  0.16851  0.94596  1.0000
  H   H149      1.0  0.48352  0.29874  0.95456  1.0000
  H   H150      1.0  0.99742  0.28267  0.83619  1.0000
  C   C125      1.0  0.46911  0.24989  0.91772  1.0000
  C   C126      1.0  0.32580  0.99970  0.98381  1.0000
  S   S32       1.0  0.09000  0.91107  0.27703  1.0000
  Fe  Fe17      1.0  0.04530  0.55142  0.07680  1.0000
  S   S33       1.0  0.09985  0.57110  0.07951  1.0000
  H   H151      1.0  0.99860  0.91016  0.01527  1.0000
  Fe  Fe18      1.0  0.02717  0.57962  0.13626  1.0000
  S   S34       1.0  0.08077  0.60010  0.14247  1.0000
  H   H152      1.0  0.34095  0.95503  0.21065  1.0000
  Fe  Fe19      1.0  0.07677  0.61955  0.09853  1.0000
  S   S35       1.0  0.09999  0.67299  0.09096  1.0000
  Fe  Fe20      1.0  0.09945  0.55062  0.12306  1.0000
  S   S36       1.0  0.42596  0.95243  0.28790  1.0000
  S   S37       1.0  0.02213  0.60141  0.09276  1.0000
  S   S38       1.0  0.04600  0.52858  0.11993  1.0000
  Fe  Fe21      1.0  0.03899  0.94702  0.05140  1.0000
  S   S39       1.0  0.07767  0.90670  0.03835  1.0000
  S   S40       1.0  0.35969  0.88084  0.31708  1.0000
  Fe  Fe22      1.0  0.04935  0.92930  0.11417  1.0000
  S   S41       1.0  0.08824  0.88838  0.10519  1.0000
  S   S42       1.0  0.02679  0.93876  0.15714  1.0000
  Fe  Fe23      1.0  0.10961  0.92668  0.07436  1.0000
  S   S43       1.0  0.16796  0.93111  0.07324  1.0000
  Fe  Fe24      1.0  0.05324  0.87190  0.07047  1.0000
  S   S44       1.0  0.02965  0.81831  0.06493  1.0000
  S   S45       1.0  0.07271  0.96904  0.08571  1.0000
  S   S46       1.0  0.01268  0.91096  0.08120  1.0000
  H   H153      1.0  0.00348  0.61042  0.26328  1.0000
  H   H154      1.0  0.32425  0.81630  0.28666  1.0000
  C   C127      1.0  0.03343  0.81543  0.19430  1.0000
  C   C128      1.0  0.01871  0.83665  0.14849  1.0000
  H   H155      1.0  0.14492  0.86515  0.30172  1.0000
  H   H156      1.0  0.28489  0.52472  0.13872  1.0000
  C   C129      1.0  0.19202  0.96966  0.07722  1.0000
  H   H157      1.0  0.01171  0.82575  0.27367  1.0000
  C   C130      1.0  0.01781  0.82245  0.25179  1.0000
  C   C131      1.0  0.22755  0.96748  0.08236  1.0000
  C   C132      1.0  0.34058  0.50471  0.17688  1.0000
  H   H158      1.0  0.23955  0.94241  0.08404  1.0000
  N   N11       1.0  0.00066  0.62723  0.30635  1.0000
  C   C133      1.0  0.27392  0.77615  0.30441  1.0000
  H   H159      1.0  0.23325  0.56019  0.14050  1.0000
  C   C134      1.0  0.07934  0.71325  0.08510  1.0000
  C   C135      1.0  0.04410  0.71577  0.07947  1.0000
  C   C136      1.0  0.02930  0.74812  0.07344  1.0000
  C   C137      1.0  0.04941  0.77836  0.07334  1.0000
  C   C138      1.0  0.08444  0.77600  0.07971  1.0000
  C   C139      1.0  0.09931  0.74360  0.08538  1.0000
  H   H160      1.0  0.02843  0.69268  0.07911  1.0000
  C   C140      1.0  0.05639  0.51979  0.99314  1.0000
  H   H161      1.0  0.10032  0.79895  0.07957  1.0000
  H   H162      1.0  0.12661  0.74193  0.08958  1.0000
  C   C141      1.0  0.07063  0.91419  0.24371  1.0000
  C   C142      1.0  0.03604  0.92310  0.24038  1.0000
  C   C143      1.0  0.02277  0.92949  0.21361  1.0000
  C   C144      1.0  0.04365  0.92628  0.18990  1.0000
  C   C145      1.0  0.07770  0.91535  0.19310  1.0000
  C   C146      1.0  0.09127  0.90994  0.21992  1.0000
  S   S47       1.0  0.13972  0.51597  0.14298  1.0000
  C   C147      1.0  0.31648  0.59176  0.17741  1.0000
  H   H163      1.0  0.09394  0.91248  0.17507  1.0000
  H   H164      1.0  0.38158  0.51415  0.13141  1.0000
  H   H165      1.0  0.00767  0.57685  0.28779  1.0000
  C   C148      1.0  0.19056  0.51836  0.10261  1.0000
  C   C149      1.0  0.45445  0.50511  0.25053  1.0000
  H   H166      1.0  0.23071  0.51935  0.07169  1.0000
  H   H167      1.0  0.17471  0.53712  0.09207  1.0000
  C   C150      1.0  0.01331  0.71452  0.27174  1.0000
  C   C151      1.0  0.20409  0.96132  0.00295  1.0000
  H   H168      1.0  0.31279  0.97504  0.05058  1.0000
  C   C152      1.0  0.35716  0.52911  0.13283  1.0000
  H   H169      1.0  0.17815  0.95096  0.00223  1.0000
  H   H170      1.0  0.18303  0.99063  0.20832  1.0000
  C   C153      1.0  0.37905  0.55306  0.17530  1.0000
  H   H171      1.0  0.14126  0.96647  0.12174  1.0000
  H   H172      1.0  0.30051  0.76529  0.30465  1.0000
  H   H173      1.0  0.30108  0.85582  0.28591  1.0000
  H   H174      1.0  0.07031  0.83850  0.25678  1.0000
  H   H175      1.0  0.33046  0.95090  0.02213  1.0000
  H   H176      1.0  0.02410  0.83574  0.12574  1.0000
  H   H177      1.0  0.06881  0.54249  0.00163  1.0000
  C   C154      1.0  0.45475  0.77046  0.31560  1.0000
  C   C155      1.0  0.01164  0.66338  0.30180  1.0000
  H   H178      1.0  0.04745  0.75707  0.16666  1.0000
  H   H179      1.0  0.00719  0.72681  0.25216  1.0000
  H   H180      1.0  0.02318  0.86364  0.15568  1.0000
  H   H181      1.0  0.10001  0.51107  0.03970  1.0000
  C   C156      1.0  0.25670  0.60051  0.16478  1.0000
  H   H182      1.0  0.08146  0.81611  0.13389  1.0000
  S   S48       1.0  0.00529  0.98340  0.02486  1.0000
  H   H183      1.0  0.26116  0.76760  0.28483  1.0000
  H   H184      1.0  0.04287  0.60652  0.28266  1.0000
  C   C157      1.0  0.00457  0.67994  0.27613  1.0000
  C   C158      1.0  0.29784  0.82733  0.28459  1.0000
  C   C159      1.0  0.26562  0.95319  0.99899  1.0000
  H   H185      1.0  0.01223  0.88480  0.98619  1.0000
  C   C160      1.0  0.17963  0.50446  0.12788  1.0000
  C   C161      1.0  0.22235  0.50834  0.09118  1.0000
  C   C162      1.0  0.99955  0.88341  0.00689  1.0000
  H   H186      1.0  0.00217  0.74962  0.06857  1.0000
  C   C163      1.0  0.48313  0.74862  0.31089  1.0000
  H   H187      1.0  0.14342  0.94314  0.15377  1.0000
  H   H188      1.0  0.01991  0.92653  0.25848  1.0000
  H   H189      1.0  0.40200  0.53601  0.17341  1.0000
  H   H190      1.0  0.99156  0.66645  0.25943  1.0000
  C   C164      1.0  0.23890  0.82822  0.30451  1.0000
  H   H191      1.0  0.37535  0.55735  0.19800  1.0000
  C   C165      1.0  0.05086  0.82948  0.24222  1.0000
  C   C166      1.0  0.36553  0.96431  0.21817  1.0000
  N   N12       1.0  0.04056  0.81208  0.16413  1.0000
  C   C167      1.0  0.22939  0.85426  0.28518  1.0000
  H   H192      1.0  0.09492  0.80138  0.16729  1.0000
  C   C168      1.0  0.07694  0.81934  0.15665  1.0000
  H   H193      1.0  0.14492  0.51262  0.04843  1.0000
  C   C169      1.0  0.42874  0.98778  0.23799  1.0000
  H   H194      1.0  0.33729  0.51305  0.12226  1.0000
  H   H195      1.0  0.01655  0.86824  0.02086  1.0000
  C   C170      1.0  0.02925  0.73357  0.29272  1.0000
  N   N13       1.0  0.34813  0.53731  0.16211  1.0000
  C   C171      1.0  0.32677  0.97733  0.03049  1.0000
  H   H196      1.0  0.03513  0.76064  0.28966  1.0000
  H   H197      1.0  0.28643  0.63623  0.18918  1.0000
  C   C172      1.0  0.31728  0.55967  0.16299  1.0000
  C   C173      1.0  0.28636  0.54897  0.14976  1.0000
  H   H198      1.0  0.38608  0.57787  0.16524  1.0000
  H   H199      1.0  0.22773  0.91346  0.99137  1.0000
  C   C174      1.0  0.23209  0.94020  0.99703  1.0000
  H   H200      1.0  0.10450  0.96475  0.14400  1.0000
  N   N14       1.0  0.27437  0.81436  0.30657  1.0000
  C   C175      1.0  0.47539  0.51430  0.22804  1.0000
  H   H201      1.0  0.33854  0.60191  0.18840  1.0000
  H   H202      1.0  0.36047  0.55303  0.12041  1.0000
  C   C176      1.0  0.19577  0.86713  0.28421  1.0000
  C   C177      1.0  0.27212  0.98768  0.00759  1.0000
  H   H203      1.0  0.36255  0.93554  0.25671  1.0000
  H   H204      1.0  0.28832  0.82048  0.26346  1.0000
  H   H205      1.0  0.23350  0.61601  0.16542  1.0000
  C   C178      1.0  0.37775  0.95314  0.24437  1.0000
  C   C179      1.0  0.40948  0.96486  0.25456  1.0000
  H   H206      1.0  0.08423  0.84641  0.16180  1.0000
  H   H207      1.0  0.11810  0.90319  0.22232  1.0000
  S   S49       1.0  0.02237  0.51342  0.04446  1.0000
  C   C180      1.0  0.38460  0.98752  0.20173  1.0000
  S   S50       1.0  0.46315  0.51858  0.28568  1.0000
  C   C181      1.0  0.05874  0.82616  0.21395  1.0000
  C   C182      1.0  0.13306  0.96685  0.14388  1.0000
  C   C183      1.0  0.46796  0.50197  0.20090  1.0000
  H   H208      1.0  0.26726  0.49286  0.00453  1.0000
  C   C184      1.0  0.03261  0.77648  0.15458  1.0000
  H   H209      1.0  0.08467  0.83287  0.20804  1.0000
  C   C185      1.0  0.25660  0.56911  0.15068  1.0000
  C   C186      1.0  0.01437  0.60445  0.28409  1.0000
  C   C187      1.0  0.28655  0.61181  0.17812  1.0000
  H   H210      1.0  0.18904  0.88739  0.26971  1.0000
  H   H211      1.0  0.99081  0.83124  0.15093  1.0000
  C   C188      1.0  0.03241  0.50171  0.00921  1.0000
  H   H212      1.0  0.24748  0.86557  0.27086  1.0000
  H   H213      1.0  0.03919  0.77265  0.13224  1.0000
  C   C189      1.0  0.17075  0.85459  0.30222  1.0000
  C   C190      1.0  0.03671  0.71811  0.31806  1.0000
  H   H214      1.0  0.45673  0.79773  0.31120  1.0000
  H   H215      1.0  0.13104  0.49719  0.01494  1.0000
  C   C191      1.0  0.48100  0.71306  0.31627  1.0000
  H   H216      1.0  0.00487  0.76999  0.15644  1.0000
  H   H217      1.0  0.16015  0.98720  0.25512  1.0000
  H   H218      1.0  0.19574  0.97565  0.16415  1.0000
  H   H219      1.0  0.33365  0.50968  0.19898  1.0000
  H   H220      1.0  0.00319  0.53426  0.20316  1.0000
  H   H221      1.0  0.28648  0.93578  0.99425  1.0000
  H   H222      1.0  0.48470  0.50911  0.18391  1.0000
  H   H223      1.0  0.35311  0.98727  0.03509  1.0000
  C   C192      1.0  0.00002  0.80832  0.20483  1.0000
  C   C193      1.0  0.12485  0.49712  0.03749  1.0000
  C   C194      1.0  0.99246  0.81176  0.23315  1.0000
  H   H224      1.0  0.99635  0.93782  0.21135  1.0000
  Fe  Fe25      1.0  0.02963  0.91396  0.37625  1.0000
  S   S51       1.0  0.03937  0.85965  0.39098  1.0000
  C   C195      1.0  0.45014  0.69955  0.32653  1.0000
  H   H225      1.0  0.12090  0.95791  0.40471  1.0000
  H   H226      1.0  0.15432  0.91660  0.42703  1.0000
  Fe  Fe26      1.0  0.02178  0.84304  0.34815  1.0000
  H   H227      1.0  0.04824  0.73343  0.33456  1.0000
  Fe  Fe27      1.0  0.09212  0.86621  0.37139  1.0000
  S   S52       1.0  0.14281  0.85006  0.39164  1.0000
  H   H228      1.0  0.14089  0.94045  0.49925  1.0000
  S   S53       1.0  0.08337  0.92090  0.35875  1.0000
  Fe  Fe28      1.0  0.39070  0.84111  0.34018  1.0000
  S   S54       1.0  0.43780  0.87442  0.34192  1.0000
  H   H229      1.0  0.44216  0.77307  0.45600  1.0000
  Fe  Fe29      1.0  0.34372  0.89960  0.35945  1.0000
  S   S55       1.0  0.38860  0.93677  0.36372  1.0000
  S   S56       1.0  0.28818  0.91906  0.36266  1.0000
  H   H230      1.0  0.45365  0.79255  0.36909  1.0000
  Fe  Fe30      1.0  0.41760  0.89254  0.38363  1.0000
  S   S57       1.0  0.45975  0.88853  0.41769  1.0000
  C   C196      1.0  0.42374  0.75687  0.32553  1.0000
  S   S58       1.0  0.37129  0.85727  0.38233  1.0000
  C   C197      1.0  0.46690  0.89434  0.45422  1.0000
  H   H231      1.0  0.39897  0.75096  0.42302  1.0000
  H   H232      1.0  0.43200  0.92829  0.51340  1.0000
  H   H233      1.0  0.00401  0.58546  0.33590  1.0000
  H   H234      1.0  0.26026  0.76385  0.32205  1.0000
  H   H235      1.0  0.44996  0.58233  0.63082  1.0000
  H   H236      1.0  0.08607  0.89041  0.45363  1.0000
  H   H237      1.0  0.16386  0.94712  0.45397  1.0000
  C   C198      1.0  0.18319  0.86875  0.38265  1.0000
  C   C199      1.0  0.21382  0.85374  0.39247  1.0000
  C   C200      1.0  0.24623  0.86826  0.38610  1.0000
  C   C201      1.0  0.24833  0.89821  0.37001  1.0000
  C   C202      1.0  0.21767  0.91318  0.36028  1.0000
  C   C203      1.0  0.18534  0.89846  0.36635  1.0000
  H   H238      1.0  0.21246  0.83089  0.40524  1.0000
  H   H239      1.0  0.26951  0.85682  0.39421  1.0000
  H   H240      1.0  0.21894  0.93639  0.34791  1.0000
  H   H241      1.0  0.16213  0.91028  0.35849  1.0000
  H   H242      1.0  0.41842  0.91844  0.46342  1.0000
  S   S59       1.0  0.00925  0.89707  0.33406  1.0000
  H   H243      1.0  0.44250  0.82535  0.39299  1.0000
  C   C204      1.0  0.47557  0.68206  0.42346  1.0000
  H   H244      1.0  0.45023  0.53944  0.64401  1.0000
  C   C205      1.0  0.14542  0.92655  0.44761  1.0000
  H   H245      1.0  0.44812  0.67226  0.33082  1.0000
  C   C206      1.0  0.46651  0.74199  0.40853  1.0000
  C   C207      1.0  0.08710  0.91083  0.43746  1.0000
  H   H246      1.0  0.47855  0.97665  0.46907  1.0000
  C   C208      1.0  0.42159  0.72131  0.33089  1.0000
  H   H247      1.0  0.27439  0.81363  0.35154  1.0000
  C   C209      1.0  0.45788  0.80138  0.39076  1.0000
  H   H248      1.0  0.47615  0.58196  0.47395  1.0000
  S   S60       1.0  0.47816  0.59648  0.33843  1.0000
  C   C210      1.0  0.45898  0.71387  0.42641  1.0000
  C   C211      1.0  0.45064  0.91553  0.50023  1.0000
  S   S61       1.0  0.07518  0.84406  0.33049  1.0000
  H   H249      1.0  0.41061  0.56400  0.64321  1.0000
  H   H250      1.0  0.00600  0.76624  0.38230  1.0000
  H   H251      1.0  0.46879  0.66042  0.43663  1.0000
  C   C212      1.0  0.10867  0.96684  0.42438  1.0000
  C   C213      1.0  0.09675  0.95396  0.47285  1.0000
  C   C214      1.0  0.01207  0.61290  0.33346  1.0000
  H   H252      1.0  0.00023  0.62698  0.35131  1.0000
  S   S62       1.0  0.38718  0.78335  0.33161  1.0000
  N   N15       1.0  0.44728  0.77479  0.41118  1.0000
  S   S63       1.0  0.00738  0.95867  0.40288  1.0000
  H   H253      1.0  0.04057  0.61376  0.33556  1.0000
  C   C215      1.0  0.45251  0.78979  0.43931  1.0000
  C   C216      1.0  0.28933  0.82416  0.33382  1.0000
  H   H254      1.0  0.09654  0.89859  0.41800  1.0000
  H   H255      1.0  0.48529  0.80907  0.39345  1.0000
  C   C217      1.0  0.44280  0.90995  0.47181  1.0000
  H   H256      1.0  0.48036  0.79423  0.44353  1.0000
  H   H257      1.0  0.40535  0.75561  0.38633  1.0000
  H   H258      1.0  0.03326  0.67385  0.34330  1.0000
  H   H259      1.0  0.06017  0.91924  0.43343  1.0000
  N   N16       1.0  0.10959  0.93982  0.44618  1.0000
  H   H260      1.0  0.43960  0.71603  0.44238  1.0000
  C   C218      1.0  0.41003  0.76808  0.40691  1.0000
  H   H261      1.0  0.39776  0.71047  0.33853  1.0000
  H   H262      1.0  0.43948  0.81530  0.44148  1.0000
  H   H263      1.0  0.14759  0.90431  0.46206  1.0000
  H   H264      1.0  0.39476  0.79230  0.40743  1.0000
  Fe  Fe31      1.0  0.40524  0.91596  0.32190  1.0000
  H   H265      1.0  0.15982  0.82015  0.33586  1.0000
  C   C219      1.0  0.11560  0.95183  0.49815  1.0000
  H   H266      1.0  0.21825  0.79774  0.33880  1.0000
  C   C220      1.0  0.43878  0.56550  0.64724  1.0000
  H   H267      1.0  0.28988  0.85269  0.33633  1.0000
  H   H268      1.0  0.31625  0.81469  0.33617  1.0000
  C   C221      1.0  0.02788  0.68364  0.32278  1.0000
  C   C222      1.0  0.17919  0.82915  0.32136  1.0000
  C   C223      1.0  0.48243  0.90528  0.51168  1.0000
  C   C224      1.0  0.21278  0.81636  0.32276  1.0000
  H   H269      1.0  0.11648  0.96232  0.54225  1.0000
  H   H270      1.0  0.04787  0.97163  0.45589  1.0000
  C   C225      1.0  0.10183  0.96429  0.52313  1.0000
  C   C226      1.0  0.06370  0.96933  0.47422  1.0000
  C   C227      1.0  0.06910  0.97894  0.52369  1.0000
  C   C228      1.0  0.05008  0.98146  0.49926  1.0000
  H   H271      1.0  0.08194  0.97430  0.41860  1.0000
  Fe  Fe32      1.0  0.06379  0.89860  0.31833  1.0000
  H   H272      1.0  0.05828  0.98822  0.54309  1.0000
  H   H273      1.0  0.12241  0.99055  0.43134  1.0000
  C   C229      1.0  0.42388  0.54686  0.74808  1.0000
  C   C230      1.0  0.41301  0.52651  0.69299  1.0000
  C   C231      1.0  0.43171  0.55749  0.69813  1.0000
  H   H274      1.0  0.43938  0.62775  0.69692  1.0000
  H   H275      1.0  0.39672  0.50053  0.75921  1.0000
  C   C232      1.0  0.40007  0.50672  0.71487  1.0000
  N   N17       1.0  0.44625  0.57897  0.67558  1.0000
  H   H276      1.0  0.42875  0.55403  0.76954  1.0000
  C   C233      1.0  0.43214  0.61445  0.67727  1.0000
  C   C234      1.0  0.00066  0.96916  0.96756  1.0000
  C   C235      1.0  0.43663  0.56708  0.72639  1.0000
  C   C236      1.0  0.06398  0.50889  0.96571  1.0000
  H   H277      1.0  0.45096  0.58997  0.73198  1.0000
  H   H278      1.0  0.08231  0.52339  0.95350  1.0000
  H   H279      1.0  0.99409  0.95765  0.92383  1.0000
  C   C237      1.0  0.40562  0.51675  0.74233  1.0000
  H   H280      1.0  0.01797  0.94789  0.97114  1.0000
  C   C238      1.0  0.48417  0.58082  0.67860  1.0000
  H   H281      1.0  0.32752  0.97330  0.97489  1.0000
  H   H282      1.0  0.47661  0.98439  0.74309  1.0000
  H   H283      1.0  0.40352  0.61412  0.67598  1.0000
  H   H284      1.0  0.40878  0.51642  0.67233  1.0000
  H   H285      1.0  0.44205  0.63101  0.66012  1.0000
  H   H286      1.0  0.95636  0.45640  0.11224  1.0000
  H   H287      1.0  0.98090  0.48991  0.12867  1.0000
  C   C239      1.0  0.96642  0.48306  0.10949  1.0000
  H   H288      1.0  0.49634  0.43133  0.27554  1.0000
  H   H289      1.0  0.96160  0.03544  0.00113  1.0000
  H   H290      1.0  0.91257  0.47120  0.07653  1.0000
  H   H291      1.0  0.86749  0.48998  0.10379  1.0000
  H   H292      1.0  0.61953  0.06991  0.99006  1.0000
  H   H293      1.0  0.98561  0.48252  0.09228  1.0000
  H   H294      1.0  0.50246  0.43880  0.22490  1.0000
  H   H295      1.0  0.82882  0.48984  0.14334  1.0000
  H   H296      1.0  0.49495  0.11439  0.98538  1.0000
  Fe  Fe33      1.0  0.90286  0.02440  0.55048  1.0000
  S   S64       1.0  0.86610  0.06948  0.54398  1.0000
  H   H297      1.0  0.59019  0.02030  0.51104  1.0000
  Fe  Fe34      1.0  0.89429  0.02821  0.61471  1.0000
  S   S65       1.0  0.85800  0.07225  0.61194  1.0000
  Fe  Fe35      1.0  0.83293  0.04387  0.57659  1.0000
  S   S66       1.0  0.77455  0.04763  0.58124  1.0000
  Fe  Fe36      1.0  0.89353  0.09488  0.58027  1.0000
  S   S67       1.0  0.90746  0.15002  0.59342  1.0000
  C   C240      1.0  0.68099  0.47963  0.61362  1.0000
  S   S68       1.0  0.93219  0.05169  0.58493  1.0000
  Fe  Fe37      1.0  0.89221  0.39627  0.63263  1.0000
  S   S69       1.0  0.84729  0.35968  0.62561  1.0000
  Fe  Fe38      1.0  0.88111  0.43000  0.57433  1.0000
  S   S70       1.0  0.83717  0.39489  0.56471  1.0000
  H   H298      1.0  0.91293  0.30995  0.50645  1.0000
  Fe  Fe39      1.0  0.81941  0.40592  0.60818  1.0000
  S   S71       1.0  0.76116  0.41279  0.60901  1.0000
  Fe  Fe40      1.0  0.86873  0.35192  0.58276  1.0000
  S   S72       1.0  0.86831  0.30300  0.55597  1.0000
  S   S73       1.0  0.86243  0.44327  0.61771  1.0000
  S   S74       1.0  0.91462  0.38643  0.58977  1.0000
  C   C241      1.0  0.95738  0.00605  0.46792  1.0000
  C   C242      1.0  0.86458  0.45983  0.49225  1.0000
  C   C243      1.0  0.85778  0.46732  0.46402  1.0000
  C   C244      1.0  0.79168  0.46951  0.54127  1.0000
  C   C245      1.0  0.78699  0.25058  0.57012  1.0000
  H   H299      1.0  0.74333  0.15632  0.56259  1.0000
  H   H300      1.0  0.85276  0.43765  0.50183  1.0000
  C   C246      1.0  0.79222  0.19364  0.59199  1.0000
  H   H301      1.0  0.92348  0.44887  0.40601  1.0000
  C   C247      1.0  0.89533  0.19211  0.58262  1.0000
  C   C248      1.0  0.90154  0.22004  0.60072  1.0000
  C   C249      1.0  0.89313  0.25405  0.59304  1.0000
  C   C250      1.0  0.87873  0.26057  0.56695  1.0000
  C   C251      1.0  0.87259  0.23268  0.54877  1.0000
  C   C252      1.0  0.88074  0.19862  0.55656  1.0000
  H   H302      1.0  0.91316  0.21541  0.62079  1.0000
  H   H303      1.0  0.89812  0.27524  0.60719  1.0000
  H   H304      1.0  0.86157  0.23747  0.52850  1.0000
  H   H305      1.0  0.87649  0.17756  0.54215  1.0000
  C   C253      1.0  0.71216  0.01552  0.58905  1.0000
  H   H306      1.0  0.56852  0.43853  0.64366  1.0000
  H   H307      1.0  0.84114  0.45039  0.45212  1.0000
  H   H308      1.0  0.80430  0.29415  0.59418  1.0000
  H   H309      1.0  0.77960  0.14778  0.63450  1.0000
  N   N18       1.0  0.92487  0.36205  0.49360  1.0000
  C   C254      1.0  0.74831  0.47587  0.63468  1.0000
  C   C255      1.0  0.73629  0.44977  0.61699  1.0000
  C   C256      1.0  0.70259  0.45188  0.60648  1.0000
  C   C257      1.0  0.74555  0.01243  0.57806  1.0000
  H   H310      1.0  0.79041  0.10963  0.61545  1.0000
  H   H311      1.0  0.69307  0.43180  0.59279  1.0000
  H   H312      1.0  0.82204  0.25897  0.63428  1.0000
  H   H313      1.0  0.88459  0.32672  0.48101  1.0000
  C   C258      1.0  0.92539  0.38487  0.46899  1.0000
  H   H314      1.0  0.95032  0.03221  0.47328  1.0000
  H   H315      1.0  0.89895  0.35034  0.43948  1.0000
  H   H316      1.0  0.80522  0.11272  0.56620  1.0000
  H   H317      1.0  0.96989  0.38351  0.51406  1.0000
  H   H318      1.0  0.74560  0.11937  0.58412  1.0000
  C   C259      1.0  0.91207  0.32662  0.48760  1.0000
  H   H319      1.0  0.70495  0.03883  0.59998  1.0000
  H   H320      1.0  0.94936  0.46704  0.45057  1.0000
  H   H321      1.0  0.77658  0.45378  0.55634  1.0000
  H   H322      1.0  0.87531  0.37995  0.50704  1.0000
  H   H323      1.0  0.96061  0.34021  0.52311  1.0000
  H   H324      1.0  0.90098  0.36096  0.53382  1.0000
  S   S75       1.0  0.89737  0.47223  0.54335  1.0000
  C   C260      1.0  0.80934  0.14099  0.56858  1.0000
  H   H325      1.0  0.89862  0.39056  0.40097  1.0000
  H   H326      1.0  0.81922  0.46218  0.54341  1.0000
  C   C261      1.0  0.91053  0.39801  0.42049  1.0000
  C   C262      1.0  0.92474  0.43085  0.42319  1.0000
  H   H327      1.0  0.94949  0.42853  0.49044  1.0000
  N   N19       1.0  0.78709  0.15578  0.59058  1.0000
  C   C263      1.0  0.91082  0.37517  0.44294  1.0000
  H   H328      1.0  0.73287  0.16015  0.59889  1.0000
  H   H329      1.0  0.78376  0.46154  0.52001  1.0000
  C   C264      1.0  0.78296  0.21475  0.56912  1.0000
  H   H330      1.0  0.97854  0.34956  0.48944  1.0000
  H   H331      1.0  0.80461  0.15268  0.54790  1.0000
  C   C265      1.0  0.81042  0.24649  0.61637  1.0000
  H   H332      1.0  0.93634  0.10550  0.63801  1.0000
  C   C266      1.0  0.93936  0.44104  0.44833  1.0000
  C   C267      1.0  0.79545  0.13788  0.61698  1.0000
  C   C268      1.0  0.80043  0.26642  0.59377  1.0000
  H   H333      1.0  0.83700  0.14493  0.57360  1.0000
  H   H334      1.0  0.92786  0.31368  0.47136  1.0000
  C   C269      1.0  0.75065  0.14772  0.58377  1.0000
  C   C270      1.0  0.90209  0.37731  0.51495  1.0000
  C   C271      1.0  0.80663  0.21061  0.61560  1.0000
  H   H335      1.0  0.77304  0.20367  0.55010  1.0000
  H   H336      1.0  0.91091  0.40327  0.52181  1.0000
  H   H337      1.0  0.82324  0.14066  0.62236  1.0000
  H   H338      1.0  0.81572  0.19680  0.63357  1.0000
  H   H339      1.0  0.78444  0.01819  0.64162  1.0000
  C   C272      1.0  0.93943  0.41864  0.47101  1.0000
  C   C273      1.0  0.88696  0.48076  0.50773  1.0000
  H   H340      1.0  0.78052  0.26623  0.55223  1.0000
  H   H341      1.0  0.98037  0.02020  0.42865  1.0000
  S   S76       1.0  0.86735  0.99777  0.58120  1.0000
  C   C274      1.0  0.96002  0.35875  0.50545  1.0000
  H   H342      1.0  0.60834  0.99356  0.53788  1.0000
  C   C275      1.0  0.97446  0.99910  0.44248  1.0000
  H   H343      1.0  0.65520  0.48088  0.60527  1.0000
  C   C276      1.0  0.80533  0.99940  0.63724  1.0000
  H   H344      1.0  0.80534  0.99522  0.61438  1.0000
  C   C277      1.0  0.58809  0.99481  0.52144  1.0000
  H   H345      1.0  0.56319  0.99406  0.53278  1.0000
  H   H346      1.0  0.77404  0.47432  0.64321  1.0000
  H   H347      1.0  0.83020  0.01182  0.64301  1.0000
  H   H348      1.0  0.61375  0.44333  0.63924  1.0000
  H   H349      1.0  0.66199  0.99181  0.59376  1.0000
  H   H350      1.0  0.59639  0.40186  0.64794  1.0000
  C   C278      1.0  0.68199  0.08054  0.96366  1.0000
  H   H351      1.0  0.72015  0.38936  0.71751  1.0000
  Fe  Fe41      1.0  0.91900  0.12010  0.85135  1.0000
  S   S77       1.0  0.93501  0.06754  0.83635  1.0000
  S   S78       1.0  0.94955  0.16576  0.83469  1.0000
  Fe  Fe42      1.0  0.84985  0.09249  0.87353  1.0000
  S   S79       1.0  0.86144  0.03817  0.86010  1.0000
  S   S80       1.0  0.79951  0.11313  0.89172  1.0000
  Fe  Fe43      1.0  0.91488  0.04838  0.87784  1.0000
  S   S81       1.0  0.94656  0.00697  0.90098  1.0000
  Fe  Fe44      1.0  0.88102  0.06165  0.82011  1.0000
  S   S82       1.0  0.85899  0.05430  0.77631  1.0000
  S   S83       1.0  0.90204  0.10177  0.89361  1.0000
  S   S84       1.0  0.86632  0.11521  0.83311  1.0000
  Fe  Fe45      1.0  0.59680  0.07874  0.85186  1.0000
  S   S85       1.0  0.55579  0.03917  0.86149  1.0000
  S   S86       1.0  0.65221  0.05907  0.85135  1.0000
  Fe  Fe46      1.0  0.54246  0.13402  0.83862  1.0000
  H   H352      1.0  0.61323  0.05331  0.90228  1.0000
  S   S87       1.0  0.53789  0.19009  0.82512  1.0000
  Fe  Fe47      1.0  0.52835  0.08170  0.88513  1.0000
  S   S88       1.0  0.51192  0.08726  0.93126  1.0000
  Fe  Fe48      1.0  0.52981  0.05872  0.82247  1.0000
  H   H353      1.0  0.61704  0.02668  0.97668  1.0000
  S   S89       1.0  0.57135  0.11992  0.87737  1.0000
  S   S90       1.0  0.57183  0.09611  0.81212  1.0000
  C   C279      1.0  0.96384  0.37438  0.71936  1.0000
  H   H354      1.0  0.75470  0.01755  0.73219  1.0000
  C   C280      1.0  0.66110  0.06190  0.94453  1.0000
  C   C281      1.0  0.75874  0.09974  0.87863  1.0000
  C   C282      1.0  0.72875  0.11736  0.88688  1.0000
  C   C283      1.0  0.69590  0.10627  0.87785  1.0000
  C   C284      1.0  0.69274  0.07704  0.86084  1.0000
  C   C285      1.0  0.72278  0.05975  0.85241  1.0000
  C   C286      1.0  0.75557  0.07116  0.86102  1.0000
  H   H355      1.0  0.73088  0.13940  0.90060  1.0000
  H   H356      1.0  0.67306  0.11974  0.88460  1.0000
  H   H357      1.0  0.72066  0.03708  0.83933  1.0000
  H   H358      1.0  0.77833  0.05731  0.85450  1.0000
  C   C287      1.0  0.90364  0.01995  0.74032  1.0000
  H   H359      1.0  0.95845  0.24623  0.91421  1.0000
  H   H360      1.0  0.75350  0.00361  0.68263  1.0000
  C   C288      1.0  0.96068  0.20483  0.85164  1.0000
  H   H361      1.0  0.50722  0.13777  0.79028  1.0000
  C   C289      1.0  0.96447  0.00247  0.93520  1.0000
  H   H362      1.0  0.72712  0.02423  0.90796  1.0000
  C   C290      1.0  0.93439  0.42888  0.71596  1.0000
  C   C291      1.0  0.69541  0.39916  0.71076  1.0000
  H   H363      1.0  0.91814  0.44660  0.70467  1.0000
  H   H364      1.0  0.61097  0.39126  0.72587  1.0000
  C   C292      1.0  0.89701  0.02097  0.68959  1.0000
  C   C293      1.0  0.87022  0.04472  0.69261  1.0000
  C   C294      1.0  0.85953  0.05513  0.71931  1.0000
  C   C295      1.0  0.87603  0.04276  0.74332  1.0000
  C   C296      1.0  0.63324  0.40071  0.71487  1.0000
  C   C297      1.0  0.93578  0.11140  0.66006  1.0000
  H   H365      1.0  0.85724  0.05455  0.67445  1.0000
  H   H366      1.0  0.54248  0.43228  0.68719  1.0000
  H   H367      1.0  0.66507  0.02627  0.90889  1.0000
  H   H368      1.0  0.51610  0.13699  0.75340  1.0000
  C   C298      1.0  0.60521  0.04505  0.92344  1.0000
  C   C299      1.0  0.94247  0.39686  0.70410  1.0000
  C   C300      1.0  0.96955  0.41604  0.75741  1.0000
  H   H369      1.0  0.93845  0.04575  0.95362  1.0000
  C   C301      1.0  0.59613  0.47583  0.68601  1.0000
  H   H370      1.0  0.88550  0.16461  0.74589  1.0000
  S   S91       1.0  0.49982  0.48437  0.65532  1.0000
  H   H371      1.0  0.91104  0.17496  0.70385  1.0000
  H   H372      1.0  0.76197  0.05844  0.94096  1.0000
  H   H373      1.0  0.89522  0.14721  0.77928  1.0000
  N   N20       1.0  0.93301  0.13551  0.74781  1.0000
  H   H374      1.0  0.56629  0.39422  0.69412  1.0000
  H   H375      1.0  0.57530  0.02747  0.76350  1.0000
  C   C302      1.0  0.66524  0.38826  0.72370  1.0000
  C   C303      1.0  0.93389  0.12657  0.71785  1.0000
  H   H376      1.0  0.80279  0.99799  0.76184  1.0000
  C   C304      1.0  0.94819  0.08760  0.67916  1.0000
  C   C305      1.0  0.92152  0.15030  0.69775  1.0000
  C   C306      1.0  0.71442  0.03944  0.92388  1.0000
  H   H377      1.0  0.91196  0.32847  0.85646  1.0000
  C   C307      1.0  0.97712  0.38374  0.74580  1.0000
  H   H378      1.0  0.94616  0.11580  0.78840  1.0000
  S   S92       1.0  0.92827  0.38415  0.66994  1.0000
  C   C308      1.0  0.80189  0.99068  0.74004  1.0000
  H   H379      1.0  0.95647  0.07473  0.72121  1.0000
  C   C309      1.0  0.52416  0.00788  0.75656  1.0000
  H   H380      1.0  0.51316  0.15902  0.91387  1.0000
  C   C310      1.0  0.50052  0.21586  0.82888  1.0000
  H   H381      1.0  0.49836  0.19012  0.76793  1.0000
  H   H382      1.0  0.57094  0.48657  0.67922  1.0000
  H   H383      1.0  0.71727  0.43137  0.67903  1.0000
  H   H384      1.0  0.51024  0.09776  0.77190  1.0000
  H   H385      1.0  0.83794  0.07252  0.72139  1.0000
  C   C311      1.0  0.69379  0.42283  0.68914  1.0000
  N   N21       1.0  0.84037  0.21166  0.87693  1.0000
  C   C312      1.0  0.86622  0.18567  0.88523  1.0000
  C   C313      1.0  0.81468  0.21433  0.89970  1.0000
  C   C314      1.0  0.82184  0.19895  0.85184  1.0000
  C   C315      1.0  0.85835  0.24452  0.87093  1.0000
  C   C316      1.0  0.88104  0.24697  0.84790  1.0000
  C   C317      1.0  0.85579  0.27404  0.88847  1.0000
  C   C318      1.0  0.89945  0.27720  0.84249  1.0000
  C   C319      1.0  0.87482  0.30397  0.88308  1.0000
  C   C320      1.0  0.89663  0.30552  0.86018  1.0000
  H   H386      1.0  0.88129  0.19457  0.90360  1.0000
  H   H387      1.0  0.85390  0.16076  0.89083  1.0000
  H   H388      1.0  0.88484  0.18010  0.86827  1.0000
  H   H389      1.0  0.82709  0.22032  0.92001  1.0000
  H   H390      1.0  0.80072  0.18943  0.90283  1.0000
  H   H391      1.0  0.79489  0.23420  0.89504  1.0000
  H   H392      1.0  0.83952  0.19164  0.83472  1.0000
  H   H393      1.0  0.80664  0.17515  0.85629  1.0000
  H   H394      1.0  0.80372  0.21877  0.84384  1.0000
  H   H395      1.0  0.88572  0.22512  0.83441  1.0000
  H   H396      1.0  0.83978  0.27454  0.90675  1.0000
  H   H397      1.0  0.91698  0.27833  0.82500  1.0000
  H   H398      1.0  0.87315  0.32600  0.89696  1.0000
  C   C321      1.0  0.49014  0.48255  0.74062  1.0000
  H   H399      1.0  0.62495  0.11226  0.92156  1.0000
  C   C322      1.0  0.94801  0.43841  0.74225  1.0000
  H   H400      1.0  0.97045  0.34960  0.71050  1.0000
  H   H401      1.0  0.61024  0.01696  0.92558  1.0000
  H   H402      1.0  0.95800  0.06302  0.67178  1.0000
  H   H403      1.0  0.67064  0.09694  0.97935  1.0000
  C   C323      1.0  0.57248  0.99835  0.72494  1.0000
  H   H404      1.0  0.56629  0.42987  0.71876  1.0000
  H   H405      1.0  0.66667  0.37000  0.74068  1.0000
  H   H406      1.0  0.57674  0.04836  0.92443  1.0000
  C   C324      1.0  0.91376  0.00881  0.71359  1.0000
  C   C325      1.0  0.66201  0.43557  0.68033  1.0000
  C   C326      1.0  0.94717  0.09479  0.70766  1.0000
  C   C327      1.0  0.96337  0.24210  0.89233  1.0000
  H   H407      1.0  0.88034  0.11931  0.75194  1.0000
  C   C328      1.0  0.97658  0.23097  0.83609  1.0000
  C   C329      1.0  0.55886  0.01271  0.74970  1.0000
  H   H408      1.0  0.94291  0.19018  0.89223  1.0000
  C   C330      1.0  0.56701  0.42279  0.69631  1.0000
  H   H409      1.0  0.52698  0.26250  0.81718  1.0000
  C   C331      1.0  0.92248  0.14269  0.66932  1.0000
  C   C332      1.0  0.97922  0.26829  0.87675  1.0000
  C   C333      1.0  0.94694  0.10806  0.76609  1.0000
  C   C334      1.0  0.95582  0.02448  0.95725  1.0000
  H   H410      1.0  0.95469  0.17396  0.77536  1.0000
  C   C335      1.0  0.89700  0.14206  0.75653  1.0000
  H   H411      1.0  0.98172  0.22684  0.81425  1.0000
  H   H412      1.0  0.94191  0.46348  0.75084  1.0000
  H   H413      1.0  0.98067  0.16359  0.74561  1.0000
  C   C336      1.0  0.73411  0.05874  0.94248  1.0000
  N   N22       1.0  0.62314  0.06548  0.94527  1.0000
  C   C337      1.0  0.95370  0.16714  0.75285  1.0000
  H   H414      1.0  0.66212  0.45421  0.66380  1.0000
  C   C338      1.0  0.63070  0.42457  0.69256  1.0000
  S   S93       1.0  0.49849  0.09804  0.84701  1.0000
  H   H415      1.0  0.58523  0.10565  0.94006  1.0000
  N   N23       1.0  0.59742  0.43788  0.68210  1.0000
  S   S94       1.0  0.50532  0.02562  0.78756  1.0000
  H   H416      1.0  0.97430  0.10223  0.76127  1.0000
  C   C339      1.0  0.67847  0.04092  0.92471  1.0000
  C   C340      1.0  0.50259  0.25138  0.82327  1.0000
  C   C341      1.0  0.95422  0.21044  0.87987  1.0000
  C   C342      1.0  0.61369  0.10217  0.94121  1.0000
  H   H417      1.0  0.62276  0.11902  0.95843  1.0000
  H   H418      1.0  0.94305  0.19001  0.74203  1.0000
  S   S95       1.0  0.90972  0.00500  0.65646  1.0000
  H   H419      1.0  0.93153  0.08390  0.76444  1.0000
  C   C343      1.0  0.77497  0.00186  0.72324  1.0000
  H   H420      1.0  0.91629  0.00985  0.75860  1.0000
  C   C344      1.0  0.50081  0.12480  0.77026  1.0000
  C   C345      1.0  0.77448  0.99359  0.69492  1.0000
  C   C346      1.0  0.98569  0.26261  0.84852  1.0000
  H   H421      1.0  0.91296  0.16110  0.65424  1.0000
  H   H422      1.0  0.59936  0.00236  0.72006  1.0000
  C   C347      1.0  0.50117  0.18419  0.91511  1.0000
  C   C348      1.0  0.49725  0.24341  0.89958  1.0000
  H   H423      1.0  0.53430  0.20652  0.88441  1.0000
  C   C349      1.0  0.51305  0.21103  0.89856  1.0000
  H   H424      1.0  0.50731  0.26267  0.88563  1.0000
  H   H425      1.0  0.58104  0.05557  0.97337  1.0000
  C   C350      1.0  0.60972  0.05393  0.97255  1.0000
  H   H426      1.0  0.49376  0.31540  0.90448  1.0000
  C   C351      1.0  0.96902  0.01850  0.98426  1.0000
  C   C352      1.0  0.71794  0.07906  0.96248  1.0000
  S   S96       1.0  0.98758  0.43068  0.78984  1.0000
  H   H427      1.0  0.59993  0.48298  0.70823  1.0000
  H   H428      1.0  0.61627  0.48950  0.67380  1.0000
  H   H429      1.0  0.73342  0.09414  0.97682  1.0000
  C   C353      1.0  0.59394  0.43003  0.65199  1.0000
  H   H430      1.0  0.94911  0.89366  0.04277  1.0000
  H   H431      1.0  0.50683  0.75936  0.30290  1.0000
  H   H432      1.0  0.94390  0.81819  0.99329  1.0000
  C   C354      1.0  0.92402  0.51645  0.15424  1.0000
  C   C355      1.0  0.96994  0.53768  0.23924  1.0000
  H   H433      1.0  0.91030  0.60007  0.25049  1.0000
  S   S97       1.0  0.92704  0.53961  0.28501  1.0000
  C   C356      1.0  0.60916  0.65168  0.30320  1.0000
  C   C357      1.0  0.94887  0.86775  0.03281  1.0000
  H   H434      1.0  0.90212  0.51615  0.07025  1.0000
  C   C358      1.0  0.94362  0.55599  0.25298  1.0000
  H   H435      1.0  0.73417  0.70239  0.26936  1.0000
  H   H436      1.0  0.49759  0.53060  0.23163  1.0000
  H   H437      1.0  0.93286  0.61943  0.20474  1.0000
  H   H438      1.0  0.98376  0.81614  0.01208  1.0000
  C   C359      1.0  0.93082  0.58589  0.24050  1.0000
  C   C360      1.0  0.65740  0.65827  0.27240  1.0000
  H   H439      1.0  0.58126  0.65581  0.30672  1.0000
  S   S98       1.0  0.54104  0.58953  0.29315  1.0000
  H   H440      1.0  0.61386  0.62374  0.30637  1.0000
  C   C361      1.0  0.94366  0.59678  0.21447  1.0000
  H   H441      1.0  0.94143  0.93431  0.01161  1.0000
  H   H442      1.0  0.61017  0.64831  0.23271  1.0000
  C   C362      1.0  0.96264  0.62556  0.30573  1.0000
  H   H443      1.0  0.57985  0.70189  0.27354  1.0000
  H   H444      1.0  0.95027  0.52421  0.15845  1.0000
  H   H445      1.0  0.61900  0.71638  0.28864  1.0000
  N   N24       1.0  0.61977  0.66315  0.27519  1.0000
  H   H446      1.0  0.92172  0.85868  0.03180  1.0000
  H   H447      1.0  0.91011  0.52375  0.19723  1.0000
  C   C363      1.0  0.87814  0.49745  0.12365  1.0000
  C   C364      1.0  0.93394  0.92251  0.99210  1.0000
  H   H448      1.0  0.57281  0.64681  0.25485  1.0000
  C   C365      1.0  0.68096  0.68632  0.27069  1.0000
  C   C366      1.0  0.70723  0.61936  0.27245  1.0000
  C   C367      1.0  0.60113  0.64220  0.25407  1.0000
  H   H449      1.0  0.75721  0.64302  0.27178  1.0000
  H   H450      1.0  0.97027  0.54467  0.08254  1.0000
  H   H451      1.0  0.65557  0.60202  0.27535  1.0000
  C   C368      1.0  0.90119  0.51626  0.17666  1.0000
  H   H452      1.0  0.93726  0.75037  0.31352  1.0000
  S   S99       1.0  0.98310  0.59215  0.16684  1.0000
  Fe  Fe49      1.0  0.50017  0.55457  0.31065  1.0000
  H   H453      1.0  0.96307  0.85073  0.04750  1.0000
  C   C369      1.0  0.95280  0.54277  0.10082  1.0000
  H   H454      1.0  0.60434  0.61400  0.25732  1.0000
  C   C370      1.0  0.72964  0.64733  0.27130  1.0000
  S   S100      1.0  0.51746  0.68663  0.30981  1.0000
  H   H455      1.0  0.97934  0.80054  0.19113  1.0000
  H   H456      1.0  0.71746  0.59340  0.27388  1.0000
  N   N25       1.0  0.93811  0.50763  0.10370  1.0000
  H   H457      1.0  0.61590  0.70993  0.25127  1.0000
  H   H458      1.0  0.96831  0.55058  0.11919  1.0000
  C   C371      1.0  0.60843  0.69950  0.27191  1.0000
  H   H459      1.0  0.95323  0.59895  0.30961  1.0000
  C   C372      1.0  0.67169  0.62462  0.27311  1.0000
  H   H460      1.0  0.84943  0.50660  0.19019  1.0000
  C   C373      1.0  0.96983  0.57834  0.20064  1.0000
  C   C374      1.0  0.96922  0.83118  0.99618  1.0000
  C   C375      1.0  0.94398  0.88836  0.98513  1.0000
  C   C376      1.0  0.91324  0.50714  0.12700  1.0000
  C   C377      1.0  0.92291  0.49798  0.07638  1.0000
  C   C378      1.0  0.71655  0.68072  0.27018  1.0000
  C   C379      1.0  0.98318  0.54888  0.21342  1.0000
  C   C380      1.0  0.86701  0.50667  0.17270  1.0000
  N   N26       1.0  0.96487  0.86778  0.00477  1.0000
  H   H461      1.0  0.93220  0.56243  0.09830  1.0000
  H   H462      1.0  0.95180  0.63363  0.28540  1.0000
  H   H463      1.0  0.67261  0.71282  0.27018  1.0000
  H   H464      1.0  0.94254  0.49886  0.05945  1.0000
  H   H465      1.0  0.96668  0.80668  0.24073  1.0000
  H   H466      1.0  0.98003  0.51443  0.24856  1.0000
  C   C381      1.0  0.85550  0.49726  0.14627  1.0000
  H   H467      1.0  0.69881  0.52864  0.31667  1.0000
  Fe  Fe50      1.0  0.55192  0.59941  0.62246  1.0000
  S   S101      1.0  0.51781  0.56036  0.60106  1.0000
  Fe  Fe51      1.0  0.83118  0.59635  0.34742  1.0000
  Fe  Fe52      1.0  0.61076  0.54691  0.62758  1.0000
  H   H468      1.0  0.56871  0.66998  0.48683  1.0000
  C   C382      1.0  0.50254  0.57316  0.47362  1.0000
  Fe  Fe53      1.0  0.56477  0.54655  0.57612  1.0000
  S   S102      1.0  0.57545  0.54091  0.52954  1.0000
  S   S103      1.0  0.59786  0.58744  0.59596  1.0000
  Fe  Fe54      1.0  0.51618  0.57986  0.37147  1.0000
  S   S104      1.0  0.55767  0.61621  0.35717  1.0000
  H   H469      1.0  0.82988  0.50799  0.57494  1.0000
  C   C383      1.0  0.67103  0.57319  0.33130  1.0000
  S   S105      1.0  0.92855  0.98638  0.51924  1.0000
  N   N27       1.0  0.78677  0.50689  0.54641  1.0000
  S   S106      1.0  0.53488  0.53523  0.34525  1.0000
  C   C384      1.0  0.53047  0.97343  0.48466  1.0000
  Fe  Fe55      1.0  0.87411  0.54604  0.38261  1.0000
  S   S107      1.0  0.85615  0.60038  0.38965  1.0000
  H   H470      1.0  0.58673  0.91094  0.50083  1.0000
  Fe  Fe56      1.0  0.90357  0.61732  0.36649  1.0000
  S   S108      1.0  0.94033  0.65794  0.38380  1.0000
  C   C385      1.0  0.58038  0.69664  0.62732  1.0000
  H   H471      1.0  0.98853  0.70945  0.40162  1.0000
  S   S109      1.0  0.92364  0.56317  0.36246  1.0000
  S   S110      1.0  0.84714  0.54108  0.34088  1.0000
  Fe  Fe57      1.0  0.61488  0.91625  0.58493  1.0000
  S   S111      1.0  0.57009  0.95194  0.59169  1.0000
  S   S112      1.0  0.66550  0.92683  0.56252  1.0000
  Fe  Fe58      1.0  0.57761  0.85478  0.61220  1.0000
  S   S113      1.0  0.53017  0.88637  0.62131  1.0000
  S   S114      1.0  0.98427  0.80235  0.33182  1.0000
  Fe  Fe59      1.0  0.53723  0.90681  0.57734  1.0000
  C   C386      1.0  0.57492  0.96722  0.44976  1.0000
  S   S115      1.0  0.58237  0.87257  0.56801  1.0000
  H   H472      1.0  0.86271  0.68239  0.41615  1.0000
  C   C387      1.0  0.51896  0.56419  0.49879  1.0000
  H   H473      1.0  0.49942  0.75594  0.37309  1.0000
  H   H474      1.0  0.80596  0.77738  0.37654  1.0000
  H   H475      1.0  0.55720  0.62600  0.49345  1.0000
  C   C388      1.0  0.95301  0.69749  0.36845  1.0000
  H   H476      1.0  0.65127  0.53627  0.53679  1.0000
  C   C389      1.0  0.80653  0.52656  0.52535  1.0000
  H   H477      1.0  0.78895  0.72506  0.35998  1.0000
  C   C390      1.0  0.94850  0.74145  0.33276  1.0000
  C   C391      1.0  0.69634  0.95917  0.57056  1.0000
  C   C392      1.0  0.88553  0.80766  0.39080  1.0000
  H   H478      1.0  0.91865  0.52644  0.50641  1.0000
  C   C393      1.0  0.90148  0.50984  0.49471  1.0000
  H   H479      1.0  0.68132  0.54813  0.58114  1.0000
  H   H480      1.0  0.73679  0.93305  0.54826  1.0000
  Fe  Fe60      1.0  0.89567  0.56285  0.32127  1.0000
  H   H481      1.0  0.84643  0.70534  0.34342  1.0000
  C   C394      1.0  0.50558  0.97466  0.46370  1.0000
  C   C395      1.0  0.53858  0.75538  0.62244  1.0000
  H   H482      1.0  0.76720  0.94345  0.62137  1.0000
  H   H483      1.0  0.54411  0.60885  0.54439  1.0000
  C   C396      1.0  0.50606  0.88861  0.49426  1.0000
  H   H484      1.0  0.65176  0.62085  0.34808  1.0000
  H   H485      1.0  0.63347  0.94321  0.47802  1.0000
  S   S116      1.0  0.63026  0.55524  0.32192  1.0000
  C   C397      1.0  0.55925  0.76445  0.55452  1.0000
  C   C398      1.0  0.55293  0.55222  0.49859  1.0000
  C   C399      1.0  0.57015  0.54951  0.47295  1.0000
  C   C400      1.0  0.55373  0.55844  0.44780  1.0000
  C   C401      1.0  0.51971  0.57017  0.44793  1.0000
  H   H486      1.0  0.78151  0.68703  0.37945  1.0000
  C   C402      1.0  0.85077  0.80714  0.38366  1.0000
  C   C403      1.0  0.49220  0.73645  0.38796  1.0000
  H   H487      1.0  0.56728  0.55590  0.42826  1.0000
  H   H488      1.0  0.78055  0.72783  0.39709  1.0000
  H   H489      1.0  0.78010  0.97949  0.55532  1.0000
  C   C404      1.0  0.54469  0.69253  0.62564  1.0000
  H   H490      1.0  0.89885  0.72257  0.40078  1.0000
  C   C405      1.0  0.75456  0.98215  0.56402  1.0000
  C   C406      1.0  0.57426  0.75950  0.62458  1.0000
  H   H491      1.0  0.89967  0.83182  0.39121  1.0000
  H   H492      1.0  0.64636  0.96447  0.50902  1.0000
  H   H493      1.0  0.51267  0.65259  0.40040  1.0000
  H   H494      1.0  0.83794  0.83115  0.37867  1.0000
  C   C407      1.0  0.73055  0.52986  0.56659  1.0000
  H   H495      1.0  0.80011  0.54273  0.57920  1.0000
  H   H496      1.0  0.87449  0.68411  0.36747  1.0000
  C   C408      1.0  0.52390  0.72207  0.62319  1.0000
  C   C409      1.0  0.97274  0.76227  0.34666  1.0000
  H   H497      1.0  0.85449  0.95423  0.64642  1.0000
  C   C410      1.0  0.95932  0.94545  0.47873  1.0000
  C   C411      1.0  0.69555  0.53755  0.56368  1.0000
  C   C412      1.0  0.62785  0.96608  0.49129  1.0000
  N   N28       1.0  0.83148  0.71029  0.38630  1.0000
  H   H498      1.0  0.98354  0.91235  0.44797  1.0000
  H   H499      1.0  0.82691  0.70558  0.43072  1.0000
  H   H500      1.0  0.61263  0.76059  0.56530  1.0000
  C   C413      1.0  0.84912  0.74408  0.38874  1.0000
  H   H501      1.0  0.80131  0.55469  0.52707  1.0000
  C   C414      1.0  0.59498  0.72995  0.62713  1.0000
  N   N29       1.0  0.59155  0.96618  0.50103  1.0000
  C   C415      1.0  0.98726  0.75048  0.37145  1.0000
  H   H502      1.0  0.75683  0.55360  0.32534  1.0000
  H   H503      1.0  0.61014  0.64272  0.55412  1.0000
  C   C416      1.0  0.59303  0.71248  0.54881  1.0000
  H   H504      1.0  0.95142  0.64239  0.32209  1.0000
  C   C417      1.0  0.73750  0.60203  0.34064  1.0000
  S   S117      1.0  0.87763  0.61790  0.32477  1.0000
  S   S118      1.0  0.66538  0.53910  0.64327  1.0000
  H   H505      1.0  0.50515  0.56604  0.51823  1.0000
  C   C418      1.0  0.50037  0.67747  0.40295  1.0000
  H   H506      1.0  0.51483  0.64416  0.54612  1.0000
  S   S119      1.0  0.59436  0.80071  0.62525  1.0000
  H   H507      1.0  0.92943  0.77745  0.40242  1.0000
  C   C419      1.0  0.84719  0.69057  0.36319  1.0000
  C   C420      1.0  0.50881  0.70463  0.38540  1.0000
  C   C421      1.0  0.79399  0.71298  0.38052  1.0000
  C   C422      1.0  0.67447  0.60627  0.34278  1.0000
  C   C423      1.0  0.59049  0.74716  0.55665  1.0000
  C   C424      1.0  0.97738  0.71823  0.38228  1.0000
  C   C425      1.0  0.69264  0.50524  0.63192  1.0000
  H   H508      1.0  0.53031  0.87992  0.50265  1.0000
  H   H509      1.0  0.62260  0.73285  0.62895  1.0000
  C   C426      1.0  0.83266  0.77590  0.38255  1.0000
  S   S120      1.0  0.58033  0.50518  0.60666  1.0000
  C   C427      1.0  0.90227  0.77700  0.39716  1.0000
  C   C428      1.0  0.55379  0.65298  0.50101  1.0000
  H   H510      1.0  0.95366  0.92442  0.49271  1.0000
  H   H511      1.0  0.55737  0.79108  0.56137  1.0000
  S   S121      1.0  0.77840  0.62260  0.34407  1.0000
  C   C429      1.0  0.58524  0.93317  0.51547  1.0000
  C   C430      1.0  0.69661  0.51700  0.51637  1.0000
  C   C431      1.0  0.54968  0.96804  0.42897  1.0000
  H   H512      1.0  0.50925  0.70002  0.52941  1.0000
  H   H513      1.0  0.74536  0.96908  0.64609  1.0000
  Fe  Fe61      1.0  0.56642  0.92911  0.63494  1.0000
  H   H514      1.0  0.52605  0.65887  0.49821  1.0000
  S   S122      1.0  0.52488  0.65125  0.62785  1.0000
  H   H515      1.0  0.82048  0.66586  0.41184  1.0000
  C   C432      1.0  0.56399  0.69407  0.53838  1.0000
  N   N30       1.0  0.56539  0.65720  0.53026  1.0000
  H   H516      1.0  0.70974  0.64672  0.35503  1.0000
  H   H517      1.0  0.61898  0.65546  0.51860  1.0000
  H   H518      1.0  0.52769  0.70065  0.36913  1.0000
  H   H519      1.0  0.52228  0.77784  0.62058  1.0000
  C   C433      1.0  0.72647  0.50335  0.64223  1.0000
  H   H520      1.0  0.61788  0.70063  0.55159  1.0000
  S   S123      1.0  0.86522  0.50245  0.41448  1.0000
  H   H521      1.0  0.55944  0.93240  0.52544  1.0000
  H   H522      1.0  0.83364  0.66569  0.35958  1.0000
  C   C434      1.0  0.60037  0.64198  0.53237  1.0000
  C   C435      1.0  0.88445  0.74568  0.39620  1.0000
  C   C436      1.0  0.53252  0.71251  0.53658  1.0000
  H   H523      1.0  0.91970  0.69382  0.33270  1.0000
  H   H524      1.0  0.68321  0.51181  0.49699  1.0000
  C   C437      1.0  0.89434  0.51759  0.46656  1.0000
  Fe  Fe62      1.0  0.53636  0.52305  0.63392  1.0000
  H   H525      1.0  0.55682  0.96528  0.40729  1.0000
  H   H526      1.0  0.54904  0.64131  0.57089  1.0000
  S   S124      1.0  0.61337  0.89603  0.62822  1.0000
  C   C438      1.0  0.72992  0.95587  0.56001  1.0000
  C   C439      1.0  0.74972  0.51549  0.54421  1.0000
  C   C440      1.0  0.97629  0.93847  0.45323  1.0000
  C   C441      1.0  0.93863  0.70925  0.34357  1.0000
  H   H527      1.0  0.90619  0.53974  0.45685  1.0000
  C   C442      1.0  0.56597  0.96974  0.47837  1.0000
  H   H528      1.0  0.60049  0.61424  0.52605  1.0000
  H   H529      1.0  0.60447  0.92879  0.53216  1.0000
  H   H530      1.0  0.60112  0.96392  0.44288  1.0000
  C   C443      1.0  0.51509  0.97155  0.43594  1.0000
  C   C444      1.0  0.54233  0.63705  0.54863  1.0000
  C   C445      1.0  0.83559  0.69033  0.41239  1.0000
  H   H531      1.0  0.59636  0.54017  0.47245  1.0000
  H   H532      1.0  0.78935  0.49957  0.59078  1.0000
  H   H533      1.0  0.49548  0.97107  0.41984  1.0000
  C   C446      1.0  0.70747  0.62077  0.34694  1.0000
  C   C447      1.0  0.70107  0.55429  0.32541  1.0000
  C   C448      1.0  0.68774  0.98888  0.58558  1.0000
  C   C449      1.0  0.53030  0.74717  0.54454  1.0000
  H   H534      1.0  0.74176  0.53499  0.58674  1.0000
  H   H535      1.0  0.59671  0.67424  0.62943  1.0000
  H   H536      1.0  0.50590  0.76063  0.54346  1.0000
  C   C450      1.0  0.80199  0.51480  0.57408  1.0000
  H   H537      1.0  0.49625  0.71919  0.62193  1.0000
  H   H538      1.0  0.74455  0.49870  0.50101  1.0000
  H   H539      1.0  0.82689  0.93717  0.62037  1.0000
  C   C451      1.0  0.73168  0.50950  0.51894  1.0000
  H   H540      1.0  0.83479  0.52290  0.52785  1.0000
  S   S125      1.0  0.49156  0.91514  0.54741  1.0000
  C   C452      1.0  0.67856  0.53090  0.53873  1.0000
  C   C453      1.0  0.94960  0.97926  0.48636  1.0000
  Fe  Fe63      1.0  0.57460  0.57298  0.32915  1.0000
  C   C454      1.0  0.87275  0.49609  0.45084  1.0000
  C   C455      1.0  0.49845  0.88351  0.46577  1.0000
  H   H541      1.0  0.80043  0.51836  0.50371  1.0000
  H   H542      1.0  0.51733  0.87135  0.45248  1.0000
  S   S126      1.0  0.49759  0.58171  0.41686  1.0000
  C   C456      1.0  0.73408  0.56841  0.33032  1.0000
  C   C457      1.0  0.82845  0.94276  0.64308  1.0000
  C   C458      1.0  0.76731  0.95097  0.64378  1.0000
  H   H543      1.0  0.52138  0.97392  0.50590  1.0000
  Fe  Fe64      1.0  0.52081  0.63009  0.32275  1.0000
  C   C459      1.0  0.98398  0.96528  0.43477  1.0000
  H   H544      1.0  0.62334  0.66590  0.31977  1.0000
  H   H545      1.0  0.63412  0.99002  0.47965  1.0000
  H   H546      1.0  0.82702  0.91765  0.65413  1.0000
  N   N31       1.0  0.56449  0.86083  0.71258  1.0000
  C   C460      1.0  0.55887  0.77819  0.75571  1.0000
  H   H547      1.0  0.55831  0.74358  0.69072  1.0000
  H   H548      1.0  0.51956  0.51196  0.71070  1.0000
  H   H549      1.0  0.61936  0.85758  0.70710  1.0000
  C   C461      1.0  0.55801  0.75315  0.73484  1.0000
  H   H550      1.0  0.76154  0.92750  0.65619  1.0000
  C   C462      1.0  0.56191  0.82412  0.72074  1.0000
  H   H551      1.0  0.53205  0.85491  0.67630  1.0000
  H   H552      1.0  0.49614  0.59609  0.66160  1.0000
  H   H553      1.0  0.94214  0.85106  0.95061  1.0000
  H   H554      1.0  0.50975  0.86637  0.70759  1.0000
  C   C463      1.0  0.53399  0.87034  0.69573  1.0000
  H   H555      1.0  0.58931  0.88030  0.74967  1.0000
  C   C464      1.0  0.56633  0.88522  0.73646  1.0000
  S   S127      1.0  0.56784  0.56285  0.65657  1.0000
  H   H556      1.0  0.56124  0.80412  0.67821  1.0000
  H   H557      1.0  0.54271  0.88405  0.74948  1.0000
  H   H558      1.0  0.50066  0.95939  0.69954  1.0000
  H   H559      1.0  0.53489  0.89792  0.68931  1.0000
  C   C465      1.0  0.55883  0.76300  0.70706  1.0000
  H   H560      1.0  0.89524  0.94749  0.93206  1.0000
  C   C466      1.0  0.93506  0.87633  0.95807  1.0000
  H   H561      1.0  0.55679  0.72604  0.74018  1.0000
  C   C467      1.0  0.59596  0.86601  0.69567  1.0000
  H   H562      1.0  0.59962  0.89364  0.69003  1.0000
  N   N32       1.0  0.80070  0.96655  0.65229  1.0000
  C   C468      1.0  0.56078  0.81322  0.74892  1.0000
  H   H563      1.0  0.56856  0.91250  0.72934  1.0000
  C   C469      1.0  0.51709  0.97408  0.71336  1.0000
  H   H564      1.0  0.93450  0.99041  0.71150  1.0000
  H   H565      1.0  0.55821  0.77037  0.77732  1.0000
  C   C470      1.0  0.91732  0.89740  0.93935  1.0000
  C   C471      1.0  0.82829  0.96286  0.70030  1.0000
  H   H566      1.0  0.91153  0.88820  0.91855  1.0000
  H   H567      1.0  0.56147  0.83123  0.76609  1.0000
  S   S128      1.0  0.57093  0.96095  0.67572  1.0000
  C   C472      1.0  0.90784  0.93074  0.94695  1.0000
  C   C473      1.0  0.56061  0.79788  0.70007  1.0000
  C   C474      1.0  0.98714  0.97490  0.94061  1.0000
  C   C475      1.0  0.55178  0.97901  0.70648  1.0000
  H   H568      1.0  0.59519  0.85136  0.67576  1.0000
  H   H569      1.0  0.84978  0.96342  0.74167  1.0000
  H   H570      1.0  0.50060  0.49632  0.75832  1.0000
  C   C476      1.0  0.50081  0.49166  0.71349  1.0000
  C   C477      1.0  0.80107  0.97366  0.68256  1.0000
  H   H571      1.0  0.85041  0.94889  0.69273  1.0000
  C   C478      1.0  0.82837  0.97112  0.72862  1.0000
  H   H572      1.0  0.49236  0.59322  0.69837  1.0000
  H   H573      1.0  0.73568  0.52298  0.65647  1.0000
  H   H574      1.0  0.98450  0.82883  0.97671  1.0000
  H   H575      1.0  0.49558  0.55455  0.67804  1.0000
  C   C479      1.0  0.91577  0.94309  0.97338  1.0000
  H   H576      1.0  0.90933  0.96944  0.97891  1.0000
  C   C480      1.0  0.50346  0.98841  0.73815  1.0000
