data_image0
_chemical_formula_structural       HCHCHC3NHC2HSHCH2C2H2C3H2CFeC4H3SC4HCH2C2H3CNSHSH2CHC2HFeHCHCH2CH2CNHCHCH4CH2SHCHFeS2C2FeCFeCS2CHNCHCH2C3SH3CHC4H2CSCH7C3NCHCHCHCH2CH2CHC2H5C2H2SH3C2H2C2HCHFeNCHSFeS2FeSFeHSCFeSH2SFeSFeS2HC2H2CN2SCHSCNH2CH3CSCH2CHC3H2SH2C6H4C3HSC6H4CHC4HSHC4H2C2H3CSH2CHCH2C2H3CHCH2C3H2FeCH3CH3C3NH4CH2C2H2CHC3FeHC3H2CHC2HCHCH2CNHCHCHFeH4FeSH2SH3FeHNH3C3HCH3CH3SHCSH7SCSHCH2CNCSFeSHFeSFeSNSFeS2HSFeSFeSHSCHSHCHCFeSCFeS2CH3SCFeS3H2C2SH2CHCFeS2FeSH2C6H2C5H2FeHC6H4SC2HC7H7C3HCH3FeHCNC9H14NC6SH2SFeH4CH2C3H3C2H3CHCH2CH2NSHFeHSC2HCFeH2CH2CHCHCHCHCHCHCH2CHCHC2HCH3SCHCHFeS2FeS2FeSFeS4CH2SH2C9H4C6H4CHC2HC6H4C2H2C3H3CH4C2NC9H2SCH2CH7SH3NC6HC2H11C3H3CH4CHCH6SH2CHCNH2CH5CHCHNHCHNC2HCHCH3CH5C5HNH2C2HCH2CHCFeHC2H2FeC2HSHCHCHCH2NH2FeS2FeS2FeSFeS3CHSH3CHFeS2H3C6H3C7H4C6H4C2H5CHCH4CH2CH2CH2C2NC2FeHCHCSHC4HSH5CH5CHCHCH2CN2HSNHCHC3HCFeS2CH2CHCHCHNHC3H3SH2CHC5H3CHCHCH2C3H2SH2C3H3CHCH5C3HC2HC2H3FeSCFeS2FeSFeS3H2CS2HCHC8H4C6H4C2SH5C2HCHCH2CHCNCHCH2CHCH2CHC2HCH5CHC2SCH4C3H2FeH3SHC2FeS2FeS2FeSFeHS3FeS2C2H2C2HNC2HCSCH4C6H4C2HC8H5SH5NC9H13C2HCHNHCFeH2C2HCSH3C4HC4HC2H2FeCH7CH2CHCH4CHCFeS2FeS2FeSFeS3FeSFeCSHFeCS2C2HFeS2CH2C2H2C6H4C6H4C3HC2HC4H2C2HC6H5NC3H4CH8CHCSHCH2CH2NH5CH3C2HCNC2HC6H7C2H6C2H3CHCH5CFeCH2NC2HCH2CSC3H4CH2CH3NCH2NHCHC2SHCSCHCH4C2HCH5C2SHCFeS2FeS2FeSFeS5HS2FeSFeSCH3CH2NFeS2H4NCH3SCH3C7H4CFeHCHC6H4C6H2FeCHC8H2CH2CH6NC9H11CSCH6CHCHCHCFeHNC3HSC2H4SHC3HCH5C2HFeH2CHCH3C2HNCH3SH3SCH4SCHSCHSFeSFeSCFeS2FeS2Fe2S3FeSFeCSCFe2S2FeS2FeC2FeHS2HSHSCH3C6H4C7H2C6H4C6H4C3H2C2FeNH2CH2CH3CH6CHNSC8HC2H10N2C9H15CH3CHCHCHSH2CH3CSHCH3FeH2CH2CH2CH4CH2CHCHC6H2C2HFeHC2FeHSCSH2C2NCH5C2HCH2CHCHCH2C2HNHCH2CH2C4HCSCH2C2SHC2SH2CFeCSFeSHCHS2FeS2Fe2SFeS3FeSFeSCFeSFeS2FeS2CSFeSFeHSC2NC6H4FeC2H4C2H2CHC2SHFeC6H5C8H4SFeH2C2FeCHCHCNC5HSC2HC2H7S2H6CH3C4H2CH3SH4C3H2C2SC2HSH2CHCNH8C3H3CHSHC3HSHFeHCHNCHNH4SH3CH2CH5C3H2CSHCH3CHNH4CH3CH4CHNH4C3HSCH2CHSH4C3FeCSFeCS2C2S2C5HSCFeS2HSHCH2SC2HC3H5NCH2C4H2C5H4CHC8H5CHCHCHC3HNHCHCHCSC2HCHCH3FeCHCHCH2SHC3H2CH2CHCH4CH2CHCFeCH3NC2H3NH4CHC2H2CNH4C3HSCHCH3CH6NFeCHSHC2H3SCH2CH3FeHSFeS2H3S2CSHCFeS2H4SFeS2FeSC2H5C4H3C2H2CHCFeHCHFeH5C4H4CHS2C6H5FeCH4SCNC2N2HFeH6C3SC2NC7HC2FeCHCH5FeH2CHSCHFeHCHCHC2HC3HSC2HSCS2C2H3CHCH2SC2HC3H2CHSH2CH2NH4C2S2FeHC5HSHC2SH2CHC4H2CH2C2HC2HFeSHCSFeSFeS2HCHSHC3H6C2H2FeC6H4C3H2CH2C4H3CSNHCH2NHCHCH2FeH2CHSCHCHCH2CHCFeSHFeSFeSFeSCSFeS2FeCHSNCHC2H2SC6H5CHCSHC2SNC9H12CHC2SFeHCH3CHCH2C
_chemical_formula_sum              "H1296 C1080 N72 S288 Fe144"
_cell_length_a       70.0452
_cell_length_b       70.1253
_cell_length_c       36.7839
_cell_angle_alpha    90.7165
_cell_angle_beta     90.7247
_cell_angle_gamma    112.1

_space_group_name_H-M_alt    "P 1"
_space_group_IT_number       1

loop_
  _space_group_symop_operation_xyz
  'x, y, z'

loop_
  _atom_site_type_symbol
  _atom_site_label
  _atom_site_symmetry_multiplicity
  _atom_site_fract_x
  _atom_site_fract_y
  _atom_site_fract_z
  _atom_site_occupancy
  H   H1        1.0  0.46740  0.14766  0.19130  1.0000
  C   C1        1.0  0.46092  0.07728  0.11377  1.0000
  H   H2        1.0  0.48035  0.13018  0.18578  1.0000
  C   C2        1.0  0.44306  0.07717  0.13052  1.0000
  H   H3        1.0  0.39485  0.02107  0.10260  1.0000
  C   C3        1.0  0.47947  0.08675  0.17216  1.0000
  C   C4        1.0  0.46984  0.16372  0.07105  1.0000
  C   C5        1.0  0.46352  0.23503  0.25023  1.0000
  N   N1        1.0  0.36078  0.20261  0.00132  1.0000
  H   H4        1.0  0.42942  0.08103  0.18111  1.0000
  C   C6        1.0  0.48287  0.14667  0.19028  1.0000
  C   C7        1.0  0.46907  0.12926  0.07718  1.0000
  H   H5        1.0  0.44382  0.02638  0.05824  1.0000
  S   S1        1.0  0.46153  0.07108  0.06707  1.0000
  H   H6        1.0  0.37687  0.20558  0.05292  1.0000
  C   C8        1.0  0.44336  0.08147  0.16816  1.0000
  H   H7        1.0  0.44820  0.22223  0.24832  1.0000
  H   H8        1.0  0.41525  0.12031  0.02886  1.0000
  C   C9        1.0  0.41846  0.16895  0.00789  1.0000
  C   C10       1.0  0.46456  0.14379  0.05713  1.0000
  H   H9        1.0  0.46490  0.11373  0.06631  1.0000
  H   H10       1.0  0.38324  0.22911  0.02902  1.0000
  C   C11       1.0  0.40716  0.02210  0.08310  1.0000
  C   C12       1.0  0.41815  0.01726  0.16058  1.0000
  C   C13       1.0  0.47533  0.22535  0.19414  1.0000
  H   H11       1.0  0.44276  0.00095  0.06970  1.0000
  H   H12       1.0  0.46579  0.19772  0.25064  1.0000
  C   C14       1.0  0.34354  0.20661  0.01837  1.0000
  Fe  Fe1       1.0  0.43814  0.06587  0.02074  1.0000
  C   C15       1.0  0.48075  0.21099  0.25180  1.0000
  C   C16       1.0  0.45757  0.20838  0.18202  1.0000
  C   C17       1.0  0.44921  0.03416  0.19676  1.0000
  C   C18       1.0  0.46154  0.08623  0.18916  1.0000
  H   H13       1.0  0.42899  0.07355  0.11468  1.0000
  H   H14       1.0  0.45959  0.21582  0.09054  1.0000
  H   H15       1.0  0.48483  0.21406  0.28131  1.0000
  S   S2        1.0  0.46133  0.09113  0.23654  1.0000
  C   C19       1.0  0.42780  0.02566  0.19378  1.0000
  C   C20       1.0  0.46105  0.03416  0.16664  1.0000
  C   C21       1.0  0.47910  0.08216  0.13476  1.0000
  C   C22       1.0  0.41998  0.15266  0.02808  1.0000
  H   H16       1.0  0.43837  0.19203  0.13633  1.0000
  C   C23       1.0  0.48729  0.23855  0.16687  1.0000
  H   H17       1.0  0.41748  0.03863  0.08157  1.0000
  H   H18       1.0  0.41869  0.02605  0.21718  1.0000
  C   C24       1.0  0.41417  0.13269  0.01275  1.0000
  C   C25       1.0  0.42974  0.01732  0.12911  1.0000
  H   H19       1.0  0.42545  0.15542  0.05602  1.0000
  H   H20       1.0  0.45665  0.04128  0.22222  1.0000
  H   H21       1.0  0.46611  0.17495  0.05541  1.0000
  C   C26       1.0  0.46416  0.21819  0.11911  1.0000
  N   N2        1.0  0.47995  0.22949  0.23358  1.0000
  S   S3        1.0  0.40360  0.05606  0.02002  1.0000
  H   H22       1.0  0.48645  0.18515  0.17644  1.0000
  S   S4        1.0  0.42519  0.19350  0.02963  1.0000
  H   H23       1.0  0.39304  0.21038  0.01357  1.0000
  H   H24       1.0  0.48352  0.18499  0.11392  1.0000
  C   C27       1.0  0.47981  0.16926  0.10500  1.0000
  H   H25       1.0  0.46175  0.02747  0.11067  1.0000
  C   C28       1.0  0.45158  0.02604  0.13317  1.0000
  C   C29       1.0  0.36110  0.14812  0.00358  1.0000
  H   H26       1.0  0.42480  0.00414  0.03760  1.0000
  Fe  Fe2       1.0  0.43232  0.22566  0.00652  1.0000
  H   H27       1.0  0.34766  0.22341  0.02384  1.0000
  C   C30       1.0  0.45220  0.20484  0.14504  1.0000
  H   H28       1.0  0.44732  0.19807  0.20113  1.0000
  C   C31       1.0  0.48168  0.23495  0.13000  1.0000
  H   H29       1.0  0.37977  0.17633  0.02856  1.0000
  H   H30       1.0  0.48107  0.13765  0.47960  1.0000
  C   C32       1.0  0.43333  0.01027  0.06370  1.0000
  H   H31       1.0  0.39936  0.01711  0.05609  1.0000
  H   H32       1.0  0.46682  0.23931  0.27960  1.0000
  C   C33       1.0  0.37926  0.21224  0.02527  1.0000
  N   N3        1.0  0.41909  0.00948  0.09378  1.0000
  H   H33       1.0  0.45692  0.13954  0.03077  1.0000
  C   C34       1.0  0.48478  0.15479  0.12608  1.0000
  H   H34       1.0  0.48218  0.12279  0.12558  1.0000
  C   C35       1.0  0.47898  0.13461  0.11113  1.0000
  H   H35       1.0  0.33940  0.19855  0.04471  1.0000
  H   H36       1.0  0.47771  0.04130  0.16891  1.0000
  H   H37       1.0  0.37027  0.14010  0.01513  1.0000
  H   H38       1.0  0.40151  0.01122  0.15951  1.0000
  C   C36       1.0  0.36645  0.16912  0.01098  1.0000
  H   H39       1.0  0.49028  0.15083  0.21781  1.0000
  H   H40       1.0  0.32944  0.20147  0.00079  1.0000
  S   S5        1.0  0.46234  0.09300  0.72460  1.0000
  H   H41       1.0  0.48360  0.04993  0.65967  1.0000
  C   C37       1.0  0.48601  0.18385  0.52153  1.0000
  H   H42       1.0  0.45211  0.17101  0.83926  1.0000
  Fe  Fe3       1.0  0.43994  0.06422  0.93648  1.0000
  S   S6        1.0  0.40551  0.05307  0.93056  1.0000
  S   S7        1.0  0.46454  0.07247  0.89281  1.0000
  C   C38       1.0  0.45521  0.16273  0.93017  1.0000
  C   C39       1.0  0.48199  0.09380  0.79126  1.0000
  Fe  Fe4       1.0  0.40337  0.03180  0.97809  1.0000
  C   C40       1.0  0.45420  0.17377  0.86826  1.0000
  Fe  Fe5       1.0  0.40881  0.07804  0.97294  1.0000
  C   C41       1.0  0.45290  0.15765  0.89234  1.0000
  S   S8        1.0  0.39663  0.10315  0.95830  1.0000
  S   S9        1.0  0.44319  0.08931  0.97731  1.0000
  C   C42       1.0  0.45760  0.03325  0.82003  1.0000
  H   H43       1.0  0.46327  0.21376  0.92818  1.0000
  N   N4        1.0  0.47282  0.23464  0.73517  1.0000
  C   C43       1.0  0.41074  0.16495  0.97213  1.0000
  H   H44       1.0  0.47400  0.23702  0.79403  1.0000
  C   C44       1.0  0.46333  0.08944  0.77232  1.0000
  H   H45       1.0  0.48634  0.16816  0.52429  1.0000
  H   H46       1.0  0.44718  0.10651  0.89458  1.0000
  C   C45       1.0  0.46349  0.08007  0.84716  1.0000
  C   C46       1.0  0.44485  0.07662  0.82874  1.0000
  C   C47       1.0  0.44480  0.08114  0.79143  1.0000
  S   S10       1.0  0.43797  0.04159  0.98037  1.0000
  H   H47       1.0  0.43046  0.06972  0.84281  1.0000
  H   H48       1.0  0.43027  0.07772  0.77707  1.0000
  H   H49       1.0  0.46259  0.14544  0.82515  1.0000
  C   C48       1.0  0.33272  0.14777  0.96548  1.0000
  H   H50       1.0  0.43004  0.03009  0.79020  1.0000
  C   C49       1.0  0.40431  0.14479  0.95716  1.0000
  C   C50       1.0  0.44984  0.12208  0.90626  1.0000
  C   C51       1.0  0.40607  0.12856  0.97730  1.0000
  C   C52       1.0  0.45614  0.03766  0.75498  1.0000
  H   H51       1.0  0.42406  0.11204  0.85043  1.0000
  H   H52       1.0  0.48290  0.18851  0.54912  1.0000
  C   C53       1.0  0.47492  0.04628  0.68550  1.0000
  S   S11       1.0  0.38903  0.99608  0.98505  1.0000
  C   C54       1.0  0.42780  0.12798  0.86133  1.0000
  H   H53       1.0  0.39778  0.14176  0.92990  1.0000
  H   H54       1.0  0.45937  0.20167  0.68394  1.0000
  H   H55       1.0  0.41591  0.12717  0.88182  1.0000
  H   H56       1.0  0.45384  0.15146  0.95074  1.0000
  H   H57       1.0  0.46505  0.23591  0.67850  1.0000
  H   H58       1.0  0.45010  0.03053  0.84615  1.0000
  H   H59       1.0  0.46878  0.17176  0.68211  1.0000
  C   C55       1.0  0.48202  0.08893  0.82831  1.0000
  C   C56       1.0  0.46403  0.13713  0.84987  1.0000
  C   C57       1.0  0.33795  0.16879  0.97263  1.0000
  N   N5        1.0  0.44878  0.13658  0.87796  1.0000
  C   C58       1.0  0.45899  0.18278  0.94273  1.0000
  H   H60       1.0  0.40925  0.17723  0.95632  1.0000
  C   C59       1.0  0.47737  0.21565  0.73346  1.0000
  H   H61       1.0  0.46210  0.12138  0.84021  1.0000
  C   C60       1.0  0.45801  0.19377  0.88117  1.0000
  H   H62       1.0  0.46042  0.18632  0.97168  1.0000
  C   C61       1.0  0.46930  0.20033  0.70560  1.0000
  H   H63       1.0  0.37112  0.23024  0.96933  1.0000
  H   H64       1.0  0.47261  0.18248  0.50362  1.0000
  C   C62       1.0  0.34436  0.13748  0.98077  1.0000
  H   H65       1.0  0.45902  0.20596  0.86250  1.0000
  H   H66       1.0  0.32861  0.17615  0.95983  1.0000
  C   C63       1.0  0.44635  0.03306  0.78847  1.0000
  H   H67       1.0  0.46748  0.05775  0.68838  1.0000
  C   C64       1.0  0.46043  0.19825  0.91831  1.0000
  C   C65       1.0  0.46355  0.23619  0.77060  1.0000
  H   H68       1.0  0.34051  0.12125  0.97482  1.0000
  H   H69       1.0  0.44897  0.22275  0.77461  1.0000
  H   H70       1.0  0.42597  0.13735  0.83841  1.0000
  H   H71       1.0  0.44328  0.22281  0.70722  1.0000
  H   H72       1.0  0.46522  0.12754  0.92015  1.0000
  C   C66       1.0  0.48817  0.18047  0.72990  1.0000
  C   C67       1.0  0.47459  0.18298  0.70416  1.0000
  H   H73       1.0  0.43771  0.11962  0.92692  1.0000
  H   H74       1.0  0.44657  0.03800  0.73197  1.0000
  S   S12       1.0  0.42033  0.23736  0.95800  1.0000
  H   H75       1.0  0.31969  0.13942  0.94771  1.0000
  H   H76       1.0  0.37702  0.20925  0.95091  1.0000
  H   H77       1.0  0.46269  0.03068  0.68180  1.0000
  C   C68       1.0  0.45846  0.23581  0.70598  1.0000
  C   C69       1.0  0.36520  0.21314  0.96586  1.0000
  H   H78       1.0  0.48007  0.14462  0.86084  1.0000
  H   H79       1.0  0.35132  0.20890  0.94789  1.0000
  C   C70       1.0  0.47768  0.04235  0.75216  1.0000
  C   C71       1.0  0.47872  0.03798  0.81830  1.0000
  H   H80       1.0  0.48747  0.03879  0.84321  1.0000
  C   C72       1.0  0.48866  0.04238  0.78493  1.0000
  H   H81       1.0  0.48749  0.01640  0.70954  1.0000
  Fe  Fe6       1.0  0.48971  0.10956  0.68831  1.0000
  N   N6        1.0  0.48865  0.04726  0.71723  1.0000
  C   C73       1.0  0.35510  0.18019  0.99539  1.0000
  H   H82       1.0  0.40563  0.46968  0.42699  1.0000
  S   S13       1.0  0.16045  0.47363  0.29215  1.0000
  Fe  Fe7       1.0  0.20475  0.45469  0.30629  1.0000
  S   S14       1.0  0.17229  0.43594  0.32205  1.0000
  S   S15       1.0  0.22897  0.44263  0.32252  1.0000
  Fe  Fe8       1.0  0.16391  0.44551  0.26752  1.0000
  S   S16       1.0  0.13918  0.42476  0.22807  1.0000
  Fe  Fe9       1.0  0.17247  0.46594  0.34470  1.0000
  H   H83       1.0  0.30476  0.41424  0.45986  1.0000
  S   S17       1.0  0.19659  0.46212  0.25048  1.0000
  C   C74       1.0  0.19123  0.36195  0.13724  1.0000
  Fe  Fe10      1.0  0.33795  0.47045  0.28117  1.0000
  S   S18       1.0  0.32235  0.43751  0.29652  1.0000
  H   H84       1.0  0.40024  0.39241  0.09257  1.0000
  H   H85       1.0  0.46793  0.31724  0.29277  1.0000
  S   S19       1.0  0.36733  0.43710  0.31574  1.0000
  Fe  Fe11      1.0  0.34718  0.43225  0.26511  1.0000
  S   S20       1.0  0.33571  0.40421  0.22681  1.0000
  Fe  Fe12      1.0  0.34382  0.44598  0.34503  1.0000
  S   S21       1.0  0.33009  0.43987  0.40132  1.0000
  S   S22       1.0  0.36169  0.46492  0.24663  1.0000
  H   H86       1.0  0.99215  0.29345  0.06395  1.0000
  C   C75       1.0  0.17369  0.37430  0.18275  1.0000
  C   C76       1.0  0.40007  0.35423  0.02754  1.0000
  H   H87       1.0  0.48146  0.33370  0.24033  1.0000
  H   H88       1.0  0.24692  0.39234  0.44927  1.0000
  C   C77       1.0  0.17496  0.48957  0.13974  1.0000
  N   N7        1.0  0.23991  0.47034  0.42924  1.0000
  N   N8        1.0  0.15625  0.48554  0.16179  1.0000
  S   S23       1.0  0.33988  0.40991  0.05395  1.0000
  C   C78       1.0  0.15932  0.36612  0.12174  1.0000
  H   H89       1.0  0.48481  0.32530  0.33169  1.0000
  S   S24       1.0  0.15330  0.40718  0.06183  1.0000
  C   C79       1.0  0.40641  0.32637  0.05683  1.0000
  N   N9        1.0  0.29147  0.43843  0.17629  1.0000
  H   H90       1.0  0.44647  0.34824  0.30498  1.0000
  H   H91       1.0  0.23580  0.43900  0.41650  1.0000
  C   C80       1.0  0.25537  0.42160  0.14820  1.0000
  H   H92       1.0  0.37463  0.49068  0.40875  1.0000
  H   H93       1.0  0.35680  0.28102  0.03034  1.0000
  H   H94       1.0  0.16170  0.37184  0.04733  1.0000
  C   C81       1.0  0.40931  0.33968  0.02784  1.0000
  S   S25       1.0  0.35793  0.47935  0.33131  1.0000
  C   C82       1.0  0.23797  0.42973  0.21163  1.0000
  H   H95       1.0  0.30320  0.46155  0.32391  1.0000
  H   H96       1.0  0.22412  0.40922  0.12688  1.0000
  C   C83       1.0  0.39451  0.32775  0.08602  1.0000
  H   H97       1.0  0.40670  0.48348  0.48672  1.0000
  C   C84       1.0  0.26871  0.43128  0.17815  1.0000
  C   C85       1.0  0.46782  0.28018  0.13692  1.0000
  C   C86       1.0  0.46737  0.28232  0.17503  1.0000
  H   H98       1.0  0.14321  0.33712  0.06691  1.0000
  H   H99       1.0  0.45359  0.27393  0.12120  1.0000
  S   S26       1.0  0.48415  0.29330  0.24361  1.0000
  H   H100      1.0  0.29822  0.43977  0.23416  1.0000
  H   H101      1.0  0.31740  0.46747  0.17573  1.0000
  C   C87       1.0  0.33692  0.40595  0.17876  1.0000
  C   C88       1.0  0.32543  0.38866  0.15703  1.0000
  C   C89       1.0  0.32599  0.38955  0.11873  1.0000
  C   C90       1.0  0.33823  0.40774  0.10186  1.0000
  C   C91       1.0  0.34984  0.42493  0.12361  1.0000
  C   C92       1.0  0.34914  0.42409  0.16182  1.0000
  H   H102      1.0  0.31599  0.37453  0.16993  1.0000
  H   H103      1.0  0.31700  0.37619  0.10233  1.0000
  H   H104      1.0  0.35946  0.43903  0.11081  1.0000
  H   H105      1.0  0.35824  0.43744  0.17815  1.0000
  C   C93       1.0  0.36407  0.44001  0.44066  1.0000
  C   C94       1.0  0.34605  0.44417  0.44051  1.0000
  C   C95       1.0  0.33973  0.45059  0.47291  1.0000
  H   H106      1.0  0.36894  0.43482  0.41590  1.0000
  S   S27       1.0  0.11863  0.35309  0.01031  1.0000
  C   C96       1.0  0.14335  0.41953  0.18211  1.0000
  C   C97       1.0  0.12639  0.40802  0.15966  1.0000
  C   C98       1.0  0.12905  0.40394  0.12279  1.0000
  C   C99       1.0  0.14874  0.41147  0.10797  1.0000
  C   C100      1.0  0.16568  0.42296  0.13044  1.0000
  C   C101      1.0  0.16305  0.42686  0.16732  1.0000
  H   H107      1.0  0.11109  0.40225  0.17086  1.0000
  H   H108      1.0  0.11588  0.39508  0.10583  1.0000
  H   H109      1.0  0.18098  0.42877  0.11926  1.0000
  H   H110      1.0  0.17628  0.43553  0.18423  1.0000
  C   C102      1.0  0.40881  0.48150  0.40569  1.0000
  H   H111      1.0  0.45845  0.32236  0.33517  1.0000
  C   C103      1.0  0.38538  0.34241  0.08625  1.0000
  C   C104      1.0  0.25383  0.45688  0.30741  1.0000
  C   C105      1.0  0.27043  0.45316  0.32274  1.0000
  C   C106      1.0  0.29044  0.46388  0.31079  1.0000
  H   H112      1.0  0.17800  0.36485  0.01840  1.0000
  S   S28       1.0  0.16324  0.47476  0.39949  1.0000
  H   H113      1.0  0.21600  0.44675  0.39838  1.0000
  C   C107      1.0  0.35471  0.35933  0.05696  1.0000
  C   C108      1.0  0.38209  0.38460  0.02533  1.0000
  C   C109      1.0  0.16923  0.46481  0.44016  1.0000
  C   C110      1.0  0.17419  0.44727  0.43988  1.0000
  H   H114      1.0  0.41816  0.33817  0.00475  1.0000
  H   H115      1.0  0.17403  0.43929  0.41443  1.0000
  C   C111      1.0  0.25929  0.43516  0.20989  1.0000
  C   C112      1.0  0.16905  0.47475  0.47351  1.0000
  H   H116      1.0  0.20920  0.36169  0.06867  1.0000
  H   H117      1.0  0.45526  0.34161  0.26326  1.0000
  H   H118      1.0  0.21796  0.48273  0.40855  1.0000
  C   C113      1.0  0.02672  0.34147  0.04988  1.0000
  S   S29       1.0  0.30929  0.35217  0.01055  1.0000
  H   H119      1.0  0.16499  0.48818  0.47404  1.0000
  H   H120      1.0  0.11901  0.49163  0.15073  1.0000
  C   C114      1.0  0.38784  0.35609  0.05695  1.0000
  H   H121      1.0  0.23126  0.43301  0.23627  1.0000
  C   C115      1.0  0.30003  0.43188  0.20884  1.0000
  H   H122      1.0  0.20435  0.35797  0.13143  1.0000
  H   H123      1.0  0.37599  0.34264  0.10918  1.0000
  C   C116      1.0  0.27738  0.48185  0.26746  1.0000
  C   C117      1.0  0.23402  0.41633  0.15015  1.0000
  H   H124      1.0  0.15779  0.32802  0.03706  1.0000
  H   H125      1.0  0.16352  0.46460  0.19644  1.0000
  H   H126      1.0  0.14563  0.37726  0.16513  1.0000
  C   C118      1.0  0.24404  0.40069  0.47205  1.0000
  H   H127      1.0  0.26838  0.44280  0.23353  1.0000
  C   C119      1.0  0.27350  0.47310  0.46058  1.0000
  H   H128      1.0  0.26785  0.44198  0.34399  1.0000
  H   H129      1.0  0.29269  0.41495  0.21265  1.0000
  C   C120      1.0  0.46025  0.35201  0.28755  1.0000
  C   C121      1.0  0.48573  0.29053  0.19585  1.0000
  C   C122      1.0  0.17576  0.36035  0.11057  1.0000
  H   H130      1.0  0.28022  0.40466  0.43861  1.0000
  H   H131      1.0  0.40228  0.36337  0.00341  1.0000
  Fe  Fe13      1.0  0.32365  0.38676  0.00862  1.0000
  C   C123      1.0  0.19464  0.34796  0.06519  1.0000
  H   H132      1.0  0.26041  0.46803  0.38735  1.0000
  H   H133      1.0  0.31587  0.43572  0.14395  1.0000
  H   H134      1.0  0.37417  0.39574  0.02664  1.0000
  C   C124      1.0  0.15833  0.37289  0.15732  1.0000
  H   H135      1.0  0.17308  0.49061  0.21292  1.0000
  H   H136      1.0  0.39205  0.31713  0.10824  1.0000
  H   H137      1.0  0.29262  0.41336  0.14290  1.0000
  C   C125      1.0  0.22537  0.42047  0.18172  1.0000
  C   C126      1.0  0.47196  0.32773  0.31699  1.0000
  C   C127      1.0  0.48113  0.36178  0.34195  1.0000
  N   N10       1.0  0.37729  0.37087  0.05719  1.0000
  H   H138      1.0  0.26106  0.41815  0.12283  1.0000
  H   H139      1.0  0.19439  0.34232  0.03669  1.0000
  H   H140      1.0  0.41301  0.31463  0.05613  1.0000
  H   H141      1.0  0.21292  0.39425  0.45290  1.0000
  C   C128      1.0  0.19010  0.36883  0.17276  1.0000
  H   H142      1.0  0.29053  0.43075  0.45554  1.0000
  H   H143      1.0  0.18216  0.42586  0.47232  1.0000
  C   C129      1.0  0.99308  0.34253  0.06083  1.0000
  C   C130      1.0  0.25239  0.47819  0.39636  1.0000
  H   H144      1.0  0.18900  0.38419  0.05349  1.0000
  H   H145      1.0  0.29469  0.43628  0.11802  1.0000
  C   C131      1.0  0.17886  0.43973  0.47272  1.0000
  H   H146      1.0  0.39759  0.47454  0.38288  1.0000
  C   C132      1.0  0.22652  0.44852  0.42230  1.0000
  C   C133      1.0  0.30022  0.46122  0.17528  1.0000
  C   C134      1.0  0.01861  0.32024  0.05421  1.0000
  Fe  Fe14      1.0  0.46171  0.26931  0.03047  1.0000
  H   H147      1.0  0.04280  0.34923  0.04298  1.0000
  C   C135      1.0  0.48668  0.28651  0.11919  1.0000
  C   C136      1.0  0.37540  0.44182  0.47332  1.0000
  C   C137      1.0  0.25271  0.47169  0.46229  1.0000
  H   H148      1.0  0.46442  0.36808  0.27811  1.0000
  H   H149      1.0  0.46722  0.35634  0.35927  1.0000
  C   C138      1.0  0.17633  0.36917  0.04701  1.0000
  H   H150      1.0  0.37796  0.37545  0.11571  1.0000
  C   C139      1.0  0.99774  0.31000  0.06164  1.0000
  C   C140      1.0  0.36347  0.29114  0.00805  1.0000
  H   H151      1.0  0.45268  0.27766  0.18837  1.0000
  C   C141      1.0  0.28907  0.41473  0.46143  1.0000
  H   H152      1.0  0.15670  0.32185  0.08455  1.0000
  C   C142      1.0  0.22667  0.48251  0.43396  1.0000
  H   H153      1.0  0.21681  0.44179  0.44606  1.0000
  H   H154      1.0  0.24264  0.47863  0.37245  1.0000
  C   C143      1.0  0.38322  0.38422  0.09039  1.0000
  N   N11       1.0  0.47780  0.34967  0.30737  1.0000
  H   H155      1.0  0.28098  0.47309  0.43509  1.0000
  C   C144      1.0  0.28534  0.47463  0.49223  1.0000
  H   H156      1.0  0.37616  0.39609  0.09034  1.0000
  C   C145      1.0  0.15772  0.33422  0.06512  1.0000
  H   H157      1.0  0.19523  0.33538  0.08274  1.0000
  Fe  Fe15      1.0  0.19360  0.48966  0.27805  1.0000
  H   H158      1.0  0.34948  0.34974  0.08140  1.0000
  H   H159      1.0  0.29559  0.46826  0.19916  1.0000
  H   H160      1.0  0.20203  0.36996  0.19272  1.0000
  H   H161      1.0  0.24458  0.47478  0.26878  1.0000
  Fe  Fe16      1.0  0.38018  0.47031  0.29900  1.0000
  S   S30       1.0  0.42930  0.24984  0.04446  1.0000
  H   H162      1.0  0.20888  0.41666  0.18296  1.0000
  H   H163      1.0  0.32602  0.45418  0.47289  1.0000
  S   S31       1.0  0.48817  0.28480  0.07119  1.0000
  H   H164      1.0  0.17765  0.47516  0.13377  1.0000
  H   H165      1.0  0.02040  0.36909  0.04933  1.0000
  H   H166      1.0  0.17285  0.37970  0.21023  1.0000
  Fe  Fe17      1.0  0.13420  0.38770  0.01392  1.0000
  H   H167      1.0  0.31694  0.43574  0.20686  1.0000
  N   N12       1.0  0.17628  0.35305  0.07276  1.0000
  H   H168      1.0  0.13513  0.47261  0.11664  1.0000
  H   H169      1.0  0.14715  0.36565  0.10289  1.0000
  H   H170      1.0  0.14611  0.47511  0.21547  1.0000
  C   C146      1.0  0.29388  0.47753  0.28206  1.0000
  C   C147      1.0  0.29877  0.43050  0.14382  1.0000
  C   C148      1.0  0.25734  0.47167  0.28044  1.0000
  H   H171      1.0  0.39889  0.39386  0.02378  1.0000
  C   C149      1.0  0.01399  0.35259  0.05320  1.0000
  H   H172      1.0  0.38914  0.43823  0.47351  1.0000
  H   H173      1.0  0.02849  0.31161  0.05062  1.0000
  H   H174      1.0  0.34623  0.36996  0.05647  1.0000
  C   C150      1.0  0.15993  0.47871  0.19820  1.0000
  H   H175      1.0  0.29491  0.46693  0.15057  1.0000
  H   H176      1.0  0.48483  0.37839  0.33694  1.0000
  H   H177      1.0  0.34971  0.34886  0.03264  1.0000
  S   S32       1.0  0.20545  0.48400  0.33192  1.0000
  H   H178      1.0  0.14331  0.45452  0.13934  1.0000
  C   C151      1.0  0.24428  0.47056  0.49751  1.0000
  S   S33       1.0  0.39060  0.27081  0.00488  1.0000
  H   H179      1.0  0.26400  0.49404  0.40100  1.0000
  H   H180      1.0  0.30124  0.47596  0.49038  1.0000
  H   H181      1.0  0.28001  0.49266  0.24557  1.0000
  H   H182      1.0  0.21455  0.47595  0.45442  1.0000
  H   H183      1.0  0.46207  0.24853  0.23649  1.0000
  H   H184      1.0  0.42443  0.48428  0.39502  1.0000
  H   H185      1.0  0.38096  0.48426  0.45237  1.0000
  S   S34       1.0  0.41430  0.48765  0.30832  1.0000
  C   C152      1.0  0.22443  0.40155  0.47398  1.0000
  S   S35       1.0  0.31835  0.48775  0.26253  1.0000
  H   H186      1.0  0.34176  0.30646  0.01159  1.0000
  C   C153      1.0  0.13916  0.46822  0.14380  1.0000
  H   H187      1.0  0.12515  0.46268  0.16084  1.0000
  H   H188      1.0  0.26707  0.37606  0.48098  1.0000
  C   C154      1.0  0.25940  0.40998  0.49939  1.0000
  N   N13       1.0  0.27978  0.40816  0.49749  1.0000
  C   C155      1.0  0.38029  0.31735  0.95071  1.0000
  S   S36       1.0  0.15368  0.44935  0.63087  1.0000
  Fe  Fe18      1.0  0.20955  0.47588  0.66689  1.0000
  S   S37       1.0  0.19584  0.44251  0.65064  1.0000
  H   H189      1.0  0.99069  0.31334  0.85002  1.0000
  Fe  Fe19      1.0  0.18306  0.45337  0.60209  1.0000
  S   S38       1.0  0.18627  0.44050  0.54630  1.0000
  Fe  Fe20      1.0  0.16813  0.44191  0.68111  1.0000
  S   S39       1.0  0.15153  0.41471  0.71725  1.0000
  N   N14       1.0  0.12107  0.46540  0.74233  1.0000
  S   S40       1.0  0.18274  0.47465  0.70095  1.0000
  Fe  Fe21      1.0  0.32958  0.45681  0.62913  1.0000
  S   S41       1.0  0.33999  0.43048  0.62131  1.0000
  S   S42       1.0  0.29763  0.45057  0.60719  1.0000
  H   H190      1.0  0.10737  0.48023  0.70499  1.0000
  S   S43       1.0  0.38475  0.46105  0.65292  1.0000
  Fe  Fe22      1.0  0.36832  0.45440  0.59851  1.0000
  S   S44       1.0  0.38323  0.44997  0.54645  1.0000
  Fe  Fe23      1.0  0.35499  0.43974  0.67669  1.0000
  S   S45       1.0  0.35596  0.41676  0.71937  1.0000
  H   H191      1.0  0.46062  0.49030  0.68234  1.0000
  S   S46       1.0  0.34236  0.46439  0.68618  1.0000
  C   C156      1.0  0.22579  0.42067  0.81983  1.0000
  H   H192      1.0  0.19983  0.37089  0.96105  1.0000
  S   S47       1.0  0.29905  0.38973  0.97175  1.0000
  H   H193      1.0  0.99139  0.29647  0.88602  1.0000
  C   C157      1.0  0.36879  0.44780  0.50588  1.0000
  H   H194      1.0  0.36612  0.46884  0.77294  1.0000
  C   C158      1.0  0.01723  0.32868  0.96215  1.0000
  Fe  Fe24      1.0  0.45359  0.25782  0.94862  1.0000
  S   S48       1.0  0.47030  0.25562  0.89637  1.0000
  C   C159      1.0  0.10325  0.47002  0.72905  1.0000
  Fe  Fe25      1.0  0.31839  0.38708  0.92484  1.0000
  S   S49       1.0  0.30428  0.35253  0.92153  1.0000
  S   S50       1.0  0.31916  0.40899  0.87883  1.0000
  C   C160      1.0  0.03271  0.30354  0.96958  1.0000
  H   H195      1.0  0.13390  0.46517  0.68928  1.0000
  H   H196      1.0  0.26988  0.38072  0.52925  1.0000
  H   H197      1.0  0.17612  0.30486  0.96350  1.0000
  S   S51       1.0  0.15610  0.38938  0.96870  1.0000
  C   C161      1.0  0.38063  0.28968  0.99024  1.0000
  Fe  Fe26      1.0  0.13205  0.39162  0.93005  1.0000
  S   S52       1.0  0.11659  0.35734  0.92113  1.0000
  S   S53       1.0  0.14323  0.41782  0.88954  1.0000
  S   S54       1.0  0.06024  0.34505  0.96700  1.0000
  H   H198      1.0  0.40397  0.44814  0.72342  1.0000
  H   H199      1.0  0.45546  0.25032  0.70823  1.0000
  C   C162      1.0  0.35098  0.45232  0.50550  1.0000
  C   C163      1.0  0.37983  0.47199  0.75560  1.0000
  S   S55       1.0  0.45251  0.28447  0.98295  1.0000
  H   H200      1.0  0.31030  0.41985  0.52253  1.0000
  H   H201      1.0  0.46006  0.25044  0.77274  1.0000
  C   C164      1.0  0.10076  0.43130  0.77048  1.0000
  H   H202      1.0  0.18953  0.37993  0.86074  1.0000
  C   C165      1.0  0.17407  0.46739  0.50631  1.0000
  Fe  Fe27      1.0  0.28588  0.35531  0.97005  1.0000
  S   S56       1.0  0.35300  0.33751  0.95356  1.0000
  S   S57       1.0  0.15890  0.33514  0.95899  1.0000
  Fe  Fe28      1.0  0.13986  0.35548  0.96312  1.0000
  S   S58       1.0  0.11123  0.39268  0.97561  1.0000
  H   H203      1.0  0.04620  0.29965  0.97248  1.0000
  H   H204      1.0  0.23583  0.37150  0.96703  1.0000
  C   C166      1.0  0.19684  0.39109  0.84003  1.0000
  C   C167      1.0  0.99475  0.29226  0.96655  1.0000
  C   C168      1.0  0.10287  0.42553  0.83486  1.0000
  C   C169      1.0  0.41639  0.46306  0.72607  1.0000
  C   C170      1.0  0.17902  0.44983  0.50603  1.0000
  C   C171      1.0  0.29486  0.42077  0.52560  1.0000
  H   H205      1.0  0.24970  0.47238  0.55536  1.0000
  H   H206      1.0  0.22482  0.40578  0.87115  1.0000
  C   C172      1.0  0.11491  0.45200  0.77443  1.0000
  C   C173      1.0  0.47847  0.27275  0.85935  1.0000
  C   C174      1.0  0.46857  0.28598  0.84961  1.0000
  C   C175      1.0  0.47439  0.29787  0.81798  1.0000
  C   C176      1.0  0.40157  0.48891  0.80644  1.0000
  H   H207      1.0  0.45618  0.28678  0.86601  1.0000
  H   H208      1.0  0.46647  0.30788  0.81048  1.0000
  Fe  Fe29      1.0  0.41972  0.26334  0.99501  1.0000
  H   H209      1.0  0.23526  0.46390  0.62533  1.0000
  C   C177      1.0  0.34526  0.41449  0.76335  1.0000
  C   C178      1.0  0.34759  0.40005  0.78740  1.0000
  C   C179      1.0  0.33977  0.39813  0.82290  1.0000
  C   C180      1.0  0.32963  0.41079  0.83475  1.0000
  C   C181      1.0  0.32734  0.42527  0.81072  1.0000
  C   C182      1.0  0.33500  0.42706  0.77517  1.0000
  H   H210      1.0  0.35551  0.39025  0.77852  1.0000
  H   H211      1.0  0.34163  0.38690  0.84106  1.0000
  H   H212      1.0  0.31943  0.43507  0.81961  1.0000
  H   H213      1.0  0.33292  0.43811  0.75690  1.0000
  S   S59       1.0  0.25100  0.33663  0.97127  1.0000
  C   C183      1.0  0.20908  0.31987  0.96769  1.0000
  C   C184      1.0  0.49017  0.29673  0.79578  1.0000
  H   H214      1.0  0.19436  0.43993  0.74467  1.0000
  C   C185      1.0  0.18529  0.33775  0.96197  1.0000
  C   C186      1.0  0.14948  0.41582  0.76523  1.0000
  C   C187      1.0  0.15810  0.43434  0.78500  1.0000
  C   C188      1.0  0.15655  0.43451  0.82311  1.0000
  C   C189      1.0  0.14618  0.41626  0.84191  1.0000
  C   C190      1.0  0.13762  0.39772  0.82218  1.0000
  C   C191      1.0  0.13925  0.39753  0.78401  1.0000
  H   H215      1.0  0.16584  0.44857  0.77105  1.0000
  H   H216      1.0  0.16309  0.44893  0.83816  1.0000
  H   H217      1.0  0.12945  0.38360  0.83628  1.0000
  H   H218      1.0  0.13249  0.38313  0.76895  1.0000
  H   H219      1.0  0.21602  0.46327  0.74032  1.0000
  H   H220      1.0  0.38258  0.48660  0.74106  1.0000
  H   H221      1.0  0.30607  0.47760  0.67156  1.0000
  C   C192      1.0  0.28273  0.46149  0.63136  1.0000
  C   C193      1.0  0.26264  0.45746  0.61894  1.0000
  C   C194      1.0  0.25041  0.46649  0.63621  1.0000
  H   H222      1.0  0.37564  0.45950  0.73462  1.0000
  C   C195      1.0  0.38899  0.30298  0.96146  1.0000
  H   H223      1.0  0.25656  0.44750  0.59559  1.0000
  H   H224      1.0  0.09901  0.41524  0.85777  1.0000
  H   H225      1.0  0.38688  0.32739  0.92826  1.0000
  Fe  Fe30      1.0  0.17032  0.48235  0.64897  1.0000
  H   H226      1.0  0.41586  0.49124  0.82255  1.0000
  C   C196      1.0  0.41590  0.47788  0.75235  1.0000
  N   N15       1.0  0.25147  0.35996  0.86024  1.0000
  C   C197      1.0  0.26056  0.37512  0.89025  1.0000
  C   C198      1.0  0.22997  0.34713  0.87003  1.0000
  C   C199      1.0  0.26303  0.34606  0.85784  1.0000
  C   C200      1.0  0.25301  0.37100  0.82564  1.0000
  C   C201      1.0  0.23544  0.37068  0.80537  1.0000
  C   C202      1.0  0.27261  0.38270  0.81135  1.0000
  C   C203      1.0  0.23755  0.38099  0.77241  1.0000
  C   C204      1.0  0.27454  0.39284  0.77833  1.0000
  C   C205      1.0  0.25705  0.39191  0.75879  1.0000
  H   H227      1.0  0.25251  0.38602  0.89298  1.0000
  H   H228      1.0  0.25972  0.36743  0.91680  1.0000
  H   H229      1.0  0.27714  0.38442  0.88615  1.0000
  H   H230      1.0  0.22069  0.35666  0.87572  1.0000
  H   H231      1.0  0.22951  0.33829  0.89516  1.0000
  H   H232      1.0  0.22214  0.33549  0.84835  1.0000
  H   H233      1.0  0.25744  0.33508  0.83439  1.0000
  H   H234      1.0  0.27986  0.35460  0.85467  1.0000
  H   H235      1.0  0.26144  0.33688  0.88299  1.0000
  H   H236      1.0  0.21990  0.36252  0.81429  1.0000
  H   H237      1.0  0.28668  0.38407  0.82559  1.0000
  H   H238      1.0  0.22393  0.38034  0.75724  1.0000
  H   H239      1.0  0.28975  0.40134  0.76777  1.0000
  H   H240      1.0  0.25870  0.39961  0.73297  1.0000
  N   N16       1.0  0.22342  0.43798  0.76022  1.0000
  C   C206      1.0  0.22457  0.42900  0.72395  1.0000
  C   C207      1.0  0.20948  0.44943  0.75741  1.0000
  C   C208      1.0  0.24437  0.45310  0.76986  1.0000
  C   C209      1.0  0.21509  0.42142  0.78704  1.0000
  C   C210      1.0  0.19514  0.40594  0.78163  1.0000
  C   C211      1.0  0.18620  0.39109  0.80781  1.0000
  S   S60       1.0  0.34413  0.38725  0.96180  1.0000
  H   H241      1.0  0.23447  0.41981  0.72497  1.0000
  H   H242      1.0  0.34585  0.45710  0.53037  1.0000
  S   S61       1.0  0.35708  0.48028  0.60312  1.0000
  Fe  Fe31      1.0  0.37133  0.48524  0.65920  1.0000
  H   H243      1.0  0.25018  0.46521  0.74889  1.0000
  H   H244      1.0  0.24444  0.46140  0.79588  1.0000
  H   H245      1.0  0.18595  0.40564  0.75759  1.0000
  H   H246      1.0  0.17062  0.37991  0.80355  1.0000
  C   C212      1.0  0.25793  0.47909  0.66695  1.0000
  H   H247      1.0  0.01879  0.34453  0.95944  1.0000
  H   H248      1.0  0.13293  0.47452  0.81626  1.0000
  C   C213      1.0  0.43246  0.46747  0.70143  1.0000
  C   C214      1.0  0.12222  0.45907  0.81032  1.0000
  C   C215      1.0  0.01273  0.28780  0.96992  1.0000
  H   H249      1.0  0.01124  0.27198  0.97296  1.0000
  H   H250      1.0  0.20649  0.45471  0.78467  1.0000
  H   H251      1.0  0.24103  0.43171  0.82641  1.0000
  C   C216      1.0  0.11623  0.44592  0.83993  1.0000
  C   C217      1.0  0.21666  0.40572  0.84587  1.0000
  H   H252      1.0  0.09418  0.42488  0.74428  1.0000
  H   H253      1.0  0.26421  0.42705  0.55137  1.0000
  H   H254      1.0  0.43225  0.45599  0.68120  1.0000
  C   C218      1.0  0.36317  0.31884  0.96854  1.0000
  H   H255      1.0  0.40783  0.45276  0.80932  1.0000
  C   C219      1.0  0.13844  0.48530  0.75008  1.0000
  H   H256      1.0  0.08489  0.40229  0.79641  1.0000
  H   H257      1.0  0.15220  0.48276  0.76099  1.0000
  C   C220      1.0  0.44841  0.48675  0.70198  1.0000
  H   H258      1.0  0.38849  0.43983  0.77535  1.0000
  H   H259      1.0  0.17401  0.47522  0.53181  1.0000
  N   N17       1.0  0.39824  0.47316  0.77711  1.0000
  S   S62       1.0  0.19869  0.48696  0.61663  1.0000
  H   H260      1.0  0.29719  0.43734  0.52413  1.0000
  Fe  Fe32      1.0  0.32904  0.35258  0.96212  1.0000
  H   H261      1.0  0.29001  0.41548  0.55366  1.0000
  S   S63       1.0  0.24191  0.48919  0.68985  1.0000
  C   C221      1.0  0.22621  0.33844  0.96868  1.0000
  C   C222      1.0  0.09508  0.41825  0.80024  1.0000
  H   H262      1.0  0.99574  0.29053  0.84043  1.0000
  C   C223      1.0  0.29048  0.47430  0.66193  1.0000
  Fe  Fe33      1.0  0.09641  0.35782  0.96886  1.0000
  H   H263      1.0  0.28618  0.47607  0.55080  1.0000
  H   H264      1.0  0.12262  0.45125  0.86691  1.0000
  C   C224      1.0  0.27689  0.47467  0.52630  1.0000
  H   H265      1.0  0.20916  0.41887  0.71299  1.0000
  H   H266      1.0  0.23114  0.44122  0.70342  1.0000
  C   C225      1.0  0.18899  0.31953  0.96424  1.0000
  H   H267      1.0  0.25580  0.44560  0.77174  1.0000
  C   C226      1.0  0.39389  0.45306  0.79492  1.0000
  H   H268      1.0  0.38855  0.48433  0.82577  1.0000
  C   C227      1.0  0.23400  0.42047  0.53077  1.0000
  H   H269      1.0  0.40208  0.30212  0.94727  1.0000
  C   C228      1.0  0.03524  0.32423  0.96591  1.0000
  H   H270      1.0  0.09773  0.47788  0.75060  1.0000
  C   C229      1.0  0.22280  0.35698  0.96625  1.0000
  H   H271      1.0  0.09005  0.45580  0.72059  1.0000
  C   C230      1.0  0.20236  0.35664  0.96292  1.0000
  H   H272      1.0  0.48956  0.26746  0.73213  1.0000
  C   C231      1.0  0.25373  0.41985  0.52902  1.0000
  H   H273      1.0  0.22981  0.42793  0.55363  1.0000
  H   H274      1.0  0.38127  0.44960  0.81495  1.0000
  C   C232      1.0  0.25639  0.47260  0.52887  1.0000
  H   H275      1.0  0.21134  0.30546  0.96932  1.0000
  C   C233      1.0  0.12764  0.45484  0.71260  1.0000
  H   H276      1.0  0.20413  0.41178  0.50531  1.0000
  C   C234      1.0  0.27800  0.48301  0.67989  1.0000
  C   C235      1.0  0.21943  0.41138  0.50336  1.0000
  H   H277      1.0  0.13975  0.44943  0.72245  1.0000
  C   C236      1.0  0.99722  0.31293  0.96254  1.0000
  H   H278      1.0  0.11488  0.44124  0.70093  1.0000
  H   H279      1.0  0.37675  0.37566  0.99938  1.0000
  H   H280      1.0  0.28394  0.49289  0.70358  1.0000
  S   S64       1.0  0.46527  0.24453  0.99537  1.0000
  C   C237      1.0  0.35489  0.30564  0.99750  1.0000
  H   H281      1.0  0.22822  0.46793  0.50145  1.0000
  C   C238      1.0  0.27707  0.38636  0.50262  1.0000
  H   H282      1.0  0.29211  0.38434  0.50208  1.0000
  Fe  Fe34      1.0  0.19053  0.65061  0.34738  1.0000
  S   S65       1.0  0.20542  0.62835  0.33276  1.0000
  S   S66       1.0  0.19637  0.66488  0.40434  1.0000
  Fe  Fe35      1.0  0.17905  0.65474  0.26623  1.0000
  S   S67       1.0  0.19309  0.63263  0.24662  1.0000
  S   S68       1.0  0.16947  0.67474  0.22735  1.0000
  Fe  Fe36      1.0  0.17803  0.61416  0.29518  1.0000
  S   S69       1.0  0.15972  0.57999  0.29389  1.0000
  Fe  Fe37      1.0  0.21887  0.64910  0.28610  1.0000
  S   S70       1.0  0.25219  0.66207  0.27063  1.0000
  S   S71       1.0  0.16195  0.63518  0.31269  1.0000
  S   S72       1.0  0.20582  0.67232  0.30287  1.0000
  S   S73       1.0  0.20668  0.52136  0.25424  1.0000
  C   C239      1.0  0.22532  0.72395  0.06531  1.0000
  H   H283      1.0  0.44368  0.53680  0.42454  1.0000
  H   H284      1.0  0.00571  0.58323  0.05029  1.0000
  S   S74       1.0  0.13894  0.64136  0.06671  1.0000
  H   H285      1.0  0.25002  0.73803  0.27977  1.0000
  H   H286      1.0  0.21195  0.53497  0.41973  1.0000
  C   C240      1.0  0.20259  0.54902  0.35755  1.0000
  C   C241      1.0  0.25552  0.68711  0.32953  1.0000
  C   C242      1.0  0.28994  0.71929  0.30368  1.0000
  C   C243      1.0  0.44176  0.55596  0.28029  1.0000
  C   C244      1.0  0.42114  0.54411  0.27099  1.0000
  C   C245      1.0  0.41250  0.52311  0.27953  1.0000
  C   C246      1.0  0.42458  0.51384  0.29687  1.0000
  C   C247      1.0  0.44516  0.52571  0.30623  1.0000
  C   C248      1.0  0.45368  0.54675  0.29826  1.0000
  H   H287      1.0  0.41184  0.55115  0.25707  1.0000
  H   H288      1.0  0.39660  0.51406  0.27229  1.0000
  H   H289      1.0  0.45456  0.51860  0.31967  1.0000
  H   H290      1.0  0.46956  0.55575  0.30554  1.0000
  C   C249      1.0  0.16104  0.66548  0.18264  1.0000
  C   C250      1.0  0.15564  0.67795  0.15811  1.0000
  C   C251      1.0  0.14878  0.67083  0.12243  1.0000
  C   C252      1.0  0.14743  0.65124  0.11101  1.0000
  C   C253      1.0  0.15289  0.63888  0.13550  1.0000
  C   C254      1.0  0.15966  0.64594  0.17110  1.0000
  H   H291      1.0  0.15650  0.69303  0.16693  1.0000
  H   H292      1.0  0.14430  0.68038  0.10401  1.0000
  H   H293      1.0  0.15183  0.62368  0.12695  1.0000
  H   H294      1.0  0.16361  0.63613  0.18972  1.0000
  C   C255      1.0  0.18451  0.65108  0.44323  1.0000
  H   H295      1.0  0.27483  0.67546  0.45099  1.0000
  C   C256      1.0  0.16586  0.63409  0.44087  1.0000
  C   C257      1.0  0.13198  0.50501  0.15996  1.0000
  H   H296      1.0  0.15861  0.62872  0.41455  1.0000
  C   C258      1.0  0.17271  0.56410  0.28036  1.0000
  C   C259      1.0  0.19328  0.57231  0.26964  1.0000
  C   C260      1.0  0.20353  0.55907  0.26095  1.0000
  C   C261      1.0  0.19335  0.53768  0.26356  1.0000
  C   C262      1.0  0.17272  0.52958  0.27369  1.0000
  C   C263      1.0  0.16239  0.54273  0.28173  1.0000
  H   H297      1.0  0.20132  0.58883  0.26837  1.0000
  H   H298      1.0  0.21948  0.56545  0.25288  1.0000
  H   H299      1.0  0.16453  0.51319  0.27475  1.0000
  H   H300      1.0  0.14638  0.53634  0.28946  1.0000
  C   C264      1.0  0.26449  0.68438  0.29720  1.0000
  C   C265      1.0  0.28210  0.70027  0.28479  1.0000
  H   H301      1.0  0.28922  0.69811  0.25996  1.0000
  H   H302      1.0  0.19868  0.58040  0.49686  1.0000
  C   C266      1.0  0.16359  0.54095  0.18517  1.0000
  C   C267      1.0  0.19360  0.65805  0.47761  1.0000
  C   C268      1.0  0.22704  0.72759  0.40712  1.0000
  H   H303      1.0  0.47527  0.65745  0.25178  1.0000
  H   H304      1.0  0.21992  0.73928  0.40454  1.0000
  H   H305      1.0  0.43263  0.60824  0.23803  1.0000
  C   C269      1.0  0.24103  0.72691  0.09217  1.0000
  H   H306      1.0  0.19252  0.67941  0.02525  1.0000
  H   H307      1.0  0.20624  0.71037  0.27191  1.0000
  H   H308      1.0  0.19009  0.67620  0.08909  1.0000
  H   H309      1.0  0.23989  0.71569  0.11268  1.0000
  C   C270      1.0  0.18204  0.59086  0.41535  1.0000
  C   C271      1.0  0.28001  0.72238  0.33469  1.0000
  N   N18       1.0  0.44327  0.63917  0.26133  1.0000
  C   C272      1.0  0.44814  0.63219  0.29694  1.0000
  C   C273      1.0  0.44345  0.62418  0.23259  1.0000
  C   C274      1.0  0.46010  0.65910  0.25341  1.0000
  C   C275      1.0  0.42265  0.64041  0.26266  1.0000
  C   C276      1.0  0.40491  0.62243  0.26866  1.0000
  C   C277      1.0  0.41952  0.65920  0.25880  1.0000
  C   C278      1.0  0.38525  0.62314  0.27008  1.0000
  C   C279      1.0  0.39977  0.65973  0.26036  1.0000
  C   C280      1.0  0.38268  0.64175  0.26588  1.0000
  H   H310      1.0  0.29075  0.69909  0.40087  1.0000
  H   H311      1.0  0.21363  0.70848  0.49107  1.0000
  S   S75       1.0  0.45232  0.58220  0.26902  1.0000
  C   C281      1.0  0.41936  0.49808  0.48353  1.0000
  H   H312      1.0  0.45888  0.62310  0.23050  1.0000
  H   H313      1.0  0.43924  0.62850  0.20552  1.0000
  C   C282      1.0  0.18194  0.57380  0.39516  1.0000
  H   H314      1.0  0.45755  0.66527  0.22684  1.0000
  H   H315      1.0  0.46185  0.67085  0.27520  1.0000
  H   H316      1.0  0.40616  0.60765  0.27242  1.0000
  H   H317      1.0  0.43205  0.67374  0.25467  1.0000
  H   H318      1.0  0.37193  0.60916  0.27451  1.0000
  H   H319      1.0  0.39772  0.67422  0.25734  1.0000
  H   H320      1.0  0.36741  0.64226  0.26702  1.0000
  S   S76       1.0  0.11769  0.68208  0.02520  1.0000
  H   H321      1.0  0.17719  0.57279  0.36682  1.0000
  H   H322      1.0  0.00714  0.61676  0.14900  1.0000
  H   H323      1.0  0.38450  0.51044  0.44352  1.0000
  N   N19       1.0  0.06968  0.63264  0.08946  1.0000
  C   C283      1.0  0.07880  0.62675  0.05703  1.0000
  C   C284      1.0  0.07312  0.65476  0.08636  1.0000
  C   C285      1.0  0.08115  0.62994  0.12195  1.0000
  C   C286      1.0  0.04734  0.62048  0.09308  1.0000
  C   C287      1.0  0.03569  0.60512  0.06722  1.0000
  C   C288      1.0  0.03644  0.62419  0.12292  1.0000
  H   H324      1.0  0.14092  0.55474  0.18439  1.0000
  C   C289      1.0  0.01519  0.61351  0.12623  1.0000
  C   C290      1.0  0.22476  0.74177  0.17893  1.0000
  H   H325      1.0  0.07728  0.61039  0.05785  1.0000
  H   H326      1.0  0.07162  0.62937  0.03134  1.0000
  H   H327      1.0  0.09561  0.63609  0.05534  1.0000
  H   H328      1.0  0.06489  0.65743  0.06193  1.0000
  H   H329      1.0  0.08976  0.66443  0.08390  1.0000
  H   H330      1.0  0.06768  0.66086  0.11041  1.0000
  H   H331      1.0  0.07808  0.61335  0.12625  1.0000
  H   H332      1.0  0.09816  0.63799  0.11914  1.0000
  H   H333      1.0  0.07704  0.63622  0.14722  1.0000
  H   H334      1.0  0.04251  0.60111  0.04368  1.0000
  H   H335      1.0  0.04423  0.63558  0.14371  1.0000
  C   C291      1.0  0.01444  0.59458  0.07076  1.0000
  C   C292      1.0  0.29275  0.70482  0.42879  1.0000
  C   C293      1.0  0.18790  0.71061  0.06489  1.0000
  H   H336      1.0  0.24246  0.67464  0.34010  1.0000
  H   H337      1.0  0.31054  0.73596  0.41407  1.0000
  H   H338      1.0  0.42638  0.51791  0.37608  1.0000
  C   C294      1.0  0.16763  0.52877  0.37408  1.0000
  H   H339      1.0  0.39960  0.50882  0.36634  1.0000
  H   H340      1.0  0.41068  0.53025  0.39721  1.0000
  H   H341      1.0  0.21744  0.68428  0.09074  1.0000
  H   H342      1.0  0.17574  0.55482  0.19569  1.0000
  C   C295      1.0  0.24362  0.71137  0.44718  1.0000
  H   H343      1.0  0.19847  0.55040  0.46312  1.0000
  C   C296      1.0  0.22559  0.70335  0.21285  1.0000
  H   H344      1.0  0.15137  0.55913  0.49634  1.0000
  H   H345      1.0  0.14151  0.61166  0.47079  1.0000
  H   H346      1.0  0.17333  0.69678  0.06255  1.0000
  H   H347      1.0  0.18554  0.51924  0.43112  1.0000
  H   H348      1.0  0.20447  0.69682  0.11929  1.0000
  H   H349      1.0  0.16748  0.51551  0.35683  1.0000
  S   S77       1.0  0.48360  0.61230  0.35039  1.0000
  H   H350      1.0  0.20332  0.72505  0.46719  1.0000
  H   H351      1.0  0.23603  0.49870  0.44223  1.0000
  C   C297      1.0  0.19604  0.52687  0.40866  1.0000
  H   H352      1.0  0.21461  0.73773  0.26613  1.0000
  C   C298      1.0  0.19381  0.56124  0.44854  1.0000
  N   N20       1.0  0.23059  0.72307  0.23332  1.0000
  H   H353      1.0  0.22121  0.68995  0.23133  1.0000
  H   H354      1.0  0.18839  0.60667  0.46722  1.0000
  C   C299      1.0  0.42216  0.50906  0.45053  1.0000
  H   H355      1.0  0.15666  0.52230  0.39651  1.0000
  H   H356      1.0  0.11288  0.52302  0.16167  1.0000
  H   H357      1.0  0.24677  0.70814  0.47569  1.0000
  H   H358      1.0  0.20372  0.53633  0.34022  1.0000
  H   H359      1.0  0.23906  0.70328  0.19718  1.0000
  C   C300      1.0  0.15616  0.62450  0.47278  1.0000
  H   H360      1.0  0.25879  0.71857  0.43384  1.0000
  C   C301      1.0  0.18810  0.59324  0.45186  1.0000
  H   H361      1.0  0.46394  0.63208  0.29773  1.0000
  N   N21       1.0  0.23184  0.72499  0.44585  1.0000
  H   H362      1.0  0.19856  0.71989  0.23237  1.0000
  C   C302      1.0  0.16754  0.52307  0.17920  1.0000
  H   H363      1.0  0.18286  0.52377  0.18597  1.0000
  N   N22       1.0  0.18862  0.54106  0.38853  1.0000
  C   C303      1.0  0.26306  0.70613  0.34788  1.0000
  C   C304      1.0  0.19390  0.57843  0.46845  1.0000
  H   H364      1.0  0.44732  0.64256  0.31956  1.0000
  C   C305      1.0  0.18807  0.55855  0.41098  1.0000
  H   H365      1.0  0.24026  0.71064  0.28044  1.0000
  C   C306      1.0  0.43987  0.52764  0.44874  1.0000
  H   H366      1.0  0.43764  0.61621  0.30304  1.0000
  H   H367      1.0  0.19650  0.51416  0.39063  1.0000
  H   H368      1.0  0.21842  0.55887  0.36710  1.0000
  C   C307      1.0  0.00420  0.59883  0.10005  1.0000
  H   H369      1.0  0.21776  0.73868  0.01814  1.0000
  H   H370      1.0  0.16128  0.53798  0.35690  1.0000
  H   H371      1.0  0.24084  0.73221  0.38970  1.0000
  H   H372      1.0  0.19722  0.55848  0.33920  1.0000
  H   H373      1.0  0.25550  0.70821  0.37203  1.0000
  C   C308      1.0  0.21176  0.72285  0.25167  1.0000
  C   C309      1.0  0.41125  0.51521  0.38873  1.0000
  C   C310      1.0  0.12820  0.52300  0.16622  1.0000
  C   C311      1.0  0.20468  0.69006  0.09183  1.0000
  C   C312      1.0  0.38603  0.49643  0.43166  1.0000
  H   H374      1.0  0.20815  0.67095  0.47973  1.0000
  N   N23       1.0  0.20633  0.70509  0.06270  1.0000
  H   H375      1.0  0.18712  0.72082  0.04261  1.0000
  H   H376      1.0  0.17759  0.60244  0.40238  1.0000
  C   C313      1.0  0.23778  0.74053  0.20799  1.0000
  C   C314      1.0  0.14395  0.54091  0.17890  1.0000
  H   H377      1.0  0.30322  0.73168  0.29359  1.0000
  C   C315      1.0  0.21180  0.71454  0.46400  1.0000
  H   H378      1.0  0.21619  0.71287  0.39449  1.0000
  H   H379      1.0  0.20148  0.70078  0.44816  1.0000
  C   C316      1.0  0.30395  0.72558  0.43627  1.0000
  H   H380      1.0  0.23511  0.69631  0.43308  1.0000
  C   C317      1.0  0.15189  0.50454  0.16620  1.0000
  Fe  Fe38      1.0  0.13224  0.65882  0.02003  1.0000
  H   H381      1.0  0.26043  0.72361  0.25018  1.0000
  C   C318      1.0  0.45353  0.53484  0.47847  1.0000
  C   C319      1.0  0.20574  0.69452  0.02726  1.0000
  H   H382      1.0  0.21223  0.70002  0.19384  1.0000
  H   H383      1.0  0.46706  0.54892  0.47628  1.0000
  Fe  Fe39      1.0  0.48360  0.60054  0.29369  1.0000
  C   C320      1.0  0.24604  0.72403  0.26205  1.0000
  C   C321      1.0  0.28658  0.69891  0.49314  1.0000
  H   H384      1.0  0.18773  0.71877  0.09094  1.0000
  S   S78       1.0  0.16056  0.73334  0.00120  1.0000
  H   H385      1.0  0.22010  0.69152  0.02324  1.0000
  C   C322      1.0  0.30667  0.73312  0.47210  1.0000
  H   H386      1.0  0.20956  0.73001  0.17473  1.0000
  C   C323      1.0  0.22881  0.73988  0.03972  1.0000
  H   H387      1.0  0.48879  0.73220  0.31362  1.0000
  C   C324      1.0  0.28387  0.69156  0.45710  1.0000
  H   H388      1.0  0.20398  0.70371  0.00389  1.0000
  H   H389      1.0  0.17356  0.49653  0.11330  1.0000
  N   N24       1.0  0.40741  0.50086  0.41962  1.0000
  H   H390      1.0  0.18924  0.50004  0.15392  1.0000
  H   H391      1.0  0.48469  0.70342  0.35519  1.0000
  Fe  Fe40      1.0  0.16813  0.63180  0.60129  1.0000
  S   S79       1.0  0.20105  0.63547  0.60879  1.0000
  S   S80       1.0  0.15229  0.61985  0.54683  1.0000
  Fe  Fe41      1.0  0.16548  0.64659  0.68013  1.0000
  S   S81       1.0  0.19848  0.65145  0.69284  1.0000
  S   S82       1.0  0.14608  0.65761  0.71827  1.0000
  Fe  Fe42      1.0  0.20514  0.66513  0.63740  1.0000
  S   S83       1.0  0.22913  0.69539  0.62095  1.0000
  Fe  Fe43      1.0  0.19107  0.62108  0.66303  1.0000
  S   S84       1.0  0.20405  0.59770  0.68134  1.0000
  S   S85       1.0  0.17271  0.66250  0.62626  1.0000
  S   S86       1.0  0.15751  0.61518  0.65390  1.0000
  C   C325      1.0  0.28610  0.73352  0.65172  1.0000
  H   H392      1.0  0.12934  0.56496  0.50880  1.0000
  S   S87       1.0  0.39028  0.51654  0.68368  1.0000
  H   H393      1.0  0.28223  0.69516  0.71012  1.0000
  H   H394      1.0  0.22833  0.73598  0.71365  1.0000
  H   H395      1.0  0.47653  0.64585  0.55929  1.0000
  C   C326      1.0  0.09092  0.62813  0.75969  1.0000
  H   H396      1.0  0.40547  0.58755  0.57452  1.0000
  Fe  Fe44      1.0  0.13306  0.66149  0.93676  1.0000
  S   S88       1.0  0.14270  0.64578  0.88986  1.0000
  S   S89       1.0  0.11871  0.68540  0.93680  1.0000
  H   H397      1.0  0.04271  0.63033  0.89655  1.0000
  H   H398      1.0  0.48959  0.62690  0.51521  1.0000
  H   H399      1.0  0.21270  0.59823  0.58700  1.0000
  C   C327      1.0  0.41693  0.52597  0.67547  1.0000
  C   C328      1.0  0.42993  0.54414  0.69320  1.0000
  C   C329      1.0  0.45113  0.55244  0.68606  1.0000
  C   C330      1.0  0.45945  0.54252  0.66130  1.0000
  C   C331      1.0  0.44649  0.52428  0.64379  1.0000
  C   C332      1.0  0.42526  0.51609  0.65064  1.0000
  H   H400      1.0  0.42356  0.55181  0.71249  1.0000
  H   H401      1.0  0.46108  0.56636  0.70004  1.0000
  H   H402      1.0  0.45287  0.51649  0.62471  1.0000
  C   C333      1.0  0.14510  0.56640  0.51768  1.0000
  C   C334      1.0  0.14644  0.65525  0.76617  1.0000
  C   C335      1.0  0.15468  0.64216  0.78276  1.0000
  C   C336      1.0  0.15364  0.63975  0.82072  1.0000
  C   C337      1.0  0.14478  0.65069  0.84261  1.0000
  C   C338      1.0  0.13711  0.66430  0.82618  1.0000
  C   C339      1.0  0.13774  0.66638  0.78806  1.0000
  H   H403      1.0  0.16142  0.63352  0.76628  1.0000
  H   H404      1.0  0.15959  0.62917  0.83319  1.0000
  H   H405      1.0  0.13018  0.67274  0.84267  1.0000
  H   H406      1.0  0.13116  0.67641  0.77542  1.0000
  C   C340      1.0  0.16662  0.52913  0.65979  1.0000
  C   C341      1.0  0.18753  0.53593  0.66944  1.0000
  C   C342      1.0  0.19877  0.55697  0.67666  1.0000
  C   C343      1.0  0.18927  0.57131  0.67375  1.0000
  C   C344      1.0  0.16826  0.56439  0.66475  1.0000
  C   C345      1.0  0.15693  0.54331  0.65820  1.0000
  H   H407      1.0  0.19511  0.52507  0.67096  1.0000
  H   H408      1.0  0.21499  0.56222  0.68388  1.0000
  H   H409      1.0  0.16075  0.57525  0.66319  1.0000
  H   H410      1.0  0.14066  0.53796  0.65162  1.0000
  C   C346      1.0  0.25298  0.70536  0.64408  1.0000
  C   C347      1.0  0.25860  0.69449  0.67111  1.0000
  H   H411      1.0  0.24809  0.67925  0.67821  1.0000
  H   H412      1.0  0.14546  0.58382  0.58397  1.0000
  H   H413      1.0  0.33464  0.73569  0.53788  1.0000
  H   H414      1.0  0.43553  0.55740  0.61064  1.0000
  H   H415      1.0  0.19100  0.65415  0.53577  1.0000
  C   C348      1.0  0.04812  0.62778  0.86916  1.0000
  H   H416      1.0  0.09667  0.62646  0.73305  1.0000
  C   C349      1.0  0.01916  0.63930  0.98695  1.0000
  H   H417      1.0  0.20782  0.70502  0.67913  1.0000
  H   H418      1.0  0.41562  0.55688  0.57826  1.0000
  H   H419      1.0  0.07275  0.66461  0.89964  1.0000
  H   H420      1.0  0.11478  0.53349  0.54309  1.0000
  C   C350      1.0  0.27790  0.70347  0.68905  1.0000
  H   H421      1.0  0.09754  0.63891  0.89667  1.0000
  H   H422      1.0  0.02012  0.65492  0.99133  1.0000
  C   C351      1.0  0.03563  0.61534  0.97473  1.0000
  H   H423      1.0  0.27140  0.72868  0.54452  1.0000
  H   H424      1.0  0.07154  0.64331  0.73964  1.0000
  C   C352      1.0  0.45363  0.58613  0.55637  1.0000
  H   H425      1.0  0.18322  0.69046  0.79364  1.0000
  H   H426      1.0  0.44958  0.62737  0.60155  1.0000
  C   C353      1.0  0.13075  0.53501  0.55060  1.0000
  C   C354      1.0  0.19399  0.70491  0.69368  1.0000
  N   N25       1.0  0.07079  0.63829  0.86626  1.0000
  C   C355      1.0  0.01609  0.59894  0.97568  1.0000
  C   C356      1.0  0.20164  0.58281  0.58111  1.0000
  Fe  Fe45      1.0  0.09683  0.66501  0.97826  1.0000
  H   H427      1.0  0.06791  0.66711  0.85271  1.0000
  C   C357      1.0  0.07016  0.64066  0.79806  1.0000
  H   H428      1.0  0.40250  0.50393  0.79530  1.0000
  C   C358      1.0  0.19294  0.54613  0.58033  1.0000
  S   S90       1.0  0.31558  0.73474  0.70237  1.0000
  H   H429      1.0  0.41537  0.50221  0.63655  1.0000
  C   C359      1.0  0.08042  0.63115  0.89665  1.0000
  C   C360      1.0  0.07638  0.66077  0.87167  1.0000
  C   C361      1.0  0.18396  0.64845  0.50944  1.0000
  C   C362      1.0  0.07745  0.63414  0.82992  1.0000
  H   H430      1.0  0.47776  0.68474  0.70327  1.0000
  S   S91       1.0  0.15633  0.67713  0.98115  1.0000
  H   H431      1.0  0.13581  0.56039  0.60810  1.0000
  H   H432      1.0  0.24818  0.68505  0.75284  1.0000
  H   H433      1.0  0.26235  0.73334  0.61391  1.0000
  H   H434      1.0  0.41507  0.60770  0.60845  1.0000
  H   H435      1.0  0.05941  0.64836  0.79968  1.0000
  C   C363      1.0  0.43781  0.59154  0.64630  1.0000
  H   H436      1.0  0.12041  0.56574  0.57316  1.0000
  H   H437      1.0  0.13566  0.52651  0.52927  1.0000
  H   H438      1.0  0.45201  0.58833  0.65118  1.0000
  H   H439      1.0  0.42641  0.58297  0.66693  1.0000
  H   H440      1.0  0.44181  0.60819  0.65236  1.0000
  C   C364      1.0  0.13631  0.56711  0.58080  1.0000
  H   H441      1.0  0.39876  0.58246  0.62148  1.0000
  C   C365      1.0  0.03737  0.63574  0.98052  1.0000
  H   H442      1.0  0.09825  0.61880  0.84734  1.0000
  C   C366      1.0  0.48834  0.66815  0.66370  1.0000
  H   H443      1.0  0.17393  0.72481  0.72931  1.0000
  H   H444      1.0  0.46048  0.51691  0.72662  1.0000
  C   C367      1.0  0.21440  0.73521  0.72871  1.0000
  N   N26       1.0  0.30181  0.72812  0.53970  1.0000
  N   N27       1.0  0.42975  0.58551  0.60864  1.0000
  H   H445      1.0  0.04324  0.61086  0.86468  1.0000
  S   S92       1.0  0.47715  0.64417  0.68452  1.0000
  N   N28       1.0  0.19898  0.71386  0.73096  1.0000
  H   H446      1.0  0.41064  0.55487  0.62579  1.0000
  C   C368      1.0  0.18155  0.57978  0.56987  1.0000
  H   H447      1.0  0.12981  0.52705  0.57699  1.0000
  C   C369      1.0  0.45443  0.61839  0.58229  1.0000
  C   C370      1.0  0.17985  0.71503  0.74604  1.0000
  C   C371      1.0  0.45004  0.52385  0.51065  1.0000
  H   H448      1.0  0.28080  0.70208  0.56887  1.0000
  C   C372      1.0  0.41150  0.59107  0.60299  1.0000
  Fe  Fe46      1.0  0.14101  0.70000  0.98383  1.0000
  S   S93       1.0  0.15233  0.50312  0.64848  1.0000
  S   S94       1.0  0.06161  0.65736  0.97936  1.0000
  C   C373      1.0  0.99965  0.62290  0.98807  1.0000
  H   H449      1.0  0.19722  0.53306  0.58572  1.0000
  H   H450      1.0  0.17792  0.59335  0.56633  1.0000
  C   C374      1.0  0.46914  0.59710  0.53241  1.0000
  H   H451      1.0  0.18244  0.72164  0.77418  1.0000
  C   C375      1.0  0.07692  0.63778  0.76354  1.0000
  H   H452      1.0  0.15461  0.58316  0.51815  1.0000
  C   C376      1.0  0.19760  0.69020  0.78388  1.0000
  H   H453      1.0  0.23002  0.66609  0.80642  1.0000
  N   N29       1.0  0.14499  0.55693  0.55357  1.0000
  H   H454      1.0  0.10920  0.61394  0.78716  1.0000
  C   C377      1.0  0.20730  0.56602  0.58644  1.0000
  C   C378      1.0  0.46992  0.62916  0.55821  1.0000
  C   C379      1.0  0.42264  0.56272  0.60548  1.0000
  H   H455      1.0  0.07628  0.61420  0.89532  1.0000
  H   H456      1.0  0.01506  0.58329  0.97132  1.0000
  H   H457      1.0  0.18305  0.68860  0.69444  1.0000
  S   S95       1.0  0.11030  0.64068  0.97571  1.0000
  H   H458      1.0  0.29163  0.73138  0.77404  1.0000
  H   H459      1.0  0.16228  0.52701  0.56686  1.0000
  C   C380      1.0  0.29753  0.71178  0.56736  1.0000
  H   H460      1.0  0.09317  0.66932  0.86756  1.0000
  C   C381      1.0  0.44585  0.59651  0.58228  1.0000
  C   C382      1.0  0.20753  0.70121  0.75280  1.0000
  C   C383      1.0  0.20580  0.67785  0.80302  1.0000
  C   C384      1.0  0.17272  0.54288  0.56954  1.0000
  C   C385      1.0  0.29862  0.71990  0.50183  1.0000
  H   H461      1.0  0.29627  0.73579  0.82181  1.0000
  H   H462      1.0  0.30204  0.71836  0.59532  1.0000
  H   H463      1.0  0.23430  0.70672  0.71874  1.0000
  C   C386      1.0  0.16634  0.55970  0.56433  1.0000
  H   H464      1.0  0.30629  0.70174  0.56190  1.0000
  C   C387      1.0  0.44831  0.50173  0.72709  1.0000
  H   H465      1.0  0.47519  0.58896  0.51330  1.0000
  C   C388      1.0  0.09147  0.62402  0.82493  1.0000
  H   H466      1.0  0.44832  0.56956  0.55447  1.0000
  H   H467      1.0  0.07523  0.63463  0.92354  1.0000
  C   C389      1.0  0.29166  0.72310  0.67944  1.0000
  C   C390      1.0  0.26672  0.72488  0.63466  1.0000
  C   C391      1.0  0.23423  0.68680  0.76186  1.0000
  H   H468      1.0  0.22266  0.56841  0.59652  1.0000
  H   H469      1.0  0.03958  0.63343  0.84911  1.0000
  S   S96       1.0  0.48596  0.55242  0.65212  1.0000
  H   H470      1.0  0.16718  0.69956  0.74627  1.0000
  H   H471      1.0  0.46072  0.52940  0.53356  1.0000
  C   C392      1.0  0.99788  0.60248  0.98254  1.0000
  C   C393      1.0  0.22616  0.69919  0.74253  1.0000
  C   C394      1.0  0.09796  0.62106  0.79025  1.0000
  H   H472      1.0  0.27915  0.68788  0.51373  1.0000
  H   H473      1.0  0.19768  0.66923  0.82616  1.0000
  H   H474      1.0  0.04928  0.61211  0.96961  1.0000
  C   C395      1.0  0.22401  0.67607  0.79196  1.0000
  H   H475      1.0  0.18673  0.71336  0.67648  1.0000
  C   C396      1.0  0.47730  0.61853  0.53340  1.0000
  H   H476      1.0  0.48825  0.66756  0.75319  1.0000
  H   H477      1.0  0.27173  0.73338  0.80267  1.0000
  H   H478      1.0  0.43037  0.49671  0.53799  1.0000
  H   H479      1.0  0.21944  0.74204  0.75636  1.0000
  H   H480      1.0  0.43291  0.51008  0.76964  1.0000
  C   C397      1.0  0.28788  0.73924  0.54607  1.0000
  C   C398      1.0  0.43229  0.49753  0.75181  1.0000
  C   C399      1.0  0.43300  0.50548  0.51313  1.0000
  H   H481      1.0  0.18594  0.73703  0.93624  1.0000
  C   C400      1.0  0.48743  0.68597  0.68005  1.0000
  C   C401      1.0  0.28863  0.73973  0.79800  1.0000
  H   H482      1.0  0.23137  0.73805  0.51812  1.0000
  C   C402      1.0  0.16506  0.63180  0.50718  1.0000
  C   C403      1.0  0.32345  0.74269  0.54603  1.0000
  H   H483      1.0  0.13411  0.49518  0.76956  1.0000
  H   H484      1.0  0.14346  0.49461  0.72511  1.0000
  H   H485      1.0  0.49006  0.66854  0.80147  1.0000
  Fe  Fe47      1.0  0.31762  0.77039  0.33846  1.0000
  S   S97       1.0  0.32216  0.80361  0.34709  1.0000
  C   C404      1.0  0.37605  0.80964  0.14350  1.0000
  Fe  Fe48      1.0  0.36139  0.78093  0.31238  1.0000
  S   S98       1.0  0.36911  0.81481  0.31946  1.0000
  S   S99       1.0  0.38387  0.76735  0.29109  1.0000
  Fe  Fe49      1.0  0.35251  0.80656  0.37233  1.0000
  S   S100      1.0  0.36678  0.82391  0.42439  1.0000
  Fe  Fe50      1.0  0.33811  0.80845  0.29313  1.0000
  S   S101      1.0  0.33552  0.83105  0.25117  1.0000
  S   S102      1.0  0.34698  0.77304  0.36714  1.0000
  S   S103      1.0  0.33123  0.77488  0.28266  1.0000
  H   H486      1.0  0.43944  0.78383  0.47998  1.0000
  H   H487      1.0  0.27844  0.78573  0.19101  1.0000
  C   C405      1.0  0.26970  0.78277  0.49783  1.0000
  S   S104      1.0  0.31146  0.81229  0.08317  1.0000
  S   S105      1.0  0.47949  0.82246  0.29352  1.0000
  H   H488      1.0  0.36401  0.80209  0.08859  1.0000
  C   C406      1.0  0.21494  0.78341  0.00134  1.0000
  H   H489      1.0  0.35937  0.83489  0.07984  1.0000
  C   C407      1.0  0.23097  0.75834  0.15515  1.0000
  C   C408      1.0  0.32306  0.79207  0.49556  1.0000
  C   C409      1.0  0.32764  0.82525  0.20497  1.0000
  C   C410      1.0  0.32653  0.84099  0.18273  1.0000
  C   C411      1.0  0.32114  0.83725  0.14551  1.0000
  C   C412      1.0  0.31701  0.81774  0.13016  1.0000
  C   C413      1.0  0.31782  0.80192  0.15252  1.0000
  C   C414      1.0  0.32298  0.80560  0.18977  1.0000
  H   H490      1.0  0.32998  0.85621  0.19431  1.0000
  H   H491      1.0  0.32050  0.84953  0.12862  1.0000
  H   H492      1.0  0.31462  0.78677  0.14085  1.0000
  H   H493      1.0  0.32343  0.79324  0.20658  1.0000
  C   C415      1.0  0.41050  0.78255  0.29331  1.0000
  C   C416      1.0  0.41768  0.80319  0.30469  1.0000
  C   C417      1.0  0.43886  0.81526  0.30461  1.0000
  C   C418      1.0  0.45310  0.80665  0.29408  1.0000
  C   C419      1.0  0.44602  0.78593  0.28317  1.0000
  C   C420      1.0  0.42475  0.77398  0.28247  1.0000
  H   H494      1.0  0.40698  0.80990  0.31370  1.0000
  H   H495      1.0  0.44426  0.83124  0.31338  1.0000
  H   H496      1.0  0.45689  0.77917  0.27492  1.0000
  H   H497      1.0  0.40082  0.83270  0.26082  1.0000
  C   C421      1.0  0.33380  0.79894  0.46334  1.0000
  C   C422      1.0  0.35318  0.81487  0.46465  1.0000
  S   S106      1.0  0.33351  0.85715  0.00600  1.0000
  H   H498      1.0  0.32701  0.79211  0.43741  1.0000
  H   H499      1.0  0.31516  0.74943  0.47605  1.0000
  H   H500      1.0  0.48550  0.83468  0.17312  1.0000
  H   H501      1.0  0.27079  0.74688  0.11390  1.0000
  H   H502      1.0  0.18932  0.76965  0.03712  1.0000
  C   C423      1.0  0.26176  0.76017  0.06786  1.0000
  C   C424      1.0  0.25745  0.75683  0.21156  1.0000
  H   H503      1.0  0.41294  0.97787  0.10632  1.0000
  C   C425      1.0  0.36848  0.81362  0.11028  1.0000
  H   H504      1.0  0.24901  0.76972  0.02135  1.0000
  C   C426      1.0  0.42979  0.79000  0.49482  1.0000
  H   H505      1.0  0.25515  0.78692  0.14100  1.0000
  H   H506      1.0  0.22079  0.75906  0.13318  1.0000
  C   C427      1.0  0.27256  0.77895  0.46146  1.0000
  H   H507      1.0  0.37742  0.79747  0.25059  1.0000
  C   C428      1.0  0.38123  0.82418  0.17282  1.0000
  N   N30       1.0  0.38878  0.81936  0.20799  1.0000
  C   C429      1.0  0.37238  0.80152  0.22406  1.0000
  H   H508      1.0  0.26846  0.75739  0.23280  1.0000
  C   C430      1.0  0.24672  0.75771  0.04117  1.0000
  H   H509      1.0  0.39697  0.98135  0.07022  1.0000
  H   H510      1.0  0.28464  0.79042  0.44637  1.0000
  C   C431      1.0  0.26050  0.76019  0.44474  1.0000
  H   H511      1.0  0.48803  0.85618  0.24378  1.0000
  C   C432      1.0  0.19595  0.76814  0.01136  1.0000
  H   H512      1.0  0.40679  0.85072  0.22464  1.0000
  H   H513      1.0  0.39206  0.98599  0.11612  1.0000
  C   C433      1.0  0.25897  0.74478  0.09319  1.0000
  H   H514      1.0  0.22264  0.79650  0.01925  1.0000
  C   C434      1.0  0.37077  0.84673  0.13340  1.0000
  C   C435      1.0  0.39465  0.83661  0.23510  1.0000
  H   H515      1.0  0.41373  0.81129  0.22867  1.0000
  C   C436      1.0  0.25030  0.77408  0.15948  1.0000
  H   H516      1.0  0.41932  0.75801  0.27368  1.0000
  H   H517      1.0  0.41544  0.79388  0.44459  1.0000
  H   H518      1.0  0.41946  0.82659  0.18832  1.0000
  H   H519      1.0  0.26423  0.75781  0.41705  1.0000
  H   H520      1.0  0.40350  0.79958  0.18616  1.0000
  C   C437      1.0  0.36592  0.83216  0.10521  1.0000
  H   H521      1.0  0.48764  0.86880  0.20165  1.0000
  C   C438      1.0  0.40468  0.98776  0.09688  1.0000
  C   C439      1.0  0.37814  0.84283  0.16689  1.0000
  S   S107      1.0  0.28460  0.84620  0.02768  1.0000
  C   C440      1.0  0.41606  0.79576  0.47398  1.0000
  H   H522      1.0  0.27564  0.77405  0.06883  1.0000
  H   H523      1.0  0.30809  0.77993  0.49415  1.0000
  H   H524      1.0  0.36776  0.78742  0.20659  1.0000
  H   H525      1.0  0.36792  0.86075  0.12976  1.0000
  C   C441      1.0  0.40322  0.80418  0.49064  1.0000
  C   C442      1.0  0.26348  0.77331  0.18759  1.0000
  C   C443      1.0  0.40715  0.81403  0.20237  1.0000
  H   H526      1.0  0.38106  0.84029  0.24304  1.0000
  H   H527      1.0  0.35838  0.80498  0.22892  1.0000
  Fe  Fe51      1.0  0.30869  0.83239  0.03650  1.0000
  H   H528      1.0  0.37731  0.79485  0.14637  1.0000
  H   H529      1.0  0.38062  0.85440  0.18800  1.0000
  H   H530      1.0  0.48807  0.82579  0.21760  1.0000
  S   S108      1.0  0.28750  0.74655  0.35647  1.0000
  H   H531      1.0  0.39274  0.80875  0.47420  1.0000
  C   C444      1.0  0.36187  0.82359  0.49849  1.0000
  C   C445      1.0  0.24447  0.74494  0.46363  1.0000
  Fe  Fe52      1.0  0.33337  0.79642  0.62393  1.0000
  S   S109      1.0  0.35141  0.77657  0.63488  1.0000
  S   S110      1.0  0.31711  0.79167  0.56891  1.0000
  Fe  Fe53      1.0  0.33717  0.81143  0.70467  1.0000
  S   S111      1.0  0.35548  0.79249  0.72058  1.0000
  S   S112      1.0  0.32327  0.82715  0.74492  1.0000
  Fe  Fe54      1.0  0.37215  0.80357  0.66838  1.0000
  S   S113      1.0  0.40668  0.81749  0.66247  1.0000
  Fe  Fe55      1.0  0.33266  0.76761  0.68531  1.0000
  H   H532      1.0  0.29152  0.75795  0.73404  1.0000
  S   S114      1.0  0.35522  0.82429  0.65423  1.0000
  S   S115      1.0  0.31345  0.78595  0.67271  1.0000
  S   S116      1.0  0.46003  0.76346  0.69018  1.0000
  Fe  Fe56      1.0  0.32086  0.83740  0.95590  1.0000
  S   S117      1.0  0.29746  0.85095  0.94249  1.0000
  S   S118      1.0  0.34235  0.83191  0.91504  1.0000
  C   C446      1.0  0.43097  0.79249  0.53337  1.0000
  C   C447      1.0  0.27787  0.78351  0.82172  1.0000
  H   H533      1.0  0.31016  0.76363  0.86300  1.0000
  H   H534      1.0  0.45380  0.81433  0.59010  1.0000
  C   C448      1.0  0.21270  0.76531  0.94424  1.0000
  C   C449      1.0  0.41780  0.80136  0.54941  1.0000
  H   H535      1.0  0.29005  0.75145  0.52584  1.0000
  N   N31       1.0  0.44550  0.78684  0.55632  1.0000
  C   C450      1.0  0.34764  0.96811  0.98428  1.0000
  C   C451      1.0  0.45427  0.84751  0.75309  1.0000
  H   H536      1.0  0.30236  0.78074  0.91569  1.0000
  C   C452      1.0  0.19399  0.74975  0.95466  1.0000
  S   S119      1.0  0.24552  0.80268  0.95080  1.0000
  C   C453      1.0  0.33163  0.80070  0.52941  1.0000
  H   H537      1.0  0.25307  0.77069  0.54625  1.0000
  H   H538      1.0  0.29688  0.74806  0.64268  1.0000
  H   H539      1.0  0.46136  0.79555  0.76071  1.0000
  H   H540      1.0  0.46731  0.77175  0.55409  1.0000
  C   C454      1.0  0.32900  0.82863  0.79207  1.0000
  C   C455      1.0  0.34634  0.82561  0.80581  1.0000
  C   C456      1.0  0.35019  0.82655  0.84357  1.0000
  C   C457      1.0  0.33678  0.83054  0.86786  1.0000
  C   C458      1.0  0.31954  0.83373  0.85410  1.0000
  C   C459      1.0  0.31576  0.83292  0.81635  1.0000
  H   H541      1.0  0.35682  0.82261  0.78733  1.0000
  H   H542      1.0  0.36364  0.82421  0.85401  1.0000
  H   H543      1.0  0.30905  0.83671  0.87250  1.0000
  H   H544      1.0  0.30233  0.83530  0.80593  1.0000
  C   C460      1.0  0.22327  0.78234  0.96732  1.0000
  C   C461      1.0  0.28717  0.76566  0.75742  1.0000
  H   H545      1.0  0.42695  0.78040  0.60476  1.0000
  C   C462      1.0  0.28183  0.79144  0.88632  1.0000
  C   C463      1.0  0.43423  0.77292  0.58562  1.0000
  C   C464      1.0  0.44518  0.77842  0.68189  1.0000
  C   C465      1.0  0.45432  0.79859  0.66971  1.0000
  C   C466      1.0  0.44233  0.81048  0.66428  1.0000
  C   C467      1.0  0.42107  0.80213  0.67017  1.0000
  C   C468      1.0  0.41182  0.78187  0.68194  1.0000
  C   C469      1.0  0.42392  0.77010  0.68810  1.0000
  H   H546      1.0  0.47063  0.80522  0.66509  1.0000
  H   H547      1.0  0.44953  0.82623  0.65556  1.0000
  H   H548      1.0  0.39541  0.77537  0.68661  1.0000
  H   H549      1.0  0.32523  0.78672  0.78246  1.0000
  H   H550      1.0  0.44467  0.76786  0.60268  1.0000
  S   S120      1.0  0.29868  0.81163  0.98704  1.0000
  H   H551      1.0  0.42180  0.75891  0.57415  1.0000
  H   H552      1.0  0.34343  0.98130  0.98056  1.0000
  H   H553      1.0  0.31607  0.94624  0.98252  1.0000
  H   H554      1.0  0.46701  0.78625  0.51516  1.0000
  H   H555      1.0  0.35798  0.82321  0.55683  1.0000
  N   N32       1.0  0.34631  0.89946  0.88801  1.0000
  C   C470      1.0  0.32366  0.89354  0.88382  1.0000
  C   C471      1.0  0.35347  0.89173  0.85519  1.0000
  C   C472      1.0  0.35007  0.88885  0.92030  1.0000
  C   C473      1.0  0.35776  0.92194  0.89254  1.0000
  C   C474      1.0  0.34782  0.93624  0.89517  1.0000
  C   C475      1.0  0.37963  0.93012  0.89502  1.0000
  C   C476      1.0  0.35919  0.95738  0.89906  1.0000
  C   C477      1.0  0.39083  0.95128  0.89927  1.0000
  C   C478      1.0  0.38062  0.96488  0.90115  1.0000
  H   H556      1.0  0.31968  0.90115  0.86015  1.0000
  H   H557      1.0  0.31559  0.87665  0.87913  1.0000
  H   H558      1.0  0.31690  0.89741  0.90886  1.0000
  H   H559      1.0  0.35196  0.90015  0.83054  1.0000
  H   H560      1.0  0.34444  0.87506  0.84993  1.0000
  H   H561      1.0  0.36977  0.89317  0.85781  1.0000
  H   H562      1.0  0.34511  0.89442  0.94560  1.0000
  H   H563      1.0  0.34141  0.87193  0.91817  1.0000
  H   H564      1.0  0.36655  0.89114  0.92402  1.0000
  H   H565      1.0  0.33126  0.93149  0.89526  1.0000
  H   H566      1.0  0.38821  0.92015  0.89424  1.0000
  H   H567      1.0  0.35132  0.96798  0.90192  1.0000
  H   H568      1.0  0.40749  0.95718  0.90179  1.0000
  C   C479      1.0  0.35778  0.93331  0.99354  1.0000
  C   C480      1.0  0.44036  0.81063  0.75870  1.0000
  H   H569      1.0  0.32314  0.76221  0.76410  1.0000
  C   C481      1.0  0.47427  0.84758  0.75346  1.0000
  H   H570      1.0  0.27845  0.79890  0.90997  1.0000
  N   N33       1.0  0.29633  0.76224  0.79221  1.0000
  H   H571      1.0  0.38927  0.98123  0.90551  1.0000
  C   C482      1.0  0.47786  0.82896  0.75486  1.0000
  Fe  Fe57      1.0  0.27549  0.82591  0.97698  1.0000
  H   H572      1.0  0.42712  0.79626  0.76008  1.0000
  H   H573      1.0  0.27006  0.75930  0.75793  1.0000
  C   C483      1.0  0.29524  0.78109  0.88947  1.0000
  C   C484      1.0  0.29979  0.77159  0.85897  1.0000
  H   H574      1.0  0.32712  0.75734  0.53131  1.0000
  C   C485      1.0  0.35124  0.81634  0.53089  1.0000
  S   S121      1.0  0.31617  0.90536  0.99013  1.0000
  H   H575      1.0  0.29278  0.78238  0.75104  1.0000
  H   H576      1.0  0.21884  0.76436  0.91775  1.0000
  H   H577      1.0  0.41678  0.75450  0.69760  1.0000
  C   C486      1.0  0.18520  0.75131  0.98800  1.0000
  C   C487      1.0  0.43734  0.82904  0.75519  1.0000
  C   C488      1.0  0.36852  0.97101  0.98765  1.0000
  C   C489      1.0  0.33688  0.93040  0.98984  1.0000
  H   H578      1.0  0.32734  0.76728  0.81153  1.0000
  C   C490      1.0  0.40408  0.80698  0.52828  1.0000
  C   C491      1.0  0.37337  0.95337  0.99248  1.0000
  C   C492      1.0  0.27312  0.79259  0.85262  1.0000
  C   C493      1.0  0.29136  0.77260  0.82403  1.0000
  H   H579      1.0  0.47008  0.81645  0.55187  1.0000
  C   C494      1.0  0.31895  0.76993  0.78756  1.0000
  C   C495      1.0  0.45683  0.77612  0.53589  1.0000
  H   H580      1.0  0.44610  0.76175  0.52232  1.0000
  H   H581      1.0  0.42182  0.82893  0.75365  1.0000
  Fe  Fe58      1.0  0.30918  0.87016  0.99388  1.0000
  C   C496      1.0  0.46027  0.81048  0.75877  1.0000
  H   H582      1.0  0.27953  0.79715  0.51096  1.0000
  H   H583      1.0  0.48975  0.80054  0.72271  1.0000
  H   H584      1.0  0.27107  0.78559  0.79636  1.0000
  H   H585      1.0  0.45180  0.86180  0.75061  1.0000
  H   H586      1.0  0.41814  0.80430  0.57844  1.0000
  H   H587      1.0  0.47221  0.80223  0.59079  1.0000
  H   H588      1.0  0.26293  0.80099  0.85050  1.0000
  C   C497      1.0  0.46099  0.80577  0.57307  1.0000
  H   H589      1.0  0.48687  0.86232  0.75215  1.0000
  H   H590      1.0  0.39419  0.81374  0.54114  1.0000
  C   C498      1.0  0.33207  0.94807  0.98532  1.0000
  H   H591      1.0  0.29088  0.74713  0.57321  1.0000
  C   C499      1.0  0.25482  0.76779  0.51767  1.0000
  H   H592      1.0  0.32659  0.74767  0.57510  1.0000
  H   H593      1.0  0.20806  0.74537  0.71394  1.0000
  H   H594      1.0  0.37683  0.83602  0.49961  1.0000
  H   H595      1.0  0.38936  0.95519  0.99498  1.0000
  C   C500      1.0  0.24239  0.74909  0.50104  1.0000
  H   H596      1.0  0.36196  0.92010  0.99724  1.0000
  C   C501      1.0  0.85087  0.22353  0.10658  1.0000
  Fe  Fe59      1.0  0.71401  0.14843  0.33479  1.0000
  S   S122      1.0  0.70696  0.11499  0.34445  1.0000
  S   S123      1.0  0.74341  0.17297  0.35664  1.0000
  Fe  Fe60      1.0  0.67175  0.14001  0.30084  1.0000
  S   S124      1.0  0.66129  0.10578  0.30736  1.0000
  S   S125      1.0  0.65329  0.15828  0.28136  1.0000
  Fe  Fe61      1.0  0.67614  0.11393  0.36313  1.0000
  S   S126      1.0  0.65926  0.09981  0.41429  1.0000
  Fe  Fe62      1.0  0.69305  0.11003  0.28767  1.0000
  S   S127      1.0  0.70227  0.08964  0.24852  1.0000
  S   S128      1.0  0.68435  0.14776  0.35764  1.0000
  S   S129      1.0  0.70219  0.14367  0.27696  1.0000
  Fe  Fe63      1.0  0.52319  0.14877  0.28173  1.0000
  S   S130      1.0  0.53097  0.18077  0.26095  1.0000
  Fe  Fe64      1.0  0.53713  0.11300  0.27268  1.0000
  C   C502      1.0  0.85010  0.22223  0.17336  1.0000
  S   S131      1.0  0.56031  0.10064  0.25151  1.0000
  H   H597      1.0  0.84144  0.18324  0.08811  1.0000
  Fe  Fe65      1.0  0.51573  0.11732  0.34222  1.0000
  C   C503      1.0  0.66479  0.10189  0.48880  1.0000
  S   S132      1.0  0.51877  0.12552  0.23697  1.0000
  S   S133      1.0  0.54437  0.13821  0.31466  1.0000
  C   C504      1.0  0.58662  0.07966  0.47598  1.0000
  C   C505      1.0  0.66664  0.03171  0.18925  1.0000
  H   H598      1.0  0.58059  0.08515  0.31169  1.0000
  Fe  Fe66      1.0  0.71725  0.08658  0.02978  1.0000
  S   S134      1.0  0.74025  0.07124  0.02900  1.0000
  S   S135      1.0  0.70489  0.10002  0.07660  1.0000
  C   C506      1.0  0.68282  0.00531  0.09512  1.0000
  H   H599      1.0  0.69974  0.05613  0.07616  1.0000
  H   H600      1.0  0.85795  0.20141  0.14002  1.0000
  C   C507      1.0  0.50066  0.18180  0.17348  1.0000
  C   C508      1.0  0.85190  0.22665  0.03941  1.0000
  H   H601      1.0  0.64268  0.12782  0.47048  1.0000
  H   H602      1.0  0.49652  0.18671  0.45200  1.0000
  C   C509      1.0  0.70322  0.09294  0.20083  1.0000
  C   C510      1.0  0.69432  0.10538  0.18386  1.0000
  C   C511      1.0  0.69527  0.10755  0.14585  1.0000
  C   C512      1.0  0.70529  0.09753  0.12446  1.0000
  C   C513      1.0  0.71476  0.08561  0.14158  1.0000
  C   C514      1.0  0.71339  0.08302  0.17952  1.0000
  H   H603      1.0  0.68641  0.11306  0.19991  1.0000
  H   H604      1.0  0.68795  0.11687  0.13285  1.0000
  H   H605      1.0  0.72307  0.07837  0.12563  1.0000
  H   H606      1.0  0.72039  0.07343  0.19249  1.0000
  C   C515      1.0  0.62768  0.14275  0.26968  1.0000
  C   C516      1.0  0.61231  0.15098  0.27127  1.0000
  C   C517      1.0  0.59155  0.13829  0.26475  1.0000
  C   C518      1.0  0.58621  0.11742  0.25602  1.0000
  C   C519      1.0  0.60170  0.10944  0.25289  1.0000
  C   C520      1.0  0.62237  0.12202  0.26004  1.0000
  H   H607      1.0  0.61636  0.16706  0.27839  1.0000
  H   H608      1.0  0.57972  0.14464  0.26653  1.0000
  H   H609      1.0  0.59766  0.09337  0.24566  1.0000
  H   H610      1.0  0.63419  0.11571  0.25773  1.0000
  C   C521      1.0  0.69446  0.12188  0.45394  1.0000
  C   C522      1.0  0.67386  0.10842  0.45497  1.0000
  C   C523      1.0  0.79677  0.20412  0.45013  1.0000
  H   H611      1.0  0.70164  0.12694  0.42807  1.0000
  C   C524      1.0  0.61586  0.13579  0.47042  1.0000
  C   C525      1.0  0.51973  0.22671  0.33792  1.0000
  H   H612      1.0  0.69527  0.00657  0.11521  1.0000
  C   C526      1.0  0.53411  0.21908  0.28256  1.0000
  C   C527      1.0  0.52691  0.19822  0.29131  1.0000
  C   C528      1.0  0.51622  0.19159  0.32351  1.0000
  C   C529      1.0  0.51257  0.20583  0.34675  1.0000
  H   H613      1.0  0.87832  0.20498  0.09134  1.0000
  H   H614      1.0  0.54263  0.22428  0.25789  1.0000
  C   C530      1.0  0.70067  0.04099  0.08227  1.0000
  C   C531      1.0  0.87568  0.21521  0.07076  1.0000
  H   H615      1.0  0.87915  0.20975  0.04393  1.0000
  C   C532      1.0  0.75944  0.18883  0.32380  1.0000
  C   C533      1.0  0.77785  0.20475  0.33459  1.0000
  C   C534      1.0  0.79028  0.21805  0.30867  1.0000
  C   C535      1.0  0.78428  0.21538  0.27195  1.0000
  C   C536      1.0  0.76614  0.19922  0.26110  1.0000
  C   C537      1.0  0.75388  0.18588  0.28698  1.0000
  H   H616      1.0  0.78259  0.20675  0.36291  1.0000
  H   H617      1.0  0.71175  0.04343  0.10544  1.0000
  H   H618      1.0  0.76159  0.19709  0.23268  1.0000
  H   H619      1.0  0.74020  0.17329  0.27839  1.0000
  H   H620      1.0  0.66744  0.02547  0.21581  1.0000
  N   N34       1.0  0.70628  0.21469  0.30275  1.0000
  C   C538      1.0  0.69138  0.21274  0.33223  1.0000
  C   C539      1.0  0.69633  0.21683  0.26801  1.0000
  C   C540      1.0  0.70992  0.19522  0.30118  1.0000
  H   H621      1.0  0.83599  0.22649  0.03711  1.0000
  H   H622      1.0  0.50798  0.22182  0.44299  1.0000
  H   H623      1.0  0.65640  0.05487  0.21076  1.0000
  H   H624      1.0  0.51069  0.17551  0.33045  1.0000
  C   C541      1.0  0.53072  0.23333  0.30603  1.0000
  H   H625      1.0  0.59687  0.07826  0.34211  1.0000
  H   H626      1.0  0.67668  0.19920  0.32736  1.0000
  H   H627      1.0  0.80455  0.23025  0.31709  1.0000
  H   H628      1.0  0.68762  0.00001  0.06928  1.0000
  H   H629      1.0  0.68115  0.20387  0.26345  1.0000
  H   H630      1.0  0.82344  0.19254  0.06691  1.0000
  H   H631      1.0  0.61537  0.07774  0.46031  1.0000
  H   H632      1.0  0.69522  0.18158  0.29966  1.0000
  C   C542      1.0  0.66617  0.04926  0.12176  1.0000
  H   H633      1.0  0.74041  0.22547  0.25945  1.0000
  C   C543      1.0  0.85333  0.21447  0.13977  1.0000
  S   S136      1.0  0.52228  0.11064  0.40099  1.0000
  H   H634      1.0  0.69762  0.21031  0.35901  1.0000
  C   C544      1.0  0.51326  0.11660  0.44288  1.0000
  H   H635      1.0  0.70580  0.21670  0.24406  1.0000
  H   H636      1.0  0.84190  0.18659  0.04024  1.0000
  C   C545      1.0  0.50546  0.22862  0.46811  1.0000
  H   H637      1.0  0.55736  0.08244  0.48328  1.0000
  H   H638      1.0  0.71861  0.19407  0.27681  1.0000
  N   N35       1.0  0.49571  0.16009  0.16177  1.0000
  H   H639      1.0  0.61361  0.08847  0.39834  1.0000
  H   H640      1.0  0.85245  0.21542  0.19849  1.0000
  H   H641      1.0  0.56933  0.06712  0.34683  1.0000
  H   H642      1.0  0.76810  0.18394  0.42581  1.0000
  H   H643      1.0  0.69362  0.23148  0.26769  1.0000
  C   C546      1.0  0.58420  0.09236  0.40364  1.0000
  H   H644      1.0  0.67123  0.01645  0.03448  1.0000
  H   H645      1.0  0.49323  0.13032  0.41973  1.0000
  H   H646      1.0  0.61639  0.11395  0.35950  1.0000
  C   C547      1.0  0.76810  0.18131  0.48422  1.0000
  C   C548      1.0  0.65994  0.05689  0.15279  1.0000
  H   H647      1.0  0.53127  0.10350  0.47441  1.0000
  C   C549      1.0  0.50938  0.18956  0.47209  1.0000
  N   N36       1.0  0.76179  0.14320  0.21148  1.0000
  C   C550      1.0  0.77510  0.15771  0.18470  1.0000
  C   C551      1.0  0.76021  0.12217  0.20091  1.0000
  H   H648      1.0  0.49350  0.09012  0.18800  1.0000
  C   C552      1.0  0.76962  0.14781  0.24949  1.0000
  C   C553      1.0  0.78830  0.16443  0.25919  1.0000
  C   C554      1.0  0.75844  0.13541  0.27825  1.0000
  C   C555      1.0  0.79513  0.16833  0.29543  1.0000
  C   C556      1.0  0.76541  0.13950  0.31435  1.0000
  C   C557      1.0  0.78370  0.15592  0.32293  1.0000
  H   H649      1.0  0.79081  0.15725  0.18448  1.0000
  H   H650      1.0  0.76867  0.15383  0.15648  1.0000
  H   H651      1.0  0.77647  0.17382  0.19056  1.0000
  H   H652      1.0  0.77538  0.12059  0.20384  1.0000
  H   H653      1.0  0.75467  0.11819  0.17223  1.0000
  H   H654      1.0  0.80354  0.21032  0.42436  1.0000
  H   H655      1.0  0.61699  0.13938  0.44178  1.0000
  C   C558      1.0  0.77683  0.18932  0.45103  1.0000
  C   C559      1.0  0.76078  0.22930  0.44455  1.0000
  H   H656      1.0  0.79768  0.17506  0.23957  1.0000
  H   H657      1.0  0.74405  0.12254  0.27315  1.0000
  H   H658      1.0  0.80905  0.18147  0.30239  1.0000
  H   H659      1.0  0.75632  0.13017  0.33595  1.0000
  H   H660      1.0  0.78871  0.15938  0.35108  1.0000
  H   H661      1.0  0.65018  0.01247  0.06503  1.0000
  C   C560      1.0  0.60194  0.11700  0.35783  1.0000
  C   C561      1.0  0.56972  0.08413  0.46463  1.0000
  H   H662      1.0  0.50411  0.20065  0.37147  1.0000
  H   H663      1.0  0.75600  0.22053  0.38787  1.0000
  H   H664      1.0  0.74728  0.21644  0.45297  1.0000
  C   C562      1.0  0.51543  0.15681  0.15993  1.0000
  H   H665      1.0  0.72967  0.13272  0.22580  1.0000
  C   C563      1.0  0.74103  0.14413  0.20838  1.0000
  H   H666      1.0  0.52403  0.19971  0.45962  1.0000
  H   H667      1.0  0.65573  0.07024  0.15095  1.0000
  H   H668      1.0  0.73464  0.14073  0.18008  1.0000
  H   H669      1.0  0.66578  0.03776  0.04976  1.0000
  H   H670      1.0  0.74142  0.15959  0.21653  1.0000
  C   C564      1.0  0.67247  0.03224  0.12341  1.0000
  Fe  Fe67      1.0  0.49151  0.10611  0.26844  1.0000
  C   C565      1.0  0.60224  0.08133  0.45171  1.0000
  H   H671      1.0  0.56466  0.11674  0.37447  1.0000
  H   H672      1.0  0.60349  0.12994  0.37688  1.0000
  N   N37       1.0  0.58329  0.09859  0.36557  1.0000
  C   C566      1.0  0.58254  0.08154  0.34058  1.0000
  C   C567      1.0  0.56503  0.10377  0.35709  1.0000
  H   H673      1.0  0.51111  0.19275  0.15407  1.0000
  C   C568      1.0  0.52057  0.11127  0.47551  1.0000
  H   H674      1.0  0.51300  0.14033  0.15543  1.0000
  H   H675      1.0  0.68710  0.22648  0.33405  1.0000
  C   C569      1.0  0.49914  0.12633  0.44460  1.0000
  S   S137      1.0  0.50950  0.09136  0.30113  1.0000
  C   C570      1.0  0.83965  0.19343  0.06658  1.0000
  C   C571      1.0  0.66032  0.04825  0.18651  1.0000
  C   C572      1.0  0.66619  0.02286  0.05883  1.0000
  H   H676      1.0  0.70748  0.03636  0.05829  1.0000
  H   H677      1.0  0.55030  0.09032  0.36025  1.0000
  H   H678      1.0  0.56499  0.10863  0.32843  1.0000
  H   H679      1.0  0.66698  0.05754  0.09685  1.0000
  C   C573      1.0  0.80809  0.21087  0.48238  1.0000
  H   H680      1.0  0.64897  0.09127  0.48983  1.0000
  H   H681      1.0  0.85472  0.21989  0.01342  1.0000
  C   C574      1.0  0.67262  0.02372  0.15828  1.0000
  H   H682      1.0  0.74910  0.11017  0.21794  1.0000
  H   H683      1.0  0.52512  0.16570  0.13750  1.0000
  H   H684      1.0  0.71864  0.19363  0.32570  1.0000
  N   N38       1.0  0.68028  0.02528  0.09063  1.0000
  C   C575      1.0  0.56845  0.09045  0.42905  1.0000
  H   H685      1.0  0.67785  0.01128  0.16256  1.0000
  H   H686      1.0  0.75268  0.16970  0.48343  1.0000
  N   N39       1.0  0.85442  0.21500  0.07137  1.0000
  H   H687      1.0  0.60131  0.12255  0.32988  1.0000
  C   C576      1.0  0.76571  0.23153  0.40789  1.0000
  H   H688      1.0  0.52464  0.16170  0.18575  1.0000
  C   C577      1.0  0.72620  0.23228  0.30798  1.0000
  C   C578      1.0  0.60111  0.08756  0.41611  1.0000
  S   S138      1.0  0.79905  0.23209  0.23914  1.0000
  H   H689      1.0  0.55484  0.09352  0.42201  1.0000
  C   C579      1.0  0.49233  0.13053  0.47862  1.0000
  S   S139      1.0  0.49486  0.13017  0.31221  1.0000
  C   C580      1.0  0.70597  0.12855  0.48640  1.0000
  H   H690      1.0  0.72200  0.13857  0.48521  1.0000
  C   C581      1.0  0.63038  0.12925  0.48655  1.0000
  H   H691      1.0  0.49297  0.08223  0.12205  1.0000
  H   H692      1.0  0.58924  0.14279  0.47660  1.0000
  H   H693      1.0  0.50884  0.18527  0.20033  1.0000
  H   H694      1.0  0.76948  0.24033  0.49876  1.0000
  C   C582      1.0  0.84410  0.23901  0.17491  1.0000
  C   C583      1.0  0.59996  0.13772  0.49095  1.0000
  H   H695      1.0  0.51307  0.24357  0.22974  1.0000
  C   C584      1.0  0.74224  0.23566  0.28264  1.0000
  H   H696      1.0  0.51075  0.17442  0.47637  1.0000
  H   H697      1.0  0.82375  0.22211  0.48137  1.0000
  H   H698      1.0  0.88721  0.23103  0.07607  1.0000
  H   H699      1.0  0.86303  0.24294  0.04069  1.0000
  H   H700      1.0  0.49267  0.20608  0.23963  1.0000
  C   C585      1.0  0.84485  0.24075  0.10919  1.0000
  C   C586      1.0  0.77351  0.24319  0.47052  1.0000
  S   S140      1.0  0.51433  0.24408  0.36670  1.0000
  H   H701      1.0  0.78979  0.21166  0.70313  1.0000
  C   C587      1.0  0.62898  0.12441  0.52327  1.0000
  Fe  Fe68      1.0  0.71901  0.15919  0.68229  1.0000
  S   S141      1.0  0.72224  0.13037  0.66223  1.0000
  S   S142      1.0  0.74762  0.18383  0.70598  1.0000
  Fe  Fe69      1.0  0.67238  0.14134  0.66870  1.0000
  S   S143      1.0  0.67220  0.11108  0.64726  1.0000
  S   S144      1.0  0.64528  0.15088  0.67719  1.0000
  Fe  Fe70      1.0  0.69410  0.11382  0.69466  1.0000
  S   S145      1.0  0.69286  0.08745  0.73115  1.0000
  Fe  Fe71      1.0  0.70049  0.13076  0.61700  1.0000
  S   S146      1.0  0.71238  0.13072  0.55996  1.0000
  S   S147      1.0  0.69237  0.14277  0.71768  1.0000
  S   S148      1.0  0.69907  0.16084  0.63531  1.0000
  S   S149      1.0  0.78941  0.11058  0.97407  1.0000
  S   S150      1.0  0.53521  0.14004  0.62482  1.0000
  H   H702      1.0  0.74488  0.14461  0.73813  1.0000
  S   S151      1.0  0.73280  0.10824  0.98521  1.0000
  S   S152      1.0  0.52253  0.12324  0.70840  1.0000
  Fe  Fe72      1.0  0.52439  0.15060  0.67546  1.0000
  S   S153      1.0  0.53997  0.18277  0.69771  1.0000
  Fe  Fe73      1.0  0.52996  0.11120  0.65581  1.0000
  S   S154      1.0  0.55129  0.09387  0.65211  1.0000
  C   C588      1.0  0.69691  0.12224  0.52023  1.0000
  H   H703      1.0  0.77473  0.18167  0.61073  1.0000
  H   H704      1.0  0.79937  0.13086  0.84903  1.0000
  H   H705      1.0  0.76897  0.09847  0.89887  1.0000
  C   C589      1.0  0.61313  0.12618  0.54404  1.0000
  H   H706      1.0  0.51638  0.07033  0.74096  1.0000
  H   H707      1.0  0.51165  0.17817  0.63744  1.0000
  N   N40       1.0  0.58190  0.13532  0.55154  1.0000
  Fe  Fe74      1.0  0.71258  0.08378  0.94647  1.0000
  S   S155      1.0  0.73486  0.06778  0.94063  1.0000
  S   S156      1.0  0.69847  0.09752  0.90328  1.0000
  H   H708      1.0  0.78666  0.20504  0.58682  1.0000
  H   H709      1.0  0.77118  0.09564  0.85109  1.0000
  H   H710      1.0  0.51310  0.07274  0.69341  1.0000
  H   H711      1.0  0.50511  0.04622  0.78513  1.0000
  N   N41       1.0  0.76956  0.17893  0.55239  1.0000
  C   C590      1.0  0.80830  0.15439  0.97125  1.0000
  H   H712      1.0  0.49294  0.16747  0.72769  1.0000
  H   H713      1.0  0.77276  0.16249  0.84340  1.0000
  H   H714      1.0  0.88510  0.24324  0.75905  1.0000
  S   S157      1.0  0.69477  0.06347  0.99131  1.0000
  C   C591      1.0  0.74967  0.14045  0.76398  1.0000
  H   H715      1.0  0.74658  0.09297  0.87033  1.0000
  H   H716      1.0  0.65001  0.06809  0.88669  1.0000
  H   H717      1.0  0.49640  0.10049  0.77727  1.0000
  C   C592      1.0  0.78100  0.23506  0.62777  1.0000
  C   C593      1.0  0.69662  0.09122  0.77887  1.0000
  C   C594      1.0  0.69938  0.07589  0.80014  1.0000
  C   C595      1.0  0.70119  0.07805  0.83837  1.0000
  C   C596      1.0  0.69975  0.09537  0.85552  1.0000
  C   C597      1.0  0.69745  0.11084  0.83419  1.0000
  C   C598      1.0  0.69619  0.10892  0.79610  1.0000
  H   H718      1.0  0.69978  0.06214  0.78704  1.0000
  H   H719      1.0  0.70273  0.06591  0.85455  1.0000
  H   H720      1.0  0.69628  0.12426  0.84725  1.0000
  H   H721      1.0  0.69441  0.12094  0.78024  1.0000
  C   C599      1.0  0.51396  0.11569  0.50953  1.0000
  Fe  Fe75      1.0  0.71811  0.04849  0.98821  1.0000
  H   H722      1.0  0.60233  0.16422  0.57509  1.0000
  C   C600      1.0  0.79947  0.20304  0.51578  1.0000
  H   H723      1.0  0.66923  0.10372  0.54735  1.0000
  C   C601      1.0  0.61935  0.13441  0.67055  1.0000
  C   C602      1.0  0.60396  0.14191  0.67897  1.0000
  C   C603      1.0  0.58306  0.12947  0.67370  1.0000
  C   C604      1.0  0.57741  0.10933  0.66033  1.0000
  C   C605      1.0  0.59277  0.10167  0.65230  1.0000
  C   C606      1.0  0.61374  0.11423  0.65715  1.0000
  H   H724      1.0  0.60822  0.15751  0.68936  1.0000
  H   H725      1.0  0.57134  0.13552  0.68000  1.0000
  H   H726      1.0  0.58845  0.08609  0.64181  1.0000
  H   H727      1.0  0.62551  0.10837  0.65030  1.0000
  C   C607      1.0  0.51331  0.22698  0.64832  1.0000
  C   C608      1.0  0.52834  0.23386  0.67601  1.0000
  C   C609      1.0  0.53676  0.22032  0.69081  1.0000
  C   C610      1.0  0.53049  0.20006  0.67740  1.0000
  C   C611      1.0  0.51612  0.19353  0.64868  1.0000
  C   C612      1.0  0.59828  0.13319  0.52867  1.0000
  H   H728      1.0  0.50743  0.19345  0.77674  1.0000
  H   H729      1.0  0.54802  0.22549  0.71284  1.0000
  Fe  Fe76      1.0  0.50169  0.12540  0.60954  1.0000
  C   C613      1.0  0.50723  0.20681  0.63471  1.0000
  H   H730      1.0  0.63868  0.09717  0.89523  1.0000
  C   C614      1.0  0.79124  0.13480  0.87199  1.0000
  C   C615      1.0  0.74613  0.11995  0.77093  1.0000
  C   C616      1.0  0.52265  0.20038  0.53243  1.0000
  C   C617      1.0  0.75994  0.22351  0.62272  1.0000
  C   C618      1.0  0.74964  0.20766  0.64656  1.0000
  C   C619      1.0  0.76036  0.20338  0.67561  1.0000
  C   C620      1.0  0.78143  0.21499  0.68076  1.0000
  C   C621      1.0  0.79179  0.23079  0.65674  1.0000
  H   H731      1.0  0.75154  0.22690  0.60047  1.0000
  H   H732      1.0  0.73332  0.19907  0.64292  1.0000
  C   C622      1.0  0.76529  0.15654  0.55195  1.0000
  H   H733      1.0  0.83258  0.12064  0.97105  1.0000
  H   H734      1.0  0.55658  0.14587  0.55029  1.0000
  C   C623      1.0  0.75923  0.15556  0.79036  1.0000
  H   H735      1.0  0.49548  0.20134  0.61361  1.0000
  H   H736      1.0  0.79305  0.15483  0.97233  1.0000
  H   H737      1.0  0.57950  0.15139  0.60086  1.0000
  H   H738      1.0  0.73800  0.17333  0.53601  1.0000
  H   H739      1.0  0.74137  0.12387  0.89458  1.0000
  H   H740      1.0  0.55591  0.11564  0.58186  1.0000
  N   N42       1.0  0.63709  0.10829  0.77040  1.0000
  C   C624      1.0  0.64960  0.13055  0.77639  1.0000
  C   C625      1.0  0.64355  0.10193  0.73545  1.0000
  C   C626      1.0  0.61513  0.10554  0.76636  1.0000
  C   C627      1.0  0.63969  0.09639  0.80179  1.0000
  C   C628      1.0  0.64539  0.07901  0.79792  1.0000
  C   C629      1.0  0.63662  0.10216  0.83774  1.0000
  C   C630      1.0  0.64870  0.06880  0.82832  1.0000
  C   C631      1.0  0.64023  0.09197  0.86794  1.0000
  C   C632      1.0  0.64644  0.07545  0.86323  1.0000
  H   H741      1.0  0.64372  0.13756  0.79862  1.0000
  H   H742      1.0  0.66590  0.13306  0.78329  1.0000
  H   H743      1.0  0.64965  0.13974  0.75184  1.0000
  H   H744      1.0  0.65981  0.10306  0.73712  1.0000
  H   H745      1.0  0.64260  0.11187  0.71272  1.0000
  H   H746      1.0  0.63361  0.08590  0.72724  1.0000
  H   H747      1.0  0.61262  0.11424  0.74279  1.0000
  H   H748      1.0  0.51100  0.03378  0.73055  1.0000
  H   H749      1.0  0.60946  0.11110  0.79081  1.0000
  H   H750      1.0  0.64819  0.07341  0.77182  1.0000
  H   H751      1.0  0.63184  0.11488  0.84284  1.0000
  C   C633      1.0  0.84789  0.15359  0.96847  1.0000
  S   S158      1.0  0.86935  0.19540  0.96532  1.0000
  C   C634      1.0  0.59131  0.14888  0.58356  1.0000
  H   H752      1.0  0.86305  0.15290  0.96747  1.0000
  H   H753      1.0  0.76280  0.12674  0.92460  1.0000
  H   H754      1.0  0.49932  0.22338  0.55997  1.0000
  H   H755      1.0  0.82408  0.18768  0.96785  1.0000
  H   H756      1.0  0.49652  0.09173  0.84235  1.0000
  H   H757      1.0  0.74265  0.17604  0.58351  1.0000
  C   C635      1.0  0.49887  0.03256  0.70987  1.0000
  H   H758      1.0  0.79619  0.15182  0.87336  1.0000
  C   C636      1.0  0.74982  0.18190  0.55691  1.0000
  H   H759      1.0  0.79703  0.13034  0.89761  1.0000
  C   C637      1.0  0.76531  0.15021  0.82387  1.0000
  H   H760      1.0  0.76282  0.14797  0.89856  1.0000
  C   C638      1.0  0.75847  0.13104  0.89752  1.0000
  Fe  Fe77      1.0  0.88967  0.23010  0.96105  1.0000
  H   H761      1.0  0.57704  0.10745  0.58115  1.0000
  N   N43       1.0  0.76856  0.12421  0.86760  1.0000
  C   C639      1.0  0.84599  0.17277  0.96743  1.0000
  C   C640      1.0  0.50400  0.21896  0.50236  1.0000
  C   C641      1.0  0.76355  0.10182  0.87193  1.0000
  H   H762      1.0  0.75413  0.14811  0.52999  1.0000
  S   S159      1.0  0.49102  0.13135  0.55337  1.0000
  C   C642      1.0  0.56858  0.14430  0.53220  1.0000
  C   C643      1.0  0.76178  0.12942  0.83203  1.0000
  H   H763      1.0  0.74811  0.09812  0.80818  1.0000
  H   H764      1.0  0.80916  0.20898  0.53964  1.0000
  H   H765      1.0  0.51957  0.11137  0.53438  1.0000
  H   H766      1.0  0.56105  0.10409  0.54125  1.0000
  S   S160      1.0  0.50145  0.24295  0.63052  1.0000
  H   H767      1.0  0.77962  0.15352  0.54791  1.0000
  C   C644      1.0  0.67622  0.10895  0.52141  1.0000
  C   C645      1.0  0.81049  0.13519  0.97215  1.0000
  C   C646      1.0  0.78269  0.18814  0.58501  1.0000
  H   H768      1.0  0.76184  0.17148  0.78457  1.0000
  C   C647      1.0  0.75188  0.11437  0.80449  1.0000
  H   H769      1.0  0.73845  0.10823  0.75036  1.0000
  H   H770      1.0  0.81708  0.24297  0.75978  1.0000
  H   H771      1.0  0.79722  0.18516  0.58502  1.0000
  H   H772      1.0  0.56005  0.13436  0.50887  1.0000
  H   H773      1.0  0.61271  0.12211  0.57239  1.0000
  C   C648      1.0  0.82596  0.17308  0.96871  1.0000
  C   C649      1.0  0.50458  0.06838  0.71931  1.0000
  H   H774      1.0  0.75217  0.19847  0.55560  1.0000
  Fe  Fe78      1.0  0.75457  0.09189  0.98164  1.0000
  H   H775      1.0  0.64034  0.11936  0.53579  1.0000
  H   H776      1.0  0.50670  0.03543  0.68314  1.0000
  C   C650      1.0  0.49976  0.12533  0.51125  1.0000
  H   H777      1.0  0.60518  0.08902  0.76187  1.0000
  C   C651      1.0  0.56845  0.11476  0.56442  1.0000
  H   H778      1.0  0.80813  0.23948  0.66045  1.0000
  H   H779      1.0  0.65392  0.05617  0.82480  1.0000
  H   H780      1.0  0.75825  0.14923  0.57782  1.0000
  C   C652      1.0  0.77911  0.18794  0.51770  1.0000
  C   C653      1.0  0.49632  0.19515  0.75755  1.0000
  H   H781      1.0  0.59990  0.14232  0.60183  1.0000
  N   N44       1.0  0.50552  0.19858  0.50669  1.0000
  C   C654      1.0  0.83047  0.13516  0.97055  1.0000
  H   H782      1.0  0.66935  0.99806  0.95395  1.0000
  H   H783      1.0  0.53755  0.21172  0.52281  1.0000
  H   H784      1.0  0.58757  0.07475  0.50354  1.0000
  S   S161      1.0  0.49690  0.09547  0.63715  1.0000
  H   H785      1.0  0.49741  0.07978  0.72501  1.0000
  H   H786      1.0  0.52021  0.20547  0.56013  1.0000
  H   H787      1.0  0.49799  0.22355  0.78115  1.0000
  S   S162      1.0  0.70841  0.01317  0.99785  1.0000
  C   C655      1.0  0.50066  0.22969  0.53307  1.0000
  H   H788      1.0  0.57772  0.15995  0.52216  1.0000
  H   H789      1.0  0.78429  0.24153  0.75003  1.0000
  H   H790      1.0  0.52432  0.18531  0.53595  1.0000
  H   H791      1.0  0.76006  0.24383  0.70386  1.0000
  S   S163      1.0  0.49104  0.13789  0.65882  1.0000
  C   C656      1.0  0.49092  0.21240  0.75958  1.0000
  H   H792      1.0  0.54693  0.38907  0.28024  1.0000
  S   S164      1.0  0.84873  0.44709  0.36725  1.0000
  C   C657      1.0  0.55803  0.35460  0.48608  1.0000
  H   H793      1.0  0.90930  0.45019  0.15242  1.0000
  S   S165      1.0  0.83749  0.45209  0.28085  1.0000
  Fe  Fe79      1.0  0.82609  0.45653  0.33623  1.0000
  S   S166      1.0  0.79432  0.44815  0.35890  1.0000
  Fe  Fe80      1.0  0.86226  0.44599  0.31286  1.0000
  S   S167      1.0  0.87752  0.42361  0.30009  1.0000
  C   C658      1.0  0.49533  0.34607  0.24985  1.0000
  Fe  Fe81      1.0  0.86941  0.28576  0.25388  1.0000
  S   S168      1.0  0.83995  0.28729  0.23223  1.0000
  S   S169      1.0  0.89495  0.28521  0.21669  1.0000
  Fe  Fe82      1.0  0.85279  0.27593  0.33156  1.0000
  S   S170      1.0  0.82200  0.27611  0.31479  1.0000
  S   S171      1.0  0.85499  0.26380  0.38792  1.0000
  Fe  Fe83      1.0  0.82469  0.25902  0.26473  1.0000
  Fe  Fe84      1.0  0.84002  0.30457  0.28423  1.0000
  S   S172      1.0  0.82505  0.32804  0.28697  1.0000
  S   S173      1.0  0.91210  0.24699  0.00645  1.0000
  S   S174      1.0  0.87109  0.30567  0.30402  1.0000
  Fe  Fe85      1.0  0.70032  0.44721  0.27134  1.0000
  S   S175      1.0  0.71997  0.43121  0.24845  1.0000
  Fe  Fe86      1.0  0.65671  0.44568  0.28114  1.0000
  C   C659      1.0  0.79627  0.26159  0.42278  1.0000
  S   S176      1.0  0.62356  0.42729  0.26439  1.0000
  C   C660      1.0  0.50022  0.25775  0.49595  1.0000
  Fe  Fe87      1.0  0.69020  0.46762  0.33773  1.0000
  Fe  Fe88      1.0  0.89870  0.27122  0.99999  1.0000
  S   S177      1.0  0.67854  0.45461  0.23475  1.0000
  S   S178      1.0  0.67745  0.43517  0.31549  1.0000
  Fe  Fe89      1.0  0.55193  0.31792  0.32456  1.0000
  S   S179      1.0  0.52721  0.33046  0.31567  1.0000
  S   S180      1.0  0.58604  0.33708  0.32567  1.0000
  Fe  Fe90      1.0  0.52161  0.27601  0.34549  1.0000
  C   C661      1.0  0.76111  0.25226  0.28669  1.0000
  C   C662      1.0  0.70704  0.49380  0.16617  1.0000
  Fe  Fe91      1.0  0.51453  0.31472  0.36784  1.0000
  H   H794      1.0  0.54378  0.36433  0.44141  1.0000
  S   S181      1.0  0.53535  0.28872  0.29186  1.0000
  S   S182      1.0  0.54027  0.30407  0.37859  1.0000
  H   H795      1.0  0.51885  0.30286  0.19392  1.0000
  S   S183      1.0  0.70148  0.47049  0.39660  1.0000
  H   H796      1.0  0.50072  0.25219  0.17322  1.0000
  S   S184      1.0  0.66779  0.47760  0.30602  1.0000
  C   C663      1.0  0.90017  0.27468  0.10883  1.0000
  H   H797      1.0  0.66122  0.48774  0.20139  1.0000
  H   H798      1.0  0.87029  0.30304  0.10114  1.0000
  H   H799      1.0  0.90803  0.26716  0.09239  1.0000
  C   C664      1.0  0.61181  0.40294  0.28422  1.0000
  C   C665      1.0  0.62123  0.39719  0.31352  1.0000
  C   C666      1.0  0.61277  0.37710  0.32672  1.0000
  C   C667      1.0  0.59455  0.36275  0.31135  1.0000
  C   C668      1.0  0.58444  0.36876  0.28334  1.0000
  C   C669      1.0  0.59314  0.38881  0.26966  1.0000
  H   H800      1.0  0.63518  0.40817  0.32580  1.0000
  H   H801      1.0  0.62036  0.37260  0.34891  1.0000
  H   H802      1.0  0.57038  0.35772  0.27132  1.0000
  H   H803      1.0  0.58568  0.39321  0.24715  1.0000
  C   C670      1.0  0.89154  0.28433  0.16885  1.0000
  C   C671      1.0  0.50358  0.24773  0.46520  1.0000
  C   C672      1.0  0.79140  0.26009  0.46037  1.0000
  C   C673      1.0  0.88903  0.28515  0.09211  1.0000
  C   C674      1.0  0.87890  0.29487  0.11386  1.0000
  C   C675      1.0  0.88000  0.29433  0.15203  1.0000
  C   C676      1.0  0.68770  0.47123  0.43636  1.0000
  H   H804      1.0  0.51745  0.38058  0.31945  1.0000
  H   H805      1.0  0.87237  0.30213  0.16846  1.0000
  C   C677      1.0  0.77374  0.44264  0.32786  1.0000
  C   C678      1.0  0.75569  0.44482  0.33935  1.0000
  C   C679      1.0  0.73929  0.44151  0.31479  1.0000
  C   C680      1.0  0.74063  0.43538  0.27892  1.0000
  C   C681      1.0  0.75850  0.43274  0.26754  1.0000
  C   C682      1.0  0.77519  0.43660  0.29195  1.0000
  H   H806      1.0  0.75451  0.44946  0.36713  1.0000
  H   H807      1.0  0.72544  0.44333  0.32390  1.0000
  H   H808      1.0  0.75952  0.42793  0.23982  1.0000
  H   H809      1.0  0.78905  0.43471  0.28314  1.0000
  C   C683      1.0  0.86293  0.39699  0.29980  1.0000
  C   C684      1.0  0.87292  0.38321  0.29442  1.0000
  C   C685      1.0  0.86153  0.36191  0.29172  1.0000
  C   C686      1.0  0.84006  0.35436  0.29395  1.0000
  C   C687      1.0  0.83011  0.36812  0.29998  1.0000
  C   C688      1.0  0.84152  0.38941  0.30310  1.0000
  H   H810      1.0  0.88949  0.38903  0.29182  1.0000
  H   H811      1.0  0.86929  0.35140  0.28698  1.0000
  H   H812      1.0  0.81350  0.36232  0.30175  1.0000
  H   H813      1.0  0.83373  0.39994  0.30728  1.0000
  C   C689      1.0  0.86251  0.26963  0.46117  1.0000
  C   C690      1.0  0.86369  0.27932  0.42762  1.0000
  C   C691      1.0  0.87072  0.30082  0.42688  1.0000
  H   H814      1.0  0.66334  0.46012  0.16049  1.0000
  H   H815      1.0  0.87184  0.30847  0.40117  1.0000
  C   C692      1.0  0.75605  0.47998  0.49283  1.0000
  C   C693      1.0  0.87194  0.40386  0.49117  1.0000
  Fe  Fe92      1.0  0.69130  0.48578  0.26138  1.0000
  N   N45       1.0  0.96221  0.30952  0.07294  1.0000
  H   H816      1.0  0.95576  0.30045  0.01669  1.0000
  H   H817      1.0  0.54454  0.37045  0.22182  1.0000
  C   C694      1.0  0.50293  0.33140  0.45454  1.0000
  H   H818      1.0  0.58957  0.34067  0.41152  1.0000
  H   H819      1.0  0.50299  0.24902  0.27142  1.0000
  C   C695      1.0  0.58385  0.34104  0.46916  1.0000
  H   H820      1.0  0.91060  0.26678  0.16001  1.0000
  H   H821      1.0  0.49061  0.24566  0.10974  1.0000
  H   H822      1.0  0.81007  0.27326  0.41245  1.0000
  C   C696      1.0  0.87639  0.43795  0.47069  1.0000
  H   H823      1.0  0.92133  0.45005  0.21856  1.0000
  H   H824      1.0  0.84183  0.47996  0.43189  1.0000
  H   H825      1.0  0.82467  0.25752  0.49198  1.0000
  H   H826      1.0  0.95023  0.33054  0.04802  1.0000
  H   H827      1.0  0.64113  0.44187  0.18122  1.0000
  H   H828      1.0  0.88164  0.32905  0.45890  1.0000
  C   C697      1.0  0.55531  0.35824  0.44941  1.0000
  H   H829      1.0  0.98413  0.35209  0.06285  1.0000
  N   N46       1.0  0.89239  0.42969  0.19434  1.0000
  S   S185      1.0  0.50225  0.33237  0.40653  1.0000
  C   C698      1.0  0.88325  0.44487  0.20515  1.0000
  C   C699      1.0  0.91089  0.43352  0.21789  1.0000
  C   C700      1.0  0.87803  0.40797  0.19742  1.0000
  C   C701      1.0  0.85728  0.40229  0.20859  1.0000
  C   C702      1.0  0.88472  0.39166  0.18900  1.0000
  C   C703      1.0  0.84421  0.38160  0.21115  1.0000
  C   C704      1.0  0.87158  0.37103  0.19209  1.0000
  C   C705      1.0  0.85137  0.36602  0.20320  1.0000
  H   H830      1.0  0.83706  0.26147  0.14451  1.0000
  C   C706      1.0  0.50460  0.29647  0.17827  1.0000
  C   C707      1.0  0.84963  0.48364  0.45814  1.0000
  H   H831      1.0  0.86966  0.44340  0.18770  1.0000
  H   H832      1.0  0.89444  0.46103  0.20281  1.0000
  H   H833      1.0  0.87847  0.44309  0.23405  1.0000
  H   H834      1.0  0.66361  0.47335  0.10368  1.0000
  H   H835      1.0  0.90642  0.42909  0.24643  1.0000
  H   H836      1.0  0.92023  0.42465  0.20887  1.0000
  H   H837      1.0  0.85092  0.41347  0.21679  1.0000
  H   H838      1.0  0.90028  0.39473  0.18052  1.0000
  H   H839      1.0  0.82867  0.37757  0.22094  1.0000
  H   H840      1.0  0.87715  0.35882  0.18657  1.0000
  N   N47       1.0  0.63753  0.46968  0.16375  1.0000
  N   N48       1.0  0.66953  0.37627  0.26408  1.0000
  C   C708      1.0  0.66266  0.39285  0.25239  1.0000
  C   C709      1.0  0.68109  0.37191  0.23356  1.0000
  C   C710      1.0  0.65105  0.35733  0.27005  1.0000
  C   C711      1.0  0.68192  0.38271  0.29824  1.0000
  C   C712      1.0  0.67271  0.38605  0.33061  1.0000
  C   C713      1.0  0.70333  0.38637  0.30040  1.0000
  C   C714      1.0  0.68418  0.39283  0.36289  1.0000
  C   C715      1.0  0.71460  0.39291  0.33294  1.0000
  C   C716      1.0  0.70510  0.39629  0.36403  1.0000
  H   H841      1.0  0.67609  0.40742  0.24798  1.0000
  H   H842      1.0  0.65341  0.38874  0.22663  1.0000
  H   H843      1.0  0.65285  0.39627  0.27284  1.0000
  H   H844      1.0  0.69439  0.38602  0.22591  1.0000
  H   H845      1.0  0.67129  0.36663  0.20854  1.0000
  H   H846      1.0  0.68690  0.35965  0.24063  1.0000
  H   H847      1.0  0.64000  0.35997  0.28902  1.0000
  H   H848      1.0  0.64207  0.35131  0.24438  1.0000
  H   H849      1.0  0.65545  0.34491  0.28152  1.0000
  H   H850      1.0  0.65669  0.38412  0.33087  1.0000
  H   H851      1.0  0.71197  0.38499  0.27711  1.0000
  H   H852      1.0  0.67691  0.39591  0.38693  1.0000
  H   H853      1.0  0.73103  0.39617  0.33367  1.0000
  H   H854      1.0  0.71408  0.40201  0.38882  1.0000
  H   H855      1.0  0.94395  0.29132  0.11616  1.0000
  C   C717      1.0  0.53110  0.36672  0.23871  1.0000
  H   H856      1.0  0.84174  0.24511  0.20099  1.0000
  H   H857      1.0  0.53684  0.24944  0.29962  1.0000
  H   H858      1.0  0.84305  0.24906  0.08572  1.0000
  C   C718      1.0  0.78351  0.24751  0.39710  1.0000
  H   H859      1.0  0.75962  0.48455  0.43382  1.0000
  C   C719      1.0  0.90162  0.27451  0.14709  1.0000
  H   H860      1.0  0.73818  0.43914  0.48948  1.0000
  C   C720      1.0  0.83819  0.48157  0.48999  1.0000
  H   H861      1.0  0.93575  0.28608  0.04710  1.0000
  S   S186      1.0  0.71473  0.47897  0.29527  1.0000
  H   H862      1.0  0.87728  0.38392  0.45069  1.0000
  H   H863      1.0  0.77919  0.27897  0.31868  1.0000
  C   C721      1.0  0.53238  0.37721  0.27164  1.0000
  H   H864      1.0  0.56430  0.35579  0.39428  1.0000
  H   H865      1.0  0.88525  0.40964  0.40192  1.0000
  H   H866      1.0  0.95885  0.28107  0.04448  1.0000
  C   C722      1.0  0.94998  0.32284  0.07441  1.0000
  S   S187      1.0  0.85388  0.25623  0.28345  1.0000
  H   H867      1.0  0.81402  0.30170  0.45598  1.0000
  C   C723      1.0  0.67142  0.47821  0.43614  1.0000
  H   H868      1.0  0.82163  0.47627  0.48792  1.0000
  H   H869      1.0  0.79204  0.47149  0.24374  1.0000
  H   H870      1.0  0.49102  0.35548  0.45909  1.0000
  Fe  Fe93      1.0  0.50933  0.30010  0.28739  1.0000
  H   H871      1.0  0.90757  0.42425  0.14666  1.0000
  H   H872      1.0  0.88513  0.44431  0.41483  1.0000
  C   C724      1.0  0.50504  0.29457  0.14010  1.0000
  H   H873      1.0  0.83195  0.28882  0.45672  1.0000
  H   H874      1.0  0.50008  0.26154  0.23140  1.0000
  C   C725      1.0  0.75387  0.48843  0.45878  1.0000
  H   H875      1.0  0.60940  0.44689  0.18351  1.0000
  H   H876      1.0  0.86798  0.47870  0.19610  1.0000
  C   C726      1.0  0.82088  0.29292  0.47322  1.0000
  H   H877      1.0  0.96742  0.28757  0.10868  1.0000
  H   H878      1.0  0.85742  0.25305  0.46186  1.0000
  H   H879      1.0  0.51508  0.30746  0.45927  1.0000
  H   H880      1.0  0.75217  0.27379  0.36433  1.0000
  C   C727      1.0  0.96035  0.29935  0.10857  1.0000
  H   H881      1.0  0.76408  0.45426  0.44124  1.0000
  H   H882      1.0  0.51970  0.29949  0.12658  1.0000
  C   C728      1.0  0.88142  0.43297  0.43616  1.0000
  H   H883      1.0  0.84140  0.35004  0.20681  1.0000
  C   C729      1.0  0.76457  0.26601  0.31591  1.0000
  H   H884      1.0  0.95559  0.33467  0.09661  1.0000
  C   C730      1.0  0.87620  0.31244  0.45962  1.0000
  C   C731      1.0  0.89896  0.43380  0.15609  1.0000
  C   C732      1.0  0.87697  0.39902  0.45642  1.0000
  C   C733      1.0  0.74927  0.26308  0.34150  1.0000
  C   C734      1.0  0.88156  0.41349  0.42892  1.0000
  C   C735      1.0  0.66248  0.48068  0.46915  1.0000
  H   H885      1.0  0.88539  0.43046  0.13744  1.0000
  H   H886      1.0  0.71297  0.47825  0.11931  1.0000
  C   C736      1.0  0.56675  0.35334  0.42276  1.0000
  C   C737      1.0  0.49637  0.34508  0.47372  1.0000
  H   H887      1.0  0.70691  0.46059  0.47009  1.0000
  Fe  Fe94      1.0  0.86861  0.48054  0.36782  1.0000
  H   H888      1.0  0.70636  0.48166  0.18447  1.0000
  C   C738      1.0  0.64408  0.48558  0.13535  1.0000
  C   C739      1.0  0.73034  0.24649  0.33780  1.0000
  Fe  Fe95      1.0  0.85850  0.48550  0.28662  1.0000
  H   H889      1.0  0.64010  0.46786  0.22218  1.0000
  S   S188      1.0  0.88406  0.47912  0.31507  1.0000
  C   C740      1.0  0.69437  0.46603  0.46964  1.0000
  S   S189      1.0  0.88805  0.28748  0.04435  1.0000
  H   H890      1.0  0.49855  0.27243  0.49345  1.0000
  H   H891      1.0  0.93341  0.31379  0.07995  1.0000
  C   C741      1.0  0.61475  0.45937  0.16309  1.0000
  C   C742      1.0  0.58100  0.34478  0.43261  1.0000
  N   N49       1.0  0.76657  0.46531  0.49701  1.0000
  C   C743      1.0  0.51520  0.37211  0.29402  1.0000
  H   H892      1.0  0.96802  0.31078  0.13067  1.0000
  H   H893      1.0  0.88026  0.48022  0.13252  1.0000
  H   H894      1.0  0.77441  0.48035  0.29712  1.0000
  H   H895      1.0  0.49375  0.36014  0.35877  1.0000
  H   H896      1.0  0.87642  0.45325  0.47465  1.0000
  C   C744      1.0  0.71102  0.49199  0.12922  1.0000
  C   C745      1.0  0.64617  0.45344  0.15922  1.0000
  H   H897      1.0  0.77318  0.25445  0.26706  1.0000
  C   C746      1.0  0.95274  0.29359  0.04419  1.0000
  H   H898      1.0  0.60896  0.45238  0.13580  1.0000
  H   H899      1.0  0.64107  0.44483  0.13298  1.0000
  C   C747      1.0  0.84139  0.24817  0.14295  1.0000
  H   H900      1.0  0.50466  0.25478  0.43881  1.0000
  C   C748      1.0  0.50982  0.31797  0.47394  1.0000
  H   H901      1.0  0.78416  0.45084  0.46723  1.0000
  C   C749      1.0  0.77593  0.46151  0.46295  1.0000
  H   H902      1.0  0.78756  0.47601  0.45244  1.0000
  H   H903      1.0  0.60701  0.47017  0.16971  1.0000
  C   C750      1.0  0.80576  0.48504  0.25301  1.0000
  C   C751      1.0  0.65719  0.48507  0.10637  1.0000
  H   H904      1.0  0.81408  0.47967  0.27400  1.0000
  N   N50       1.0  0.80480  0.27438  0.48850  1.0000
  H   H905      1.0  0.66621  0.48235  0.41071  1.0000
  C   C752      1.0  0.64425  0.47943  0.20014  1.0000
  H   H906      1.0  0.59482  0.33402  0.47528  1.0000
  H   H907      1.0  0.65028  0.48661  0.46886  1.0000
  C   C753      1.0  0.87430  0.30266  0.49330  1.0000
  H   H908      1.0  0.63724  0.49075  0.20731  1.0000
  H   H909      1.0  0.51163  0.34282  0.20240  1.0000
  C   C754      1.0  0.98429  0.32082  0.06516  1.0000
  C   C755      1.0  0.51259  0.35122  0.22779  1.0000
  C   C756      1.0  0.87287  0.49300  0.18163  1.0000
  C   C757      1.0  0.49613  0.35613  0.28391  1.0000
  H   H910      1.0  0.79822  0.48995  0.32201  1.0000
  C   C758      1.0  0.86756  0.28120  0.49390  1.0000
  S   S190      1.0  0.49468  0.28554  0.33928  1.0000
  C   C759      1.0  0.57247  0.34586  0.49711  1.0000
  H   H911      1.0  0.83048  0.30361  0.49497  1.0000
  H   H912      1.0  0.78768  0.24880  0.36866  1.0000
  C   C760      1.0  0.87113  0.49079  0.46022  1.0000
  C   C761      1.0  0.49993  0.24662  0.24158  1.0000
  S   S191      1.0  0.84520  0.49025  0.34004  1.0000
  H   H913      1.0  0.81643  0.49009  0.22984  1.0000
  C   C762      1.0  0.78858  0.49434  0.30194  1.0000
  C   C763      1.0  0.87978  0.49393  0.14558  1.0000
  S   S192      1.0  0.88586  0.49382  0.42053  1.0000
  H   H914      1.0  0.71922  0.24516  0.35862  1.0000
  H   H915      1.0  0.78314  0.28892  0.49823  1.0000
  C   C764      1.0  0.87128  0.42350  0.49924  1.0000
  Fe  Fe96      1.0  0.86311  0.45313  0.66268  1.0000
  C   C765      1.0  0.78486  0.48721  0.74909  1.0000
  S   S193      1.0  0.88301  0.43474  0.65374  1.0000
  Fe  Fe97      1.0  0.82276  0.45533  0.68690  1.0000
  S   S194      1.0  0.79240  0.44097  0.71438  1.0000
  H   H916      1.0  0.54633  0.33998  0.55659  1.0000
  C   C766      1.0  0.94312  0.29520  0.80352  1.0000
  H   H917      1.0  0.93561  0.30150  0.82311  1.0000
  S   S195      1.0  0.83237  0.44467  0.63499  1.0000
  S   S196      1.0  0.85233  0.46021  0.71653  1.0000
  Fe  Fe98      1.0  0.84721  0.31683  0.65368  1.0000
  S   S197      1.0  0.87862  0.31632  0.64378  1.0000
  S   S198      1.0  0.83852  0.33982  0.68597  1.0000
  Fe  Fe99      1.0  0.82508  0.27523  0.61591  1.0000
  Fe  Fe100     1.0  0.86441  0.28314  0.66061  1.0000
  S   S199      1.0  0.87752  0.26594  0.69973  1.0000
  Fe  Fe101     1.0  0.86582  0.30425  0.58748  1.0000
  S   S200      1.0  0.88029  0.31764  0.53399  1.0000
  S   S201      1.0  0.83387  0.28453  0.67384  1.0000
  S   S202      1.0  0.83564  0.30758  0.59668  1.0000
  Fe  Fe102     1.0  0.51259  0.30748  0.70409  1.0000
  S   S203      1.0  0.69084  0.45569  0.68600  1.0000
  Fe  Fe103     1.0  0.67215  0.47348  0.59637  1.0000
  S   S204      1.0  0.66825  0.44076  0.60515  1.0000
  C   C767      1.0  0.70640  0.49281  0.81307  1.0000
  Fe  Fe104     1.0  0.65884  0.44538  0.66147  1.0000
  S   S205      1.0  0.62976  0.42584  0.68944  1.0000
  Fe  Fe105     1.0  0.70044  0.45446  0.62806  1.0000
  S   S206      1.0  0.72457  0.44470  0.60392  1.0000
  S   S207      1.0  0.66020  0.47732  0.65135  1.0000
  Fe  Fe106     1.0  0.51243  0.31622  0.62169  1.0000
  S   S208      1.0  0.53338  0.29990  0.60922  1.0000
  S   S209      1.0  0.83187  0.48803  0.66994  1.0000
  C   C768      1.0  0.88234  0.29055  0.76143  1.0000
  S   S210      1.0  0.53458  0.29111  0.69723  1.0000
  Fe  Fe107     1.0  0.55135  0.31653  0.65866  1.0000
  S   S211      1.0  0.58552  0.33124  0.64811  1.0000
  Fe  Fe108     1.0  0.51467  0.27628  0.64826  1.0000
  H   H918      1.0  0.94053  0.28716  0.71185  1.0000
  S   S212      1.0  0.53121  0.33429  0.66936  1.0000
  C   C769      1.0  0.78334  0.47330  0.52486  1.0000
  C   C770      1.0  0.79098  0.29439  0.70996  1.0000
  N   N51       1.0  0.90989  0.46542  0.75633  1.0000
  C   C771      1.0  0.59803  0.35739  0.66053  1.0000
  C   C772      1.0  0.61748  0.36875  0.64645  1.0000
  C   C773      1.0  0.62748  0.38980  0.65519  1.0000
  C   C774      1.0  0.61820  0.39941  0.67870  1.0000
  C   C775      1.0  0.59894  0.38798  0.69326  1.0000
  C   C776      1.0  0.58880  0.36706  0.68399  1.0000
  H   H919      1.0  0.62489  0.36125  0.62885  1.0000
  H   H920      1.0  0.64243  0.39847  0.64414  1.0000
  H   H921      1.0  0.59170  0.39534  0.71149  1.0000
  H   H922      1.0  0.57400  0.35834  0.69549  1.0000
  Fe  Fe109     1.0  0.93464  0.26425  0.96316  1.0000
  C   C777      1.0  0.92392  0.47449  0.85717  1.0000
  C   C778      1.0  0.95778  0.28656  0.81368  1.0000
  H   H923      1.0  0.82862  0.30386  0.80103  1.0000
  H   H924      1.0  0.60283  0.36874  0.54273  1.0000
  H   H925      1.0  0.78188  0.26931  0.53036  1.0000
  H   H926      1.0  0.61312  0.44233  0.62367  1.0000
  C   C779      1.0  0.88187  0.27188  0.74685  1.0000
  C   C780      1.0  0.88976  0.28083  0.82219  1.0000
  H   H927      1.0  0.96662  0.27249  0.72750  1.0000
  H   H928      1.0  0.80420  0.24979  0.52372  1.0000
  C   C781      1.0  0.49455  0.27195  0.83758  1.0000
  H   H929      1.0  0.79157  0.46261  0.52887  1.0000
  C   C782      1.0  0.50303  0.33202  0.53139  1.0000
  C   C783      1.0  0.91844  0.46494  0.82291  1.0000
  S   S213      1.0  0.89519  0.28768  0.86886  1.0000
  H   H930      1.0  0.87853  0.45149  0.57841  1.0000
  Fe  Fe110     1.0  0.90019  0.26949  0.91662  1.0000
  C   C784      1.0  0.77302  0.44089  0.68385  1.0000
  C   C785      1.0  0.75313  0.43736  0.69603  1.0000
  C   C786      1.0  0.73798  0.43841  0.67161  1.0000
  C   C787      1.0  0.74267  0.44246  0.63495  1.0000
  C   C788      1.0  0.76235  0.44536  0.62272  1.0000
  C   C789      1.0  0.77759  0.44497  0.64723  1.0000
  H   H931      1.0  0.74953  0.43400  0.72432  1.0000
  H   H932      1.0  0.72265  0.43577  0.68099  1.0000
  H   H933      1.0  0.76596  0.44821  0.59439  1.0000
  H   H934      1.0  0.79287  0.44772  0.63763  1.0000
  H   H935      1.0  0.96223  0.26159  0.89038  1.0000
  C   C790      1.0  0.80335  0.27442  0.75213  1.0000
  C   C791      1.0  0.81531  0.26332  0.50983  1.0000
  C   C792      1.0  0.87036  0.40830  0.66183  1.0000
  C   C793      1.0  0.85200  0.40114  0.68106  1.0000
  C   C794      1.0  0.84236  0.38007  0.68824  1.0000
  C   C795      1.0  0.85075  0.36602  0.67552  1.0000
  C   C796      1.0  0.86890  0.37313  0.65558  1.0000
  C   C797      1.0  0.87881  0.39429  0.64910  1.0000
  H   H936      1.0  0.84532  0.41182  0.69084  1.0000
  H   H937      1.0  0.82830  0.37463  0.70359  1.0000
  H   H938      1.0  0.87548  0.36238  0.64576  1.0000
  H   H939      1.0  0.89302  0.39976  0.63419  1.0000
  S   S214      1.0  0.85444  0.27100  0.60320  1.0000
  Fe  Fe111     1.0  0.84374  0.47793  0.61959  1.0000
  H   H940      1.0  0.83358  0.42108  0.51887  1.0000
  H   H941      1.0  0.97756  0.27190  0.79070  1.0000
  C   C798      1.0  0.49885  0.24879  0.52985  1.0000
  C   C799      1.0  0.49648  0.34543  0.51171  1.0000
  Fe  Fe112     1.0  0.86236  0.49247  0.69664  1.0000
  C   C800      1.0  0.59751  0.35185  0.54660  1.0000
  H   H942      1.0  0.70323  0.47803  0.82534  1.0000
  C   C801      1.0  0.96629  0.27863  0.78512  1.0000
  H   H943      1.0  0.79306  0.30902  0.69766  1.0000
  C   C802      1.0  0.56319  0.34818  0.56152  1.0000
  N   N52       1.0  0.64683  0.44642  0.80148  1.0000
  C   C803      1.0  0.62508  0.43401  0.79115  1.0000
  C   C804      1.0  0.66051  0.43911  0.77965  1.0000
  C   C805      1.0  0.64990  0.44235  0.84024  1.0000
  C   C806      1.0  0.65131  0.46842  0.79420  1.0000
  C   C807      1.0  0.80494  0.29349  0.73678  1.0000
  H   H944      1.0  0.95802  0.29238  0.90706  1.0000
  S   S215      1.0  0.49647  0.31161  0.75563  1.0000
  C   C808      1.0  0.84806  0.48612  0.52429  1.0000
  C   C809      1.0  0.90717  0.47898  0.72766  1.0000
  H   H945      1.0  0.94059  0.46962  0.74023  1.0000
  C   C810      1.0  0.60107  0.44235  0.53408  1.0000
  C   C811      1.0  0.88532  0.25768  0.77015  1.0000
  H   H946      1.0  0.65803  0.43995  0.74993  1.0000
  H   H947      1.0  0.65778  0.42269  0.78487  1.0000
  H   H948      1.0  0.67702  0.44844  0.78585  1.0000
  H   H949      1.0  0.88325  0.44062  0.73361  1.0000
  H   H950      1.0  0.64666  0.42575  0.84471  1.0000
  H   H951      1.0  0.66611  0.45105  0.84960  1.0000
  H   H952      1.0  0.65906  0.48073  0.85022  1.0000
  S   S216      1.0  0.50269  0.33397  0.57933  1.0000
  S   S217      1.0  0.96985  0.27138  0.96740  1.0000
  H   H953      1.0  0.53331  0.24945  0.68640  1.0000
  H   H954      1.0  0.49970  0.25193  0.70547  1.0000
  H   H955      1.0  0.57899  0.31262  0.52261  1.0000
  H   H956      1.0  0.88720  0.30974  0.80968  1.0000
  H   H957      1.0  0.90135  0.47041  0.70156  1.0000
  H   H958      1.0  0.60006  0.34927  0.57581  1.0000
  C   C812      1.0  0.80733  0.26403  0.81344  1.0000
  H   H959      1.0  0.94257  0.25388  0.85522  1.0000
  H   H960      1.0  0.89102  0.43546  0.77711  1.0000
  H   H961      1.0  0.87385  0.40816  0.56829  1.0000
  C   C813      1.0  0.68543  0.46845  0.50255  1.0000
  C   C814      1.0  0.93725  0.29553  0.76711  1.0000
  C   C815      1.0  0.80303  0.48717  0.76524  1.0000
  C   C816      1.0  0.86029  0.41229  0.56211  1.0000
  H   H962      1.0  0.92585  0.30194  0.75996  1.0000
  H   H963      1.0  0.80244  0.29337  0.53362  1.0000
  C   C817      1.0  0.96017  0.27892  0.74883  1.0000
  H   H964      1.0  0.88600  0.46103  0.53400  1.0000
  H   H965      1.0  0.92043  0.44908  0.71628  1.0000
  H   H966      1.0  0.84428  0.29984  0.76522  1.0000
  S   S218      1.0  0.83291  0.48316  0.56347  1.0000
  H   H967      1.0  0.83655  0.26467  0.74003  1.0000
  H   H968      1.0  0.85567  0.41698  0.58862  1.0000
  H   H969      1.0  0.81727  0.30793  0.74380  1.0000
  H   H970      1.0  0.84582  0.29102  0.81012  1.0000
  C   C818      1.0  0.54569  0.39414  0.56566  1.0000
  C   C819      1.0  0.49223  0.25276  0.73155  1.0000
  C   C820      1.0  0.95318  0.29370  0.87854  1.0000
  H   H971      1.0  0.86637  0.48161  0.84923  1.0000
  H   H972      1.0  0.51488  0.30782  0.52757  1.0000
  C   C821      1.0  0.77489  0.27654  0.69812  1.0000
  C   C822      1.0  0.95910  0.26339  0.86109  1.0000
  S   S219      1.0  0.65901  0.48046  0.54380  1.0000
  C   C823      1.0  0.98638  0.29689  0.85722  1.0000
  C   C824      1.0  0.56431  0.40935  0.55513  1.0000
  H   H973      1.0  0.77113  0.47379  0.75358  1.0000
  S   S220      1.0  0.87542  0.48588  0.64418  1.0000
  H   H974      1.0  0.52973  0.37328  0.60762  1.0000
  H   H975      1.0  0.89586  0.48586  0.73580  1.0000
  C   C825      1.0  0.58010  0.40564  0.61216  1.0000
  H   H976      1.0  0.92444  0.46554  0.88073  1.0000
  C   C826      1.0  0.60912  0.44810  0.59777  1.0000
  N   N53       1.0  0.81828  0.27272  0.77959  1.0000
  H   H977      1.0  0.73285  0.48980  0.70960  1.0000
  H   H978      1.0  0.56608  0.34495  0.59021  1.0000
  H   H979      1.0  0.62339  0.46117  0.59007  1.0000
  H   H980      1.0  0.56430  0.41591  0.52874  1.0000
  H   H981      1.0  0.64546  0.46403  0.73557  1.0000
  H   H982      1.0  0.62102  0.41733  0.79629  1.0000
  H   H983      1.0  0.92709  0.44565  0.76212  1.0000
  H   H984      1.0  0.59300  0.40942  0.63096  1.0000
  C   C827      1.0  0.56962  0.31886  0.53962  1.0000
  C   C828      1.0  0.91683  0.47614  0.79189  1.0000
  C   C829      1.0  0.61768  0.42261  0.56460  1.0000
  H   H985      1.0  0.77769  0.47546  0.55205  1.0000
  H   H986      1.0  0.60784  0.34608  0.53119  1.0000
  H   H987      1.0  0.88001  0.30172  0.74371  1.0000
  C   C830      1.0  0.88646  0.29506  0.79882  1.0000
  H   H988      1.0  0.82580  0.27344  0.53126  1.0000
  S   S221      1.0  0.92217  0.28930  0.95970  1.0000
  H   H989      1.0  0.51338  0.28382  0.79054  1.0000
  C   C831      1.0  0.56143  0.39053  0.62244  1.0000
  C   C832      1.0  0.94557  0.28724  0.73989  1.0000
  C   C833      1.0  0.75148  0.44524  0.50899  1.0000
  H   H990      1.0  0.70105  0.48034  0.75813  1.0000
  S   S222      1.0  0.70500  0.48712  0.61623  1.0000
  H   H991      1.0  0.62075  0.41618  0.59058  1.0000
  Fe  Fe113     1.0  0.69282  0.48749  0.67258  1.0000
  H   H992      1.0  0.50254  0.26202  0.84518  1.0000
  C   C834      1.0  0.79245  0.28176  0.51351  1.0000
  H   H993      1.0  0.62186  0.43512  0.76175  1.0000
  N   N54       1.0  0.57552  0.34135  0.53554  1.0000
  C   C835      1.0  0.74695  0.48568  0.52330  1.0000
  H   H994      1.0  0.80270  0.47407  0.78100  1.0000
  N   N55       1.0  0.96391  0.28526  0.85200  1.0000
  H   H995      1.0  0.61428  0.43922  0.80653  1.0000
  H   H996      1.0  0.89177  0.25101  0.82529  1.0000
  H   H997      1.0  0.96847  0.25649  0.84556  1.0000
  H   H998      1.0  0.56703  0.36502  0.56014  1.0000
  S   S223      1.0  0.87543  0.25384  0.95679  1.0000
  H   H999      1.0  0.69107  0.46478  0.52799  1.0000
  H   H1000     1.0  0.95660  0.31033  0.87419  1.0000
  H   H1001     1.0  0.83989  0.25752  0.78541  1.0000
  C   C836      1.0  0.88912  0.26205  0.80771  1.0000
  H   H1002     1.0  0.61271  0.40995  0.54384  1.0000
  H   H1003     1.0  0.56026  0.38313  0.64853  1.0000
  C   C837      1.0  0.64990  0.47490  0.75818  1.0000
  H   H1004     1.0  0.57184  0.31494  0.56827  1.0000
  H   H1005     1.0  0.63938  0.44656  0.85824  1.0000
  H   H1006     1.0  0.86306  0.48461  0.78269  1.0000
  H   H1007     1.0  0.93617  0.28524  0.87685  1.0000
  H   H1008     1.0  0.86646  0.27355  0.51957  1.0000
  C   C838      1.0  0.50980  0.31823  0.51251  1.0000
  C   C839      1.0  0.88981  0.44802  0.76035  1.0000
  C   C840      1.0  0.50053  0.28403  0.80625  1.0000
  H   H1009     1.0  0.49628  0.25660  0.55389  1.0000
  H   H1010     1.0  0.55314  0.31036  0.53175  1.0000
  C   C841      1.0  0.92519  0.45709  0.74326  1.0000
  S   S224      1.0  0.79373  0.25382  0.59618  1.0000
  H   H1011     1.0  0.87835  0.45333  0.77332  1.0000
  C   C842      1.0  0.65714  0.48392  0.82207  1.0000
  H   H1012     1.0  0.54820  0.35826  0.50505  1.0000
  H   H1013     1.0  0.49119  0.35606  0.52598  1.0000
  H   H1014     1.0  0.76862  0.48219  0.66665  1.0000
  C   C843      1.0  0.88235  0.44716  0.55097  1.0000
  H   H1015     1.0  0.53221  0.38943  0.54775  1.0000
  N   N56       1.0  0.60202  0.43195  0.56865  1.0000
  H   H1016     1.0  0.91514  0.44861  0.82102  1.0000
  H   H1017     1.0  0.89669  0.44395  0.55405  1.0000
  H   H1018     1.0  0.84190  0.43891  0.55693  1.0000
  H   H1019     1.0  0.75857  0.43352  0.51154  1.0000
  C   C844      1.0  0.58207  0.41578  0.57847  1.0000
  H   H1020     1.0  0.74505  0.47237  0.71834  1.0000
  H   H1021     1.0  0.76438  0.27726  0.67680  1.0000
  H   H1022     1.0  0.59713  0.45448  0.60369  1.0000
  C   C845      1.0  0.54422  0.38491  0.59938  1.0000
  H   H1023     1.0  0.61618  0.45479  0.52804  1.0000
  H   H1024     1.0  0.50361  0.25394  0.75356  1.0000
  H   H1025     1.0  0.63272  0.43421  0.55582  1.0000
  H   H1026     1.0  0.98376  0.31687  0.96003  1.0000
  C   C846      1.0  0.83492  0.29277  0.78934  1.0000
  H   H1027     1.0  0.84717  0.39825  0.55264  1.0000
  N   N57       1.0  0.86529  0.42904  0.53518  1.0000
  H   H1028     1.0  0.79893  0.27359  0.82395  1.0000
  H   H1029     1.0  0.79589  0.24808  0.80921  1.0000
  H   H1030     1.0  0.81822  0.26329  0.83525  1.0000
  H   H1031     1.0  0.84952  0.44747  0.51224  1.0000
  C   C847      1.0  0.74676  0.48862  0.72278  1.0000
  C   C848      1.0  0.78656  0.25660  0.73981  1.0000
  C   C849      1.0  0.82826  0.25884  0.76567  1.0000
  H   H1032     1.0  0.74506  0.44641  0.53604  1.0000
  S   S225      1.0  0.49183  0.29121  0.65693  1.0000
  C   C850      1.0  0.84679  0.43432  0.53063  1.0000
  H   H1033     1.0  0.86861  0.39193  0.51113  1.0000
  H   H1034     1.0  0.58957  0.44978  0.53535  1.0000
  C   C851      1.0  0.77254  0.25773  0.71332  1.0000
  H   H1035     1.0  0.74594  0.49160  0.75242  1.0000
  S   S226      1.0  0.91355  0.24486  0.91793  1.0000
  H   H1036     1.0  0.92196  0.49167  0.72129  1.0000
  H   H1037     1.0  0.59741  0.43150  0.51035  1.0000
  H   H1038     1.0  0.79503  0.48846  0.51705  1.0000
  H   H1039     1.0  0.74727  0.47928  0.54982  1.0000
  C   C852      1.0  0.66967  0.47612  0.50253  1.0000
  C   C853      1.0  0.86955  0.49286  0.52650  1.0000
  C   C854      1.0  0.70514  0.49406  0.77498  1.0000
  Fe  Fe114     1.0  0.51241  0.60638  0.35947  1.0000
  C   C855      1.0  0.49921  0.68862  0.31942  1.0000
  S   S227      1.0  0.51599  0.59075  0.41135  1.0000
  Fe  Fe115     1.0  0.52980  0.62383  0.28535  1.0000
  C   C856      1.0  0.58523  0.60682  0.38784  1.0000
  S   S228      1.0  0.55939  0.63161  0.25311  1.0000
  S   S229      1.0  0.86182  0.50967  0.24312  1.0000
  C   C857      1.0  0.79294  0.51208  0.07344  1.0000
  C   C858      1.0  0.79539  0.51413  0.20510  1.0000
  S   S230      1.0  0.53332  0.63773  0.34207  1.0000
  S   S231      1.0  0.51088  0.59174  0.30391  1.0000
  C   C859      1.0  0.75616  0.64331  0.03794  1.0000
  C   C860      1.0  0.52530  0.71374  0.40351  1.0000
  C   C861      1.0  0.76041  0.60556  0.06548  1.0000
  C   C862      1.0  0.77573  0.53601  0.06663  1.0000
  C   C863      1.0  0.56306  0.72473  0.14851  1.0000
  H   H1040     1.0  0.60571  0.71686  0.10758  1.0000
  S   S232      1.0  0.56380  0.64225  0.08058  1.0000
  C   C864      1.0  0.57845  0.73170  0.07623  1.0000
  Fe  Fe116     1.0  0.90280  0.53598  0.03474  1.0000
  S   S233      1.0  0.91773  0.57063  0.03669  1.0000
  S   S234      1.0  0.89300  0.51205  0.07988  1.0000
  H   H1041     1.0  0.58069  0.63933  0.32305  1.0000
  S   S235      1.0  0.72859  0.56103  0.02306  1.0000
  H   H1042     1.0  0.50954  0.70156  0.40361  1.0000
  C   C865      1.0  0.75504  0.51039  0.21866  1.0000
  H   H1043     1.0  0.75824  0.65004  0.06599  1.0000
  H   H1044     1.0  0.55011  0.70271  0.23126  1.0000
  S   S236      1.0  0.50227  0.63151  0.27079  1.0000
  C   C866      1.0  0.73491  0.50733  0.48633  1.0000
  C   C867      1.0  0.65416  0.59434  0.00202  1.0000
  H   H1045     1.0  0.85246  0.55314  0.09695  1.0000
  C   C868      1.0  0.49203  0.70403  0.32933  1.0000
  C   C869      1.0  0.50938  0.70476  0.26119  1.0000
  C   C870      1.0  0.85102  0.54223  0.07389  1.0000
  H   H1046     1.0  0.63779  0.53005  0.11067  1.0000
  H   H1047     1.0  0.53171  0.63456  0.42999  1.0000
  H   H1048     1.0  0.81097  0.51582  0.19876  1.0000
  H   H1049     1.0  0.56252  0.69680  0.03915  1.0000
  H   H1050     1.0  0.75985  0.50335  0.07030  1.0000
  N   N58       1.0  0.83165  0.52367  0.07544  1.0000
  C   C871      1.0  0.81268  0.52828  0.07291  1.0000
  H   H1051     1.0  0.59114  0.69057  0.09378  1.0000
  H   H1052     1.0  0.81448  0.53305  0.28657  1.0000
  C   C872      1.0  0.71011  0.52555  0.11817  1.0000
  C   C873      1.0  0.70614  0.52737  0.15530  1.0000
  C   C874      1.0  0.60100  0.59928  0.39598  1.0000
  C   C875      1.0  0.49424  0.72024  0.30580  1.0000
  H   H1053     1.0  0.71107  0.53774  0.09969  1.0000
  H   H1054     1.0  0.70414  0.54105  0.16533  1.0000
  C   C876      1.0  0.56490  0.69095  0.14904  1.0000
  C   C877      1.0  0.88584  0.51238  0.12610  1.0000
  C   C878      1.0  0.88498  0.52997  0.14326  1.0000
  C   C879      1.0  0.87777  0.52893  0.17917  1.0000
  C   C880      1.0  0.87179  0.51049  0.19864  1.0000
  H   H1055     1.0  0.75361  0.65454  0.01924  1.0000
  H   H1056     1.0  0.57284  0.63776  0.36910  1.0000
  H   H1057     1.0  0.88977  0.54432  0.12888  1.0000
  H   H1058     1.0  0.87704  0.54258  0.19211  1.0000
  C   C881      1.0  0.60406  0.59374  0.43138  1.0000
  H   H1059     1.0  0.75038  0.57173  0.13496  1.0000
  C   C882      1.0  0.55878  0.68876  0.18527  1.0000
  C   C883      1.0  0.78376  0.51906  0.17821  1.0000
  C   C884      1.0  0.56045  0.63406  0.20500  1.0000
  C   C885      1.0  0.54265  0.62990  0.18363  1.0000
  C   C886      1.0  0.54406  0.63216  0.14562  1.0000
  C   C887      1.0  0.56323  0.63859  0.12839  1.0000
  C   C888      1.0  0.58108  0.64284  0.14974  1.0000
  C   C889      1.0  0.57967  0.64053  0.18785  1.0000
  H   H1060     1.0  0.52776  0.62490  0.19634  1.0000
  H   H1061     1.0  0.53016  0.62895  0.12942  1.0000
  H   H1062     1.0  0.59595  0.64795  0.13696  1.0000
  H   H1063     1.0  0.59356  0.64386  0.20411  1.0000
  H   H1064     1.0  0.84583  0.50911  0.11242  1.0000
  C   C890      1.0  0.83193  0.50971  0.04497  1.0000
  H   H1065     1.0  0.66053  0.52820  0.06092  1.0000
  C   C891      1.0  0.78707  0.50706  0.23968  1.0000
  H   H1066     1.0  0.49627  0.73110  0.40323  1.0000
  C   C892      1.0  0.59501  0.60966  0.32271  1.0000
  H   H1067     1.0  0.51365  0.67720  0.27767  1.0000
  C   C893      1.0  0.51846  0.59354  0.48595  1.0000
  C   C894      1.0  0.52135  0.60446  0.45338  1.0000
  C   C895      1.0  0.52941  0.62599  0.45488  1.0000
  H   H1068     1.0  0.71148  0.59984  0.08959  1.0000
  N   N59       1.0  0.58115  0.61251  0.35072  1.0000
  H   H1069     1.0  0.53629  0.70742  0.41551  1.0000
  C   C896      1.0  0.64310  0.51739  0.10947  1.0000
  H   H1070     1.0  0.82725  0.56196  0.06834  1.0000
  C   C897      1.0  0.74811  0.58224  0.11555  1.0000
  H   H1071     1.0  0.61607  0.58788  0.43704  1.0000
  C   C898      1.0  0.57611  0.60290  0.45242  1.0000
  S   S237      1.0  0.69938  0.51400  0.22592  1.0000
  C   C899      1.0  0.70447  0.51144  0.17941  1.0000
  C   C900      1.0  0.58368  0.63449  0.35062  1.0000
  H   H1072     1.0  0.82868  0.52539  0.25288  1.0000
  C   C901      1.0  0.50802  0.68902  0.28542  1.0000
  H   H1073     1.0  0.77100  0.64233  0.02982  1.0000
  C   C902      1.0  0.53506  0.63648  0.48862  1.0000
  H   H1074     1.0  0.85214  0.55055  0.04789  1.0000
  H   H1075     1.0  0.59390  0.59099  0.48680  1.0000
  H   H1076     1.0  0.71754  0.57715  0.13332  1.0000
  Fe  Fe117     1.0  0.50421  0.64256  0.32873  1.0000
  C   C903      1.0  0.55809  0.69569  0.06830  1.0000
  H   H1077     1.0  0.55326  0.73435  0.19863  1.0000
  C   C904      1.0  0.74341  0.50188  0.45580  1.0000
  H   H1078     1.0  0.55516  0.67959  0.07635  1.0000
  C   C905      1.0  0.81306  0.54861  0.06953  1.0000
  H   H1079     1.0  0.71769  0.63746  0.01962  1.0000
  H   H1080     1.0  0.55704  0.67475  0.19950  1.0000
  S   S238      1.0  0.61838  0.67792  0.03173  1.0000
  H   H1081     1.0  0.51576  0.70493  0.23455  1.0000
  C   C906      1.0  0.79479  0.55228  0.06630  1.0000
  C   C907      1.0  0.77480  0.51596  0.07039  1.0000
  C   C908      1.0  0.51532  0.71011  0.47896  1.0000
  H   H1082     1.0  0.76160  0.53885  0.06342  1.0000
  H   H1083     1.0  0.86494  0.53814  0.07550  1.0000
  C   C909      1.0  0.55481  0.70445  0.20313  1.0000
  H   H1084     1.0  0.55629  0.60275  0.31086  1.0000
  H   H1085     1.0  0.59133  0.61415  0.29522  1.0000
  C   C910      1.0  0.71942  0.62679  0.04046  1.0000
  H   H1086     1.0  0.56746  0.67824  0.13617  1.0000
  C   C911      1.0  0.72960  0.58533  0.11458  1.0000
  H   H1087     1.0  0.84635  0.50642  0.04547  1.0000
  H   H1088     1.0  0.73936  0.50897  0.22397  1.0000
  H   H1089     1.0  0.54812  0.60242  0.35659  1.0000
  H   H1090     1.0  0.51236  0.57689  0.48500  1.0000
  C   C912      1.0  0.59162  0.59549  0.45949  1.0000
  H   H1091     1.0  0.56624  0.60409  0.47416  1.0000
  H   H1092     1.0  0.71887  0.63375  0.06759  1.0000
  C   C913      1.0  0.65587  0.51638  0.08141  1.0000
  H   H1093     1.0  0.63441  0.61133  0.01207  1.0000
  C   C914      1.0  0.83206  0.51334  0.11024  1.0000
  Fe  Fe118     1.0  0.58720  0.65213  0.03484  1.0000
  C   C915      1.0  0.51890  0.72900  0.46106  1.0000
  H   H1094     1.0  0.77252  0.61237  0.04618  1.0000
  H   H1095     1.0  0.54322  0.69790  0.07019  1.0000
  H   H1096     1.0  0.58414  0.73282  0.04790  1.0000
  N   N60       1.0  0.52593  0.73264  0.42301  1.0000
  C   C916      1.0  0.76358  0.51711  0.18496  1.0000
  C   C917      1.0  0.57299  0.60856  0.41723  1.0000
  H   H1097     1.0  0.61106  0.59739  0.37548  1.0000
  H   H1098     1.0  0.51689  0.69704  0.46542  1.0000
  H   H1099     1.0  0.61142  0.61941  0.32875  1.0000
  N   N61       1.0  0.79960  0.50168  0.26748  1.0000
  H   H1100     1.0  0.82806  0.51658  0.29792  1.0000
  H   H1101     1.0  0.77777  0.58971  0.09140  1.0000
  H   H1102     1.0  0.59957  0.64466  0.35932  1.0000
  H   H1103     1.0  0.56063  0.61403  0.41313  1.0000
  C   C918      1.0  0.50288  0.72058  0.27170  1.0000
  H   H1104     1.0  0.52963  0.71671  0.37447  1.0000
  C   C919      1.0  0.55675  0.72232  0.18472  1.0000
  C   C920      1.0  0.76350  0.59237  0.09108  1.0000
  H   H1105     1.0  0.74115  0.50746  0.42935  1.0000
  H   H1106     1.0  0.55683  0.58293  0.34092  1.0000
  C   C921      1.0  0.74178  0.60920  0.06388  1.0000
  N   N62       1.0  0.57432  0.71100  0.09137  1.0000
  H   H1107     1.0  0.79038  0.52444  0.15202  1.0000
  H   H1108     1.0  0.59329  0.59325  0.32016  1.0000
  H   H1109     1.0  0.79547  0.56782  0.06231  1.0000
  H   H1110     1.0  0.54169  0.65312  0.48947  1.0000
  C   C922      1.0  0.81844  0.51998  0.27654  1.0000
  C   C923      1.0  0.55972  0.59963  0.33933  1.0000
  C   C924      1.0  0.59357  0.70689  0.08833  1.0000
  H   H1111     1.0  0.64449  0.58099  0.01668  1.0000
  S   S239      1.0  0.71689  0.50422  0.05866  1.0000
  C   C925      1.0  0.71247  0.50776  0.10501  1.0000
  H   H1112     1.0  0.59988  0.70979  0.06038  1.0000
  C   C926      1.0  0.72635  0.59855  0.08919  1.0000
  H   H1113     1.0  0.83259  0.52354  0.13398  1.0000
  H   H1114     1.0  0.79135  0.49620  0.07580  1.0000
  H   H1115     1.0  0.75448  0.52079  0.16410  1.0000
  C   C927      1.0  0.56757  0.70911  0.12964  1.0000
  H   H1116     1.0  0.89770  0.50097  0.49626  1.0000
  H   H1117     1.0  0.78425  0.50639  0.31541  1.0000
  H   H1118     1.0  0.75876  0.50017  0.27099  1.0000
  H   H1119     1.0  0.67297  0.49963  0.05815  1.0000
  H   H1120     1.0  0.98768  0.59077  0.10224  1.0000
  H   H1121     1.0  0.72622  0.51719  0.48358  1.0000
  N   N63       1.0  0.73878  0.62300  0.03608  1.0000
  Fe  Fe119     1.0  0.71916  0.52717  0.01429  1.0000
  C   C928      1.0  0.76649  0.50539  0.24569  1.0000
  H   H1122     1.0  0.62734  0.50373  0.15726  1.0000
  S   S240      1.0  0.49675  0.66899  0.35007  1.0000
  H   H1123     1.0  0.83101  0.51664  0.01824  1.0000
  C   C929      1.0  0.51285  0.74119  0.40183  1.0000
  C   C930      1.0  0.63722  0.50224  0.13603  1.0000
  H   H1124     1.0  0.81852  0.49876  0.11315  1.0000
  H   H1125     1.0  0.56426  0.73525  0.07479  1.0000
  H   H1126     1.0  0.56425  0.73897  0.13600  1.0000
  S   S241      1.0  0.50537  0.74053  0.24182  1.0000
  C   C931      1.0  0.66280  0.50022  0.07981  1.0000
  H   H1127     1.0  0.51714  0.74305  0.37263  1.0000
  H   H1128     1.0  0.70556  0.61233  0.03694  1.0000
  C   C932      1.0  0.88105  0.49540  0.49450  1.0000
  H   H1129     1.0  0.59054  0.74397  0.09246  1.0000
  H   H1130     1.0  0.55805  0.74165  0.43746  1.0000
  H   H1131     1.0  0.81899  0.49452  0.04589  1.0000
  Fe  Fe120     1.0  0.53727  0.62203  0.69796  1.0000
  H   H1132     1.0  0.56231  0.73475  0.81321  1.0000
  S   S242      1.0  0.56477  0.63684  0.73638  1.0000
  Fe  Fe121     1.0  0.52768  0.62388  0.61594  1.0000
  S   S243      1.0  0.97364  0.58087  0.98460  1.0000
  S   S244      1.0  0.54037  0.63930  0.56284  1.0000
  H   H1133     1.0  0.57914  0.59719  0.75968  1.0000
  H   H1134     1.0  0.53750  0.70837  0.88630  1.0000
  H   H1135     1.0  0.76554  0.52965  0.73736  1.0000
  S   S245      1.0  0.53089  0.64516  0.66368  1.0000
  S   S246      1.0  0.53698  0.60202  0.64922  1.0000
  C   C933      1.0  0.51267  0.68929  0.62039  1.0000
  S   S247      1.0  0.87944  0.51972  0.73457  1.0000
  H   H1136     1.0  0.84722  0.55917  0.82194  1.0000
  C   C934      1.0  0.65459  0.49562  0.75042  1.0000
  Fe  Fe122     1.0  0.58368  0.64643  0.95074  1.0000
  S   S248      1.0  0.61415  0.67198  0.94216  1.0000
  S   S249      1.0  0.56078  0.62659  0.90806  1.0000
  H   H1137     1.0  0.63040  0.59432  0.92896  1.0000
  H   H1138     1.0  0.83587  0.50274  0.77080  1.0000
  H   H1139     1.0  0.72940  0.50296  0.54344  1.0000
  H   H1140     1.0  0.72469  0.59888  0.99634  1.0000
  S   S250      1.0  0.59465  0.63112  0.99531  1.0000
  Fe  Fe123     1.0  0.90049  0.53485  0.95039  1.0000
  S   S251      1.0  0.91489  0.56927  0.94656  1.0000
  S   S252      1.0  0.88685  0.51048  0.90580  1.0000
  Fe  Fe124     1.0  0.71759  0.53054  0.93093  1.0000
  S   S253      1.0  0.72707  0.56513  0.93380  1.0000
  C   C935      1.0  0.56562  0.68723  0.83772  1.0000
  C   C936      1.0  0.85423  0.55158  0.84153  1.0000
  H   H1141     1.0  0.68901  0.64274  0.95171  1.0000
  H   H1142     1.0  0.57350  0.72518  0.64582  1.0000
  H   H1143     1.0  0.52190  0.69050  0.59663  1.0000
  H   H1144     1.0  0.85109  0.54245  0.93224  1.0000
  H   H1145     1.0  0.81947  0.51607  0.85964  1.0000
  C   C937      1.0  0.83110  0.56739  0.98670  1.0000
  C   C938      1.0  0.82551  0.54695  0.88141  1.0000
  C   C939      1.0  0.82247  0.51930  0.73690  1.0000
  C   C940      1.0  0.66097  0.62928  0.98164  1.0000
  H   H1146     1.0  0.63828  0.60280  0.88445  1.0000
  H   H1147     1.0  0.50144  0.69185  0.77531  1.0000
  H   H1148     1.0  0.56699  0.58273  0.87112  1.0000
  C   C941      1.0  0.60581  0.60793  0.79536  1.0000
  C   C942      1.0  0.68477  0.61184  0.96777  1.0000
  H   H1149     1.0  0.69874  0.61212  0.95525  1.0000
  H   H1150     1.0  0.58495  0.57415  0.91837  1.0000
  C   C943      1.0  0.51079  0.74241  0.51847  1.0000
  H   H1151     1.0  0.85730  0.61898  0.99683  1.0000
  C   C944      1.0  0.57136  0.58832  0.81497  1.0000
  Fe  Fe125     1.0  0.50295  0.58666  0.66005  1.0000
  H   H1152     1.0  0.57438  0.73611  0.70889  1.0000
  C   C945      1.0  0.71545  0.52953  0.81936  1.0000
  H   H1153     1.0  0.50098  0.64113  0.75352  1.0000
  Fe  Fe126     1.0  0.93781  0.56815  0.99004  1.0000
  H   H1154     1.0  0.77696  0.53567  0.69312  1.0000
  H   H1155     1.0  0.71759  0.54560  0.76887  1.0000
  H   H1156     1.0  0.71919  0.54323  0.83628  1.0000
  H   H1157     1.0  0.54831  0.67818  0.61237  1.0000
  H   H1158     1.0  0.87733  0.49655  0.55275  1.0000
  C   C946      1.0  0.88134  0.51706  0.78223  1.0000
  C   C947      1.0  0.89260  0.53441  0.80396  1.0000
  C   C948      1.0  0.89435  0.53279  0.84195  1.0000
  C   C949      1.0  0.88490  0.51373  0.85844  1.0000
  H   H1159     1.0  0.85469  0.58641  0.87315  1.0000
  H   H1160     1.0  0.83728  0.53120  0.73101  1.0000
  H   H1161     1.0  0.90011  0.54915  0.79130  1.0000
  H   H1162     1.0  0.90329  0.54617  0.85835  1.0000
  C   C950      1.0  0.51329  0.70711  0.63867  1.0000
  H   H1163     1.0  0.58803  0.68431  0.74373  1.0000
  S   S254      1.0  0.50390  0.60500  0.71124  1.0000
  S   S255      1.0  0.69382  0.52502  0.97453  1.0000
  C   C951      1.0  0.56343  0.63383  0.78407  1.0000
  C   C952      1.0  0.58067  0.64521  0.80595  1.0000
  C   C953      1.0  0.58002  0.64350  0.84408  1.0000
  C   C954      1.0  0.56214  0.63026  0.86054  1.0000
  C   C955      1.0  0.54493  0.61889  0.83862  1.0000
  C   C956      1.0  0.54554  0.62068  0.80055  1.0000
  H   H1164     1.0  0.59461  0.65534  0.79339  1.0000
  H   H1165     1.0  0.59339  0.65225  0.86065  1.0000
  H   H1166     1.0  0.53111  0.60850  0.85118  1.0000
  H   H1167     1.0  0.53224  0.61167  0.78402  1.0000
  H   H1168     1.0  0.65418  0.50032  0.72253  1.0000
  Fe  Fe127     1.0  0.75012  0.56385  0.97667  1.0000
  C   C957      1.0  0.73667  0.49924  0.52001  1.0000
  H   H1169     1.0  0.93205  0.50280  0.88815  1.0000
  H   H1170     1.0  0.93110  0.52342  0.83486  1.0000
  H   H1171     1.0  0.80603  0.53163  0.70163  1.0000
  H   H1172     1.0  0.55667  0.67074  0.78743  1.0000
  S   S256      1.0  0.49389  0.60711  0.62307  1.0000
  C   C958      1.0  0.58493  0.59758  0.78729  1.0000
  N   N64       1.0  0.51839  0.67170  0.77494  1.0000
  C   C959      1.0  0.52830  0.68005  0.74012  1.0000
  C   C960      1.0  0.51310  0.64912  0.77448  1.0000
  N   N65       1.0  0.76612  0.50334  0.70725  1.0000
  N   N66       1.0  0.60792  0.60196  0.89792  1.0000
  H   H1173     1.0  0.78638  0.56224  0.90774  1.0000
  Fe  Fe128     1.0  0.70473  0.55969  0.98016  1.0000
  H   H1174     1.0  0.52142  0.59546  0.54465  1.0000
  H   H1175     1.0  0.58003  0.68485  0.83944  1.0000
  H   H1176     1.0  0.54198  0.67612  0.73483  1.0000
  H   H1177     1.0  0.51768  0.67349  0.71652  1.0000
  H   H1178     1.0  0.53312  0.69708  0.73943  1.0000
  H   H1179     1.0  0.61336  0.71127  0.61445  1.0000
  C   C961      1.0  0.66051  0.51043  0.77824  1.0000
  C   C962      1.0  0.81074  0.56723  0.98397  1.0000
  C   C963      1.0  0.54162  0.70039  0.86413  1.0000
  S   S257      1.0  0.65522  0.65207  0.97961  1.0000
  C   C964      1.0  0.79131  0.51959  0.87159  1.0000
  C   C965      1.0  0.52800  0.69243  0.83456  1.0000
  N   N67       1.0  0.58122  0.69217  0.61806  1.0000
  C   C966      1.0  0.56167  0.68994  0.59909  1.0000
  C   C967      1.0  0.59840  0.70862  0.60031  1.0000
  C   C968      1.0  0.58435  0.67250  0.61269  1.0000
  C   C969      1.0  0.58052  0.69789  0.65681  1.0000
  C   C970      1.0  0.58437  0.68657  0.68594  1.0000
  C   C971      1.0  0.57672  0.71582  0.66637  1.0000
  C   C972      1.0  0.56032  0.69767  0.86584  1.0000
  H   H1180     1.0  0.55892  0.70455  0.59853  1.0000
  C   C973      1.0  0.92198  0.49767  0.79702  1.0000
  C   C974      1.0  0.67915  0.62920  0.96569  1.0000
  Fe  Fe129     1.0  0.62506  0.65746  0.98890  1.0000
  C   C975      1.0  0.71449  0.53082  0.78115  1.0000
  H   H1181     1.0  0.56133  0.68481  0.57022  1.0000
  C   C976      1.0  0.85925  0.57591  0.89057  1.0000
  H   H1182     1.0  0.57178  0.65940  0.62513  1.0000
  H   H1183     1.0  0.58411  0.66828  0.58331  1.0000
  H   H1184     1.0  0.59942  0.67335  0.62419  1.0000
  H   H1185     1.0  0.58697  0.67247  0.68167  1.0000
  H   H1186     1.0  0.79771  0.55281  0.98043  1.0000
  Fe  Fe130     1.0  0.60508  0.69018  0.98521  1.0000
  H   H1187     1.0  0.61624  0.61542  0.77380  1.0000
  H   H1188     1.0  0.57058  0.70337  0.88930  1.0000
  C   C977      1.0  0.61319  0.60908  0.83116  1.0000
  H   H1189     1.0  0.62991  0.63326  0.89249  1.0000
  S   S258      1.0  0.87826  0.53479  0.99384  1.0000
  C   C978      1.0  0.78182  0.53242  0.88503  1.0000
  H   H1190     1.0  0.59620  0.72353  0.60038  1.0000
  Fe  Fe131     1.0  0.49764  0.62676  0.67293  1.0000
  H   H1191     1.0  0.55504  0.58077  0.80870  1.0000
  C   C979      1.0  0.80739  0.58581  0.98575  1.0000
  H   H1192     1.0  0.50077  0.65617  0.61968  1.0000
  C   C980      1.0  0.82175  0.50321  0.75931  1.0000
  H   H1193     1.0  0.66475  0.52655  0.77195  1.0000
  C   C981      1.0  0.53278  0.68130  0.80576  1.0000
  C   C982      1.0  0.50044  0.66986  0.63311  1.0000
  H   H1194     1.0  0.76513  0.52685  0.88662  1.0000
  C   C983      1.0  0.50009  0.70550  0.66773  1.0000
  C   C984      1.0  0.58495  0.69322  0.72210  1.0000
  C   C985      1.0  0.55211  0.67917  0.80811  1.0000
  H   H1195     1.0  0.59982  0.70463  0.57131  1.0000
  S   S259      1.0  0.53200  0.73087  0.62661  1.0000
  C   C986      1.0  0.71117  0.51044  0.83552  1.0000
  C   C987      1.0  0.61646  0.62401  0.90882  1.0000
  H   H1196     1.0  0.62190  0.62619  0.93763  1.0000
  S   S260      1.0  0.71071  0.50739  0.88338  1.0000
  C   C988      1.0  0.57720  0.72225  0.70261  1.0000
  S   S261      1.0  0.57383  0.66510  0.99034  1.0000
  S   S262      1.0  0.74219  0.53004  0.97062  1.0000
  C   C989      1.0  0.59977  0.59989  0.86010  1.0000
  C   C990      1.0  0.70899  0.51305  0.75882  1.0000
  H   H1197     1.0  0.66683  0.51623  0.83548  1.0000
  H   H1198     1.0  0.60456  0.63088  0.90586  1.0000
  H   H1199     1.0  0.52653  0.64503  0.76785  1.0000
  C   C991      1.0  0.57853  0.58951  0.85093  1.0000
  H   H1200     1.0  0.83359  0.55311  0.98511  1.0000
  C   C992      1.0  0.58149  0.71109  0.73044  1.0000
  H   H1201     1.0  0.51369  0.69489  0.83531  1.0000
  H   H1202     1.0  0.57971  0.59727  0.92628  1.0000
  S   S263      1.0  0.92399  0.53325  0.99108  1.0000
  C   C993      1.0  0.52362  0.60403  0.51976  1.0000
  C   C994      1.0  0.62459  0.59377  0.90045  1.0000
  H   H1203     1.0  0.82219  0.61870  0.99183  1.0000
  C   C995      1.0  0.59209  0.59092  0.92485  1.0000
  C   C996      1.0  0.76476  0.52399  0.70874  1.0000
  C   C997      1.0  0.80441  0.51942  0.72035  1.0000
  H   H1204     1.0  0.50319  0.72185  0.56358  1.0000
  H   H1205     1.0  0.59879  0.59255  0.95291  1.0000
  C   C998      1.0  0.82443  0.60426  0.99045  1.0000
  H   H1206     1.0  0.62944  0.61761  0.83618  1.0000
  S   S264      1.0  0.78277  0.58773  0.98234  1.0000
  H   H1207     1.0  0.74999  0.52370  0.69657  1.0000
  H   H1208     1.0  0.58206  0.71621  0.75850  1.0000
  C   C999      1.0  0.50739  0.72374  0.53519  1.0000
  H   H1209     1.0  0.61906  0.57748  0.89063  1.0000
  H   H1210     1.0  0.98597  0.62607  0.99339  1.0000
  N   N68       1.0  0.84825  0.55399  0.87939  1.0000
  H   H1211     1.0  0.87630  0.58075  0.88873  1.0000
  H   H1212     1.0  0.87124  0.55853  0.83826  1.0000
  H   H1213     1.0  0.78191  0.50403  0.86269  1.0000
  H   H1214     1.0  0.84953  0.53517  0.83288  1.0000
  C   C1000     1.0  0.67249  0.59437  0.98656  1.0000
  C   C1001     1.0  0.81532  0.55965  0.89497  1.0000
  S   S265      1.0  0.70716  0.51517  0.71096  1.0000
  S   S266      1.0  0.59847  0.71994  0.98205  1.0000
  Fe  Fe132     1.0  0.89387  0.56891  0.99305  1.0000
  H   H1215     1.0  0.87274  0.54649  0.90356  1.0000
  C   C1002     1.0  0.53223  0.62555  0.52117  1.0000
  C   C1003     1.0  0.81282  0.52666  0.86988  1.0000
  C   C1004     1.0  0.85564  0.54138  0.90364  1.0000
  C   C1005     1.0  0.79381  0.55238  0.89672  1.0000
  C   C1006     1.0  0.84806  0.58614  0.99145  1.0000
  H   H1216     1.0  0.85638  0.57868  0.91946  1.0000
  S   S267      1.0  0.67963  0.57263  0.99321  1.0000
  H   H1217     1.0  0.82357  0.57519  0.90497  1.0000
  C   C1007     1.0  0.87184  0.49808  0.79886  1.0000
  C   C1008     1.0  0.76694  0.49734  0.66872  1.0000
  S   S268      1.0  0.87430  0.58855  0.99441  1.0000
  H   H1218     1.0  0.50703  0.69316  0.52876  1.0000
  H   H1219     1.0  0.50017  0.71926  0.68148  1.0000
  C   C1009     1.0  0.64836  0.61156  0.99942  1.0000
  H   H1220     1.0  0.73659  0.62395  0.97756  1.0000
  C   C1010     1.0  0.84444  0.60441  0.99330  1.0000
  C   C1011     1.0  0.92774  0.50709  0.83132  1.0000
  C   C1012     1.0  0.78493  0.50355  0.72650  1.0000
  C   C1013     1.0  0.50961  0.70762  0.51549  1.0000
  H   H1221     1.0  0.50732  0.64236  0.80132  1.0000
  H   H1222     1.0  0.92120  0.50757  0.77526  1.0000
  C   C1014     1.0  0.49876  0.67518  0.77655  1.0000
  H   H1223     1.0  0.84954  0.52481  0.89542  1.0000
  H   H1224     1.0  0.78032  0.50861  0.65463  1.0000
  C   C1015     1.0  0.66164  0.50458  0.81398  1.0000
  C   C1016     1.0  0.87365  0.49643  0.83670  1.0000
  H   H1225     1.0  0.75221  0.61052  0.99370  1.0000
  C   C1017     1.0  0.73811  0.61373  0.99939  1.0000
  C   C1018     1.0  0.92837  0.49549  0.86141  1.0000
  H   H1226     1.0  0.75269  0.49594  0.65320  1.0000
  Fe  Fe133     1.0  0.51389  0.77104  0.27104  1.0000
  S   S269      1.0  0.54671  0.78695  0.28962  1.0000
  H   H1227     1.0  0.64216  0.95149  0.07288  1.0000
  C   C1019     1.0  0.61054  0.91945  0.10803  1.0000
  S   S270      1.0  0.53489  0.82608  0.31196  1.0000
  Fe  Fe134     1.0  0.54505  0.81446  0.26129  1.0000
  S   S271      1.0  0.57186  0.83470  0.22739  1.0000
  Fe  Fe135     1.0  0.53358  0.79698  0.33856  1.0000
  S   S272      1.0  0.54805  0.79568  0.39383  1.0000
  S   S273      1.0  0.51295  0.79787  0.23956  1.0000
  H   H1228     1.0  0.51372  0.84347  0.13263  1.0000
  C   C1020     1.0  0.54598  0.89214  0.11741  1.0000
  H   H1229     1.0  0.60540  0.91279  0.01554  1.0000
  S   S274      1.0  0.56842  0.84960  0.05852  1.0000
  H   H1230     1.0  0.55316  0.75166  0.39482  1.0000
  C   C1021     1.0  0.61597  0.93658  0.13260  1.0000
  C   C1022     1.0  0.59867  0.89989  0.12211  1.0000
  C   C1023     1.0  0.63350  0.91174  0.06750  1.0000
  H   H1231     1.0  0.50723  0.88067  0.23604  1.0000
  H   H1232     1.0  0.53594  0.86922  0.24433  1.0000
  H   H1233     1.0  0.59380  0.91256  0.21004  1.0000
  H   H1234     1.0  0.61672  0.95105  0.06060  1.0000
  H   H1235     1.0  0.51904  0.75981  0.47050  1.0000
  H   H1236     1.0  0.62705  0.89518  0.07469  1.0000
  C   C1024     1.0  0.49695  0.83451  0.19419  1.0000
  C   C1025     1.0  0.60056  0.91025  0.04443  1.0000
  H   H1237     1.0  0.50569  0.82528  0.18380  1.0000
  H   H1238     1.0  0.51456  0.75685  0.41131  1.0000
  Fe  Fe136     1.0  0.50264  0.80709  0.29219  1.0000
  C   C1026     1.0  0.57092  0.83518  0.17925  1.0000
  C   C1027     1.0  0.58933  0.84409  0.16010  1.0000
  C   C1028     1.0  0.58896  0.84695  0.12225  1.0000
  C   C1029     1.0  0.57009  0.84156  0.10354  1.0000
  C   C1030     1.0  0.55177  0.83178  0.12241  1.0000
  C   C1031     1.0  0.55216  0.82838  0.15998  1.0000
  H   H1239     1.0  0.60394  0.84921  0.17476  1.0000
  H   H1240     1.0  0.60322  0.85430  0.10802  1.0000
  H   H1241     1.0  0.53715  0.82712  0.10791  1.0000
  H   H1242     1.0  0.53795  0.82103  0.17419  1.0000
  C   C1032     1.0  0.51876  0.80174  0.43755  1.0000
  C   C1033     1.0  0.53770  0.79942  0.43581  1.0000
  C   C1034     1.0  0.54822  0.79885  0.46838  1.0000
  H   H1243     1.0  0.51057  0.80231  0.41270  1.0000
  H   H1244     1.0  0.56299  0.79730  0.46733  1.0000
  C   C1035     1.0  0.52566  0.85402  0.23297  1.0000
  H   H1245     1.0  0.59423  0.88615  0.10528  1.0000
  H   H1246     1.0  0.58753  0.91546  0.04793  1.0000
  C   C1036     1.0  0.52238  0.85947  0.13928  1.0000
  C   C1037     1.0  0.53409  0.87139  0.11133  1.0000
  C   C1038     1.0  0.59827  0.91456  0.18179  1.0000
  C   C1039     1.0  0.54641  0.90105  0.15162  1.0000
  H   H1247     1.0  0.49596  0.80558  0.47254  1.0000
  H   H1248     1.0  0.64688  0.91952  0.08618  1.0000
  H   H1249     1.0  0.62520  0.95202  0.12459  1.0000
  C   C1040     1.0  0.60980  0.93407  0.16889  1.0000
  S   S275      1.0  0.50060  0.77861  0.32215  1.0000
  N   N69       1.0  0.51089  0.85571  0.20520  1.0000
  H   H1250     1.0  0.53642  0.89658  0.20633  1.0000
  C   C1041     1.0  0.53507  0.88917  0.17997  1.0000
  H   H1251     1.0  0.61425  0.94727  0.18734  1.0000
  H   H1252     1.0  0.59451  0.89326  0.04746  1.0000
  N   N70       1.0  0.61788  0.92122  0.07016  1.0000
  H   H1253     1.0  0.54915  0.76238  0.43672  1.0000
  C   C1042     1.0  0.59267  0.89752  0.15840  1.0000
  H   H1254     1.0  0.51752  0.84476  0.25642  1.0000
  C   C1043     1.0  0.62749  0.94284  0.05790  1.0000
  H   H1255     1.0  0.63953  0.91262  0.03942  1.0000
  H   H1256     1.0  0.53428  0.86434  0.08492  1.0000
  Fe  Fe137     1.0  0.59157  0.85387  0.01344  1.0000
  H   H1257     1.0  0.53575  0.84649  0.22146  1.0000
  H   H1258     1.0  0.58376  0.88229  0.16847  1.0000
  C   C1044     1.0  0.52251  0.86803  0.17459  1.0000
  H   H1259     1.0  0.63168  0.94353  0.02869  1.0000
  S   S276      1.0  0.62626  0.86628  0.01547  1.0000
  C   C1045     1.0  0.51044  0.80344  0.47155  1.0000
  H   H1260     1.0  0.55512  0.90119  0.09566  1.0000
  C   C1046     1.0  0.54750  0.74765  0.42299  1.0000
  H   H1261     1.0  0.55592  0.91715  0.15639  1.0000
  C   C1047     1.0  0.49795  0.86586  0.22220  1.0000
  H   H1262     1.0  0.66820  0.99305  0.10344  1.0000
  H   H1263     1.0  0.67855  0.93715  0.00710  1.0000
  C   C1048     1.0  0.69107  0.97045  0.00271  1.0000
  H   H1264     1.0  0.70448  0.97240  0.01953  1.0000
  C   C1049     1.0  0.51639  0.74500  0.48201  1.0000
  Fe  Fe138     1.0  0.52395  0.75834  0.63975  1.0000
  S   S277      1.0  0.54551  0.78974  0.62320  1.0000
  H   H1265     1.0  0.57573  0.78952  0.75118  1.0000
  Fe  Fe139     1.0  0.62279  0.84095  0.97363  1.0000
  S   S278      1.0  0.51074  0.80655  0.65197  1.0000
  Fe  Fe140     1.0  0.51706  0.79296  0.59991  1.0000
  S   S279      1.0  0.50948  0.80436  0.54615  1.0000
  Fe  Fe141     1.0  0.53717  0.80018  0.67710  1.0000
  S   S280      1.0  0.56110  0.82401  0.71382  1.0000
  C   C1050     1.0  0.60702  0.78079  0.98195  1.0000
  S   S281      1.0  0.51774  0.76839  0.69507  1.0000
  Fe  Fe142     1.0  0.58963  0.84888  0.92941  1.0000
  S   S282      1.0  0.62420  0.86159  0.92596  1.0000
  S   S283      1.0  0.56474  0.83171  0.88694  1.0000
  Fe  Fe143     1.0  0.62466  0.88601  0.96792  1.0000
  C   C1051     1.0  0.67141  0.98493  0.96588  1.0000
  H   H1266     1.0  0.51134  0.85372  0.79293  1.0000
  S   S284      1.0  0.49613  0.76082  0.61309  1.0000
  N   N71       1.0  0.49909  0.82924  0.75277  1.0000
  C   C1052     1.0  0.52070  0.80235  0.50410  1.0000
  H   H1267     1.0  0.52650  0.83830  0.78675  1.0000
  C   C1053     1.0  0.64044  0.77926  0.97262  1.0000
  C   C1054     1.0  0.53964  0.80002  0.50239  1.0000
  H   H1268     1.0  0.64156  0.74873  0.97200  1.0000
  H   H1269     1.0  0.50935  0.75509  0.53389  1.0000
  S   S285      1.0  0.63954  0.81840  0.97170  1.0000
  C   C1055     1.0  0.56261  0.82523  0.76209  1.0000
  C   C1056     1.0  0.57811  0.84207  0.77943  1.0000
  C   C1057     1.0  0.57948  0.84402  0.81768  1.0000
  C   C1058     1.0  0.56512  0.82924  0.83896  1.0000
  C   C1059     1.0  0.54984  0.81222  0.82165  1.0000
  C   C1060     1.0  0.54876  0.81004  0.78348  1.0000
  H   H1270     1.0  0.58900  0.85385  0.76315  1.0000
  H   H1271     1.0  0.59123  0.85728  0.83062  1.0000
  H   H1272     1.0  0.53879  0.80061  0.83793  1.0000
  H   H1273     1.0  0.53726  0.79658  0.77074  1.0000
  H   H1274     1.0  0.55758  0.75197  0.75719  1.0000
  C   C1061     1.0  0.61067  0.74730  0.97995  1.0000
  H   H1275     1.0  0.54782  0.79944  0.52723  1.0000
  C   C1062     1.0  0.62812  0.79107  0.97622  1.0000
  S   S286      1.0  0.58977  0.87417  0.96779  1.0000
  H   H1276     1.0  0.50114  0.83789  0.69656  1.0000
  C   C1063     1.0  0.51038  0.83776  0.78729  1.0000
  C   C1064     1.0  0.63183  0.75753  0.97468  1.0000
  S   S287      1.0  0.58846  0.82770  0.97536  1.0000
  N   N72       1.0  0.60656  0.79638  0.86749  1.0000
  C   C1065     1.0  0.59334  0.79481  0.89933  1.0000
  C   C1066     1.0  0.62250  0.78803  0.87729  1.0000
  C   C1067     1.0  0.61740  0.81862  0.85999  1.0000
  C   C1068     1.0  0.59365  0.78443  0.83656  1.0000
  C   C1069     1.0  0.58310  0.76279  0.83897  1.0000
  C   C1070     1.0  0.59063  0.79373  0.80396  1.0000
  C   C1071     1.0  0.57038  0.75120  0.81052  1.0000
  C   C1072     1.0  0.57797  0.78198  0.77561  1.0000
  C   C1073     1.0  0.56776  0.76082  0.77896  1.0000
  H   H1277     1.0  0.58050  0.79994  0.89262  1.0000
  H   H1278     1.0  0.58641  0.77887  0.90958  1.0000
  H   H1279     1.0  0.60230  0.80462  0.92244  1.0000
  H   H1280     1.0  0.63338  0.79766  0.89875  1.0000
  H   H1281     1.0  0.63180  0.78746  0.85330  1.0000
  H   H1282     1.0  0.61584  0.77234  0.88875  1.0000
  H   H1283     1.0  0.62755  0.82694  0.88335  1.0000
  H   H1284     1.0  0.62749  0.82103  0.83597  1.0000
  H   H1285     1.0  0.60633  0.82640  0.85563  1.0000
  H   H1286     1.0  0.58439  0.75477  0.86324  1.0000
  H   H1287     1.0  0.59753  0.81014  0.79985  1.0000
  H   H1288     1.0  0.64341  0.96276  0.94145  1.0000
  C   C1074     1.0  0.65666  0.96476  0.95876  1.0000
  H   H1289     1.0  0.52551  0.84105  0.71767  1.0000
  C   C1075     1.0  0.59836  0.75911  0.98335  1.0000
  C   C1076     1.0  0.65900  0.94718  0.97322  1.0000
  S   S288      1.0  0.63949  0.92192  0.96377  1.0000
  Fe  Fe144     1.0  0.49180  0.77406  0.66652  1.0000
  H   H1290     1.0  0.51403  0.85898  0.72764  1.0000
  C   C1077     1.0  0.51032  0.84234  0.72240  1.0000
  H   H1291     1.0  0.51534  0.80916  0.74079  1.0000
  H   H1292     1.0  0.58198  0.75146  0.98740  1.0000
  H   H1293     1.0  0.49428  0.79846  0.77061  1.0000
  C   C1078     1.0  0.68894  0.98800  0.98769  1.0000
  H   H1294     1.0  0.50269  0.82825  0.81082  1.0000
  C   C1079     1.0  0.49956  0.80844  0.74656  1.0000
  H   H1295     1.0  0.59730  0.78952  0.98529  1.0000
  H   H1296     1.0  0.65680  0.78698  0.96828  1.0000
  C   C1080     1.0  0.67631  0.95030  0.99564  1.0000
