data_image0
_chemical_formula_structural       FeCSFeHSFeSH2S2FeS2FeS2FeNFeS3FeSFeSFeS2C2HFeS2FeSHCSCFeS2FeHFe2HS2CHCSCSHCHC6HCH2C6H2C6H4C6H7SH2CHCHC2H3C3H3CH3NC9H14NH2CHC2HCH8NC3HCHCHSH4C4HCFeCHCH3CH2C2HC2H3C2H2S2H6FeH3SHCHCHCHC3HCNCH4SCH3SC2H2FeH2C2SH2FeS2FeS2FeSFeS3FeS2C2H4FeS3HC2FeHS2CFeSNHCH2CFeHC2HCH10C2HSC3H2C6H4C6H4C3H2CH3CHS2CHSCFe2S2HC2H2C6H2SNHCH2CH3CH5CNHNC6HFeCH5CH4SCH2CH5CSHNHC8SH6C2H3C2NC9H14NC4HC2SCH3SH5FeH2NC7S2H13FeHFeH3C3HCH3C4SHCH2CSH2C2HC4H3FeC2HFeS2FeCFeS3HSHFeSFeS2FeS2FeSHFeS2H2FeSCFeSH4CHCSHFeH2FeSH3FeSFeS3CHSCFeH2SHCSCSH3C3HCSCH3CH2CHC2HCHC2H4C6H4C9H2C4H2C2H2C6H2CHC3NC2S2C4SH2CHSC2H2NFeCH2SH2C3SCH2FeHC2HC2H2CFeHC2H2CH3CH2CSH2NC6HNH3CH6FeH3SHC3H2C2HC2HCHCHNH2C4H6C2H2C2HCHC2HC2HSHC3SHFeCH3CHCH3C2HCNH2SH3CNHC2H2CNH2SCH2CHC2HCHSHCFeS2FeS2FeSFeS3FeS2FeS2FeSFeS3FeSCH3SH2NS3C4H4C6HCHC6H4C6H4C2HCHCHC6H4C6H6CHCHFeCH5C2H2CH2C2SC5H3SC2HC3HC2H2FeH2CNH3NHC2FeCH2NC9H13C2H4FeC4H2CHC2H2CH2CH3CH4CH3SHCH2CH8CH3CH2C2SCH2SH6CHSHCSFeSCFeSFeS2FeS2FeS2FeSFeS3C6H4C3HC2HC4H3NHC6H4C6H6CH2C2NH4C2HCNHC3SHC2H2CHSH2CH5CSHC2H4CSH2C2H2C2H2C3HCNC9H11CFeCHNHCHCHCNCH4SH2NCHCH11C2HCH2CH2C2FeS2FeS2FeSFeS3HSCHFeS2FeS2FeSFeS2FeS2H2SH3SHSHSH2FeS2FeS2FeSFeS3C6H4C6H3C6H4C6H2C7HC4H2C6H7C4HCH2NHCH2C2SC2H2CHCHFeC6H5NC3H2C3FeH4C2NHC3FeH3CHCH4FeH4SH2CH6NC9H14C2NC9H17CHC3HCH4C3HCHCHCH4C3H2CHC2H3NH3NH2C2HCHCH2NC4NCHCH7SC4H2CH3C2HCHC4HCH2SHCH2CHCSCH6CHSC2H3CH6CH2C2SHC2HCH2C3HC3HN2CSH2CH2C2HCH3CHCHCHCSCH3CH3C3FeC3H2CHCHC3HC2H2SCHNH4CHC2HC2H2C2HNH2C3HCHC3SH3CHC2H3CHC2HCHFeSH2C2HCH2C2HCH2CHCHSFe2C2NHCHCHSHS2CFeHCSFeHC4H4SCH3C5H2SCHCHCHFeH2SNSHSNH5SC2SH2C5H5FeH3CH4FeCHC2HC2H2C2HS2FeS2FeSFeS3FeS4FeS2FeS2Fe2S3C3H2SHFeS2CFeSFeS2C7H4C6H4C6H4C6H4C3H2C6H6CHCHCHC5HCH3CFeH4NHC2H2C2HCSC2H2CSHCH2CHC2H2C2HC2NH3CHC2HFeNHNCHSC2H3CH2CH2FeCHC3SCH5CHNC7H11NC9H14CHCHSHCNH4FeHC3HCFeCH2CHNCH7CHC2H5NHCH2C2FeC2H3SH7FeS2FeS2FeSFeS3Fe2S2FeHS2HCFeSHCHCSHC2H3CHC4H2C7HNCHC7H2C6H4C6H5C2HC3HCHCHCNH3C3H4NHCHCH2CHS2HC2HNCHSHNC2H3CHCH2CNH5CH2CHCH2CHCHNH5C2SH4CHCH2CH4CFeHCH3C2HCHSHCHC2H3C2H2C4HCH4FeSH3FeHCHCH2CH3CHC2HSH2SCHCHCHFeH2CHC2HS2FeS2FeHFeS3HCH4S2FeSCSHFeS2FeSFeSFeS2CHFe2S2FeS2FeSFeS3FeS2FeHSC2HC6H4CHCHC2H3CHC4SH2C6H4C6H4C6H5CH2C5H4C4H2CHSC6H7CHCHC3H2CH2C3HCH2NC9H12FeHC2H2C2HCH4C2H3CH2FeCHNC9H14CNH4CH2CH3CHCHCHNCSH5C2H2C2H2CHC4H3C2NC3HCH2CH3CHSFeCH3CH2C3H3SH3NCHC2NC3H2SH3C2H6C3H2C2H2CNCNHS2CSHFeS2CFe2S2FeS2FeSFeHS3H3NHFeHCH2C4HC2HNH5C6H6NC7H4C2H9CHCHFeHC2HCSH3CH4C2H2CHCHCHC3HCH2SCH3SH2CHCHC2H2CH2C4H2CHCHC4SH4C3HSH4CHCHC4H5CHCH2SC5NCH4CH3CH3CHC2H2FeCH4CH2CHCH2NCHFeS3FeSFeS3CSFeSHFeS2FeS2FeHFeS3FeSFeCFeS2FeSFeS2C6H7C6H4C6H4C6H4C4HC6H3C2H6NHNH2CSC2H2CFeH4CH4FeHSHSCNC9H13CHCH4CHC3H3CHCH3CH3NC9H12SC2H2CSHNCH5CNH2SC2H3SHCHCSC2HCH2NCHCH3C6HCH3C2SFeS2FeS2FeSFeS3FeS2FeS2FeSFeS3HCH2FeS2FeS2FeSFeS3H2C4H4NH2CHC4HCH2CHC6H4C6H4C4HCHCHCNHC3HCH3SHC2HCHC3HC2H2CHSCH2SC2H7CHC2H6CHC2HCHC5H2CHCHCH6CH5C4NC3HC2H4CHCHCNC5H6SHC2NC9H15C2H3C2H3C2HCH3CH3C2HCH2C2HC2HCH5N2C2H4SFeSCFeS2FeSFeS3HCSHSCS3CFe2S2FeS2FeSFeS3FeS3H2S2C3H2CHC6H4C6H4CHC3HC7H5FeH2FeH2CH3C2H2CHC6H4C6H4FeC10H4CH2SH2CH3C2HCHCH4CH4C2HC3NCFeHC3H2CHC2H2NC9H14NC9H14NC9H4SH9CH2CH3NH2NCHSNH2SCH2C2HCHSNHCHCHNCSC2H4C2HCHNC3HCHCH2FeCH2FeH2CH5CH5CH2SHC2SHCSCFeS2FeS2FeS2FeSFeS5HCHCHCH2C6H4C2HCHCH2CHC6H6C3H3CHC6H4NH2CNC9H6C2H5C2H3FeH2CHC2HC3HC2HCHC2HCHC2HCNCHCSCHNC9H13C3SHSH3FeCH2CH2CH3CH3CH3C2H3CHCNH2CHCNCH13CFeS2FeSHFeSFeS3FeS2FeS2Fe2S3CFeS2Fe2SFeS2FeS2FeCHFeSFeHS2C4H2CHC5H4C6H4C2HCH3C6H4C2HCH3C7H7CNC9H14SH2C2HCHCH3CH2NC9H13CH4NC5HCH2CH2SHCH5C2H10CHC2NC5HCH2CSC3HCHC3H2CH3C2HSHC2H4C2HC2HC2H
_chemical_formula_sum              "Fe224 C1680 S448 H2016 N112"
_cell_length_a       47.3515
_cell_length_b       48.1966
_cell_length_c       87.4164
_cell_angle_alpha    86.2427
_cell_angle_beta     85.7634
_cell_angle_gamma    114.583

_space_group_name_H-M_alt    "P 1"
_space_group_IT_number       1

loop_
  _space_group_symop_operation_xyz
  'x, y, z'

loop_
  _atom_site_type_symbol
  _atom_site_label
  _atom_site_symmetry_multiplicity
  _atom_site_fract_x
  _atom_site_fract_y
  _atom_site_fract_z
  _atom_site_occupancy
  Fe  Fe1       1.0  0.42759  0.26229  0.02570  1.0000
  C   C1        1.0  0.24390  0.38382  0.14817  1.0000
  S   S1        1.0  0.39623  0.25234  0.00612  1.0000
  Fe  Fe2       1.0  0.43042  0.22862  0.05654  1.0000
  H   H1        1.0  0.14930  0.38446  0.21311  1.0000
  S   S2        1.0  0.40494  0.18131  0.06998  1.0000
  Fe  Fe3       1.0  0.42883  0.29186  0.05617  1.0000
  S   S3        1.0  0.40815  0.32144  0.06735  1.0000
  H   H2        1.0  0.20608  0.39089  0.15961  1.0000
  H   H3        1.0  0.05320  0.47082  0.11132  1.0000
  S   S4        1.0  0.39727  0.24725  0.04844  1.0000
  S   S5        1.0  0.45916  0.24060  0.03331  1.0000
  Fe  Fe4       1.0  0.38154  0.41798  0.15338  1.0000
  S   S6        1.0  0.42043  0.41657  0.13754  1.0000
  S   S7        1.0  0.34897  0.43735  0.14438  1.0000
  Fe  Fe5       1.0  0.39929  0.39294  0.18248  1.0000
  S   S8        1.0  0.43925  0.38929  0.16852  1.0000
  S   S9        1.0  0.39837  0.38404  0.20876  1.0000
  Fe  Fe6       1.0  0.45031  0.43572  0.15647  1.0000
  N   N1        1.0  0.15959  0.41116  0.01571  1.0000
  Fe  Fe7       1.0  0.40675  0.37042  0.15062  1.0000
  S   S10       1.0  0.41040  0.33069  0.13938  1.0000
  S   S11       1.0  0.41269  0.44111  0.17144  1.0000
  S   S12       1.0  0.36542  0.37011  0.16539  1.0000
  Fe  Fe8       1.0  0.26570  0.43787  0.03116  1.0000
  S   S13       1.0  0.26226  0.40968  0.01106  1.0000
  Fe  Fe9       1.0  0.28340  0.43550  0.06420  1.0000
  S   S14       1.0  0.30223  0.40764  0.07860  1.0000
  Fe  Fe10      1.0  0.22680  0.44805  0.05798  1.0000
  S   S15       1.0  0.17526  0.43302  0.06564  1.0000
  S   S16       1.0  0.23998  0.40956  0.05333  1.0000
  C   C2        1.0  0.17582  0.40770  0.98782  1.0000
  C   C3        1.0  0.02273  0.38587  0.22328  1.0000
  H   H4        1.0  0.35626  0.39698  0.12270  1.0000
  Fe  Fe11      1.0  0.39736  0.04225  0.16636  1.0000
  S   S17       1.0  0.44737  0.06448  0.15546  1.0000
  S   S18       1.0  0.38969  0.05515  0.19068  1.0000
  Fe  Fe12      1.0  0.42908  0.07681  0.13429  1.0000
  S   S19       1.0  0.45875  0.12394  0.12151  1.0000
  H   H5        1.0  0.43721  0.02520  0.20267  1.0000
  C   C4        1.0  0.37129  0.05108  0.22168  1.0000
  S   S20       1.0  0.37982  0.05822  0.14573  1.0000
  C   C5        1.0  0.13540  0.38818  0.22250  1.0000
  Fe  Fe13      1.0  0.07763  0.41763  0.14518  1.0000
  S   S21       1.0  0.03691  0.41633  0.13312  1.0000
  S   S22       1.0  0.12846  0.44105  0.13466  1.0000
  Fe  Fe14      1.0  0.03645  0.38405  0.17567  1.0000
  H   H6        1.0  0.14222  0.44593  0.01428  1.0000
  Fe  Fe15      1.0  0.01159  0.36778  0.14405  1.0000
  Fe  Fe16      1.0  0.02133  0.42924  0.15548  1.0000
  H   H7        1.0  0.39636  0.17123  0.11907  1.0000
  S   S23       1.0  0.05363  0.36814  0.15469  1.0000
  S   S24       1.0  0.06391  0.43407  0.16692  1.0000
  C   C6        1.0  0.21540  0.38600  0.14893  1.0000
  H   H8        1.0  0.18875  0.38669  0.01702  1.0000
  C   C7        1.0  0.38918  0.49015  0.09760  1.0000
  S   S25       1.0  0.26852  0.47209  0.07067  1.0000
  C   C8        1.0  0.48377  0.39441  0.12834  1.0000
  S   S26       1.0  0.42257  0.03360  0.12375  1.0000
  H   H9        1.0  0.42152  0.20922  0.13625  1.0000
  C   C9        1.0  0.35739  0.02293  0.05391  1.0000
  H   H10       1.0  0.12805  0.36632  0.02664  1.0000
  C   C10       1.0  0.16226  0.43694  0.08456  1.0000
  C   C11       1.0  0.18318  0.45446  0.09438  1.0000
  C   C12       1.0  0.17233  0.45603  0.10959  1.0000
  C   C13       1.0  0.14052  0.44008  0.11515  1.0000
  C   C14       1.0  0.11948  0.42305  0.10524  1.0000
  C   C15       1.0  0.13033  0.42159  0.08999  1.0000
  H   H11       1.0  0.35587  0.00056  0.05913  1.0000
  C   C16       1.0  0.45197  0.07217  0.08280  1.0000
  H   H12       1.0  0.09492  0.41062  0.10939  1.0000
  H   H13       1.0  0.11393  0.40808  0.08246  1.0000
  C   C17       1.0  0.33642  0.42932  0.12600  1.0000
  C   C18       1.0  0.34317  0.40848  0.11778  1.0000
  C   C19       1.0  0.33259  0.40217  0.10324  1.0000
  C   C20       1.0  0.31542  0.41677  0.09676  1.0000
  C   C21       1.0  0.30859  0.43759  0.10496  1.0000
  C   C22       1.0  0.31908  0.44383  0.11955  1.0000
  H   H14       1.0  0.29478  0.44841  0.10022  1.0000
  H   H15       1.0  0.43841  0.02370  0.08743  1.0000
  C   C23       1.0  0.41090  0.32577  0.08718  1.0000
  C   C24       1.0  0.42531  0.31121  0.09596  1.0000
  C   C25       1.0  0.42590  0.31376  0.11187  1.0000
  C   C26       1.0  0.41203  0.33082  0.11913  1.0000
  C   C27       1.0  0.39872  0.34647  0.11027  1.0000
  C   C28       1.0  0.39805  0.34383  0.09433  1.0000
  H   H16       1.0  0.43553  0.29756  0.09054  1.0000
  H   H17       1.0  0.33490  0.01705  0.04890  1.0000
  H   H18       1.0  0.38797  0.35970  0.11577  1.0000
  H   H19       1.0  0.38699  0.35532  0.08761  1.0000
  C   C29       1.0  0.42080  0.16549  0.08391  1.0000
  C   C30       1.0  0.40141  0.13713  0.09230  1.0000
  C   C31       1.0  0.41274  0.12415  0.10387  1.0000
  C   C32       1.0  0.44361  0.13948  0.10712  1.0000
  C   C33       1.0  0.46301  0.16785  0.09873  1.0000
  C   C34       1.0  0.45170  0.18080  0.08712  1.0000
  H   H20       1.0  0.37744  0.12519  0.08992  1.0000
  H   H21       1.0  0.39767  0.10223  0.11024  1.0000
  H   H22       1.0  0.37730  0.17898  0.10359  1.0000
  H   H23       1.0  0.35946  0.22116  0.98272  1.0000
  H   H24       1.0  0.45246  0.28967  0.98481  1.0000
  H   H25       1.0  0.31361  0.45979  0.12593  1.0000
  H   H26       1.0  0.45904  0.11875  0.07703  1.0000
  S   S27       1.0  0.03758  0.35849  0.19861  1.0000
  H   H27       1.0  0.25682  0.38714  0.15815  1.0000
  H   H28       1.0  0.09304  0.47349  0.12769  1.0000
  C   C35       1.0  0.15205  0.40269  0.00001  1.0000
  H   H29       1.0  0.21005  0.42771  0.01295  1.0000
  C   C36       1.0  0.02990  0.36221  0.21845  1.0000
  H   H30       1.0  0.20773  0.46678  0.09028  1.0000
  C   C37       1.0  0.12086  0.39121  0.99610  1.0000
  C   C38       1.0  0.37069  0.03450  0.20893  1.0000
  H   H31       1.0  0.17731  0.32415  0.11023  1.0000
  H   H32       1.0  0.34924  0.24854  0.07978  1.0000
  H   H33       1.0  0.03509  0.32129  0.22610  1.0000
  C   C39       1.0  0.40536  0.25497  0.98581  1.0000
  C   C40       1.0  0.36866  0.36250  0.22415  1.0000
  C   C41       1.0  0.33763  0.34495  0.22168  1.0000
  H   H34       1.0  0.44120  0.25504  0.10682  1.0000
  H   H35       1.0  0.33106  0.34420  0.21007  1.0000
  H   H36       1.0  0.18307  0.45938  0.00794  1.0000
  C   C42       1.0  0.16378  0.37381  0.11013  1.0000
  H   H37       1.0  0.17683  0.34045  0.09115  1.0000
  H   H38       1.0  0.14764  0.35477  0.11879  1.0000
  H   H39       1.0  0.15227  0.37153  0.09931  1.0000
  N   N2        1.0  0.36192  0.31826  0.02398  1.0000
  C   C43       1.0  0.35805  0.31068  0.00782  1.0000
  C   C44       1.0  0.39560  0.33749  0.02471  1.0000
  C   C45       1.0  0.35254  0.28898  0.03392  1.0000
  C   C46       1.0  0.34343  0.33474  0.02951  1.0000
  C   C47       1.0  0.32515  0.34397  0.01992  1.0000
  C   C48       1.0  0.34383  0.34257  0.04491  1.0000
  C   C49       1.0  0.30841  0.35998  0.02550  1.0000
  C   C50       1.0  0.32693  0.35850  0.05037  1.0000
  C   C51       1.0  0.30930  0.36721  0.04068  1.0000
  H   H40       1.0  0.36631  0.33173  0.99955  1.0000
  H   H41       1.0  0.37209  0.29805  0.00414  1.0000
  H   H42       1.0  0.33331  0.29548  0.00653  1.0000
  H   H43       1.0  0.40341  0.36025  0.01791  1.0000
  H   H44       1.0  0.41033  0.32626  0.02013  1.0000
  H   H45       1.0  0.40110  0.34176  0.03672  1.0000
  H   H46       1.0  0.35877  0.29262  0.04588  1.0000
  H   H47       1.0  0.32693  0.27469  0.03460  1.0000
  H   H48       1.0  0.36448  0.27505  0.02941  1.0000
  H   H49       1.0  0.32346  0.33929  0.00805  1.0000
  H   H50       1.0  0.35749  0.33665  0.05284  1.0000
  H   H51       1.0  0.29476  0.36710  0.01801  1.0000
  H   H52       1.0  0.32763  0.36439  0.06216  1.0000
  H   H53       1.0  0.29643  0.37977  0.04493  1.0000
  N   N3        1.0  0.36244  0.04574  0.06527  1.0000
  H   H54       1.0  0.40999  0.10546  0.06634  1.0000
  H   H55       1.0  0.33025  0.27597  0.09792  1.0000
  C   C52       1.0  0.39393  0.05536  0.07047  1.0000
  H   H56       1.0  0.19252  0.41179  0.03182  1.0000
  C   C53       1.0  0.40358  0.03305  0.07646  1.0000
  C   C54       1.0  0.05729  0.49435  0.11402  1.0000
  H   H57       1.0  0.41923  0.24547  0.13484  1.0000
  C   C55       1.0  0.43210  0.04135  0.08254  1.0000
  H   H58       1.0  0.14143  0.39527  0.03973  1.0000
  H   H59       1.0  0.26857  0.46879  0.99650  1.0000
  H   H60       1.0  0.44473  0.21944  0.11047  1.0000
  H   H61       1.0  0.47057  0.40053  0.09104  1.0000
  H   H62       1.0  0.47335  0.43114  0.10864  1.0000
  H   H63       1.0  0.45992  0.38492  0.12466  1.0000
  H   H64       1.0  0.20022  0.41760  0.98947  1.0000
  H   H65       1.0  0.11296  0.39510  0.02786  1.0000
  N   N4        1.0  0.39877  0.21709  0.11695  1.0000
  C   C56       1.0  0.38226  0.18376  0.11561  1.0000
  C   C57       1.0  0.37909  0.23255  0.11213  1.0000
  C   C58       1.0  0.36720  0.24798  0.12233  1.0000
  H   H66       1.0  0.35802  0.08851  0.06621  1.0000
  C   C59       1.0  0.34950  0.26312  0.11722  1.0000
  H   H67       1.0  0.33952  0.01024  0.08421  1.0000
  C   C60       1.0  0.40271  0.48421  0.11038  1.0000
  H   H68       1.0  0.34183  0.27584  0.12504  1.0000
  S   S28       1.0  0.31039  0.46096  0.04167  1.0000
  H   H69       1.0  0.27845  0.37646  0.13390  1.0000
  H   H70       1.0  0.37209  0.24973  0.13419  1.0000
  H   H71       1.0  0.34213  0.04715  0.08794  1.0000
  H   H72       1.0  0.45027  0.02297  0.18319  1.0000
  C   C61       1.0  0.43290  0.01001  0.19324  1.0000
  C   C62       1.0  0.21462  0.39914  0.09583  1.0000
  C   C63       1.0  0.11783  0.40452  0.21935  1.0000
  C   C64       1.0  0.41509  0.08667  0.07058  1.0000
  H   H73       1.0  0.22008  0.42160  0.10042  1.0000
  C   C65       1.0  0.24015  0.37441  0.12138  1.0000
  Fe  Fe17      1.0  0.43726  0.01993  0.14583  1.0000
  C   C66       1.0  0.40638  0.22080  0.13310  1.0000
  H   H74       1.0  0.02265  0.40324  0.21481  1.0000
  C   C67       1.0  0.16378  0.44319  0.01659  1.0000
  H   H75       1.0  0.25126  0.37090  0.11089  1.0000
  H   H76       1.0  0.43655  0.30194  0.11864  1.0000
  H   H77       1.0  0.37491  0.08387  0.04781  1.0000
  C   C68       1.0  0.26188  0.42324  0.99186  1.0000
  H   H78       1.0  0.33379  0.06367  0.05365  1.0000
  H   H79       1.0  0.34335  0.47749  0.07694  1.0000
  C   C69       1.0  0.21098  0.37634  0.12174  1.0000
  C   C70       1.0  0.13436  0.39098  0.02789  1.0000
  H   H80       1.0  0.21273  0.34319  0.09732  1.0000
  C   C71       1.0  0.19902  0.38230  0.13596  1.0000
  C   C72       1.0  0.37137  0.23255  0.09673  1.0000
  H   H81       1.0  0.11779  0.41318  0.20758  1.0000
  H   H82       1.0  0.37928  0.22106  0.08833  1.0000
  H   H83       1.0  0.16959  0.45067  0.02823  1.0000
  C   C73       1.0  0.35381  0.24791  0.09174  1.0000
  C   C74       1.0  0.34303  0.26329  0.10194  1.0000
  H   H84       1.0  0.38494  0.21036  0.14150  1.0000
  H   H85       1.0  0.18874  0.46935  0.11718  1.0000
  S   S29       1.0  0.45708  0.30870  0.03298  1.0000
  S   S30       1.0  0.45986  0.27240  0.06604  1.0000
  H   H86       1.0  0.38876  0.00894  0.07681  1.0000
  H   H87       1.0  0.23732  0.39852  0.09208  1.0000
  H   H88       1.0  0.38285  0.07588  0.22010  1.0000
  H   H89       1.0  0.46761  0.01484  0.21964  1.0000
  H   H90       1.0  0.40953  0.00639  0.18989  1.0000
  H   H91       1.0  0.10145  0.38810  0.00438  1.0000
  Fe  Fe18      1.0  0.37436  0.01362  0.13654  1.0000
  H   H92       1.0  0.42557  0.22492  0.09464  1.0000
  H   H93       1.0  0.33775  0.38584  0.09701  1.0000
  H   H94       1.0  0.16559  0.39587  0.11407  1.0000
  S   S31       1.0  0.24931  0.47481  0.03482  1.0000
  H   H95       1.0  0.46684  0.20261  0.08068  1.0000
  C   C75       1.0  0.19030  0.34402  0.10134  1.0000
  H   H96       1.0  0.20273  0.39891  0.08528  1.0000
  C   C76       1.0  0.26515  0.45308  0.98778  1.0000
  H   H97       1.0  0.04141  0.49131  0.12470  1.0000
  C   C77       1.0  0.25610  0.37782  0.13446  1.0000
  H   H98       1.0  0.35946  0.17336  0.12301  1.0000
  C   C78       1.0  0.42882  0.22972  0.10680  1.0000
  C   C79       1.0  0.35720  0.07165  0.05791  1.0000
  C   C80       1.0  0.44365  0.09476  0.07666  1.0000
  H   H99       1.0  0.37659  0.03167  0.04424  1.0000
  C   C81       1.0  0.33859  0.03132  0.07880  1.0000
  N   N5        1.0  0.19497  0.37335  0.10759  1.0000
  C   C82       1.0  0.18885  0.40912  0.01947  1.0000
  H   H100      1.0  0.17726  0.38462  0.13738  1.0000
  H   H101      1.0  0.25462  0.37992  0.98355  1.0000
  H   H102      1.0  0.38257  0.47293  0.08961  1.0000
  H   H103      1.0  0.10457  0.48920  0.09924  1.0000
  S   S32       1.0  0.99254  0.38008  0.16567  1.0000
  C   C83       1.0  0.02972  0.33978  0.22968  1.0000
  H   H104      1.0  0.47364  0.07859  0.08795  1.0000
  H   H105      1.0  0.40586  0.46319  0.11188  1.0000
  H   H106      1.0  0.31441  0.02423  0.07561  1.0000
  S   S33       1.0  0.99962  0.46332  0.15425  1.0000
  C   C84       1.0  0.48031  0.00487  0.21286  1.0000
  C   C85       1.0  0.35559  0.00241  0.21116  1.0000
  H   H107      1.0  0.08580  0.42161  0.22879  1.0000
  H   H108      1.0  0.48326  0.40708  0.13849  1.0000
  Fe  Fe19      1.0  0.29237  0.49604  0.04708  1.0000
  H   H109      1.0  0.98758  0.30129  0.20954  1.0000
  H   H110      1.0  0.47283  0.37016  0.07030  1.0000
  C   C86       1.0  0.09975  0.40920  0.23131  1.0000
  C   C87       1.0  0.09823  0.49769  0.12939  1.0000
  S   S34       1.0  0.47114  0.99779  0.14442  1.0000
  H   H111      1.0  0.08446  0.49747  0.14029  1.0000
  H   H112      1.0  0.29106  0.31510  0.23219  1.0000
  Fe  Fe20      1.0  0.29782  0.31170  0.32519  1.0000
  S   S35       1.0  0.26227  0.26446  0.33440  1.0000
  S   S36       1.0  0.32254  0.35013  0.34043  1.0000
  Fe  Fe21      1.0  0.28864  0.29814  0.29118  1.0000
  S   S37       1.0  0.25218  0.24997  0.29874  1.0000
  S   S38       1.0  0.29302  0.30796  0.26485  1.0000
  Fe  Fe22      1.0  0.23284  0.27109  0.31652  1.0000
  S   S39       1.0  0.17990  0.25370  0.32249  1.0000
  Fe  Fe23      1.0  0.28456  0.24736  0.31566  1.0000
  S   S40       1.0  0.29811  0.20750  0.32126  1.0000
  S   S41       1.0  0.26710  0.31923  0.30813  1.0000
  S   S42       1.0  0.32230  0.29456  0.30737  1.0000
  Fe  Fe24      1.0  0.29295  0.03905  0.30036  1.0000
  S   S43       1.0  0.34086  0.04146  0.29260  1.0000
  S   S44       1.0  0.27805  0.07874  0.29636  1.0000
  C   C88       1.0  0.11605  0.38008  0.25005  1.0000
  C   C89       1.0  0.37942  0.01853  0.35789  1.0000
  H   H113      1.0  0.45497  0.02881  0.46253  1.0000
  H   H114      1.0  0.19814  0.40596  0.47401  1.0000
  H   H115      1.0  0.40056  0.37657  0.24144  1.0000
  H   H116      1.0  0.46688  0.35863  0.40777  1.0000
  Fe  Fe25      1.0  0.04147  0.31392  0.31198  1.0000
  S   S45       1.0  0.03282  0.35672  0.31062  1.0000
  S   S46       1.0  0.09413  0.32547  0.31140  1.0000
  S   S47       1.0  0.01313  0.29491  0.29238  1.0000
  H   H117      1.0  0.36130  0.25725  0.29296  1.0000
  C   C90       1.0  0.19478  0.34676  0.45418  1.0000
  C   C91       1.0  0.13444  0.35095  0.26821  1.0000
  Fe  Fe26      1.0  0.99004  0.33080  0.32760  1.0000
  H   H118      1.0  0.34280  0.04168  0.44090  1.0000
  S   S48       1.0  0.43554  0.01421  0.39078  1.0000
  S   S49       1.0  0.09774  0.46434  0.46559  1.0000
  C   C92       1.0  0.37666  0.36303  0.23938  1.0000
  Fe  Fe27      1.0  0.43224  0.41662  0.45382  1.0000
  S   S50       1.0  0.43164  0.40658  0.42548  1.0000
  N   N6        1.0  0.06928  0.47129  0.40241  1.0000
  H   H119      1.0  0.13205  0.34132  0.28044  1.0000
  C   C93       1.0  0.35698  0.03595  0.23645  1.0000
  H   H120      1.0  0.29530  0.23004  0.26929  1.0000
  H   H121      1.0  0.10227  0.39943  0.27768  1.0000
  C   C94       1.0  0.13472  0.37613  0.23761  1.0000
  Fe  Fe28      1.0  0.47115  0.00335  0.40418  1.0000
  H   H122      1.0  0.37474  0.01306  0.40779  1.0000
  C   C95       1.0  0.22866  0.49537  0.47983  1.0000
  C   C96       1.0  0.46037  0.34361  0.41847  1.0000
  H   H123      1.0  0.29256  0.39637  0.47975  1.0000
  C   C97       1.0  0.99733  0.43588  0.35878  1.0000
  H   H124      1.0  0.02653  0.43567  0.39699  1.0000
  H   H125      1.0  0.36960  0.04744  0.40787  1.0000
  H   H126      1.0  0.36889  0.28935  0.27941  1.0000
  H   H127      1.0  0.29360  0.42036  0.43858  1.0000
  H   H128      1.0  0.08297  0.40002  0.25515  1.0000
  H   H129      1.0  0.15935  0.36742  0.26520  1.0000
  H   H130      1.0  0.27364  0.34224  0.47080  1.0000
  H   H131      1.0  0.02148  0.32292  0.25390  1.0000
  H   H132      1.0  0.33937  0.01209  0.41740  1.0000
  H   H133      1.0  0.42122  0.07178  0.41997  1.0000
  C   C98       1.0  0.41832  0.01113  0.37294  1.0000
  C   C99       1.0  0.09855  0.39697  0.24641  1.0000
  H   H134      1.0  0.38055  0.06082  0.44782  1.0000
  S   S51       1.0  0.36178  0.09947  0.47182  1.0000
  C   C100      1.0  0.31361  0.24284  0.27664  1.0000
  C   C101      1.0  0.29547  0.39820  0.44088  1.0000
  C   C102      1.0  0.38840  0.00638  0.34528  1.0000
  H   H135      1.0  0.09550  0.46034  0.41913  1.0000
  H   H136      1.0  0.35764  0.04910  0.24609  1.0000
  C   C103      1.0  0.15628  0.27358  0.31851  1.0000
  C   C104      1.0  0.12359  0.25815  0.32202  1.0000
  C   C105      1.0  0.10409  0.27332  0.31961  1.0000
  C   C106      1.0  0.11711  0.30435  0.31385  1.0000
  C   C107      1.0  0.14982  0.31976  0.31031  1.0000
  C   C108      1.0  0.16925  0.30447  0.31249  1.0000
  H   H137      1.0  0.11320  0.23430  0.32672  1.0000
  H   H138      1.0  0.07905  0.26112  0.32246  1.0000
  H   H139      1.0  0.16027  0.34382  0.30601  1.0000
  H   H140      1.0  0.19428  0.31673  0.30973  1.0000
  C   C109      1.0  0.29315  0.17241  0.31365  1.0000
  C   C110      1.0  0.30695  0.15448  0.32045  1.0000
  C   C111      1.0  0.30296  0.12604  0.31526  1.0000
  C   C112      1.0  0.28486  0.11494  0.30320  1.0000
  C   C113      1.0  0.27119  0.13296  0.29633  1.0000
  C   C114      1.0  0.27538  0.16153  0.30144  1.0000
  H   H141      1.0  0.32072  0.16258  0.32991  1.0000
  H   H142      1.0  0.31366  0.11259  0.32068  1.0000
  H   H143      1.0  0.25714  0.12467  0.28700  1.0000
  H   H144      1.0  0.26445  0.17479  0.29609  1.0000
  C   C115      1.0  0.32965  0.35138  0.36032  1.0000
  C   C116      1.0  0.31575  0.32563  0.37129  1.0000
  C   C117      1.0  0.32147  0.32818  0.38694  1.0000
  H   H145      1.0  0.30061  0.30375  0.36774  1.0000
  H   H146      1.0  0.31056  0.30808  0.39526  1.0000
  C   C118      1.0  0.32291  0.32926  0.24952  1.0000
  H   H147      1.0  0.39179  0.26797  0.27692  1.0000
  H   H148      1.0  0.11095  0.46381  0.39922  1.0000
  H   H149      1.0  0.36052  0.34761  0.26361  1.0000
  C   C119      1.0  0.46758  0.09170  0.35851  1.0000
  H   H150      1.0  0.47707  0.08099  0.43388  1.0000
  S   S52       1.0  0.00037  0.28879  0.33012  1.0000
  S   S53       1.0  0.40699  0.43792  0.46698  1.0000
  C   C120      1.0  0.17058  0.08388  0.31465  1.0000
  H   H151      1.0  0.47482  0.06709  0.46730  1.0000
  S   S54       1.0  0.44234  0.10243  0.45448  1.0000
  C   C121      1.0  0.43751  0.11199  0.37397  1.0000
  Fe  Fe29      1.0  0.39027  0.45712  0.44857  1.0000
  Fe  Fe30      1.0  0.38249  0.39894  0.42311  1.0000
  S   S55       1.0  0.34751  0.35832  0.41189  1.0000
  S   S56       1.0  0.37495  0.39872  0.44810  1.0000
  H   H152      1.0  0.43954  0.29336  0.45760  1.0000
  C   C122      1.0  0.42850  0.45146  0.44248  1.0000
  C   C123      1.0  0.46476  0.45333  0.43916  1.0000
  H   H153      1.0  0.15417  0.06534  0.30906  1.0000
  H   H154      1.0  0.42534  0.05119  0.43690  1.0000
  C   C124      1.0  0.35399  0.34658  0.25200  1.0000
  C   C125      1.0  0.06745  0.48126  0.37355  1.0000
  C   C126      1.0  0.35312  0.26070  0.25478  1.0000
  C   C127      1.0  0.34135  0.35636  0.39190  1.0000
  C   C128      1.0  0.35517  0.38207  0.38092  1.0000
  C   C129      1.0  0.34920  0.37960  0.36532  1.0000
  H   H155      1.0  0.37042  0.40395  0.38446  1.0000
  H   H156      1.0  0.36007  0.39976  0.35703  1.0000
  S   S57       1.0  0.38929  0.44757  0.42014  1.0000
  N   N7        1.0  0.37952  0.03205  0.42974  1.0000
  H   H157      1.0  0.00845  0.45843  0.35242  1.0000
  C   C130      1.0  0.43131  0.48569  0.43492  1.0000
  H   H158      1.0  0.37553  0.26124  0.24956  1.0000
  H   H159      1.0  0.17794  0.32712  0.44944  1.0000
  C   C131      1.0  0.18463  0.36581  0.46198  1.0000
  H   H160      1.0  0.12899  0.33112  0.26129  1.0000
  H   H161      1.0  0.14329  0.40899  0.27368  1.0000
  H   H162      1.0  0.48287  0.23159  0.46838  1.0000
  C   C132      1.0  0.36511  0.02581  0.41510  1.0000
  H   H163      1.0  0.06342  0.35264  0.27072  1.0000
  H   H164      1.0  0.45817  0.13320  0.39374  1.0000
  H   H165      1.0  0.30624  0.23085  0.28855  1.0000
  H   H166      1.0  0.19987  0.06050  0.31879  1.0000
  H   H167      1.0  0.46920  0.08036  0.34844  1.0000
  C   C133      1.0  0.11985  0.38972  0.27699  1.0000
  N   N8        1.0  0.11311  0.36607  0.26602  1.0000
  H   H168      1.0  0.30741  0.14668  0.25508  1.0000
  N   N9        1.0  0.38932  0.30244  0.44867  1.0000
  C   C134      1.0  0.39121  0.31611  0.46346  1.0000
  C   C135      1.0  0.36708  0.31003  0.44006  1.0000
  C   C136      1.0  0.37595  0.26854  0.45205  1.0000
  C   C137      1.0  0.42104  0.31393  0.44025  1.0000
  C   C138      1.0  0.42997  0.33269  0.42590  1.0000
  C   C139      1.0  0.44427  0.30660  0.44649  1.0000
  H   H169      1.0  0.26886  0.12559  0.48228  1.0000
  Fe  Fe31      1.0  0.00253  0.33610  0.29193  1.0000
  C   C140      1.0  0.32236  0.16278  0.26231  1.0000
  H   H170      1.0  0.39761  0.34113  0.46150  1.0000
  H   H171      1.0  0.36864  0.30540  0.47099  1.0000
  H   H172      1.0  0.40905  0.31361  0.47030  1.0000
  H   H173      1.0  0.37482  0.33532  0.43790  1.0000
  H   H174      1.0  0.34345  0.30096  0.44663  1.0000
  C   C141      1.0  0.36848  0.05295  0.43740  1.0000
  H   H175      1.0  0.38851  0.26114  0.46054  1.0000
  H   H176      1.0  0.35120  0.25887  0.45732  1.0000
  H   H177      1.0  0.37673  0.25744  0.44136  1.0000
  H   H178      1.0  0.41413  0.33979  0.42029  1.0000
  S   S58       1.0  0.45433  0.38603  0.46568  1.0000
  C   C142      1.0  0.05256  0.48060  0.41467  1.0000
  H   H179      1.0  0.11928  0.37999  0.28900  1.0000
  H   H180      1.0  0.06092  0.42908  0.39236  1.0000
  C   C143      1.0  0.22651  0.35291  0.45246  1.0000
  H   H181      1.0  0.16000  0.36092  0.46343  1.0000
  H   H182      1.0  0.07790  0.32988  0.28167  1.0000
  H   H183      1.0  0.42303  0.08993  0.35349  1.0000
  H   H184      1.0  0.42366  0.03600  0.41872  1.0000
  H   H185      1.0  0.33544  0.12940  0.27342  1.0000
  C   C144      1.0  0.09908  0.47312  0.40752  1.0000
  S   S59       1.0  0.37012  0.00230  0.32773  1.0000
  H   H186      1.0  0.28521  0.06013  0.47519  1.0000
  N   N10       1.0  0.34482  0.24535  0.27083  1.0000
  H   H187      1.0  0.03086  0.48095  0.41075  1.0000
  C   C145      1.0  0.36781  0.26573  0.28046  1.0000
  C   C146      1.0  0.02225  0.34076  0.24550  1.0000
  C   C147      1.0  0.34370  0.21412  0.27126  1.0000
  C   C148      1.0  0.35940  0.20329  0.28175  1.0000
  C   C149      1.0  0.32488  0.19281  0.26165  1.0000
  C   C150      1.0  0.35667  0.17318  0.28231  1.0000
  C   C151      1.0  0.07596  0.49208  0.38803  1.0000
  C   C152      1.0  0.33824  0.15300  0.27261  1.0000
  S   S60       1.0  0.28569  0.00780  0.32231  1.0000
  H   H188      1.0  0.00358  0.41267  0.33921  1.0000
  H   H189      1.0  0.48242  0.16848  0.44476  1.0000
  H   H190      1.0  0.35426  0.01411  0.46089  1.0000
  H   H191      1.0  0.07384  0.32529  0.26165  1.0000
  H   H192      1.0  0.04597  0.46484  0.42554  1.0000
  H   H193      1.0  0.36431  0.30041  0.42874  1.0000
  C   C153      1.0  0.99453  0.40990  0.35122  1.0000
  C   C154      1.0  0.39437  0.02102  0.37151  1.0000
  H   H194      1.0  0.04428  0.42384  0.41189  1.0000
  H   H195      1.0  0.47394  0.43915  0.44533  1.0000
  H   H196      1.0  0.32643  0.40965  0.46600  1.0000
  C   C155      1.0  0.20619  0.39120  0.46795  1.0000
  C   C156      1.0  0.34211  0.00390  0.23871  1.0000
  N   N11       1.0  0.23186  0.34916  0.34801  1.0000
  C   C157      1.0  0.25068  0.36788  0.33364  1.0000
  C   C158      1.0  0.24813  0.36258  0.36141  1.0000
  C   C159      1.0  0.23100  0.31803  0.34774  1.0000
  C   C160      1.0  0.20048  0.34917  0.34903  1.0000
  C   C161      1.0  0.17243  0.32199  0.34921  1.0000
  C   C162      1.0  0.19738  0.37721  0.34936  1.0000
  C   C163      1.0  0.14338  0.32314  0.34938  1.0000
  C   C164      1.0  0.16817  0.37806  0.34949  1.0000
  C   C165      1.0  0.14126  0.35108  0.34936  1.0000
  H   H197      1.0  0.25530  0.39244  0.33356  1.0000
  H   H198      1.0  0.27404  0.36737  0.33207  1.0000
  H   H199      1.0  0.23860  0.35926  0.32332  1.0000
  H   H200      1.0  0.25257  0.38702  0.36172  1.0000
  H   H201      1.0  0.27151  0.36200  0.36113  1.0000
  H   H202      1.0  0.23429  0.34970  0.37247  1.0000
  H   H203      1.0  0.25492  0.31883  0.34712  1.0000
  H   H204      1.0  0.21770  0.30277  0.35836  1.0000
  H   H205      1.0  0.22044  0.30706  0.33750  1.0000
  H   H206      1.0  0.17223  0.29956  0.34879  1.0000
  H   H207      1.0  0.21762  0.39877  0.34925  1.0000
  H   H208      1.0  0.12237  0.30226  0.34904  1.0000
  H   H209      1.0  0.16638  0.39976  0.34946  1.0000
  H   H210      1.0  0.11868  0.35177  0.34904  1.0000
  N   N12       1.0  0.28256  0.38421  0.45689  1.0000
  C   C166      1.0  0.30139  0.40557  0.46755  1.0000
  C   C167      1.0  0.28666  0.35538  0.45960  1.0000
  C   C168      1.0  0.04942  0.43857  0.40075  1.0000
  C   C169      1.0  0.24900  0.37789  0.45898  1.0000
  H   H211      1.0  0.28329  0.38286  0.43221  1.0000
  C   C170      1.0  0.23788  0.39720  0.46659  1.0000
  C   C171      1.0  0.19614  0.08097  0.32021  1.0000
  S   S61       1.0  0.26729  0.99923  0.28664  1.0000
  C   C172      1.0  0.41386  0.04845  0.42611  1.0000
  H   H212      1.0  0.43372  0.04643  0.47274  1.0000
  H   H213      1.0  0.30194  0.42876  0.46550  1.0000
  H   H214      1.0  0.31133  0.19897  0.25380  1.0000
  S   S62       1.0  0.35423  0.47947  0.45229  1.0000
  H   H215      1.0  0.31156  0.35997  0.46010  1.0000
  H   H216      1.0  0.27910  0.34031  0.45024  1.0000
  H   H217      1.0  0.26557  0.07627  0.46279  1.0000
  H   H218      1.0  0.14863  0.36344  0.23917  1.0000
  H   H219      1.0  0.37367  0.07429  0.42976  1.0000
  Fe  Fe32      1.0  0.41072  0.10603  0.47482  1.0000
  H   H220      1.0  0.25309  0.41690  0.47177  1.0000
  H   H221      1.0  0.32070  0.40343  0.43864  1.0000
  N   N13       1.0  0.18368  0.16433  0.32365  1.0000
  C   C173      1.0  0.20793  0.18787  0.33146  1.0000
  C   C174      1.0  0.18501  0.17793  0.30774  1.0000
  C   C175      1.0  0.15287  0.15783  0.33212  1.0000
  C   C176      1.0  0.18786  0.13560  0.32302  1.0000
  C   C177      1.0  0.21345  0.13166  0.32878  1.0000
  C   C178      1.0  0.16638  0.11072  0.31603  1.0000
  C   C179      1.0  0.21730  0.10466  0.32739  1.0000
  S   S63       1.0  0.99132  0.46714  0.38340  1.0000
  S   S64       1.0  0.45839  0.48673  0.45801  1.0000
  H   H222      1.0  0.23168  0.19513  0.32524  1.0000
  H   H223      1.0  0.20387  0.20898  0.33192  1.0000
  H   H224      1.0  0.20804  0.17942  0.34360  1.0000
  H   H225      1.0  0.20734  0.18199  0.30080  1.0000
  H   H226      1.0  0.18329  0.20034  0.30769  1.0000
  H   H227      1.0  0.16559  0.16299  0.30152  1.0000
  H   H228      1.0  0.15052  0.14660  0.34398  1.0000
  H   H229      1.0  0.14961  0.17931  0.33317  1.0000
  H   H230      1.0  0.13302  0.14262  0.32623  1.0000
  H   H231      1.0  0.23139  0.14934  0.33406  1.0000
  H   H232      1.0  0.14644  0.11204  0.31134  1.0000
  H   H233      1.0  0.23745  0.10248  0.33147  1.0000
  H   H234      1.0  0.38741  0.03098  0.38095  1.0000
  Fe  Fe33      1.0  0.33229  0.00805  0.31393  1.0000
  H   H235      1.0  0.23323  0.33793  0.44596  1.0000
  Fe  Fe34      1.0  0.44485  0.46130  0.42127  1.0000
  H   H236      1.0  0.35568  0.28485  0.25430  1.0000
  H   H237      1.0  0.41692  0.11631  0.37604  1.0000
  H   H238      1.0  0.05566  0.45717  0.37219  1.0000
  C   C180      1.0  0.08069  0.34250  0.27015  1.0000
  C   C181      1.0  0.44103  0.09728  0.36125  1.0000
  C   C182      1.0  0.01534  0.36455  0.25035  1.0000
  H   H239      1.0  0.31358  0.26583  0.27694  1.0000
  C   C183      1.0  0.15013  0.49746  0.44371  1.0000
  H   H240      1.0  0.36108  0.02621  0.35710  1.0000
  H   H241      1.0  0.36817  0.16510  0.29063  1.0000
  H   H242      1.0  0.37336  0.21734  0.28991  1.0000
  C   C184      1.0  0.46065  0.12142  0.38391  1.0000
  C   C185      1.0  0.22062  0.02319  0.48043  1.0000
  C   C186      1.0  0.45613  0.04407  0.47170  1.0000
  C   C187      1.0  0.27672  0.07840  0.47368  1.0000
  S   S65       1.0  0.48124  0.49217  0.40278  1.0000
  H   H243      1.0  0.33489  0.24940  0.24712  1.0000
  C   C188      1.0  0.01563  0.38705  0.23914  1.0000
  H   H244      1.0  0.16057  0.48312  0.44841  1.0000
  H   H245      1.0  0.06501  0.49298  0.34961  1.0000
  C   C189      1.0  0.47439  0.31718  0.43882  1.0000
  S   S66       1.0  0.00626  0.36736  0.27016  1.0000
  H   H246      1.0  0.01026  0.40554  0.24275  1.0000
  H   H247      1.0  0.29800  0.10065  0.47211  1.0000
  C   C190      1.0  0.12003  0.49265  0.44981  1.0000
  C   C191      1.0  0.31498  0.32844  0.23428  1.0000
  H   H248      1.0  0.23764  0.02374  0.47135  1.0000
  C   C192      1.0  0.47591  0.12276  0.44069  1.0000
  C   C193      1.0  0.37203  0.00288  0.43935  1.0000
  C   C194      1.0  0.42750  0.99919  0.36029  1.0000
  C   C195      1.0  0.98584  0.43305  0.37443  1.0000
  H   H249      1.0  0.20624  0.47963  0.47688  1.0000
  H   H250      1.0  0.41533  0.49589  0.43799  1.0000
  H   H251      1.0  0.23315  0.10146  0.47487  1.0000
  Fe  Fe35      1.0  0.31461  0.00041  0.28005  1.0000
  C   C196      1.0  0.48355  0.35016  0.47586  1.0000
  C   C197      1.0  0.48251  0.33587  0.42490  1.0000
  H   H252      1.0  0.11580  0.49710  0.40830  1.0000
  Fe  Fe36      1.0  0.37748  0.38959  0.52166  1.0000
  S   S67       1.0  0.34233  0.34022  0.52319  1.0000
  S   S68       1.0  0.39624  0.42203  0.54038  1.0000
  Fe  Fe37      1.0  0.32047  0.35666  0.50456  1.0000
  C   C198      1.0  0.24726  0.10365  0.48473  1.0000
  Fe  Fe38      1.0  0.37261  0.33530  0.50328  1.0000
  S   S69       1.0  0.39369  0.30026  0.50372  1.0000
  S   S70       1.0  0.35345  0.40598  0.50424  1.0000
  S   S71       1.0  0.40912  0.38374  0.50302  1.0000
  H   H253      1.0  0.41757  0.27971  0.70413  1.0000
  S   S72       1.0  0.39337  0.06509  0.49269  1.0000
  H   H254      1.0  0.45097  0.06540  0.49835  1.0000
  Fe  Fe39      1.0  0.36609  0.12963  0.49094  1.0000
  S   S73       1.0  0.41663  0.13925  0.49267  1.0000
  Fe  Fe40      1.0  0.39641  0.09762  0.51055  1.0000
  S   S74       1.0  0.42377  0.09487  0.53088  1.0000
  S   S75       1.0  0.34608  0.08982  0.50977  1.0000
  Fe  Fe41      1.0  0.13905  0.40735  0.50389  1.0000
  S   S76       1.0  0.12783  0.44833  0.50539  1.0000
  S   S77       1.0  0.19045  0.42008  0.50611  1.0000
  Fe  Fe42      1.0  0.07080  0.36408  0.50059  1.0000
  S   S78       1.0  0.05583  0.40248  0.50164  1.0000
  H   H255      1.0  0.45036  0.10139  0.70018  1.0000
  Fe  Fe43      1.0  0.08560  0.41636  0.52131  1.0000
  S   S79       1.0  0.06473  0.42768  0.54326  1.0000
  S   S80       1.0  0.09856  0.37657  0.52106  1.0000
  H   H256      1.0  0.45174  0.23284  0.64677  1.0000
  H   H257      1.0  0.27308  0.40867  0.57638  1.0000
  Fe  Fe44      1.0  0.43012  0.06001  0.65492  1.0000
  S   S81       1.0  0.39884  0.08218  0.64863  1.0000
  C   C199      1.0  0.47951  0.17104  0.51328  1.0000
  Fe  Fe45      1.0  0.42715  0.09602  0.62512  1.0000
  S   S82       1.0  0.39749  0.08802  0.60467  1.0000
  H   H258      1.0  0.29364  0.49518  0.69480  1.0000
  H   H259      1.0  0.44262  0.21539  0.71528  1.0000
  H   H260      1.0  0.47290  0.04904  0.50880  1.0000
  H   H261      1.0  0.99398  0.34680  0.54022  1.0000
  C   C200      1.0  0.48018  0.39696  0.50846  1.0000
  H   H262      1.0  0.40089  0.20254  0.49825  1.0000
  C   C201      1.0  0.47765  0.42208  0.51518  1.0000
  S   S83       1.0  0.41700  0.42413  0.65559  1.0000
  H   H263      1.0  0.15739  0.01311  0.51384  1.0000
  Fe  Fe46      1.0  0.43368  0.44120  0.63028  1.0000
  H   H264      1.0  0.46645  0.43573  0.53741  1.0000
  H   H265      1.0  0.45100  0.38612  0.55202  1.0000
  Fe  Fe47      1.0  0.05557  0.44683  0.66255  1.0000
  S   S84       1.0  0.08124  0.41941  0.65444  1.0000
  H   H266      1.0  0.38711  0.10421  0.69539  1.0000
  H   H267      1.0  0.43651  0.12826  0.70612  1.0000
  H   H268      1.0  0.26540  0.00659  0.51051  1.0000
  Fe  Fe48      1.0  0.10012  0.45481  0.63358  1.0000
  S   S85       1.0  0.11523  0.44600  0.60952  1.0000
  Fe  Fe49      1.0  0.12065  0.45203  0.66625  1.0000
  S   S86       1.0  0.14776  0.43308  0.68078  1.0000
  S   S87       1.0  0.07087  0.47967  0.64072  1.0000
  S   S88       1.0  0.09371  0.47706  0.67565  1.0000
  C   C202      1.0  0.44936  0.37668  0.71288  1.0000
  H   H269      1.0  0.47648  0.27391  0.70934  1.0000
  S   S89       1.0  0.11310  0.39193  0.48317  1.0000
  C   C203      1.0  0.16673  0.45266  0.69602  1.0000
  Fe  Fe50      1.0  0.43529  0.12492  0.65622  1.0000
  H   H270      1.0  0.46519  0.48441  0.50224  1.0000
  H   H271      1.0  0.22075  0.44224  0.68102  1.0000
  S   S90       1.0  0.14152  0.48525  0.64503  1.0000
  H   H272      1.0  0.24279  0.45852  0.48312  1.0000
  C   C204      1.0  0.46132  0.46348  0.50990  1.0000
  S   S91       1.0  0.43454  0.48785  0.63258  1.0000
  C   C205      1.0  0.27376  0.43829  0.68722  1.0000
  S   S92       1.0  0.41168  0.40751  0.61245  1.0000
  H   H273      1.0  0.38215  0.43410  0.69160  1.0000
  H   H274      1.0  0.23398  0.10650  0.49506  1.0000
  H   H275      1.0  0.17620  0.41500  0.70496  1.0000
  C   C206      1.0  0.29639  0.47895  0.66521  1.0000
  C   C207      1.0  0.34953  0.24741  0.49366  1.0000
  C   C208      1.0  0.21414  0.34787  0.50443  1.0000
  H   H276      1.0  0.30386  0.02804  0.66153  1.0000
  C   C209      1.0  0.45939  0.38921  0.53986  1.0000
  S   S93       1.0  0.00634  0.42939  0.67451  1.0000
  C   C210      1.0  0.06172  0.42142  0.72519  1.0000
  H   H277      1.0  0.44146  0.40351  0.69421  1.0000
  H   H278      1.0  0.00695  0.34230  0.60734  1.0000
  H   H279      1.0  0.31597  0.20576  0.48612  1.0000
  C   C211      1.0  0.47180  0.27248  0.67852  1.0000
  H   H280      1.0  0.46596  0.43342  0.48561  1.0000
  H   H281      1.0  0.44569  0.16719  0.53207  1.0000
  C   C212      1.0  0.24964  0.48290  0.48326  1.0000
  H   H282      1.0  0.36294  0.02995  0.67697  1.0000
  C   C213      1.0  0.36063  0.01061  0.68479  1.0000
  C   C214      1.0  0.99387  0.39951  0.68971  1.0000
  H   H283      1.0  0.20271  0.32356  0.50329  1.0000
  C   C215      1.0  0.01461  0.34165  0.53778  1.0000
  H   H284      1.0  0.46245  0.09933  0.55535  1.0000
  C   C216      1.0  0.39289  0.11271  0.73203  1.0000
  C   C217      1.0  0.00785  0.33674  0.59555  1.0000
  H   H285      1.0  0.03216  0.38719  0.68491  1.0000
  H   H286      1.0  0.42716  0.37139  0.71948  1.0000
  H   H287      1.0  0.32053  0.41036  0.56782  1.0000
  H   H288      1.0  0.27805  0.06030  0.50318  1.0000
  C   C218      1.0  0.07919  0.43285  0.56159  1.0000
  C   C219      1.0  0.06246  0.43969  0.57364  1.0000
  C   C220      1.0  0.07285  0.44355  0.58843  1.0000
  C   C221      1.0  0.10024  0.44067  0.59132  1.0000
  C   C222      1.0  0.11693  0.43383  0.57927  1.0000
  C   C223      1.0  0.10649  0.42986  0.56452  1.0000
  H   H289      1.0  0.04122  0.44190  0.57152  1.0000
  H   H290      1.0  0.05968  0.44872  0.59756  1.0000
  H   H291      1.0  0.13814  0.43153  0.58136  1.0000
  H   H292      1.0  0.11961  0.42456  0.55541  1.0000
  C   C224      1.0  0.37886  0.26188  0.49892  1.0000
  C   C225      1.0  0.40585  0.09115  0.58413  1.0000
  C   C226      1.0  0.43493  0.09521  0.57694  1.0000
  C   C227      1.0  0.43992  0.09641  0.56070  1.0000
  C   C228      1.0  0.41613  0.09390  0.55134  1.0000
  C   C229      1.0  0.38712  0.09007  0.55852  1.0000
  C   C230      1.0  0.38202  0.08851  0.57478  1.0000
  C   C231      1.0  0.32616  0.01253  0.64379  1.0000
  C   C232      1.0  0.30887  0.38934  0.54081  1.0000
  H   H293      1.0  0.36851  0.08804  0.55158  1.0000
  H   H294      1.0  0.35942  0.08537  0.58015  1.0000
  C   C233      1.0  0.21103  0.39670  0.50615  1.0000
  C   C234      1.0  0.24648  0.36175  0.50548  1.0000
  C   C235      1.0  0.26095  0.39316  0.50701  1.0000
  C   C236      1.0  0.24329  0.41048  0.50737  1.0000
  H   H295      1.0  0.28577  0.40422  0.50788  1.0000
  H   H296      1.0  0.25472  0.43475  0.50858  1.0000
  C   C237      1.0  0.39737  0.24555  0.50038  1.0000
  C   C238      1.0  0.38653  0.21490  0.49689  1.0000
  H   H297      1.0  0.33100  0.38647  0.53973  1.0000
  H   H298      1.0  0.45429  0.33071  0.68918  1.0000
  C   C239      1.0  0.40110  0.41726  0.56030  1.0000
  C   C240      1.0  0.39235  0.38841  0.56844  1.0000
  C   C241      1.0  0.39585  0.38596  0.58434  1.0000
  C   C242      1.0  0.40850  0.41223  0.59229  1.0000
  C   C243      1.0  0.41758  0.44107  0.58407  1.0000
  C   C244      1.0  0.41380  0.44350  0.56822  1.0000
  H   H299      1.0  0.42730  0.46148  0.58997  1.0000
  H   H300      1.0  0.42069  0.46595  0.56208  1.0000
  C   C245      1.0  0.35708  0.20032  0.49178  1.0000
  H   H301      1.0  0.29563  0.49188  0.48933  1.0000
  C   C246      1.0  0.40570  0.05128  0.71442  1.0000
  C   C247      1.0  0.33574  0.44751  0.71936  1.0000
  C   C248      1.0  0.23106  0.40605  0.56837  1.0000
  N   N14       1.0  0.45985  0.28846  0.68940  1.0000
  C   C249      1.0  0.29383  0.42482  0.68192  1.0000
  C   C250      1.0  0.17875  0.43803  0.70641  1.0000
  S   S94       1.0  0.38600  0.48589  0.67060  1.0000
  S   S95       1.0  0.47065  0.49028  0.66387  1.0000
  C   C251      1.0  0.46946  0.05696  0.49712  1.0000
  C   C252      1.0  0.43264  0.18821  0.69592  1.0000
  C   C253      1.0  0.35322  0.43360  0.71211  1.0000
  C   C254      1.0  0.36940  0.44540  0.69726  1.0000
  S   S96       1.0  0.45664  0.07112  0.63111  1.0000
  H   H302      1.0  0.33501  0.25964  0.49255  1.0000
  H   H303      1.0  0.20459  0.06119  0.50911  1.0000
  C   C255      1.0  0.36840  0.47140  0.68968  1.0000
  H   H304      1.0  0.04411  0.30555  0.53287  1.0000
  S   S97       1.0  0.26761  0.33882  0.50535  1.0000
  C   C256      1.0  0.47511  0.17812  0.68455  1.0000
  C   C257      1.0  0.44433  0.17483  0.68474  1.0000
  H   H305      1.0  0.12294  0.44928  0.72224  1.0000
  H   H306      1.0  0.40868  0.18532  0.69626  1.0000
  N   N15       1.0  0.01271  0.31548  0.54842  1.0000
  Fe  Fe51      1.0  0.34470  0.06026  0.49058  1.0000
  C   C258      1.0  0.46550  0.24361  0.65587  1.0000
  H   H307      1.0  0.31165  0.39102  0.68664  1.0000
  H   H308      1.0  0.31537  0.41447  0.53972  1.0000
  S   S98       1.0  0.41275  0.01207  0.66747  1.0000
  H   H309      1.0  0.34216  0.02887  0.61264  1.0000
  H   H310      1.0  0.32179  0.48455  0.71722  1.0000
  C   C259      1.0  0.44196  0.46338  0.72186  1.0000
  C   C260      1.0  0.20208  0.04363  0.50156  1.0000
  C   C261      1.0  0.17495  0.01619  0.50439  1.0000
  S   S99       1.0  0.03891  0.31290  0.49944  1.0000
  C   C262      1.0  0.25712  0.40078  0.71023  1.0000
  H   H311      1.0  0.19671  0.36879  0.53848  1.0000
  H   H312      1.0  0.23863  0.43457  0.66410  1.0000
  Fe  Fe52      1.0  0.09984  0.43146  0.48552  1.0000
  H   H313      1.0  0.38275  0.36799  0.56255  1.0000
  C   C263      1.0  0.45508  0.25953  0.66601  1.0000
  C   C264      1.0  0.30766  0.00882  0.65767  1.0000
  H   H314      1.0  0.33643  0.03506  0.63737  1.0000
  C   C265      1.0  0.03406  0.34884  0.56956  1.0000
  C   C266      1.0  0.19697  0.48252  0.72080  1.0000
  H   H315      1.0  0.10046  0.40593  0.70734  1.0000
  H   H316      1.0  0.45027  0.31465  0.67112  1.0000
  C   C267      1.0  0.01091  0.38226  0.69230  1.0000
  Fe  Fe53      1.0  0.46788  0.44382  0.65951  1.0000
  H   H317      1.0  0.38545  0.03733  0.62761  1.0000
  C   C268      1.0  0.27738  0.38848  0.70485  1.0000
  C   C269      1.0  0.24079  0.45266  0.67182  1.0000
  H   H318      1.0  0.42010  0.25658  0.50442  1.0000
  H   H319      1.0  0.43282  0.48660  0.70233  1.0000
  C   C270      1.0  0.27172  0.07993  0.50102  1.0000
  H   H320      1.0  0.10409  0.37952  0.72167  1.0000
  H   H321      1.0  0.04070  0.29087  0.55273  1.0000
  H   H322      1.0  0.01589  0.33702  0.52550  1.0000
  C   C271      1.0  0.04132  0.31050  0.54505  1.0000
  H   H323      1.0  0.27968  0.37032  0.71188  1.0000
  H   H324      1.0  0.47870  0.14864  0.51669  1.0000
  C   C272      1.0  0.98577  0.28763  0.54492  1.0000
  S   S100      1.0  0.34828  0.34836  0.48471  1.0000
  H   H325      1.0  0.47199  0.34937  0.51164  1.0000
  H   H326      1.0  0.03570  0.36307  0.53863  1.0000
  N   N16       1.0  0.28970  0.37399  0.55563  1.0000
  C   C273      1.0  0.30995  0.38488  0.56819  1.0000
  C   C274      1.0  0.28015  0.34042  0.55589  1.0000
  C   C275      1.0  0.33879  0.21683  0.49005  1.0000
  C   C276      1.0  0.26181  0.38064  0.55693  1.0000
  C   C277      1.0  0.27281  0.48840  0.68833  1.0000
  C   C278      1.0  0.19393  0.45294  0.71873  1.0000
  H   H327      1.0  0.30930  0.43334  0.67130  1.0000
  N   N17       1.0  0.40343  0.08107  0.71200  1.0000
  H   H328      1.0  0.20288  0.44141  0.72678  1.0000
  H   H329      1.0  0.29690  0.37452  0.57975  1.0000
  H   H330      1.0  0.33014  0.37866  0.56710  1.0000
  C   C279      1.0  0.23911  0.36973  0.54642  1.0000
  H   H331      1.0  0.30063  0.33464  0.55589  1.0000
  H   H332      1.0  0.26870  0.33096  0.54555  1.0000
  H   H333      1.0  0.26364  0.32771  0.56631  1.0000
  H   H334      1.0  0.01295  0.34437  0.70595  1.0000
  H   H335      1.0  0.41511  0.04912  0.72551  1.0000
  H   H336      1.0  0.29367  0.10149  0.49972  1.0000
  Fe  Fe54      1.0  0.42107  0.47186  0.65806  1.0000
  H   H337      1.0  0.24143  0.35601  0.53753  1.0000
  H   H338      1.0  0.18960  0.40098  0.55791  1.0000
  H   H339      1.0  0.46060  0.46970  0.52188  1.0000
  S   S101      1.0  0.46471  0.10169  0.66427  1.0000
  H   H340      1.0  0.45079  0.45027  0.71489  1.0000
  C   C280      1.0  0.42625  0.26956  0.69480  1.0000
  C   C281      1.0  0.46073  0.36469  0.53277  1.0000
  C   C282      1.0  0.35174  0.48580  0.69714  1.0000
  H   H341      1.0  0.34482  0.03966  0.72526  1.0000
  H   H342      1.0  0.17163  0.35437  0.50376  1.0000
  C   C283      1.0  0.21338  0.37694  0.54685  1.0000
  C   C284      1.0  0.43191  0.48389  0.71482  1.0000
  H   H343      1.0  0.42106  0.04847  0.70492  1.0000
  C   C285      1.0  0.00002  0.35807  0.70423  1.0000
  C   C286      1.0  0.20940  0.39513  0.55777  1.0000
  H   H344      1.0  0.42224  0.24600  0.69941  1.0000
  C   C287      1.0  0.47670  0.29514  0.70336  1.0000
  H   H345      1.0  0.01292  0.48894  0.66734  1.0000
  C   C288      1.0  0.19644  0.36525  0.50474  1.0000
  H   H346      1.0  0.40034  0.01834  0.61482  1.0000
  N   N18       1.0  0.27123  0.46420  0.67825  1.0000
  H   H347      1.0  0.29650  0.37989  0.53071  1.0000
  H   H348      1.0  0.23868  0.43343  0.70612  1.0000
  C   C289      1.0  0.25700  0.39908  0.56799  1.0000
  C   C290      1.0  0.47142  0.36865  0.51716  1.0000
  C   C291      1.0  0.16981  0.48227  0.69806  1.0000
  C   C292      1.0  0.38878  0.08197  0.69770  1.0000
  H   H349      1.0  0.36463  0.06369  0.69846  1.0000
  H   H350      1.0  0.06287  0.33089  0.54666  1.0000
  H   H351      1.0  0.25770  0.08070  0.51161  1.0000
  H   H352      1.0  0.45352  0.09720  0.58390  1.0000
  H   H353      1.0  0.35375  0.41328  0.71786  1.0000
  H   H354      1.0  0.02086  0.47860  0.69535  1.0000
  C   C293      1.0  0.29540  0.40023  0.69065  1.0000
  C   C294      1.0  0.45177  0.20524  0.70667  1.0000
  H   H355      1.0  0.25184  0.48108  0.69689  1.0000
  H   H356      1.0  0.38880  0.36353  0.59054  1.0000
  C   C295      1.0  0.38396  0.08485  0.72504  1.0000
  C   C296      1.0  0.34024  0.00547  0.61102  1.0000
  H   H357      1.0  0.22787  0.42029  0.57682  1.0000
  C   C297      1.0  0.98527  0.30350  0.57587  1.0000
  H   H358      1.0  0.41090  0.26752  0.68553  1.0000
  C   C298      1.0  0.22585  0.04798  0.48951  1.0000
  C   C299      1.0  0.03273  0.35576  0.58480  1.0000
  H   H359      1.0  0.38293  0.03119  0.71462  1.0000
  C   C300      1.0  0.08866  0.39047  0.71814  1.0000
  C   C301      1.0  0.33528  0.47379  0.71184  1.0000
  H   H360      1.0  0.43366  0.26133  0.66400  1.0000
  S   S102      1.0  0.46082  0.14102  0.63236  1.0000
  H   H361      1.0  0.32001  0.48675  0.66927  1.0000
  C   C302      1.0  0.25496  0.42500  0.70149  1.0000
  C   C303      1.0  0.45740  0.39488  0.69857  1.0000
  C   C304      1.0  0.46971  0.36505  0.71862  1.0000
  S   S103      1.0  0.41955  0.15313  0.67163  1.0000
  H   H362      1.0  0.41693  0.02149  0.51204  1.0000
  Fe  Fe55      1.0  0.38338  0.39712  0.48565  1.0000
  C   C305      1.0  0.46168  0.21022  0.51777  1.0000
  H   H363      1.0  0.40237  0.07916  0.68743  1.0000
  H   H364      1.0  0.05113  0.37610  0.58826  1.0000
  H   H365      1.0  0.05383  0.36450  0.56166  1.0000
  C   C306      1.0  0.46086  0.18151  0.52201  1.0000
  H   H366      1.0  0.24360  0.39196  0.72144  1.0000
  C   C307      1.0  0.46808  0.41760  0.53129  1.0000
  H   H367      1.0  0.29476  0.46314  0.65625  1.0000
  H   H368      1.0  0.43757  0.44601  0.50847  1.0000
  H   H369      1.0  0.44722  0.21837  0.52464  1.0000
  C   C308      1.0  0.43591  0.10547  0.70965  1.0000
  C   C309      1.0  0.99764  0.28962  0.50088  1.0000
  H   H370      1.0  0.00359  0.24804  0.49859  1.0000
  C   C310      1.0  0.98682  0.25770  0.50035  1.0000
  N   N19       1.0  0.25487  0.07685  0.48716  1.0000
  H   H371      1.0  0.98855  0.28302  0.53271  1.0000
  H   H372      1.0  0.07319  0.43858  0.71491  1.0000
  S   S104      1.0  0.34219  0.16170  0.48731  1.0000
  H   H373      1.0  0.32070  0.00952  0.69892  1.0000
  H   H374      1.0  0.41469  0.13249  0.72844  1.0000
  H   H375      1.0  0.23747  0.47133  0.66511  1.0000
  C   C311      1.0  0.01039  0.32247  0.56460  1.0000
  N   N20       1.0  0.46203  0.03233  0.48665  1.0000
  H   H376      1.0  0.06688  0.37208  0.71503  1.0000
  C   C312      1.0  0.48113  0.22853  0.50476  1.0000
  C   C313      1.0  0.38414  0.01446  0.62546  1.0000
  H   H377      1.0  0.44778  0.10696  0.72029  1.0000
  H   H378      1.0  0.03971  0.40429  0.72158  1.0000
  C   C314      1.0  0.46325  0.31798  0.68144  1.0000
  N   N21       1.0  0.08237  0.40740  0.73054  1.0000
  H   H379      1.0  0.46592  0.30502  0.71191  1.0000
  H   H380      1.0  0.45321  0.34247  0.53933  1.0000
  S   S105      1.0  0.48421  0.45719  0.63422  1.0000
  C   C315      1.0  0.43433  0.00377  0.49266  1.0000
  H   H381      1.0  0.35421  0.00830  0.59973  1.0000
  H   H382      1.0  0.48434  0.16789  0.67601  1.0000
  C   C316      1.0  0.48282  0.20924  0.70618  1.0000
  H   H383      1.0  0.16069  0.49378  0.69011  1.0000
  C   C317      1.0  0.33660  0.99885  0.69715  1.0000
  C   C318      1.0  0.41351  0.00207  0.50566  1.0000
  H   H384      1.0  0.39342  0.00634  0.63532  1.0000
  C   C319      1.0  0.35401  0.06108  0.73039  1.0000
  H   H385      1.0  0.46347  0.34047  0.48452  1.0000
  S   S106      1.0  0.30948  0.01539  0.48297  1.0000
  H   H386      1.0  0.48158  0.25097  0.50224  1.0000
  C   C320      1.0  0.18477  0.49707  0.71046  1.0000
  Fe  Fe56      1.0  0.23999  0.41764  0.92574  1.0000
  S   S107      1.0  0.20767  0.36896  0.93360  1.0000
  S   S108      1.0  0.25941  0.45510  0.94151  1.0000
  Fe  Fe57      1.0  0.23748  0.40646  0.89171  1.0000
  S   S109      1.0  0.20434  0.35620  0.89694  1.0000
  S   S110      1.0  0.26382  0.43570  0.86931  1.0000
  Fe  Fe58      1.0  0.17935  0.37246  0.91478  1.0000
  S   S111      1.0  0.12862  0.35380  0.92463  1.0000
  Fe  Fe59      1.0  0.23490  0.35628  0.91552  1.0000
  S   S112      1.0  0.24615  0.31750  0.92455  1.0000
  S   S113      1.0  0.20990  0.42260  0.90807  1.0000
  S   S114      1.0  0.26989  0.40499  0.90912  1.0000
  Fe  Fe60      1.0  0.35915  0.18251  0.89982  1.0000
  S   S115      1.0  0.41062  0.21167  0.90053  1.0000
  S   S116      1.0  0.34583  0.13151  0.90518  1.0000
  Fe  Fe61      1.0  0.34645  0.23805  0.89166  1.0000
  S   S117      1.0  0.39636  0.27056  0.89225  1.0000
  S   S118      1.0  0.31715  0.26030  0.88169  1.0000
  Fe  Fe62      1.0  0.40783  0.23776  0.87888  1.0000
  S   S119      1.0  0.44601  0.26038  0.85878  1.0000
  Fe  Fe63      1.0  0.39492  0.24192  0.91394  1.0000
  S   S120      1.0  0.42303  0.26839  0.93260  1.0000
  S   S121      1.0  0.35788  0.20645  0.87705  1.0000
  S   S122      1.0  0.34344  0.21162  0.91452  1.0000
  Fe  Fe64      1.0  0.24853  0.45112  0.78037  1.0000
  S   S123      1.0  0.01698  0.27197  0.88841  1.0000
  C   C321      1.0  0.39822  0.31492  0.81410  1.0000
  H   H387      1.0  0.30286  0.36777  0.93458  1.0000
  H   H388      1.0  0.40964  0.31614  0.94195  1.0000
  H   H389      1.0  0.38975  0.25025  0.78822  1.0000
  S   S124      1.0  0.43766  0.22737  0.78957  1.0000
  H   H390      1.0  0.28204  0.46978  0.89822  1.0000
  H   H391      1.0  0.42821  0.34566  0.79462  1.0000
  N   N22       1.0  0.36313  0.27723  0.83619  1.0000
  S   S125      1.0  0.45428  0.26133  0.74616  1.0000
  S   S126      1.0  0.21861  0.42301  0.80233  1.0000
  S   S127      1.0  0.23784  0.43705  0.75652  1.0000
  C   C322      1.0  0.44088  0.25151  0.83957  1.0000
  C   C323      1.0  0.41987  0.22272  0.83614  1.0000
  C   C324      1.0  0.41870  0.21580  0.82071  1.0000
  C   C325      1.0  0.43851  0.23755  0.80867  1.0000
  H   H392      1.0  0.47376  0.28369  0.80292  1.0000
  H   H393      1.0  0.35336  0.01015  0.85698  1.0000
  H   H394      1.0  0.40525  0.20554  0.84538  1.0000
  H   H395      1.0  0.40282  0.19333  0.81810  1.0000
  C   C326      1.0  0.34094  0.03648  0.88095  1.0000
  C   C327      1.0  0.44016  0.45937  0.73789  1.0000
  C   C328      1.0  0.41603  0.26127  0.95309  1.0000
  C   C329      1.0  0.43940  0.27908  0.96193  1.0000
  C   C330      1.0  0.39157  0.32281  0.94723  1.0000
  C   C331      1.0  0.38733  0.24007  0.96072  1.0000
  H   H396      1.0  0.10967  0.44654  0.74215  1.0000
  C   C332      1.0  0.03677  0.36162  0.74463  1.0000
  H   H397      1.0  0.36920  0.22598  0.95412  1.0000
  C   C333      1.0  0.31040  0.09987  0.90307  1.0000
  C   C334      1.0  0.28720  0.10288  0.89502  1.0000
  C   C335      1.0  0.26043  0.07655  0.89273  1.0000
  C   C336      1.0  0.25691  0.04711  0.89830  1.0000
  C   C337      1.0  0.27991  0.04420  0.90651  1.0000
  C   C338      1.0  0.30638  0.07049  0.90898  1.0000
  H   H398      1.0  0.29008  0.12540  0.89040  1.0000
  H   H399      1.0  0.24277  0.07898  0.88631  1.0000
  H   H400      1.0  0.36143  0.26634  0.93679  1.0000
  H   H401      1.0  0.32413  0.06803  0.91533  1.0000
  C   C339      1.0  0.25123  0.42884  0.85078  1.0000
  C   C340      1.0  0.21983  0.41185  0.84879  1.0000
  C   C341      1.0  0.21034  0.40948  0.83384  1.0000
  C   C342      1.0  0.23212  0.42384  0.82076  1.0000
  C   C343      1.0  0.26369  0.43984  0.82275  1.0000
  C   C344      1.0  0.27310  0.44267  0.83770  1.0000
  H   H402      1.0  0.20272  0.40115  0.85876  1.0000
  H   H403      1.0  0.18588  0.39690  0.83241  1.0000
  H   H404      1.0  0.32252  0.28094  0.82864  1.0000
  H   H405      1.0  0.36333  0.23676  0.81415  1.0000
  C   C345      1.0  0.25968  0.44243  0.96092  1.0000
  C   C346      1.0  0.25631  0.41262  0.96506  1.0000
  H   H406      1.0  0.36535  0.03866  0.88028  1.0000
  C   C347      1.0  0.26387  0.46257  0.97236  1.0000
  H   H407      1.0  0.25322  0.39696  0.95637  1.0000
  C   C348      1.0  0.33984  0.29038  0.83703  1.0000
  H   H408      1.0  0.02373  0.32808  0.78148  1.0000
  C   C349      1.0  0.09787  0.33114  0.91440  1.0000
  C   C350      1.0  0.10299  0.32831  0.89875  1.0000
  C   C351      1.0  0.07780  0.31052  0.89090  1.0000
  C   C352      1.0  0.04755  0.29487  0.89869  1.0000
  C   C353      1.0  0.04252  0.29737  0.91440  1.0000
  C   C354      1.0  0.06762  0.31563  0.92220  1.0000
  H   H409      1.0  0.12618  0.34018  0.89264  1.0000
  H   H410      1.0  0.08178  0.30875  0.87873  1.0000
  H   H411      1.0  0.01930  0.28543  0.92048  1.0000
  H   H412      1.0  0.06354  0.31776  0.93431  1.0000
  C   C355      1.0  0.26677  0.30268  0.91251  1.0000
  C   C356      1.0  0.27326  0.31159  0.89664  1.0000
  C   C357      1.0  0.28883  0.29848  0.88729  1.0000
  C   C358      1.0  0.29833  0.27676  0.89378  1.0000
  C   C359      1.0  0.29205  0.26806  0.90967  1.0000
  C   C360      1.0  0.27623  0.28094  0.91900  1.0000
  H   H413      1.0  0.26598  0.32829  0.89155  1.0000
  H   H414      1.0  0.29349  0.30517  0.87498  1.0000
  H   H415      1.0  0.29873  0.25084  0.91465  1.0000
  H   H416      1.0  0.27103  0.27385  0.93127  1.0000
  H   H417      1.0  0.29748  0.45567  0.83913  1.0000
  H   H418      1.0  0.28079  0.45039  0.81277  1.0000
  C   C361      1.0  0.06566  0.36711  0.77164  1.0000
  H   H419      1.0  0.40513  0.28353  0.84627  1.0000
  C   C362      1.0  0.34634  0.24386  0.84131  1.0000
  H   H420      1.0  0.33708  0.30492  0.96918  1.0000
  Fe  Fe65      1.0  0.29007  0.45602  0.75068  1.0000
  C   C363      1.0  0.41364  0.32201  0.79910  1.0000
  H   H421      1.0  0.42259  0.30420  0.77821  1.0000
  H   H422      1.0  0.07689  0.36898  0.78215  1.0000
  H   H423      1.0  0.08513  0.25296  0.86323  1.0000
  H   H424      1.0  0.34318  0.26896  0.95481  1.0000
  H   H425      1.0  0.38511  0.34421  0.91936  1.0000
  C   C364      1.0  0.45864  0.26668  0.81209  1.0000
  C   C365      1.0  0.37941  0.28409  0.82032  1.0000
  H   H426      1.0  0.35089  0.31577  0.83448  1.0000
  H   H427      1.0  0.32667  0.28517  0.84877  1.0000
  C   C366      1.0  0.38191  0.23733  0.97695  1.0000
  H   H428      1.0  0.32938  0.09468  0.75823  1.0000
  H   H429      1.0  0.29716  0.05518  0.87269  1.0000
  C   C367      1.0  0.41046  0.29873  0.78981  1.0000
  C   C368      1.0  0.35244  0.06775  0.85648  1.0000
  S   S128      1.0  0.31408  0.43114  0.73757  1.0000
  C   C369      1.0  0.16866  0.40008  0.97297  1.0000
  C   C370      1.0  0.38968  0.09815  0.83411  1.0000
  C   C371      1.0  0.33478  0.06459  0.74230  1.0000
  C   C372      1.0  0.25737  0.40308  0.98046  1.0000
  C   C373      1.0  0.37664  0.26089  0.81049  1.0000
  H   H430      1.0  0.13037  0.42445  0.73564  1.0000
  H   H431      1.0  0.36820  0.04957  0.83682  1.0000
  H   H432      1.0  0.38863  0.30888  0.91836  1.0000
  S   S129      1.0  0.29999  0.46558  0.77506  1.0000
  C   C374      1.0  0.29883  0.03614  0.86680  1.0000
  C   C375      1.0  0.33101  0.34235  0.93588  1.0000
  H   H433      1.0  0.29043  0.03701  0.85530  1.0000
  C   C376      1.0  0.37642  0.12421  0.85413  1.0000
  C   C377      1.0  0.33039  0.31883  0.96134  1.0000
  C   C378      1.0  0.34141  0.32419  0.94538  1.0000
  H   H434      1.0  0.16552  0.00546  0.91023  1.0000
  C   C379      1.0  0.45965  0.27361  0.82748  1.0000
  C   C380      1.0  0.31111  0.35456  0.94210  1.0000
  H   H435      1.0  0.34004  0.05487  0.88768  1.0000
  H   H436      1.0  0.28467  0.35783  0.96239  1.0000
  Fe  Fe66      1.0  0.48265  0.31248  0.74479  1.0000
  H   H437      1.0  0.36272  0.23266  0.84121  1.0000
  H   H438      1.0  0.34399  0.09646  0.87303  1.0000
  C   C381      1.0  0.36971  0.06969  0.84211  1.0000
  N   N23       1.0  0.33104  0.03816  0.86532  1.0000
  H   H439      1.0  0.35204  0.30976  0.91570  1.0000
  H   H440      1.0  0.14204  0.00385  0.89517  1.0000
  H   H441      1.0  0.38727  0.31354  0.95958  1.0000
  N   N24       1.0  0.36277  0.31113  0.93932  1.0000
  H   H442      1.0  0.22411  0.47561  0.82881  1.0000
  C   C382      1.0  0.43427  0.27574  0.97820  1.0000
  C   C383      1.0  0.08118  0.38779  0.75854  1.0000
  Fe  Fe67      1.0  0.24478  0.48562  0.75039  1.0000
  C   C384      1.0  0.35637  0.09595  0.86220  1.0000
  H   H443      1.0  0.32126  0.00941  0.84661  1.0000
  H   H444      1.0  0.37909  0.14533  0.85886  1.0000
  N   N25       1.0  0.14222  0.26049  0.91512  1.0000
  C   C385      1.0  0.17600  0.26756  0.91239  1.0000
  C   C386      1.0  0.13915  0.28520  0.92331  1.0000
  C   C387      1.0  0.12693  0.23115  0.92534  1.0000
  C   C388      1.0  0.12707  0.25818  0.90072  1.0000
  C   C389      1.0  0.14438  0.26847  0.88586  1.0000
  C   C390      1.0  0.09405  0.24675  0.90134  1.0000
  C   C391      1.0  0.12930  0.26636  0.87251  1.0000
  C   C392      1.0  0.07924  0.24422  0.88792  1.0000
  C   C393      1.0  0.09680  0.25408  0.87354  1.0000
  H   H445      1.0  0.18640  0.26732  0.92340  1.0000
  H   H446      1.0  0.18003  0.25063  0.90554  1.0000
  H   H447      1.0  0.19000  0.29099  0.90640  1.0000
  H   H448      1.0  0.14951  0.30740  0.91584  1.0000
  H   H449      1.0  0.15115  0.28880  0.93398  1.0000
  H   H450      1.0  0.11429  0.28047  0.92667  1.0000
  H   H451      1.0  0.12627  0.21154  0.91907  1.0000
  H   H452      1.0  0.13945  0.23153  0.93568  1.0000
  H   H453      1.0  0.10260  0.22614  0.92994  1.0000
  H   H454      1.0  0.16959  0.27868  0.88423  1.0000
  H   H455      1.0  0.07933  0.24049  0.91220  1.0000
  H   H456      1.0  0.14289  0.27469  0.86130  1.0000
  H   H457      1.0  0.05398  0.23578  0.88871  1.0000
  C   C394      1.0  0.02141  0.34123  0.75779  1.0000
  C   C395      1.0  0.38593  0.29107  0.84735  1.0000
  H   H458      1.0  0.26323  0.49182  0.80730  1.0000
  H   H459      1.0  0.37481  0.28437  0.85952  1.0000
  H   H460      1.0  0.39674  0.31651  0.84577  1.0000
  H   H461      1.0  0.35755  0.48014  0.75013  1.0000
  Fe  Fe68      1.0  0.47081  0.26047  0.76966  1.0000
  C   C396      1.0  0.39181  0.26832  0.79545  1.0000
  C   C397      1.0  0.37244  0.31899  0.92245  1.0000
  C   C398      1.0  0.31024  0.33094  0.96740  1.0000
  C   C399      1.0  0.33003  0.01068  0.85814  1.0000
  H   H462      1.0  0.42733  0.47134  0.75929  1.0000
  H   H463      1.0  0.99815  0.32315  0.75748  1.0000
  C   C400      1.0  0.30065  0.34880  0.95778  1.0000
  H   H464      1.0  0.32745  0.23204  0.83403  1.0000
  C   C401      1.0  0.37337  0.11601  0.74390  1.0000
  C   C402      1.0  0.34717  0.27717  0.94232  1.0000
  H   H465      1.0  0.33469  0.23949  0.85334  1.0000
  H   H466      1.0  0.32413  0.26779  0.93770  1.0000
  C   C403      1.0  0.42831  0.47584  0.74696  1.0000
  H   H467      1.0  0.27739  0.02171  0.91096  1.0000
  H   H468      1.0  0.13230  0.38175  0.95817  1.0000
  C   C404      1.0  0.39304  0.12532  0.84010  1.0000
  H   H469      1.0  0.40858  0.14731  0.83388  1.0000
  H   H470      1.0  0.40117  0.33379  0.82079  1.0000
  H   H471      1.0  0.46166  0.29561  0.95616  1.0000
  C   C405      1.0  0.03578  0.34400  0.77129  1.0000
  H   H472      1.0  0.18725  0.40387  0.96391  1.0000
  H   H473      1.0  0.26620  0.48559  0.96927  1.0000
  H   H474      1.0  0.40268  0.09917  0.82318  1.0000
  H   H475      1.0  0.33729  0.34699  0.92355  1.0000
  C   C406      1.0  0.34445  0.09198  0.74906  1.0000
  H   H476      1.0  0.47531  0.29610  0.83005  1.0000
  H   H477      1.0  0.40225  0.34831  0.94654  1.0000
  H   H478      1.0  0.24448  0.47999  0.88481  1.0000
  S   S130      1.0  0.22458  0.01439  0.89398  1.0000
  H   H479      1.0  0.38068  0.13747  0.74904  1.0000
  C   C407      1.0  0.06693  0.38586  0.74463  1.0000
  H   H480      1.0  0.12844  0.00625  0.91484  1.0000
  H   H481      1.0  0.31210  0.04597  0.74620  1.0000
  C   C408      1.0  0.13775  0.38777  0.96970  1.0000
  H   H482      1.0  0.25220  0.49202  0.84209  1.0000
  H   H483      1.0  0.47791  0.20505  0.82713  1.0000
  H   H484      1.0  0.28191  0.01447  0.87365  1.0000
  H   H485      1.0  0.10432  0.40499  0.75963  1.0000
  H   H486      1.0  0.32563  0.01445  0.88797  1.0000
  H   H487      1.0  0.02470  0.35815  0.73442  1.0000
  H   H488      1.0  0.39090  0.48511  0.77083  1.0000
  H   H489      1.0  0.44770  0.44306  0.74330  1.0000
  C   C409      1.0  0.41771  0.49690  0.74013  1.0000
  H   H490      1.0  0.25050  0.48718  0.91301  1.0000
  H   H491      1.0  0.08992  0.37443  0.97853  1.0000
  H   H492      1.0  0.30163  0.32618  0.97955  1.0000
  C   C410      1.0  0.11256  0.43292  0.73285  1.0000
  H   H493      1.0  0.05516  0.43310  0.73446  1.0000
  H   H494      1.0  0.31088  0.49329  0.88315  1.0000
  C   C411      1.0  0.23721  0.49706  0.83414  1.0000
  C   C412      1.0  0.29920  0.49392  0.89459  1.0000
  S   S131      1.0  0.45840  0.34178  0.73649  1.0000
  C   C413      1.0  0.11392  0.38357  0.98122  1.0000
  H   H495      1.0  0.32579  0.49750  0.95946  1.0000
  H   H496      1.0  0.47754  0.96143  0.18300  1.0000
  S   S132      1.0  0.40330  0.72496  0.99514  1.0000
  H   H497      1.0  0.03289  0.79915  0.12741  1.0000
  H   H498      1.0  0.47290  0.78503  0.00384  1.0000
  H   H499      1.0  0.41389  0.94380  0.21620  1.0000
  H   H500      1.0  0.33014  0.96246  0.22756  1.0000
  H   H501      1.0  0.37477  0.97542  0.10537  1.0000
  H   H502      1.0  0.12337  0.50882  0.13114  1.0000
  C   C414      1.0  0.36072  0.50033  0.07143  1.0000
  H   H503      1.0  0.30614  0.57342  0.99369  1.0000
  S   S133      1.0  0.32719  0.54587  0.04550  1.0000
  H   H504      1.0  0.39910  0.95629  0.18318  1.0000
  C   C415      1.0  0.03485  0.77698  0.12917  1.0000
  S   S134      1.0  0.05240  0.66832  0.13580  1.0000
  Fe  Fe69      1.0  0.02537  0.67918  0.17797  1.0000
  S   S135      1.0  0.07341  0.68286  0.17092  1.0000
  C   C416      1.0  0.00546  0.77723  0.07813  1.0000
  Fe  Fe70      1.0  0.07249  0.70949  0.14898  1.0000
  S   S136      1.0  0.11394  0.75463  0.14042  1.0000
  Fe  Fe71      1.0  0.04983  0.64122  0.15834  1.0000
  S   S137      1.0  0.06976  0.60586  0.16137  1.0000
  S   S138      1.0  0.02602  0.70915  0.15699  1.0000
  Fe  Fe72      1.0  0.21679  0.82871  0.05907  1.0000
  S   S139      1.0  0.26526  0.83636  0.06413  1.0000
  S   S140      1.0  0.16867  0.79408  0.06998  1.0000
  Fe  Fe73      1.0  0.24014  0.86575  0.02684  1.0000
  S   S141      1.0  0.29046  0.87642  0.02944  1.0000
  S   S142      1.0  0.21488  0.87323  0.00673  1.0000
  Fe  Fe74      1.0  0.27323  0.82740  0.03960  1.0000
  S   S143      1.0  0.28921  0.79041  0.03428  1.0000
  Fe  Fe75      1.0  0.27945  0.88519  0.05392  1.0000
  S   S144      1.0  0.31793  0.92641  0.06269  1.0000
  S   S145      1.0  0.22396  0.81622  0.03533  1.0000
  S   S146      1.0  0.23009  0.87814  0.05044  1.0000
  C   C417      1.0  0.13156  0.76350  0.12109  1.0000
  C   C418      1.0  0.11882  0.74415  0.10976  1.0000
  C   C419      1.0  0.13096  0.75363  0.09419  1.0000
  C   C420      1.0  0.15661  0.78204  0.08984  1.0000
  C   C421      1.0  0.17011  0.80093  0.10121  1.0000
  C   C422      1.0  0.15741  0.79179  0.11676  1.0000
  H   H505      1.0  0.09931  0.72209  0.11294  1.0000
  H   H506      1.0  0.12048  0.73883  0.08546  1.0000
  H   H507      1.0  0.18980  0.82292  0.09799  1.0000
  H   H508      1.0  0.16744  0.80689  0.12546  1.0000
  C   C423      1.0  0.04969  0.56631  0.15940  1.0000
  C   C424      1.0  0.06407  0.54678  0.16302  1.0000
  C   C425      1.0  0.02028  0.55407  0.15406  1.0000
  H   H509      1.0  0.08689  0.55613  0.16709  1.0000
  C   C426      1.0  0.22245  0.77897  0.00027  1.0000
  C   C427      1.0  0.32606  0.96562  0.10961  1.0000
  H   H510      1.0  0.00769  0.73233  0.04829  1.0000
  C   C428      1.0  0.34878  0.95105  0.08736  1.0000
  C   C429      1.0  0.31956  0.93770  0.08167  1.0000
  C   C430      1.0  0.29337  0.93750  0.09030  1.0000
  C   C431      1.0  0.29665  0.95145  0.10416  1.0000
  H   H511      1.0  0.07702  0.81309  0.10556  1.0000
  H   H512      1.0  0.27079  0.92760  0.08601  1.0000
  H   H513      1.0  0.27638  0.95184  0.11054  1.0000
  N   N26       1.0  0.09052  0.51309  0.11617  1.0000
  H   H514      1.0  0.08235  0.60139  0.20053  1.0000
  C   C432      1.0  0.02809  0.78059  0.08817  1.0000
  C   C433      1.0  0.35155  0.81840  0.99555  1.0000
  C   C434      1.0  0.33236  0.81892  0.00853  1.0000
  C   C435      1.0  0.31657  0.79247  0.01889  1.0000
  C   C436      1.0  0.32101  0.76599  0.01647  1.0000
  C   C437      1.0  0.34058  0.76563  0.00367  1.0000
  H   H515      1.0  0.04985  0.73261  0.06340  1.0000
  H   H516      1.0  0.32970  0.83967  0.01049  1.0000
  H   H517      1.0  0.30896  0.74549  0.02447  1.0000
  H   H518      1.0  0.34357  0.74497  0.00188  1.0000
  C   C438      1.0  0.34252  0.61186  0.00209  1.0000
  C   C439      1.0  0.36037  0.62182  0.01434  1.0000
  C   C440      1.0  0.35552  0.60134  0.02757  1.0000
  C   C441      1.0  0.33298  0.57079  0.02860  1.0000
  C   C442      1.0  0.31544  0.56076  0.01625  1.0000
  C   C443      1.0  0.32014  0.58126  0.00308  1.0000
  H   H519      1.0  0.37761  0.64535  0.01371  1.0000
  H   H520      1.0  0.36915  0.60930  0.03708  1.0000
  H   H521      1.0  0.29803  0.53733  0.01690  1.0000
  H   H522      1.0  0.15868  0.61212  0.12515  1.0000
  H   H523      1.0  0.20698  0.79009  0.00394  1.0000
  H   H524      1.0  0.35006  0.50648  0.06158  1.0000
  C   C444      1.0  0.39249  0.53718  0.10737  1.0000
  H   H525      1.0  0.01621  0.50491  0.19425  1.0000
  H   H526      1.0  0.41652  0.98022  0.22142  1.0000
  C   C445      1.0  0.05372  0.70723  0.21908  1.0000
  C   C446      1.0  0.02132  0.69490  0.21874  1.0000
  N   N27       1.0  0.43442  0.98053  0.19782  1.0000
  H   H527      1.0  0.06881  0.70975  0.20867  1.0000
  H   H528      1.0  0.38176  0.49801  0.06632  1.0000
  H   H529      1.0  0.39530  0.57319  0.08087  1.0000
  H   H530      1.0  0.09195  0.79139  0.11704  1.0000
  C   C447      1.0  0.08072  0.58626  0.12344  1.0000
  C   C448      1.0  0.23093  0.88652  0.98719  1.0000
  H   H531      1.0  0.14722  0.55945  0.12006  1.0000
  C   C449      1.0  0.07536  0.78957  0.10834  1.0000
  N   N28       1.0  0.36881  0.52384  0.08252  1.0000
  H   H532      1.0  0.42013  0.49893  0.13184  1.0000
  C   C450      1.0  0.07068  0.61701  0.20183  1.0000
  C   C451      1.0  0.41071  0.50432  0.12170  1.0000
  C   C452      1.0  0.41225  0.96527  0.21189  1.0000
  S   S147      1.0  0.34707  0.63667  0.98534  1.0000
  H   H533      1.0  0.02494  0.63464  0.19996  1.0000
  C   C453      1.0  0.04256  0.59187  0.22662  1.0000
  C   C454      1.0  0.35563  0.79172  0.99308  1.0000
  H   H534      1.0  0.25299  0.84043  0.00025  1.0000
  H   H535      1.0  0.04911  0.54141  0.12015  1.0000
  C   C455      1.0  0.33953  0.52593  0.08824  1.0000
  H   H536      1.0  0.43811  0.97155  0.17406  1.0000
  S   S148      1.0  0.32939  0.98567  0.12623  1.0000
  H   H537      1.0  0.32714  0.52993  0.07855  1.0000
  H   H538      1.0  0.41308  0.55338  0.06977  1.0000
  C   C456      1.0  0.01960  0.76565  0.10349  1.0000
  H   H539      1.0  0.04977  0.50476  0.10430  1.0000
  H   H540      1.0  0.38762  0.95922  0.20965  1.0000
  H   H541      1.0  0.01956  0.71920  0.12250  1.0000
  H   H542      1.0  0.36915  0.95121  0.08080  1.0000
  H   H543      1.0  0.08444  0.78223  0.09798  1.0000
  C   C457      1.0  0.40577  0.53084  0.12016  1.0000
  S   S149      1.0  0.00348  0.68218  0.20177  1.0000
  H   H544      1.0  0.01825  0.77439  0.02786  1.0000
  C   C458      1.0  0.38355  0.51691  0.09573  1.0000
  C   C459      1.0  0.13498  0.59641  0.12371  1.0000
  H   H545      1.0  0.05995  0.50026  0.16476  1.0000
  H   H546      1.0  0.06913  0.62574  0.18999  1.0000
  H   H547      1.0  0.11642  0.62955  0.12773  1.0000
  H   H548      1.0  0.27488  0.77414  0.99701  1.0000
  C   C460      1.0  0.09717  0.54503  0.11910  1.0000
  S   S150      1.0  0.38833  0.99629  0.15806  1.0000
  H   H549      1.0  0.27874  0.89786  0.99091  1.0000
  H   H550      1.0  0.00640  0.67844  0.10504  1.0000
  C   C461      1.0  0.39037  0.55365  0.07384  1.0000
  C   C462      1.0  0.11129  0.60638  0.12506  1.0000
  H   H551      1.0  0.01249  0.75967  0.13543  1.0000
  H   H552      1.0  0.04870  0.72872  0.10626  1.0000
  C   C463      1.0  0.07352  0.55594  0.12065  1.0000
  C   C464      1.0  0.10991  0.51301  0.10204  1.0000
  H   H553      1.0  0.36345  0.83879  0.98749  1.0000
  H   H554      1.0  0.32321  0.50444  0.09538  1.0000
  C   C465      1.0  0.26712  0.82731  0.99796  1.0000
  C   C466      1.0  0.04903  0.51517  0.16152  1.0000
  C   C467      1.0  0.26288  0.89708  0.98249  1.0000
  H   H555      1.0  0.38035  0.55908  0.06350  1.0000
  C   C468      1.0  0.99168  0.57200  0.19686  1.0000
  N   N29       1.0  0.12395  0.82428  0.03657  1.0000
  C   C469      1.0  0.13328  0.83995  0.05064  1.0000
  C   C470      1.0  0.14590  0.81074  0.03207  1.0000
  C   C471      1.0  0.12780  0.84821  0.02393  1.0000
  C   C472      1.0  0.09179  0.79964  0.03973  1.0000
  C   C473      1.0  0.08468  0.77513  0.05148  1.0000
  C   C474      1.0  0.06689  0.79886  0.03133  1.0000
  C   C475      1.0  0.05468  0.75124  0.05449  1.0000
  C   C476      1.0  0.03695  0.77481  0.03446  1.0000
  C   C477      1.0  0.03090  0.75102  0.04596  1.0000
  H   H556      1.0  0.13309  0.82410  0.06049  1.0000
  H   H557      1.0  0.15758  0.85840  0.04871  1.0000
  H   H558      1.0  0.11735  0.85045  0.05441  1.0000
  H   H559      1.0  0.14629  0.79391  0.04125  1.0000
  H   H560      1.0  0.17033  0.82865  0.02967  1.0000
  H   H561      1.0  0.13980  0.79881  0.02151  1.0000
  H   H562      1.0  0.11279  0.86027  0.02666  1.0000
  H   H563      1.0  0.15240  0.86619  0.02191  1.0000
  H   H564      1.0  0.12259  0.83837  0.01276  1.0000
  H   H565      1.0  0.10245  0.77404  0.05831  1.0000
  H   H566      1.0  0.06995  0.81637  0.02218  1.0000
  C   C478      1.0  0.00911  0.52346  0.19532  1.0000
  Fe  Fe76      1.0  0.00577  0.66602  0.14525  1.0000
  C   C479      1.0  0.46661  0.98647  0.20103  1.0000
  H   H567      1.0  0.05985  0.73704  0.12520  1.0000
  N   N30       1.0  0.24998  0.80049  0.98964  1.0000
  H   H568      1.0  0.28974  0.84350  0.99150  1.0000
  C   C480      1.0  0.12813  0.56622  0.12078  1.0000
  H   H569      1.0  0.41184  0.54629  0.12908  1.0000
  C   C481      1.0  0.02646  0.62497  0.21163  1.0000
  H   H570      1.0  0.10593  0.52566  0.09192  1.0000
  C   C482      1.0  0.00541  0.52252  0.15238  1.0000
  N   N31       1.0  0.03923  0.60166  0.21066  1.0000
  C   C483      1.0  0.35205  0.96482  0.10128  1.0000
  H   H571      1.0  0.08652  0.63710  0.20732  1.0000
  H   H572      1.0  0.22964  0.77146  0.01111  1.0000
  H   H573      1.0  0.13532  0.52366  0.10327  1.0000
  H   H574      1.0  0.00903  0.56891  0.15121  1.0000
  S   S151      1.0  0.00165  0.63557  0.16686  1.0000
  H   H575      1.0  0.04162  0.64489  0.21744  1.0000
  H   H576      1.0  0.05207  0.79449  0.08357  1.0000
  N   N32       1.0  0.04290  0.76748  0.11425  1.0000
  C   C484      1.0  0.04270  0.73680  0.11715  1.0000
  H   H577      1.0  0.27263  0.82020  0.00930  1.0000
  C   C485      1.0  0.27025  0.78451  0.98626  1.0000
  H   H578      1.0  0.05286  0.77976  0.13722  1.0000
  H   H579      1.0  0.48131  0.50714  0.18102  1.0000
  H   H580      1.0  0.20873  0.75783  0.99492  1.0000
  H   H581      1.0  0.38887  0.55791  0.10679  1.0000
  H   H582      1.0  0.34377  0.54519  0.09540  1.0000
  H   H583      1.0  0.06227  0.59397  0.12497  1.0000
  H   H584      1.0  0.05553  0.57726  0.22688  1.0000
  H   H585      1.0  0.42359  0.93780  0.18793  1.0000
  H   H586      1.0  0.01232  0.78835  0.06642  1.0000
  H   H587      1.0  0.99962  0.69242  0.07811  1.0000
  H   H588      1.0  0.00286  0.61540  0.21827  1.0000
  C   C486      1.0  0.01943  0.57457  0.20316  1.0000
  C   C487      1.0  0.34162  0.98725  0.22598  1.0000
  H   H589      1.0  0.99003  0.80095  0.22261  1.0000
  C   C488      1.0  0.01966  0.50293  0.15614  1.0000
  H   H590      1.0  0.35444  0.98932  0.20146  1.0000
  H   H591      1.0  0.04893  0.55020  0.20611  1.0000
  C   C489      1.0  0.02770  0.54956  0.20204  1.0000
  H   H592      1.0  0.00597  0.77399  0.22778  1.0000
  H   H593      1.0  0.47693  0.51111  0.14679  1.0000
  C   C490      1.0  0.98731  0.74719  0.10798  1.0000
  C   C491      1.0  0.42345  0.96062  0.18523  1.0000
  Fe  Fe77      1.0  0.26335  0.96845  0.30788  1.0000
  S   S152      1.0  0.30938  0.96758  0.30062  1.0000
  S   S153      1.0  0.22677  0.91938  0.31648  1.0000
  Fe  Fe78      1.0  0.05148  0.78691  0.30527  1.0000
  S   S154      1.0  0.06650  0.74847  0.30594  1.0000
  S   S155      1.0  0.08418  0.83830  0.30498  1.0000
  Fe  Fe79      1.0  0.02046  0.71984  0.32067  1.0000
  S   S156      1.0  0.02160  0.68768  0.34139  1.0000
  Fe  Fe80      1.0  0.04038  0.73406  0.28519  1.0000
  S   S157      1.0  0.06466  0.72471  0.26388  1.0000
  S   S158      1.0  0.00647  0.75938  0.32112  1.0000
  S   S159      1.0  0.02769  0.77390  0.28369  1.0000
  H   H594      1.0  0.26521  0.89965  0.24637  1.0000
  S   S160      1.0  0.14854  0.80125  0.45580  1.0000
  C   C492      1.0  0.30378  0.92888  0.37773  1.0000
  H   H595      1.0  0.22057  0.86151  0.23981  1.0000
  Fe  Fe81      1.0  0.31166  0.63592  0.45435  1.0000
  S   S161      1.0  0.27835  0.62145  0.43637  1.0000
  S   S162      1.0  0.33859  0.60634  0.46125  1.0000
  Fe  Fe82      1.0  0.31302  0.70401  0.45205  1.0000
  S   S163      1.0  0.27850  0.69005  0.43422  1.0000
  S   S164      1.0  0.33329  0.75727  0.45548  1.0000
  Fe  Fe83      1.0  0.25045  0.64409  0.44844  1.0000
  S   S165      1.0  0.19515  0.61675  0.45349  1.0000
  Fe  Fe84      1.0  0.30836  0.66841  0.42442  1.0000
  S   S166      1.0  0.33616  0.68119  0.40137  1.0000
  S   S167      1.0  0.34263  0.68234  0.44167  1.0000
  Fe  Fe85      1.0  0.45413  0.82318  0.35684  1.0000
  S   S168      1.0  0.46089  0.85758  0.37400  1.0000
  S   S169      1.0  0.40162  0.79922  0.35068  1.0000
  H   H596      1.0  0.41756  0.72907  0.43500  1.0000
  H   H597      1.0  0.28154  0.67927  0.34321  1.0000
  S   S170      1.0  0.45039  0.80584  0.41026  1.0000
  H   H598      1.0  0.23848  0.95667  0.25717  1.0000
  H   H599      1.0  0.20532  0.93220  0.24812  1.0000
  H   H600      1.0  0.44587  0.99153  0.36105  1.0000
  S   S171      1.0  0.00967  0.53797  0.40741  1.0000
  H   H601      1.0  0.06606  0.66297  0.39918  1.0000
  S   S172      1.0  0.42528  0.90494  0.43998  1.0000
  H   H602      1.0  0.36327  0.67369  0.35813  1.0000
  S   S173      1.0  0.04435  0.54528  0.44788  1.0000
  H   H603      1.0  0.40417  0.68565  0.41836  1.0000
  H   H604      1.0  0.33196  0.63463  0.37880  1.0000
  Fe  Fe86      1.0  0.16481  0.60788  0.39865  1.0000
  S   S174      1.0  0.17426  0.62311  0.37293  1.0000
  S   S175      1.0  0.17357  0.56679  0.40850  1.0000
  Fe  Fe87      1.0  0.14830  0.66146  0.40522  1.0000
  S   S176      1.0  0.15641  0.67936  0.38007  1.0000
  S   S177      1.0  0.12796  0.67743  0.42579  1.0000
  Fe  Fe88      1.0  0.12884  0.62932  0.37561  1.0000
  S   S178      1.0  0.08718  0.61299  0.35996  1.0000
  Fe  Fe89      1.0  0.20121  0.67180  0.37929  1.0000
  S   S179      1.0  0.25170  0.70788  0.36797  1.0000
  S   S180      1.0  0.11938  0.61234  0.40073  1.0000
  S   S181      1.0  0.19330  0.65579  0.40476  1.0000
  C   C493      1.0  0.36039  0.77266  0.35636  1.0000
  C   C494      1.0  0.33795  0.77158  0.34639  1.0000
  C   C495      1.0  0.30558  0.75213  0.35014  1.0000
  C   C496      1.0  0.29392  0.73260  0.36404  1.0000
  C   C497      1.0  0.31626  0.73344  0.37413  1.0000
  C   C498      1.0  0.34894  0.75321  0.37035  1.0000
  H   H605      1.0  0.34570  0.78607  0.33554  1.0000
  H   H606      1.0  0.28945  0.75228  0.34206  1.0000
  H   H607      1.0  0.30847  0.71860  0.38487  1.0000
  H   H608      1.0  0.36542  0.75328  0.37824  1.0000
  C   C499      1.0  0.15269  0.60019  0.45236  1.0000
  C   C500      1.0  0.13237  0.57615  0.46340  1.0000
  C   C501      1.0  0.09969  0.56082  0.46224  1.0000
  C   C502      1.0  0.08586  0.56849  0.44983  1.0000
  C   C503      1.0  0.10558  0.59418  0.43955  1.0000
  C   C504      1.0  0.13850  0.60957  0.44066  1.0000
  H   H609      1.0  0.08533  0.54155  0.47059  1.0000
  H   H610      1.0  0.09532  0.60205  0.43068  1.0000
  H   H611      1.0  0.15292  0.62866  0.43234  1.0000
  C   C505      1.0  0.36743  0.71663  0.40281  1.0000
  C   C506      1.0  0.36290  0.73794  0.41163  1.0000
  C   C507      1.0  0.38830  0.76535  0.41369  1.0000
  C   C508      1.0  0.41849  0.77146  0.40726  1.0000
  C   C509      1.0  0.42290  0.74977  0.39865  1.0000
  C   C510      1.0  0.39739  0.72287  0.39606  1.0000
  H   H612      1.0  0.33978  0.73342  0.41682  1.0000
  H   H613      1.0  0.38433  0.78186  0.42016  1.0000
  H   H614      1.0  0.44606  0.75308  0.39434  1.0000
  H   H615      1.0  0.40111  0.70635  0.38936  1.0000
  C   C511      1.0  0.36128  0.79795  0.45167  1.0000
  C   C512      1.0  0.35059  0.82072  0.45431  1.0000
  C   C513      1.0  0.37037  0.85260  0.45103  1.0000
  C   C514      1.0  0.40199  0.86344  0.44503  1.0000
  C   C515      1.0  0.41318  0.84084  0.44265  1.0000
  C   C516      1.0  0.39321  0.80865  0.44602  1.0000
  H   H616      1.0  0.43730  0.84804  0.43801  1.0000
  H   H617      1.0  0.40277  0.79213  0.44418  1.0000
  C   C517      1.0  0.35173  0.51604  0.45367  1.0000
  C   C518      1.0  0.32474  0.51928  0.44966  1.0000
  C   C519      1.0  0.32090  0.54683  0.45120  1.0000
  C   C520      1.0  0.34351  0.57173  0.45736  1.0000
  C   C521      1.0  0.37041  0.56843  0.46145  1.0000
  C   C522      1.0  0.37470  0.54125  0.45944  1.0000
  C   C523      1.0  0.45292  0.68277  0.44436  1.0000
  H   H618      1.0  0.29979  0.54826  0.44817  1.0000
  C   C524      1.0  0.24337  0.73852  0.43716  1.0000
  C   C525      1.0  0.02978  0.59536  0.34745  1.0000
  C   C526      1.0  0.04546  0.58873  0.35929  1.0000
  C   C527      1.0  0.02728  0.56357  0.37017  1.0000
  H   H619      1.0  0.04294  0.61396  0.33857  1.0000
  H   H620      1.0  0.03912  0.55640  0.37855  1.0000
  C   C528      1.0  0.14082  0.76678  0.44706  1.0000
  C   C529      1.0  0.11881  0.73814  0.45393  1.0000
  C   C530      1.0  0.11507  0.71127  0.44711  1.0000
  C   C531      1.0  0.13283  0.71254  0.43321  1.0000
  C   C532      1.0  0.15436  0.74122  0.42613  1.0000
  C   C533      1.0  0.15822  0.76815  0.43300  1.0000
  H   H621      1.0  0.10455  0.73678  0.46442  1.0000
  H   H622      1.0  0.09801  0.68933  0.45256  1.0000
  H   H623      1.0  0.16823  0.74267  0.41545  1.0000
  H   H624      1.0  0.17519  0.79020  0.42751  1.0000
  H   H625      1.0  0.27078  0.64797  0.40045  1.0000
  H   H626      1.0  0.45398  0.93537  0.34593  1.0000
  H   H627      1.0  0.08958  0.75582  0.40725  1.0000
  C   C534      1.0  0.25971  0.89566  0.35543  1.0000
  C   C535      1.0  0.12298  0.53398  0.43079  1.0000
  C   C536      1.0  0.15323  0.53939  0.42491  1.0000
  C   C537      1.0  0.16643  0.52043  0.43123  1.0000
  H   H628      1.0  0.30643  0.89743  0.33534  1.0000
  C   C538      1.0  0.21854  0.54520  0.45829  1.0000
  H   H629      1.0  0.18941  0.52355  0.42647  1.0000
  H   H630      1.0  0.03233  0.59123  0.42387  1.0000
  N   N33       1.0  0.26665  0.61125  0.38673  1.0000
  H   H631      1.0  0.47298  0.69967  0.44955  1.0000
  C   C539      1.0  0.31208  0.92592  0.36216  1.0000
  H   H632      1.0  0.22895  0.90763  0.28394  1.0000
  H   H633      1.0  0.38811  0.58701  0.46637  1.0000
  C   C540      1.0  0.00270  0.66065  0.35824  1.0000
  C   C541      1.0  0.36316  0.93193  0.36966  1.0000
  S   S182      1.0  0.28362  0.65826  0.46718  1.0000
  C   C542      1.0  0.00519  0.62293  0.37788  1.0000
  C   C543      1.0  0.01914  0.64566  0.36520  1.0000
  H   H634      1.0  0.01822  0.61133  0.38264  1.0000
  H   H635      1.0  0.04255  0.65059  0.36040  1.0000
  C   C544      1.0  0.04743  0.71347  0.24659  1.0000
  H   H636      1.0  0.46121  0.94572  0.37294  1.0000
  C   C545      1.0  0.01505  0.70102  0.24625  1.0000
  H   H637      1.0  0.00922  0.78556  0.25355  1.0000
  Fe  Fe90      1.0  0.00165  0.52436  0.43292  1.0000
  C   C546      1.0  0.18738  0.89730  0.31267  1.0000
  C   C547      1.0  0.17399  0.86518  0.31629  1.0000
  C   C548      1.0  0.14274  0.84672  0.31385  1.0000
  C   C549      1.0  0.12413  0.86020  0.30796  1.0000
  C   C550      1.0  0.13759  0.89232  0.30427  1.0000
  C   C551      1.0  0.16901  0.91073  0.30648  1.0000
  H   H638      1.0  0.18785  0.85444  0.32109  1.0000
  H   H639      1.0  0.13286  0.82214  0.31674  1.0000
  H   H640      1.0  0.12352  0.90308  0.29972  1.0000
  H   H641      1.0  0.17872  0.93535  0.30370  1.0000
  H   H642      1.0  0.28412  0.91503  0.32659  1.0000
  N   N34       1.0  0.44028  0.69853  0.43354  1.0000
  C   C552      1.0  0.45926  0.50838  0.42619  1.0000
  C   C553      1.0  0.41392  0.67487  0.42686  1.0000
  C   C554      1.0  0.98757  0.78938  0.25355  1.0000
  H   H643      1.0  0.13066  0.79830  0.26114  1.0000
  H   H644      1.0  0.99299  0.63753  0.43945  1.0000
  C   C555      1.0  0.15070  0.82035  0.26070  1.0000
  C   C556      1.0  0.99402  0.54770  0.37019  1.0000
  C   C557      1.0  0.23677  0.52723  0.48005  1.0000
  Fe  Fe91      1.0  0.46585  0.95386  0.43028  1.0000
  H   H645      1.0  0.39436  0.66059  0.43590  1.0000
  H   H646      1.0  0.20324  0.93231  0.26875  1.0000
  H   H647      1.0  0.11301  0.64287  0.46560  1.0000
  H   H648      1.0  0.43481  0.66826  0.45395  1.0000
  C   C558      1.0  0.06269  0.72225  0.42624  1.0000
  C   C559      1.0  0.25089  0.73662  0.40918  1.0000
  N   N35       1.0  0.22963  0.90873  0.25913  1.0000
  H   H649      1.0  0.24304  0.56043  0.45356  1.0000
  C   C560      1.0  0.21859  0.93342  0.25825  1.0000
  C   C561      1.0  0.20183  0.85687  0.24880  1.0000
  C   C562      1.0  0.20286  0.87830  0.25947  1.0000
  Fe  Fe92      1.0  0.12745  0.81339  0.47761  1.0000
  H   H650      1.0  0.31827  0.78560  0.42163  1.0000
  H   H651      1.0  0.44052  0.97681  0.47460  1.0000
  H   H652      1.0  0.10004  0.53442  0.39862  1.0000
  C   C563      1.0  0.09675  0.54450  0.37501  1.0000
  H   H653      1.0  0.20765  0.71121  0.42285  1.0000
  C   C564      1.0  0.41270  0.99692  0.34660  1.0000
  H   H654      1.0  0.47002  0.67966  0.41094  1.0000
  H   H655      1.0  0.20318  0.55575  0.45403  1.0000
  H   H656      1.0  0.06214  0.73933  0.43361  1.0000
  H   H657      1.0  0.19006  0.97691  0.47659  1.0000
  Fe  Fe93      1.0  0.47895  0.82878  0.38755  1.0000
  H   H658      1.0  0.98752  0.60041  0.43418  1.0000
  H   H659      1.0  0.10775  0.56903  0.37556  1.0000
  H   H660      1.0  0.47089  0.76325  0.42754  1.0000
  H   H661      1.0  0.21239  0.52310  0.45325  1.0000
  S   S183      1.0  0.99604  0.70247  0.29975  1.0000
  H   H662      1.0  0.18359  0.68858  0.46394  1.0000
  H   H663      1.0  0.19841  0.74387  0.46797  1.0000
  C   C565      1.0  0.24124  0.58488  0.38109  1.0000
  H   H664      1.0  0.23690  0.63465  0.39044  1.0000
  H   H665      1.0  0.23812  0.61195  0.40709  1.0000
  H   H666      1.0  0.22436  0.59166  0.37554  1.0000
  H   H667      1.0  0.22705  0.56699  0.39071  1.0000
  H   H668      1.0  0.25085  0.57394  0.37260  1.0000
  H   H669      1.0  0.26785  0.58217  0.40635  1.0000
  N   N36       1.0  0.11775  0.70843  0.33845  1.0000
  C   C566      1.0  0.11402  0.73641  0.33294  1.0000
  C   C567      1.0  0.09859  0.68335  0.32953  1.0000
  C   C568      1.0  0.10510  0.70040  0.35496  1.0000
  C   C569      1.0  0.15058  0.71233  0.33682  1.0000
  C   C570      1.0  0.15765  0.68699  0.34057  1.0000
  C   C571      1.0  0.17636  0.74115  0.33218  1.0000
  C   C572      1.0  0.18846  0.69025  0.33983  1.0000
  C   C573      1.0  0.20714  0.74415  0.33149  1.0000
  C   C574      1.0  0.21315  0.71878  0.33536  1.0000
  H   H670      1.0  0.12292  0.74371  0.32052  1.0000
  H   H671      1.0  0.08894  0.73234  0.33413  1.0000
  H   H672      1.0  0.12592  0.75576  0.33984  1.0000
  H   H673      1.0  0.07418  0.68099  0.32975  1.0000
  H   H674      1.0  0.09637  0.66047  0.33426  1.0000
  H   H675      1.0  0.10861  0.68752  0.31723  1.0000
  H   H676      1.0  0.12037  0.71737  0.36221  1.0000
  H   H677      1.0  0.08131  0.69978  0.35690  1.0000
  H   H678      1.0  0.10295  0.67739  0.35945  1.0000
  H   H679      1.0  0.13935  0.66452  0.34445  1.0000
  H   H680      1.0  0.17340  0.76177  0.32912  1.0000
  H   H681      1.0  0.19329  0.67066  0.34300  1.0000
  H   H682      1.0  0.22652  0.76632  0.32809  1.0000
  H   H683      1.0  0.23700  0.72121  0.33510  1.0000
  C   C575      1.0  0.99678  0.57972  0.34747  1.0000
  C   C576      1.0  0.24490  0.91005  0.27345  1.0000
  N   N37       1.0  0.38115  0.84980  0.39231  1.0000
  C   C577      1.0  0.35227  0.85377  0.39636  1.0000
  C   C578      1.0  0.37238  0.81827  0.38779  1.0000
  C   C579      1.0  0.39753  0.85190  0.40636  1.0000
  C   C580      1.0  0.40046  0.87370  0.37962  1.0000
  C   C581      1.0  0.39595  0.86924  0.36390  1.0000
  C   C582      1.0  0.42351  0.90266  0.38255  1.0000
  C   C583      1.0  0.41500  0.89132  0.35193  1.0000
  C   C584      1.0  0.44257  0.92449  0.37047  1.0000
  C   C585      1.0  0.43855  0.91870  0.35521  1.0000
  H   H684      1.0  0.33870  0.85156  0.38628  1.0000
  H   H685      1.0  0.33688  0.83639  0.40589  1.0000
  H   H686      1.0  0.35780  0.87685  0.40022  1.0000
  H   H687      1.0  0.35524  0.81221  0.37919  1.0000
  H   H688      1.0  0.36110  0.80028  0.39770  1.0000
  H   H689      1.0  0.39336  0.81539  0.38297  1.0000
  H   H690      1.0  0.40067  0.87258  0.41223  1.0000
  H   H691      1.0  0.38421  0.83226  0.41529  1.0000
  H   H692      1.0  0.42088  0.85181  0.40367  1.0000
  H   H693      1.0  0.37856  0.84829  0.36055  1.0000
  H   H694      1.0  0.42802  0.90852  0.39409  1.0000
  H   H695      1.0  0.41208  0.88669  0.34004  1.0000
  H   H696      1.0  0.22798  0.71207  0.47566  1.0000
  H   H697      1.0  0.17557  0.81241  0.24120  1.0000
  H   H698      1.0  0.37110  0.93969  0.39320  1.0000
  H   H699      1.0  0.30208  0.61706  0.40198  1.0000
  H   H700      1.0  0.33885  0.69662  0.34026  1.0000
  C   C586      1.0  0.04837  0.69109  0.43173  1.0000
  H   H701      1.0  0.17614  0.88384  0.27953  1.0000
  C   C587      1.0  0.28213  0.75728  0.40859  1.0000
  C   C588      1.0  0.19621  0.69817  0.45224  1.0000
  C   C589      1.0  0.17683  0.86910  0.27087  1.0000
  H   H702      1.0  0.24385  0.91506  0.23463  1.0000
  C   C590      1.0  0.32435  0.67832  0.34911  1.0000
  H   H703      1.0  0.23391  0.77334  0.45806  1.0000
  H   H704      1.0  0.24739  0.89854  0.36609  1.0000
  H   H705      1.0  0.35511  0.92604  0.46451  1.0000
  H   H706      1.0  0.28468  0.77243  0.44572  1.0000
  C   C591      1.0  0.25380  0.91569  0.24582  1.0000
  C   C592      1.0  0.06473  0.67860  0.40721  1.0000
  C   C593      1.0  0.33806  0.66535  0.35918  1.0000
  H   H707      1.0  0.13132  0.83435  0.28010  1.0000
  C   C594      1.0  0.25251  0.62706  0.39661  1.0000
  H   H708      1.0  0.29478  0.58622  0.38991  1.0000
  C   C595      1.0  0.28372  0.59864  0.39660  1.0000
  H   H709      1.0  0.27298  0.93912  0.24556  1.0000
  C   C596      1.0  0.07272  0.50168  0.36039  1.0000
  H   H710      1.0  0.36086  0.86907  0.45308  1.0000
  H   H711      1.0  0.48262  0.54443  0.38467  1.0000
  H   H712      1.0  0.32650  0.81367  0.45886  1.0000
  H   H713      1.0  0.14202  0.56837  0.47269  1.0000
  C   C597      1.0  0.28670  0.63309  0.37348  1.0000
  C   C598      1.0  0.31961  0.64279  0.37110  1.0000
  C   C599      1.0  0.21379  0.75124  0.45684  1.0000
  H   H714      1.0  0.20045  0.75618  0.44796  1.0000
  H   H715      1.0  0.03452  0.60572  0.44831  1.0000
  C   C600      1.0  0.37892  0.97951  0.43327  1.0000
  H   H716      1.0  0.09069  0.71716  0.39023  1.0000
  C   C601      1.0  0.27348  0.64636  0.36280  1.0000
  C   C602      1.0  0.27454  0.76145  0.43587  1.0000
  H   H717      1.0  0.24878  0.64072  0.36406  1.0000
  H   H718      1.0  0.38652  0.93392  0.36646  1.0000
  H   H719      1.0  0.03050  0.61408  0.40749  1.0000
  N   N38       1.0  0.28998  0.92250  0.35051  1.0000
  H   H720      1.0  0.26790  0.94885  0.34005  1.0000
  H   H721      1.0  0.08993  0.54904  0.35113  1.0000
  H   H722      1.0  0.17879  0.70086  0.44521  1.0000
  N   N39       1.0  0.22424  0.72763  0.45238  1.0000
  H   H723      1.0  0.99999  0.69782  0.25676  1.0000
  H   H724      1.0  0.06707  0.62318  0.41557  1.0000
  C   C603      1.0  0.34256  0.92762  0.35845  1.0000
  C   C604      1.0  0.32473  0.93346  0.38882  1.0000
  H   H725      1.0  0.26188  0.74406  0.46709  1.0000
  C   C605      1.0  0.09174  0.52438  0.38821  1.0000
  H   H726      1.0  0.25293  0.89147  0.27485  1.0000
  C   C606      1.0  0.08687  0.53322  0.36119  1.0000
  H   H727      1.0  0.25325  0.70693  0.46096  1.0000
  H   H728      1.0  0.42062  0.65842  0.42102  1.0000
  N   N40       1.0  0.21529  0.54067  0.47533  1.0000
  C   C607      1.0  0.10640  0.51050  0.44290  1.0000
  C   C608      1.0  0.09695  0.64166  0.47546  1.0000
  C   C609      1.0  0.24264  0.72254  0.46447  1.0000
  C   C610      1.0  0.04491  0.63052  0.44383  1.0000
  N   N41       1.0  0.03450  0.63547  0.42867  1.0000
  C   C611      1.0  0.35446  0.93519  0.38475  1.0000
  H   H729      1.0  0.07071  0.63848  0.44279  1.0000
  C   C612      1.0  0.35980  0.94728  0.45757  1.0000
  H   H730      1.0  0.39544  0.53945  0.46283  1.0000
  H   H731      1.0  0.37919  0.93497  0.43754  1.0000
  H   H732      1.0  0.45856  0.52897  0.42088  1.0000
  H   H733      1.0  0.01922  0.57862  0.23333  1.0000
  H   H734      1.0  0.26314  0.87430  0.35753  1.0000
  H   H735      1.0  0.40749  0.70110  0.45139  1.0000
  H   H736      1.0  0.31805  0.93619  0.40057  1.0000
  S   S184      1.0  0.11606  0.85478  0.47645  1.0000
  C   C613      1.0  0.37299  0.95220  0.44230  1.0000
  C   C614      1.0  0.35308  0.96988  0.46396  1.0000
  C   C615      1.0  0.29208  0.66851  0.35078  1.0000
  C   C616      1.0  0.46066  0.59378  0.36541  1.0000
  H   H737      1.0  0.24318  0.89197  0.34649  1.0000
  H   H738      1.0  0.03638  0.68503  0.44327  1.0000
  C   C617      1.0  0.15113  0.84067  0.27138  1.0000
  H   H739      1.0  0.20270  0.68035  0.44758  1.0000
  H   H740      1.0  0.03838  0.64247  0.45289  1.0000
  H   H741      1.0  0.27359  0.95449  0.35972  1.0000
  C   C618      1.0  0.28426  0.95046  0.34884  1.0000
  C   C619      1.0  0.07892  0.70983  0.40184  1.0000
  H   H742      1.0  0.28123  0.92836  0.38136  1.0000
  C   C620      1.0  0.04144  0.61525  0.41838  1.0000
  H   H743      1.0  0.26568  0.93238  0.27346  1.0000
  C   C621      1.0  0.47889  0.75055  0.41996  1.0000
  C   C622      1.0  0.00023  0.62548  0.43064  1.0000
  C   C623      1.0  0.04975  0.66833  0.42255  1.0000
  C   C624      1.0  0.29386  0.76991  0.42190  1.0000
  H   H744      1.0  0.35151  0.92669  0.34685  1.0000
  C   C625      1.0  0.30155  0.91811  0.33499  1.0000
  H   H745      1.0  0.11198  0.54741  0.42571  1.0000
  H   H746      1.0  0.44476  0.73292  0.44911  1.0000
  S   S185      1.0  0.48134  0.96138  0.40468  1.0000
  H   H747      1.0  0.30651  0.97121  0.34519  1.0000
  C   C626      1.0  0.17604  0.82839  0.24947  1.0000
  H   H748      1.0  0.06582  0.59472  0.47345  1.0000
  H   H749      1.0  0.24179  0.72708  0.39874  1.0000
  C   C627      1.0  0.23157  0.72744  0.42320  1.0000
  H   H750      1.0  0.32311  0.93851  0.32999  1.0000
  C   C628      1.0  0.42708  0.71628  0.44261  1.0000
  S   S186      1.0  0.32419  0.98344  0.25714  1.0000
  C   C629      1.0  0.07818  0.73161  0.41138  1.0000
  H   H751      1.0  0.17266  0.49898  0.47512  1.0000
  H   H752      1.0  0.29721  0.76333  0.39781  1.0000
  H   H753      1.0  0.24460  0.58916  0.47538  1.0000
  H   H754      1.0  0.27036  0.96020  0.47080  1.0000
  H   H755      1.0  0.08281  0.50645  0.44714  1.0000
  H   H756      1.0  0.43621  0.55114  0.37990  1.0000
  C   C630      1.0  0.46545  0.71790  0.42125  1.0000
  H   H757      1.0  0.46129  0.66732  0.43853  1.0000
  S   S187      1.0  0.47406  0.79564  0.37024  1.0000
  C   C631      1.0  0.25768  0.96164  0.48131  1.0000
  C   C632      1.0  0.45880  0.56835  0.37471  1.0000
  H   H758      1.0  0.43955  0.59637  0.36334  1.0000
  H   H759      1.0  0.99527  0.81428  0.25003  1.0000
  H   H760      1.0  0.38991  0.98258  0.42160  1.0000
  C   C633      1.0  0.00211  0.69187  0.23240  1.0000
  H   H761      1.0  0.34301  0.96626  0.47590  1.0000
  H   H762      1.0  0.99193  0.63032  0.41960  1.0000
  H   H763      1.0  0.42001  0.98752  0.33697  1.0000
  H   H764      1.0  0.06675  0.50376  0.41799  1.0000
  H   H765      1.0  0.21668  0.92000  0.47906  1.0000
  H   H766      1.0  0.16615  0.53130  0.47863  1.0000
  C   C634      1.0  0.47821  0.70426  0.41042  1.0000
  H   H767      1.0  0.98585  0.58675  0.33858  1.0000
  H   H768      1.0  0.30646  0.50017  0.44536  1.0000
  C   C635      1.0  0.48455  0.50148  0.42141  1.0000
  C   C636      1.0  0.06665  0.71631  0.23296  1.0000
  S   S188      1.0  0.45637  0.99654  0.42984  1.0000
  H   H769      1.0  0.12387  0.68752  0.47964  1.0000
  C   C637      1.0  0.22235  0.57087  0.48120  1.0000
  C   C638      1.0  0.07032  0.61448  0.47979  1.0000
  H   H770      1.0  0.20429  0.57930  0.47883  1.0000
  C   C639      1.0  0.18211  0.52022  0.48098  1.0000
  H   H771      1.0  0.09172  0.72574  0.23311  1.0000
  H   H772      1.0  0.05569  0.61190  0.23292  1.0000
  C   C640      1.0  0.35938  0.99741  0.45509  1.0000
  C   C641      1.0  0.99750  0.83480  0.49207  1.0000
  C   C642      1.0  0.01013  0.86635  0.49338  1.0000
  H   H773      1.0  0.02317  0.69628  0.68819  1.0000
  C   C643      1.0  0.00293  0.72884  0.68807  1.0000
  C   C644      1.0  0.00582  0.70249  0.69381  1.0000
  C   C645      1.0  0.02580  0.79308  0.56397  1.0000
  H   H774      1.0  0.00068  0.90638  0.49475  1.0000
  N   N42       1.0  0.02219  0.52090  0.68447  1.0000
  N   N43       1.0  0.02338  0.80824  0.54907  1.0000
  C   C646      1.0  0.02681  0.78971  0.53674  1.0000
  S   S189      1.0  0.02055  0.81339  0.49220  1.0000
  H   H775      1.0  0.02537  0.80668  0.57373  1.0000
  H   H776      1.0  0.00656  0.76684  0.53780  1.0000
  C   C647      1.0  0.02416  0.57399  0.67963  1.0000
  H   H777      1.0  0.02875  0.59133  0.49560  1.0000
  H   H778      1.0  0.00434  0.83244  0.52464  1.0000
  C   C648      1.0  0.02652  0.51371  0.66852  1.0000
  C   C649      1.0  0.99366  0.81142  0.54853  1.0000
  H   H779      1.0  0.02344  0.79019  0.71685  1.0000
  C   C650      1.0  0.99062  0.88199  0.49373  1.0000
  H   H780      1.0  0.02874  0.62030  0.67493  1.0000
  H   H781      1.0  0.01896  0.52690  0.66011  1.0000
  H   H782      1.0  0.00156  0.56494  0.67541  1.0000
  C   C651      1.0  0.19325  0.99597  0.48329  1.0000
  H   H783      1.0  0.02843  0.80091  0.52497  1.0000
  C   C652      1.0  0.98811  0.50900  0.68944  1.0000
  H   H784      1.0  0.03810  0.63534  0.51017  1.0000
  C   C653      1.0  0.98598  0.68394  0.70679  1.0000
  H   H785      1.0  0.00681  0.76948  0.56653  1.0000
  C   C654      1.0  0.02762  0.77300  0.72361  1.0000
  S   S190      1.0  0.02709  0.75267  0.67176  1.0000
  C   C655      1.0  0.03827  0.55462  0.68469  1.0000
  H   H786      1.0  0.31532  0.99056  0.60991  1.0000
  H   H787      1.0  0.27656  0.57041  0.48313  1.0000
  H   H788      1.0  0.98827  0.66354  0.71117  1.0000
  C   C656      1.0  0.27927  0.50160  0.48692  1.0000
  H   H789      1.0  0.03433  0.51055  0.70675  1.0000
  H   H790      1.0  0.04822  0.79062  0.56384  1.0000
  H   H791      1.0  0.04844  0.78592  0.53713  1.0000
  C   C657      1.0  0.05819  0.74555  0.73086  1.0000
  C   C658      1.0  0.30424  0.77245  0.73042  1.0000
  C   C659      1.0  0.03957  0.60589  0.67926  1.0000
  Fe  Fe94      1.0  0.48399  0.50258  0.63842  1.0000
  C   C660      1.0  0.33185  0.98791  0.63846  1.0000
  C   C661      1.0  0.42654  0.97693  0.48494  1.0000
  C   C662      1.0  0.29467  0.98069  0.66675  1.0000
  H   H792      1.0  0.27412  0.50943  0.68163  1.0000
  H   H793      1.0  0.29516  0.49942  0.65918  1.0000
  C   C663      1.0  0.31859  0.95961  0.64813  1.0000
  H   H794      1.0  0.08185  0.64434  0.68274  1.0000
  C   C664      1.0  0.06964  0.61954  0.68358  1.0000
  H   H795      1.0  0.05152  0.51943  0.66491  1.0000
  C   C665      1.0  0.41969  0.50020  0.72376  1.0000
  C   C666      1.0  0.26750  0.54577  0.48351  1.0000
  C   C667      1.0  0.17062  0.99237  0.49531  1.0000
  H   H796      1.0  0.03489  0.87872  0.49413  1.0000
  C   C668      1.0  0.22726  0.93869  0.48598  1.0000
  C   C669      1.0  0.03465  0.50395  0.69480  1.0000
  H   H797      1.0  0.28081  0.97799  0.67766  1.0000
  H   H798      1.0  0.05883  0.50781  0.69057  1.0000
  S   S191      1.0  0.08882  0.71461  0.66744  1.0000
  C   C670      1.0  0.40031  0.94977  0.49026  1.0000
  H   H799      1.0  0.36003  0.92780  0.50714  1.0000
  N   N44       1.0  0.35179  0.99256  0.62377  1.0000
  H   H800      1.0  0.32073  0.83170  0.72311  1.0000
  H   H801      1.0  0.08093  0.61051  0.59979  1.0000
  H   H802      1.0  0.32227  0.93981  0.64534  1.0000
  H   H803      1.0  0.11968  0.53082  0.62303  1.0000
  C   C671      1.0  0.38054  0.94879  0.50311  1.0000
  H   H804      1.0  0.11818  0.50773  0.59012  1.0000
  C   C672      1.0  0.08459  0.60136  0.68811  1.0000
  C   C673      1.0  0.06941  0.56941  0.68853  1.0000
  H   H805      1.0  0.10855  0.61218  0.69077  1.0000
  C   C674      1.0  0.09333  0.74604  0.56404  1.0000
  C   C675      1.0  0.25497  0.98793  0.50358  1.0000
  H   H806      1.0  0.25245  0.80282  0.72491  1.0000
  H   H807      1.0  0.36407  0.95444  0.62749  1.0000
  C   C676      1.0  0.28812  0.53294  0.48710  1.0000
  C   C677      1.0  0.26239  0.78808  0.73053  1.0000
  H   H808      1.0  0.15006  0.97070  0.49780  1.0000
  N   N45       1.0  0.28783  0.78570  0.72043  1.0000
  H   H809      1.0  0.29883  0.82870  0.70693  1.0000
  H   H810      1.0  0.08293  0.55690  0.69144  1.0000
  C   C678      1.0  0.25245  0.77143  0.69926  1.0000
  C   C679      1.0  0.06993  0.59100  0.64113  1.0000
  C   C680      1.0  0.19085  0.80364  0.71394  1.0000
  H   H811      1.0  0.12150  0.73837  0.50805  1.0000
  C   C681      1.0  0.27165  0.98650  0.49000  1.0000
  H   H812      1.0  0.09047  0.51877  0.59956  1.0000
  C   C682      1.0  0.20683  0.81603  0.68635  1.0000
  C   C683      1.0  0.16637  0.77622  0.71095  1.0000
  C   C684      1.0  0.04941  0.61264  0.49229  1.0000
  S   S192      1.0  0.28639  0.87264  0.72982  1.0000
  H   H813      1.0  0.31161  0.54763  0.48945  1.0000
  H   H814      1.0  0.22352  0.56944  0.49387  1.0000
  H   H815      1.0  0.15064  0.62293  0.65671  1.0000
  C   C685      1.0  0.22442  0.96514  0.50817  1.0000
  H   H816      1.0  0.39345  0.96073  0.69069  1.0000
  C   C686      1.0  0.30030  0.95624  0.66205  1.0000
  C   C687      1.0  0.16835  0.56006  0.58988  1.0000
  H   H817      1.0  0.07476  0.54842  0.64071  1.0000
  H   H818      1.0  0.07058  0.82756  0.70629  1.0000
  H   H819      1.0  0.06138  0.70967  0.49222  1.0000
  C   C688      1.0  0.11308  0.63334  0.64967  1.0000
  H   H820      1.0  0.14361  0.74728  0.69356  1.0000
  C   C689      1.0  0.28751  0.74692  0.70195  1.0000
  C   C690      1.0  0.09493  0.75108  0.57975  1.0000
  H   H821      1.0  0.29077  0.93464  0.66939  1.0000
  C   C691      1.0  0.08794  0.68282  0.52230  1.0000
  H   H822      1.0  0.41118  0.51496  0.71771  1.0000
  Fe  Fe95      1.0  0.07283  0.82561  0.49280  1.0000
  S   S193      1.0  0.17064  0.91413  0.50497  1.0000
  H   H823      1.0  0.04759  0.85406  0.55530  1.0000
  H   H824      1.0  0.37134  0.97425  0.52058  1.0000
  C   C692      1.0  0.33316  0.97357  0.70734  1.0000
  C   C693      1.0  0.04988  0.83912  0.54655  1.0000
  H   H825      1.0  0.05140  0.85112  0.53500  1.0000
  C   C694      1.0  0.18205  0.78879  0.68336  1.0000
  H   H826      1.0  0.12400  0.65709  0.65197  1.0000
  H   H827      1.0  0.32682  0.77469  0.72451  1.0000
  C   C695      1.0  0.10162  0.77067  0.55248  1.0000
  C   C696      1.0  0.11335  0.52802  0.59224  1.0000
  H   H828      1.0  0.12060  0.82855  0.57567  1.0000
  C   C697      1.0  0.08221  0.66593  0.49666  1.0000
  H   H829      1.0  0.07274  0.83790  0.54731  1.0000
  H   H830      1.0  0.13815  0.71338  0.50175  1.0000
  C   C698      1.0  0.10201  0.60832  0.60237  1.0000
  H   H831      1.0  0.22363  0.75859  0.68062  1.0000
  C   C699      1.0  0.35351  0.95962  0.70482  1.0000
  H   H832      1.0  0.17606  0.60075  0.61384  1.0000
  S   S194      1.0  0.05445  0.71955  0.63622  1.0000
  Fe  Fe96      1.0  0.11109  0.50782  0.65334  1.0000
  Fe  Fe97      1.0  0.06311  0.74122  0.65838  1.0000
  C   C700      1.0  0.05510  0.63793  0.50059  1.0000
  C   C701      1.0  0.08378  0.62180  0.64419  1.0000
  N   N46       1.0  0.08191  0.78864  0.70937  1.0000
  H   H833      1.0  0.11093  0.53781  0.58079  1.0000
  C   C702      1.0  0.05582  0.76923  0.72123  1.0000
  H   H834      1.0  0.16120  0.54956  0.62045  1.0000
  C   C703      1.0  0.11409  0.58307  0.64942  1.0000
  H   H835      1.0  0.04746  0.58212  0.63669  1.0000
  S   S195      1.0  0.09897  0.76319  0.53287  1.0000
  H   H836      1.0  0.32982  0.81642  0.70621  1.0000
  S   S196      1.0  0.08278  0.78368  0.49239  1.0000
  S   S197      1.0  0.17882  0.77877  0.66425  1.0000
  C   C704      1.0  0.38703  0.97493  0.51072  1.0000
  Fe  Fe98      1.0  0.10001  0.75758  0.62583  1.0000
  H   H837      1.0  0.14183  0.51327  0.61325  1.0000
  C   C705      1.0  0.11284  0.80542  0.57247  1.0000
  S   S198      1.0  0.30455  0.96169  0.72355  1.0000
  Fe  Fe99      1.0  0.14132  0.86644  0.49777  1.0000
  H   H838      1.0  0.11823  0.81964  0.54801  1.0000
  C   C706      1.0  0.10474  0.78086  0.58405  1.0000
  C   C707      1.0  0.13338  0.57852  0.60284  1.0000
  C   C708      1.0  0.10992  0.80656  0.71699  1.0000
  C   C709      1.0  0.21105  0.82363  0.70158  1.0000
  H   H839      1.0  0.28566  0.71516  0.68534  1.0000
  H   H840      1.0  0.17922  0.51352  0.49363  1.0000
  H   H841      1.0  0.10541  0.67323  0.52373  1.0000
  H   H842      1.0  0.08570  0.72294  0.56087  1.0000
  S   S199      1.0  0.13370  0.55956  0.65308  1.0000
  C   C710      1.0  0.14046  0.53549  0.61474  1.0000
  H   H843      1.0  0.18894  0.57489  0.59545  1.0000
  H   H844      1.0  0.10519  0.82172  0.72488  1.0000
  H   H845      1.0  0.35115  0.94018  0.71260  1.0000
  C   C711      1.0  0.06236  0.70236  0.50445  1.0000
  C   C712      1.0  0.11792  0.71922  0.50079  1.0000
  C   C713      1.0  0.21027  0.94047  0.49938  1.0000
  C   C714      1.0  0.31027  0.81697  0.71388  1.0000
  C   C715      1.0  0.35294  0.96394  0.61908  1.0000
  H   H846      1.0  0.23004  0.84479  0.70374  1.0000
  H   H847      1.0  0.36721  0.96810  0.60774  1.0000
  S   S200      1.0  0.06368  0.64497  0.64095  1.0000
  C   C716      1.0  0.16195  0.76885  0.69573  1.0000
  H   H848      1.0  0.32913  0.94619  0.61790  1.0000
  C   C717      1.0  0.27624  0.73075  0.68935  1.0000
  H   H849      1.0  0.03901  0.68409  0.50896  1.0000
  C   C718      1.0  0.07482  0.81070  0.69948  1.0000
  H   H850      1.0  0.16834  0.57288  0.57881  1.0000
  Fe  Fe100     1.0  0.13197  0.75350  0.65502  1.0000
  H   H851      1.0  0.13022  0.82126  0.70843  1.0000
  H   H852      1.0  0.11787  0.79164  0.72400  1.0000
  S   S201      1.0  0.15504  0.82684  0.49809  1.0000
  N   N47       1.0  0.08775  0.69223  0.50579  1.0000
  S   S202      1.0  0.09707  0.84004  0.51395  1.0000
  H   H853      1.0  0.17238  0.53965  0.58709  1.0000
  S   S203      1.0  0.12891  0.73244  0.63246  1.0000
  N   N48       1.0  0.13856  0.55096  0.59990  1.0000
  H   H854      1.0  0.18698  0.51995  0.71204  1.0000
  H   H855      1.0  0.30583  0.74318  0.70709  1.0000
  H   H856      1.0  0.16765  0.64589  0.61933  1.0000
  H   H857      1.0  0.10806  0.78277  0.68941  1.0000
  H   H858      1.0  0.24310  0.78751  0.70225  1.0000
  S   S204      1.0  0.10655  0.78131  0.64754  1.0000
  C   C719      1.0  0.37752  0.97138  0.69243  1.0000
  C   C720      1.0  0.12810  0.61396  0.65233  1.0000
  S   S205      1.0  0.10669  0.78875  0.60363  1.0000
  H   H859      1.0  0.06870  0.75398  0.69368  1.0000
  H   H860      1.0  0.09833  0.75377  0.70511  1.0000
  C   C721      1.0  0.08960  0.76897  0.69900  1.0000
  C   C722      1.0  0.08519  0.57179  0.64355  1.0000
  C   C723      1.0  0.11144  0.80043  0.55677  1.0000
  C   C724      1.0  0.15547  0.60238  0.61015  1.0000
  C   C725      1.0  0.15092  0.62837  0.61334  1.0000
  H   H861      1.0  0.06580  0.72221  0.51115  1.0000
  H   H862      1.0  0.09452  0.82424  0.69040  1.0000
  H   H863      1.0  0.21145  0.96681  0.51852  1.0000
  H   H864      1.0  0.11890  0.72898  0.48878  1.0000
  H   H865      1.0  0.24442  0.72227  0.67200  1.0000
  Fe  Fe101     1.0  0.10916  0.80003  0.51281  1.0000
  H   H866      1.0  0.12032  0.65109  0.61241  1.0000
  H   H867      1.0  0.08858  0.73198  0.58854  1.0000
  H   H868      1.0  0.09396  0.70257  0.52936  1.0000
  C   C726      1.0  0.27543  0.76738  0.70751  1.0000
  H   H869      1.0  0.05409  0.79852  0.69327  1.0000
  H   H870      1.0  0.22281  0.83133  0.67683  1.0000
  H   H871      1.0  0.06482  0.66539  0.52769  1.0000
  H   H872      1.0  0.35122  0.50613  0.69142  1.0000
  Fe  Fe102     1.0  0.08364  0.69568  0.64432  1.0000
  C   C727      1.0  0.12425  0.63133  0.60947  1.0000
  H   H873      1.0  0.15100  0.76038  0.72047  1.0000
  C   C728      1.0  0.25308  0.73473  0.68179  1.0000
  C   C729      1.0  0.10636  0.58225  0.59904  1.0000
  H   H874      1.0  0.08799  0.56518  0.59373  1.0000
  C   C730      1.0  0.24131  0.75513  0.68670  1.0000
  C   C731      1.0  0.10294  0.66715  0.48370  1.0000
  H   H875      1.0  0.39522  0.92945  0.48430  1.0000
  H   H876      1.0  0.07911  0.74165  0.72993  1.0000
  C   C732      1.0  0.38148  0.99720  0.68251  1.0000
  C   C733      1.0  0.98765  0.82470  0.53487  1.0000
  H   H877      1.0  0.41968  0.55407  0.73236  1.0000
  S   S206      1.0  0.00858  0.84635  0.87889  1.0000
  S   S207      1.0  0.26762  0.95871  0.89637  1.0000
  Fe  Fe103     1.0  0.18159  0.89895  0.90156  1.0000
  S   S208      1.0  0.22193  0.88547  0.90053  1.0000
  S   S209      1.0  0.13240  0.86182  0.90816  1.0000
  Fe  Fe104     1.0  0.24252  0.92224  0.91627  1.0000
  S   S210      1.0  0.26981  0.91739  0.93594  1.0000
  Fe  Fe105     1.0  0.24337  0.92284  0.88069  1.0000
  S   S211      1.0  0.27425  0.92276  0.85933  1.0000
  S   S212      1.0  0.20108  0.93351  0.91855  1.0000
  S   S213      1.0  0.20150  0.93355  0.88058  1.0000
  Fe  Fe106     1.0  0.41933  0.72563  0.95046  1.0000
  S   S214      1.0  0.37138  0.71304  0.96219  1.0000
  S   S215      1.0  0.43580  0.73040  0.92510  1.0000
  S   S216      1.0  0.43005  0.69556  0.96741  1.0000
  S   S217      1.0  0.44162  0.76748  0.96264  1.0000
  Fe  Fe107     1.0  0.36333  0.70614  0.84858  1.0000
  S   S218      1.0  0.40276  0.75127  0.83904  1.0000
  S   S219      1.0  0.34424  0.68754  0.87352  1.0000
  Fe  Fe108     1.0  0.34529  0.68826  0.81664  1.0000
  S   S220      1.0  0.38287  0.73170  0.80431  1.0000
  S   S221      1.0  0.30826  0.65272  0.80478  1.0000
  Fe  Fe109     1.0  0.41324  0.72425  0.82119  1.0000
  Fe  Fe110     1.0  0.36939  0.75532  0.82287  1.0000
  S   S222      1.0  0.36415  0.79988  0.81911  1.0000
  S   S223      1.0  0.37652  0.67859  0.83209  1.0000
  S   S224      1.0  0.32914  0.71244  0.83389  1.0000
  C   C734      1.0  0.42207  0.54781  0.74450  1.0000
  C   C735      1.0  0.33280  0.81953  0.90525  1.0000
  C   C736      1.0  0.24182  0.81114  0.97505  1.0000
  H   H878      1.0  0.26976  0.56513  0.89126  1.0000
  H   H879      1.0  0.31574  0.82827  0.94247  1.0000
  S   S225      1.0  0.34239  0.55215  0.77549  1.0000
  H   H880      1.0  0.12314  0.92834  0.92901  1.0000
  Fe  Fe111     1.0  0.25510  0.88396  0.77068  1.0000
  S   S226      1.0  0.30594  0.90915  0.76126  1.0000
  S   S227      1.0  0.22881  0.88391  0.79373  1.0000
  C   C737      1.0  0.00588  0.72995  0.74349  1.0000
  Fe  Fe112     1.0  0.30018  0.86384  0.75317  1.0000
  S   S228      1.0  0.33214  0.83978  0.75438  1.0000
  Fe  Fe113     1.0  0.28821  0.91612  0.73861  1.0000
  S   S229      1.0  0.25084  0.83828  0.76398  1.0000
  S   S230      1.0  0.23756  0.89425  0.74869  1.0000
  C   C738      1.0  0.31800  0.82598  0.91800  1.0000
  C   C739      1.0  0.35504  0.81049  0.80107  1.0000
  C   C740      1.0  0.35401  0.79364  0.78854  1.0000
  C   C741      1.0  0.34708  0.80292  0.77426  1.0000
  C   C742      1.0  0.34038  0.82863  0.77252  1.0000
  C   C743      1.0  0.34145  0.84553  0.78503  1.0000
  C   C744      1.0  0.34914  0.83667  0.79922  1.0000
  H   H881      1.0  0.35864  0.77352  0.78981  1.0000
  H   H882      1.0  0.34664  0.78993  0.76458  1.0000
  H   H883      1.0  0.33693  0.86575  0.78370  1.0000
  H   H884      1.0  0.35036  0.85005  0.80882  1.0000
  C   C745      1.0  0.33351  0.58121  0.78277  1.0000
  C   C746      1.0  0.35551  0.60373  0.79042  1.0000
  C   C747      1.0  0.34823  0.62614  0.79700  1.0000
  C   C748      1.0  0.31881  0.62599  0.79602  1.0000
  C   C749      1.0  0.29704  0.60381  0.78814  1.0000
  C   C750      1.0  0.30439  0.58155  0.78148  1.0000
  H   H885      1.0  0.37818  0.60375  0.79137  1.0000
  H   H886      1.0  0.36529  0.64339  0.80290  1.0000
  H   H887      1.0  0.27444  0.60391  0.78716  1.0000
  H   H888      1.0  0.28753  0.56474  0.77532  1.0000
  C   C751      1.0  0.40979  0.71937  0.91097  1.0000
  C   C752      1.0  0.37744  0.70525  0.91492  1.0000
  C   C753      1.0  0.35742  0.69577  0.90331  1.0000
  C   C754      1.0  0.36970  0.70096  0.88773  1.0000
  C   C755      1.0  0.40201  0.71577  0.88380  1.0000
  C   C756      1.0  0.42199  0.72478  0.89540  1.0000
  H   H889      1.0  0.36790  0.70125  0.92689  1.0000
  H   H890      1.0  0.33239  0.68444  0.90638  1.0000
  H   H891      1.0  0.41165  0.71978  0.87181  1.0000
  H   H892      1.0  0.44703  0.73580  0.89228  1.0000
  C   C757      1.0  0.26125  0.91213  0.84113  1.0000
  C   C758      1.0  0.22965  0.90057  0.83884  1.0000
  C   C759      1.0  0.22028  0.89226  0.82424  1.0000
  C   C760      1.0  0.24232  0.89557  0.81173  1.0000
  C   C761      1.0  0.27396  0.90714  0.81402  1.0000
  C   C762      1.0  0.28331  0.91522  0.82866  1.0000
  H   H893      1.0  0.21242  0.89804  0.84831  1.0000
  H   H894      1.0  0.19576  0.88337  0.82260  1.0000
  H   H895      1.0  0.29123  0.90994  0.80451  1.0000
  H   H896      1.0  0.30781  0.92410  0.83032  1.0000
  C   C763      1.0  0.25433  0.90660  0.95568  1.0000
  C   C764      1.0  0.22241  0.89630  0.96041  1.0000
  C   C765      1.0  0.27447  0.90700  0.96682  1.0000
  H   H897      1.0  0.20663  0.89568  0.95197  1.0000
  H   H898      1.0  0.29919  0.91498  0.96329  1.0000
  C   C766      1.0  0.04317  0.84855  0.88619  1.0000
  C   C767      1.0  0.04222  0.82892  0.89890  1.0000
  C   C768      1.0  0.06992  0.83299  0.90528  1.0000
  C   C769      1.0  0.09880  0.85639  0.89890  1.0000
  C   C770      1.0  0.09990  0.87533  0.88583  1.0000
  C   C771      1.0  0.07210  0.87157  0.87959  1.0000
  H   H899      1.0  0.02007  0.81116  0.90410  1.0000
  H   H900      1.0  0.06891  0.81820  0.91537  1.0000
  H   H901      1.0  0.12204  0.89308  0.88065  1.0000
  H   H902      1.0  0.07297  0.88687  0.86976  1.0000
  H   H903      1.0  0.03542  0.96451  0.89260  1.0000
  H   H904      1.0  0.42005  0.83160  0.79807  1.0000
  C   C772      1.0  0.27351  0.55092  0.82974  1.0000
  H   H905      1.0  0.04465  0.82191  0.85209  1.0000
  C   C773      1.0  0.07743  0.96521  0.90101  1.0000
  H   H906      1.0  0.43086  0.85415  0.77157  1.0000
  C   C774      1.0  0.21045  0.80254  0.97179  1.0000
  H   H907      1.0  0.13859  0.95361  0.88753  1.0000
  C   C775      1.0  0.20378  0.81355  0.95794  1.0000
  C   C776      1.0  0.22791  0.83320  0.94698  1.0000
  C   C777      1.0  0.25884  0.84197  0.94981  1.0000
  C   C778      1.0  0.00805  0.75519  0.79446  1.0000
  C   C779      1.0  0.26618  0.51165  0.90903  1.0000
  H   H908      1.0  0.24851  0.54829  0.80315  1.0000
  C   C780      1.0  0.34368  0.55972  0.93343  1.0000
  H   H909      1.0  0.30536  0.61898  0.88349  1.0000
  H   H910      1.0  0.23178  0.55252  0.84127  1.0000
  H   H911      1.0  0.33877  0.64864  0.93904  1.0000
  C   C781      1.0  0.33306  0.62430  0.94299  1.0000
  Fe  Fe114     1.0  0.30216  0.51204  0.76785  1.0000
  H   H912      1.0  0.34322  0.60997  0.91510  1.0000
  H   H913      1.0  0.44663  0.89050  0.77934  1.0000
  H   H914      1.0  0.17976  0.80745  0.95580  1.0000
  H   H915      1.0  0.22271  0.84267  0.93652  1.0000
  N   N49       1.0  0.35862  0.61573  0.93783  1.0000
  H   H916      1.0  0.19064  0.78785  0.97986  1.0000
  C   C782      1.0  0.29430  0.57077  0.88856  1.0000
  C   C783      1.0  0.44363  0.84742  0.80069  1.0000
  H   H917      1.0  0.31064  0.78460  0.74091  1.0000
  H   H918      1.0  0.22255  0.50814  0.80574  1.0000
  C   C784      1.0  0.45271  0.87230  0.77491  1.0000
  C   C785      1.0  0.26099  0.50467  0.88209  1.0000
  H   H919      1.0  0.13538  0.92472  0.90249  1.0000
  C   C786      1.0  0.98752  0.77633  0.81452  1.0000
  S   S231      1.0  0.29636  0.50379  0.74306  1.0000
  C   C787      1.0  0.02881  0.91966  0.90191  1.0000
  C   C788      1.0  0.33230  0.52116  0.95505  1.0000
  H   H920      1.0  0.02908  0.87765  0.91147  1.0000
  H   H921      1.0  0.38346  0.61569  0.91614  1.0000
  C   C789      1.0  0.47374  0.83536  0.77992  1.0000
  S   S232      1.0  0.37831  0.79106  0.97627  1.0000
  H   H922      1.0  0.34883  0.54144  0.88494  1.0000
  C   C790      1.0  0.00755  0.76125  0.85132  1.0000
  H   H923      1.0  0.45148  0.83500  0.80940  1.0000
  H   H924      1.0  0.15455  0.96490  0.92883  1.0000
  C   C791      1.0  0.45367  0.80356  0.78322  1.0000
  H   H925      1.0  0.04852  0.83181  0.83162  1.0000
  C   C792      1.0  0.46113  0.78127  0.77684  1.0000
  C   C793      1.0  0.34581  0.57393  0.95954  1.0000
  H   H926      1.0  0.37282  0.64693  0.91691  1.0000
  H   H927      1.0  0.34542  0.56433  0.92107  1.0000
  C   C794      1.0  0.00320  0.75366  0.73466  1.0000
  C   C795      1.0  0.04617  0.95110  0.89808  1.0000
  H   H928      1.0  0.16818  0.96112  0.90031  1.0000
  C   C796      1.0  0.21082  0.88629  0.97607  1.0000
  C   C797      1.0  0.31439  0.60161  0.88409  1.0000
  N   N50       1.0  0.01233  0.78709  0.83970  1.0000
  H   H929      1.0  0.39543  0.52325  0.77269  1.0000
  H   H930      1.0  0.27743  0.85849  0.94155  1.0000
  H   H931      1.0  0.08374  0.90105  0.91622  1.0000
  C   C798      1.0  0.01071  0.77665  0.82408  1.0000
  H   H932      1.0  0.31378  0.98892  0.86521  1.0000
  C   C799      1.0  0.03251  0.76582  0.81808  1.0000
  C   C800      1.0  0.98843  0.79845  0.84402  1.0000
  H   H933      1.0  0.28926  0.74789  0.73446  1.0000
  Fe  Fe115     1.0  0.39437  0.75286  0.97586  1.0000
  N   N51       1.0  0.40454  0.51442  0.74932  1.0000
  H   H934      1.0  0.04794  0.74698  0.79919  1.0000
  N   N52       1.0  0.25627  0.52290  0.82225  1.0000
  C   C801      1.0  0.03341  0.72604  0.74168  1.0000
  H   H935      1.0  0.36057  0.51758  0.75350  1.0000
  S   S233      1.0  0.21469  0.50151  0.73644  1.0000
  C   C802      1.0  0.30554  0.54762  0.88923  1.0000
  C   C803      1.0  0.09221  0.94796  0.90792  1.0000
  H   H936      1.0  0.03530  0.70742  0.74851  1.0000
  H   H937      1.0  0.41334  0.56160  0.75164  1.0000
  H   H938      1.0  0.29359  0.80025  0.98027  1.0000
  C   C804      1.0  0.30665  0.56712  0.82758  1.0000
  H   H939      1.0  0.98627  0.71417  0.75150  1.0000
  H   H940      1.0  0.29306  0.50755  0.81972  1.0000
  C   C805      1.0  0.32201  0.59393  0.83456  1.0000
  H   H941      1.0  0.44632  0.75710  0.78015  1.0000
  H   H942      1.0  0.21695  0.53346  0.81838  1.0000
  Fe  Fe116     1.0  0.38366  0.68587  0.98038  1.0000
  C   C806      1.0  0.23514  0.52845  0.81199  1.0000
  H   H943      1.0  0.33461  0.53703  0.97755  1.0000
  C   C807      1.0  0.35798  0.58826  0.88057  1.0000
  C   C808      1.0  0.34613  0.61032  0.88006  1.0000
  C   C809      1.0  0.34969  0.58318  0.94347  1.0000
  S   S234      1.0  0.46058  0.72765  0.81219  1.0000
  C   C810      1.0  0.27262  0.59012  0.84619  1.0000
  H   H944      1.0  0.32844  0.62189  0.95579  1.0000
  H   H945      1.0  0.34720  0.60648  0.83232  1.0000
  H   H946      1.0  0.29100  0.53060  0.80304  1.0000
  H   H947      1.0  0.31702  0.62684  0.84872  1.0000
  H   H948      1.0  0.02598  0.75281  0.84972  1.0000
  C   C811      1.0  0.25699  0.56320  0.83933  1.0000
  H   H949      1.0  0.36150  0.63424  0.87637  1.0000
  N   N53       1.0  0.39260  0.79821  0.92407  1.0000
  C   C812      1.0  0.41727  0.82142  0.93183  1.0000
  C   C813      1.0  0.37948  0.76871  0.93403  1.0000
  C   C814      1.0  0.40785  0.79367  0.90955  1.0000
  C   C815      1.0  0.36732  0.80799  0.92169  1.0000
  C   C816      1.0  0.35148  0.81441  0.93445  1.0000
  C   C817      1.0  0.35708  0.81059  0.90698  1.0000
  C   C818      1.0  0.32729  0.82335  0.93256  1.0000
  H   H950      1.0  0.40877  0.82332  0.94377  1.0000
  H   H951      1.0  0.33039  0.51142  0.93154  1.0000
  H   H952      1.0  0.42633  0.84454  0.92525  1.0000
  H   H953      1.0  0.37000  0.77072  0.94573  1.0000
  H   H954      1.0  0.39764  0.76020  0.93577  1.0000
  H   H955      1.0  0.36017  0.75079  0.92890  1.0000
  H   H956      1.0  0.41840  0.81509  0.90146  1.0000
  H   H957      1.0  0.42706  0.78679  0.91177  1.0000
  H   H958      1.0  0.39111  0.77485  0.90362  1.0000
  H   H959      1.0  0.35758  0.81238  0.94604  1.0000
  H   H960      1.0  0.29008  0.83976  0.96560  1.0000
  N   N54       1.0  0.24278  0.80320  0.81264  1.0000
  C   C819      1.0  0.21371  0.80212  0.80676  1.0000
  C   C820      1.0  0.24106  0.80820  0.82919  1.0000
  C   C821      1.0  0.26949  0.83001  0.80409  1.0000
  C   C822      1.0  0.24765  0.77509  0.81083  1.0000
  C   C823      1.0  0.22607  0.74921  0.80443  1.0000
  C   C824      1.0  0.27522  0.77338  0.81517  1.0000
  C   C825      1.0  0.23213  0.72352  0.80244  1.0000
  C   C826      1.0  0.28113  0.74776  0.81298  1.0000
  C   C827      1.0  0.25968  0.72285  0.80664  1.0000
  H   H961      1.0  0.21406  0.79987  0.79416  1.0000
  H   H962      1.0  0.19252  0.78308  0.81303  1.0000
  H   H963      1.0  0.21078  0.82358  0.80835  1.0000
  H   H964      1.0  0.22145  0.78844  0.83608  1.0000
  H   H965      1.0  0.23753  0.82935  0.83089  1.0000
  H   H966      1.0  0.26286  0.81123  0.83429  1.0000
  H   H967      1.0  0.26495  0.85086  0.80318  1.0000
  H   H968      1.0  0.29120  0.83639  0.80979  1.0000
  H   H969      1.0  0.27462  0.82535  0.79215  1.0000
  H   H970      1.0  0.20451  0.74835  0.80072  1.0000
  H   H971      1.0  0.29282  0.79213  0.82006  1.0000
  H   H972      1.0  0.21552  0.70407  0.79747  1.0000
  H   H973      1.0  0.30277  0.74746  0.81604  1.0000
  H   H974      1.0  0.26459  0.70309  0.80494  1.0000
  C   C828      1.0  0.14261  0.94974  0.89972  1.0000
  H   H975      1.0  0.24651  0.51777  0.88144  1.0000
  C   C829      1.0  0.37145  0.50511  0.74669  1.0000
  H   H976      1.0  0.99101  0.81848  0.83601  1.0000
  S   S235      1.0  0.19534  0.81153  0.73332  1.0000
  H   H977      1.0  0.32128  0.56018  0.82016  1.0000
  C   C830      1.0  0.36470  0.62210  0.92075  1.0000
  N   N55       1.0  0.12568  0.96171  0.91038  1.0000
  H   H978      1.0  0.43247  0.79516  0.79103  1.0000
  H   H979      1.0  0.34912  0.59019  0.96793  1.0000
  H   H980      1.0  0.31079  0.60953  0.93860  1.0000
  H   H981      1.0  0.44743  0.55556  0.74561  1.0000
  Fe  Fe117     1.0  0.23712  0.85034  0.74132  1.0000
  H   H982      1.0  0.08963  0.98952  0.89751  1.0000
  C   C831      1.0  0.30505  0.60549  0.84376  1.0000
  C   C832      1.0  0.07382  0.91596  0.91159  1.0000
  C   C833      1.0  0.33813  0.55733  0.88507  1.0000
  H   H983      1.0  0.38269  0.59519  0.87720  1.0000
  C   C834      1.0  0.12968  0.95331  0.92648  1.0000
  Fe  Fe118     1.0  0.22459  0.96723  0.89751  1.0000
  C   C835      1.0  0.04341  0.81250  0.84068  1.0000
  H   H984      1.0  0.00482  0.90860  0.89930  1.0000
  H   H985      1.0  0.25086  0.52390  0.90909  1.0000
  C   C836      1.0  0.33513  0.52920  0.93924  1.0000
  H   H986      1.0  0.00769  0.76798  0.86328  1.0000
  N   N56       1.0  0.28361  0.51504  0.89366  1.0000
  C   C837      1.0  0.04253  0.90222  0.90878  1.0000
  H   H987      1.0  0.99033  0.80615  0.85577  1.0000
  H   H988      1.0  0.25921  0.76568  0.97894  1.0000
  H   H989      1.0  0.36733  0.80576  0.89662  1.0000
  H   H990      1.0  0.29925  0.83299  0.91658  1.0000
  H   H991      1.0  0.06270  0.80515  0.83937  1.0000
  H   H992      1.0  0.21936  0.50150  0.84118  1.0000
  H   H993      1.0  0.38393  0.63577  0.95696  1.0000
  C   C838      1.0  0.98634  0.76572  0.79996  1.0000
  H   H994      1.0  0.39592  0.66045  0.93948  1.0000
  C   C839      1.0  0.14079  0.99578  0.90753  1.0000
  C   C840      1.0  0.38749  0.63594  0.94423  1.0000
  H   H995      1.0  0.05061  0.76516  0.82473  1.0000
  H   H996      1.0  0.40678  0.62892  0.94162  1.0000
  H   H997      1.0  0.46809  0.78637  0.82188  1.0000
  H   H998      1.0  0.32538  0.82147  0.89393  1.0000
  H   H999      1.0  0.25953  0.59970  0.85303  1.0000
  N   N57       1.0  0.46639  0.85943  0.78657  1.0000
  H   H1000     1.0  0.11533  0.95979  0.93493  1.0000
  C   C841      1.0  0.26578  0.83130  0.96365  1.0000
  H   H1001     1.0  0.43734  0.81537  0.93311  1.0000
  H   H1002     1.0  0.43995  0.86591  0.80630  1.0000
  C   C842      1.0  0.27694  0.51293  0.81272  1.0000
  C   C843      1.0  0.03114  0.75529  0.80349  1.0000
  Fe  Fe119     1.0  0.44909  0.73675  0.98058  1.0000
  C   C844      1.0  0.40536  0.50952  0.76622  1.0000
  C   C845      1.0  0.33738  0.54342  0.96519  1.0000
  H   H1003     1.0  0.28236  0.52015  0.91800  1.0000
  H   H1004     1.0  0.42969  0.51648  0.76914  1.0000
  H   H1005     1.0  0.18608  0.87823  0.97957  1.0000
  S   S236      1.0  0.25122  0.49833  0.77464  1.0000
  H   H1006     1.0  0.27086  0.79900  0.74115  1.0000
  H   H1007     1.0  0.27327  0.50702  0.87037  1.0000
  H   H1008     1.0  0.24291  0.76512  0.73417  1.0000
  H   H1009     1.0  0.00682  0.74681  0.78321  1.0000
  H   H1010     1.0  0.31640  0.50003  0.90319  1.0000
  H   H1011     1.0  0.46913  0.88252  0.76419  1.0000
  H   H1012     1.0  0.36861  0.50967  0.73442  1.0000
  Fe  Fe120     1.0  0.82752  0.25619  0.04197  1.0000
  S   S237      1.0  0.83638  0.21456  0.03836  1.0000
  S   S238      1.0  0.78764  0.25846  0.03001  1.0000
  Fe  Fe121     1.0  0.88235  0.28322  0.06117  1.0000
  S   S239      1.0  0.89579  0.24424  0.05846  1.0000
  S   S240      1.0  0.90614  0.32356  0.07502  1.0000
  Fe  Fe122     1.0  0.88662  0.24810  0.03357  1.0000
  S   S241      1.0  0.91944  0.24630  0.01364  1.0000
  Fe  Fe123     1.0  0.84417  0.21418  0.06341  1.0000
  S   S242      1.0  0.82951  0.17095  0.07996  1.0000
  S   S243      1.0  0.87749  0.28993  0.03580  1.0000
  S   S244      1.0  0.83098  0.25299  0.06750  1.0000
  Fe  Fe124     1.0  0.70199  0.05244  0.17919  1.0000
  Fe  Fe125     1.0  0.69801  0.08335  0.14773  1.0000
  S   S245      1.0  0.65429  0.04307  0.14349  1.0000
  S   S246      1.0  0.71297  0.12634  0.13103  1.0000
  Fe  Fe126     1.0  0.63870  0.04226  0.16850  1.0000
  H   H1013     1.0  0.75146  0.30775  0.05652  1.0000
  S   S247      1.0  0.68085  0.08456  0.17218  1.0000
  S   S248      1.0  0.72317  0.05491  0.15477  1.0000
  H   H1014     1.0  0.88123  0.34312  0.00624  1.0000
  C   C846      1.0  0.67892  0.25631  0.03750  1.0000
  Fe  Fe127     1.0  0.75543  0.39593  0.99680  1.0000
  S   S249      1.0  0.78106  0.38605  0.01570  1.0000
  H   H1015     1.0  0.86164  0.20321  0.10448  1.0000
  C   C847      1.0  0.84071  0.35140  0.98722  1.0000
  H   H1016     1.0  0.50104  0.45570  0.11963  1.0000
  C   C848      1.0  0.54681  0.06713  0.12619  1.0000
  S   S250      1.0  0.71719  0.41037  0.00360  1.0000
  H   H1017     1.0  0.70105  0.03080  0.11736  1.0000
  C   C849      1.0  0.71467  0.30674  0.04312  1.0000
  C   C850      1.0  0.91822  0.25224  0.14610  1.0000
  H   H1018     1.0  0.61775  0.17079  0.13984  1.0000
  H   H1019     1.0  0.69244  0.29535  0.00491  1.0000
  H   H1020     1.0  0.84561  0.27184  0.10630  1.0000
  C   C851      1.0  0.50771  0.39562  0.10294  1.0000
  H   H1021     1.0  0.62588  0.30222  0.02741  1.0000
  C   C852      1.0  0.56128  0.03306  0.16784  1.0000
  C   C853      1.0  0.63374  0.10869  0.14463  1.0000
  C   C854      1.0  0.51169  0.03471  0.16346  1.0000
  C   C855      1.0  0.53891  0.04459  0.17095  1.0000
  H   H1022     1.0  0.63463  0.15555  0.12542  1.0000
  H   H1023     1.0  0.54243  0.06097  0.17931  1.0000
  C   C856      1.0  0.57527  0.08125  0.13233  1.0000
  C   C857      1.0  0.56641  0.32418  0.02667  1.0000
  C   C858      1.0  0.59642  0.34764  0.02708  1.0000
  C   C859      1.0  0.61960  0.35538  0.01450  1.0000
  C   C860      1.0  0.61313  0.33911  0.00156  1.0000
  C   C861      1.0  0.58312  0.31571  0.00113  1.0000
  C   C862      1.0  0.55974  0.30839  0.01358  1.0000
  H   H1024     1.0  0.60165  0.36004  0.03715  1.0000
  N   N58       1.0  0.50710  0.41447  0.11561  1.0000
  C   C863      1.0  0.66813  0.06019  0.09830  1.0000
  H   H1025     1.0  0.53674  0.29022  0.01317  1.0000
  C   C864      1.0  0.96583  0.32751  0.11485  1.0000
  C   C865      1.0  0.95764  0.30304  0.10563  1.0000
  C   C866      1.0  0.94069  0.30223  0.09292  1.0000
  C   C867      1.0  0.93095  0.32546  0.08958  1.0000
  C   C868      1.0  0.93959  0.35015  0.09865  1.0000
  C   C869      1.0  0.63039  0.15612  0.13808  1.0000
  C   C870      1.0  0.51084  0.01126  0.21597  1.0000
  H   H1026     1.0  0.93485  0.28349  0.08582  1.0000
  H   H1027     1.0  0.73984  0.08519  0.07402  1.0000
  C   C871      1.0  0.79815  0.16024  0.09461  1.0000
  C   C872      1.0  0.77662  0.17309  0.09432  1.0000
  C   C873      1.0  0.75097  0.16292  0.10577  1.0000
  C   C874      1.0  0.74668  0.13985  0.11757  1.0000
  C   C875      1.0  0.76878  0.12770  0.11815  1.0000
  C   C876      1.0  0.79439  0.13782  0.10667  1.0000
  H   H1028     1.0  0.77930  0.19035  0.08506  1.0000
  H   H1029     1.0  0.73403  0.17252  0.10528  1.0000
  H   H1030     1.0  0.76598  0.11027  0.12734  1.0000
  H   H1031     1.0  0.81116  0.12797  0.10702  1.0000
  C   C877      1.0  0.78725  0.29441  0.02548  1.0000
  C   C878      1.0  0.80581  0.32005  0.03251  1.0000
  C   C879      1.0  0.80379  0.34808  0.02931  1.0000
  C   C880      1.0  0.78384  0.35083  0.01881  1.0000
  C   C881      1.0  0.76615  0.32548  0.01133  1.0000
  C   C882      1.0  0.76761  0.29724  0.01480  1.0000
  H   H1032     1.0  0.82106  0.31807  0.04072  1.0000
  H   H1033     1.0  0.81762  0.36768  0.03508  1.0000
  H   H1034     1.0  0.75106  0.32751  0.00307  1.0000
  H   H1035     1.0  0.75338  0.27746  0.00927  1.0000
  H   H1036     1.0  0.67085  0.04200  0.21621  1.0000
  C   C883      1.0  0.90901  0.24159  0.99462  1.0000
  C   C884      1.0  0.71934  0.05524  0.21904  1.0000
  H   H1037     1.0  0.86018  0.22947  0.00068  1.0000
  C   C885      1.0  0.63818  0.05494  0.09463  1.0000
  C   C886      1.0  0.68790  0.04625  0.22439  1.0000
  C   C887      1.0  0.86563  0.22771  0.10341  1.0000
  H   H1038     1.0  0.75538  0.47122  0.04067  1.0000
  C   C888      1.0  0.69552  0.24326  0.04564  1.0000
  H   H1039     1.0  0.88469  0.28481  0.11032  1.0000
  C   C889      1.0  0.94600  0.32802  0.21094  1.0000
  H   H1040     1.0  0.64242  0.37384  0.01487  1.0000
  C   C890      1.0  0.87518  0.23248  0.12994  1.0000
  N   N59       1.0  0.71801  0.05298  0.09421  1.0000
  H   H1041     1.0  0.92822  0.21871  0.15919  1.0000
  H   H1042     1.0  0.91028  0.36059  0.98983  1.0000
  H   H1043     1.0  0.71705  0.07194  0.11605  1.0000
  C   C891      1.0  0.68627  0.04731  0.09031  1.0000
  C   C892      1.0  0.71954  0.05232  0.11117  1.0000
  C   C893      1.0  0.96475  0.29042  0.20480  1.0000
  H   H1044     1.0  0.59269  0.14023  0.16479  1.0000
  H   H1045     1.0  0.59262  0.10330  0.16890  1.0000
  H   H1046     1.0  0.90850  0.28354  0.19663  1.0000
  H   H1047     1.0  0.62444  0.06427  0.10117  1.0000
  N   N60       1.0  0.61287  0.12463  0.14600  1.0000
  H   H1048     1.0  0.54874  0.47894  0.19795  1.0000
  C   C894      1.0  0.68852  0.28857  0.03559  1.0000
  H   H1049     1.0  0.78875  0.48262  0.00582  1.0000
  C   C895      1.0  0.48835  0.37327  0.07922  1.0000
  H   H1050     1.0  0.83183  0.07326  0.00276  1.0000
  H   H1051     1.0  0.56481  0.14248  0.14479  1.0000
  C   C896      1.0  0.74015  0.08364  0.08677  1.0000
  H   H1052     1.0  0.65875  0.24094  0.03251  1.0000
  S   S251      1.0  0.50254  0.46590  0.15177  1.0000
  S   S252      1.0  0.64212  0.34636  0.98598  1.0000
  H   H1053     1.0  0.92777  0.33322  0.21722  1.0000
  C   C897      1.0  0.85552  0.12169  0.00438  1.0000
  C   C898      1.0  0.50602  0.01229  0.15327  1.0000
  H   H1054     1.0  0.85451  0.27790  0.12581  1.0000
  N   N61       1.0  0.85630  0.23698  0.11806  1.0000
  C   C899      1.0  0.64357  0.02597  0.07406  1.0000
  H   H1055     1.0  0.85386  0.18240  0.13109  1.0000
  S   S253      1.0  0.73235  0.05928  0.19908  1.0000
  H   H1056     1.0  0.81614  0.19286  0.12299  1.0000
  N   N62       1.0  0.67147  0.30194  0.02625  1.0000
  C   C900      1.0  0.63956  0.29266  0.03410  1.0000
  C   C901      1.0  0.68689  0.33599  0.02378  1.0000
  H   H1057     1.0  0.94643  0.33459  0.19843  1.0000
  H   H1058     1.0  0.62817  0.13727  0.16824  1.0000
  H   H1059     1.0  0.54360  0.41196  0.12850  1.0000
  C   C902      1.0  0.52716  0.36137  0.09074  1.0000
  H   H1060     1.0  0.65403  0.26573  0.01121  1.0000
  C   C903      1.0  0.87833  0.23384  0.99136  1.0000
  H   H1061     1.0  0.54135  0.37985  0.11166  1.0000
  H   H1062     1.0  0.64037  0.30090  0.04574  1.0000
  C   C904      1.0  0.84280  0.09592  0.99641  1.0000
  N   N63       1.0  0.94005  0.29528  0.21418  1.0000
  H   H1063     1.0  0.67446  0.34524  0.01607  1.0000
  H   H1064     1.0  0.71135  0.34446  0.01822  1.0000
  H   H1065     1.0  0.68722  0.34651  0.03476  1.0000
  H   H1066     1.0  0.48696  0.17976  0.10116  1.0000
  H   H1067     1.0  0.83351  0.29762  0.00395  1.0000
  C   C905      1.0  0.55621  0.01146  0.15724  1.0000
  H   H1068     1.0  0.93225  0.36828  0.09614  1.0000
  H   H1069     1.0  0.62587  0.26734  0.03565  1.0000
  C   C906      1.0  0.89333  0.33827  0.99607  1.0000
  H   H1070     1.0  0.72390  0.33146  0.04236  1.0000
  C   C907      1.0  0.62584  0.03768  0.08260  1.0000
  H   H1071     1.0  0.96439  0.28458  0.10835  1.0000
  H   H1072     1.0  0.90401  0.25171  0.20980  1.0000
  C   C908      1.0  0.52679  0.37932  0.10266  1.0000
  H   H1073     1.0  0.85226  0.23068  0.09400  1.0000
  C   C909      1.0  0.90935  0.27653  0.20893  1.0000
  H   H1074     1.0  0.65581  0.12083  0.14988  1.0000
  N   N64       1.0  0.87125  0.31937  0.98565  1.0000
  H   H1075     1.0  0.93725  0.27165  0.14987  1.0000
  H   H1076     1.0  0.51517  0.11677  0.13413  1.0000
  H   H1077     1.0  0.74238  0.05371  0.11436  1.0000
  H   H1078     1.0  0.53844  0.44580  0.12991  1.0000
  H   H1079     1.0  0.54076  0.04542  0.12140  1.0000
  C   C910      1.0  0.53794  0.42889  0.12168  1.0000
  C   C911      1.0  0.58308  0.10901  0.13929  1.0000
  S   S254      1.0  0.59417  0.04466  0.17819  1.0000
  H   H1080     1.0  0.83994  0.34966  0.99965  1.0000
  H   H1081     1.0  0.90693  0.32635  0.00098  1.0000
  H   H1082     1.0  0.64081  0.10732  0.13238  1.0000
  H   H1083     1.0  0.65812  0.30200  0.00311  1.0000
  C   C912      1.0  0.86948  0.15083  0.99630  1.0000
  H   H1084     1.0  0.62247  0.08513  0.15078  1.0000
  C   C913      1.0  0.52840  0.00075  0.15017  1.0000
  H   H1085     1.0  0.96917  0.34350  0.21413  1.0000
  H   H1086     1.0  0.73418  0.10208  0.09094  1.0000
  C   C914      1.0  0.88965  0.19759  0.14595  1.0000
  H   H1087     1.0  0.50279  0.06822  0.12261  1.0000
  H   H1088     1.0  0.73319  0.03201  0.07602  1.0000
  H   H1089     1.0  0.96848  0.30067  0.19260  1.0000
  H   H1090     1.0  0.81506  0.22230  0.13430  1.0000
  C   C915      1.0  0.72159  0.26179  0.05246  1.0000
  Fe  Fe128     1.0  0.74117  0.44802  0.98425  1.0000
  H   H1091     1.0  0.68545  0.02050  0.07078  1.0000
  C   C916      1.0  0.66896  0.29069  0.01076  1.0000
  H   H1092     1.0  0.85784  0.27816  0.00113  1.0000
  H   H1093     1.0  0.95583  0.25163  0.98489  1.0000
  H   H1094     1.0  0.65361  0.16803  0.14236  1.0000
  C   C917      1.0  0.73080  0.29336  0.05142  1.0000
  C   C918      1.0  0.87101  0.20242  0.13535  1.0000
  H   H1095     1.0  0.90530  0.28107  0.13184  1.0000
  C   C919      1.0  0.86043  0.26924  0.11512  1.0000
  H   H1096     1.0  0.89087  0.24149  0.09950  1.0000
  S   S255      1.0  0.53852  0.31445  0.04299  1.0000
  H   H1097     1.0  0.95944  0.26577  0.20446  1.0000
  C   C920      1.0  0.89952  0.25735  0.13561  1.0000
  H   H1098     1.0  0.76557  0.06774  0.22581  1.0000
  C   C921      1.0  0.91328  0.22246  0.15128  1.0000
  C   C922      1.0  0.93986  0.28580  0.23069  1.0000
  H   H1099     1.0  0.88616  0.17441  0.14979  1.0000
  H   H1100     1.0  0.57788  0.30307  0.99115  1.0000
  H   H1101     1.0  0.80776  0.22230  0.11436  1.0000
  C   C923      1.0  0.67339  0.03081  0.07772  1.0000
  C   C924      1.0  0.60629  0.12658  0.16266  1.0000
  H   H1102     1.0  0.81487  0.37920  0.98759  1.0000
  H   H1103     1.0  0.89012  0.27902  0.21599  1.0000
  C   C925      1.0  0.56068  0.12155  0.13964  1.0000
  C   C926      1.0  0.54193  0.49720  0.19470  1.0000
  C   C927      1.0  0.49836  0.43971  0.11062  1.0000
  C   C928      1.0  0.52524  0.07985  0.12693  1.0000
  H   H1104     1.0  0.60249  0.03330  0.07989  1.0000
  C   C929      1.0  0.82247  0.21781  0.12269  1.0000
  H   H1105     1.0  0.73516  0.25178  0.05826  1.0000
  H   H1106     1.0  0.71091  0.00611  0.09283  1.0000
  H   H1107     1.0  0.85449  0.11913  0.01685  1.0000
  H   H1108     1.0  0.54205  0.34930  0.09064  1.0000
  Fe  Fe129     1.0  0.67816  0.01431  0.15219  1.0000
  S   S256      1.0  0.65868  0.00984  0.17712  1.0000
  H   H1109     1.0  0.96308  0.37018  0.11819  1.0000
  H   H1110     1.0  0.76460  0.08904  0.08909  1.0000
  H   H1111     1.0  0.50854  0.34464  0.06974  1.0000
  Fe  Fe130     1.0  0.69221  0.38187  0.98534  1.0000
  H   H1112     1.0  0.68858  0.21871  0.04643  1.0000
  C   C930      1.0  0.95708  0.35129  0.11117  1.0000
  H   H1113     1.0  0.55702  0.44126  0.11217  1.0000
  C   C931      1.0  0.53221  0.10709  0.13356  1.0000
  H   H1114     1.0  0.49501  0.04421  0.16569  1.0000
  H   H1115     1.0  0.59027  0.06945  0.13184  1.0000
  C   C932      1.0  0.50822  0.35861  0.07896  1.0000
  H   H1116     1.0  0.71678  0.46870  0.02266  1.0000
  H   H1117     1.0  0.67680  0.07450  0.10743  1.0000
  H   H1118     1.0  0.75090  0.03234  0.09317  1.0000
  C   C933      1.0  0.72857  0.02985  0.08880  1.0000
  H   H1119     1.0  0.87932  0.17096  0.00251  1.0000
  C   C934      1.0  0.51276  0.48984  0.18958  1.0000
  C   C935      1.0  0.93209  0.24595  0.98245  1.0000
  H   H1120     1.0  0.48846  0.37448  0.13234  1.0000
  S   S257      1.0  0.74788  0.49682  0.98659  1.0000
  H   H1121     1.0  0.52103  0.02580  0.22487  1.0000
  H   H1122     1.0  0.51315  0.45351  0.09995  1.0000
  S   S258      1.0  0.98481  0.32621  0.13149  1.0000
  C   C936      1.0  0.84722  0.29169  0.99495  1.0000
  H   H1123     1.0  0.49714  0.46608  0.18871  1.0000
  C   C937      1.0  0.48758  0.39105  0.09114  1.0000
  H   H1124     1.0  0.63386  0.01220  0.06479  1.0000
  C   C938      1.0  0.72494  0.48731  0.02991  1.0000
  H   H1125     1.0  0.57318  0.00223  0.15488  1.0000
  Fe  Fe131     1.0  0.48656  0.28628  0.04223  1.0000
  H   H1126     1.0  0.83032  0.27638  0.98764  1.0000
  H   H1127     1.0  0.93163  0.23863  0.22737  1.0000
  C   C939      1.0  0.74119  0.06072  0.22985  1.0000
  H   H1128     1.0  0.55255  0.00517  0.20952  1.0000
  C   C940      1.0  0.74674  0.48883  0.04005  1.0000
  C   C941      1.0  0.52854  0.99947  0.20745  1.0000
  H   H1129     1.0  0.66784  0.10182  0.28669  1.0000
  S   S259      1.0  0.95861  0.31287  0.30872  1.0000
  S   S260      1.0  0.94001  0.22175  0.30770  1.0000
  Fe  Fe132     1.0  0.76685  0.07803  0.31015  1.0000
  S   S261      1.0  0.71481  0.06472  0.31148  1.0000
  S   S262      1.0  0.79425  0.12900  0.31347  1.0000
  Fe  Fe133     1.0  0.70834  0.02189  0.32591  1.0000
  H   H1130     1.0  0.58736  0.06685  0.45085  1.0000
  Fe  Fe134     1.0  0.71581  0.03986  0.29067  1.0000
  S   S263      1.0  0.68662  0.04023  0.27114  1.0000
  S   S264      1.0  0.76029  0.03613  0.32590  1.0000
  S   S265      1.0  0.76775  0.05574  0.28833  1.0000
  H   H1131     1.0  0.71831  0.25272  0.45512  1.0000
  C   C942      1.0  0.66786  0.05231  0.45132  1.0000
  H   H1132     1.0  0.50621  0.34489  0.41928  1.0000
  H   H1133     1.0  0.82375  0.49290  0.43802  1.0000
  H   H1134     1.0  0.74876  0.06078  0.25398  1.0000
  H   H1135     1.0  0.61444  0.00645  0.44281  1.0000
  S   S266      1.0  0.78785  0.47940  0.37157  1.0000
  S   S267      1.0  0.79262  0.47462  0.41253  1.0000
  Fe  Fe135     1.0  0.81630  0.45673  0.36086  1.0000
  S   S268      1.0  0.79103  0.40496  0.35499  1.0000
  C   C943      1.0  0.85294  0.31371  0.46137  1.0000
  S   S269      1.0  0.85004  0.46700  0.37892  1.0000
  H   H1136     1.0  0.76956  0.27866  0.38634  1.0000
  Fe  Fe136     1.0  0.64617  0.33481  0.42704  1.0000
  S   S270      1.0  0.65231  0.36289  0.44685  1.0000
  S   S271      1.0  0.66405  0.36385  0.40426  1.0000
  Fe  Fe137     1.0  0.62208  0.27243  0.44745  1.0000
  S   S272      1.0  0.59921  0.21805  0.44787  1.0000
  Fe  Fe138     1.0  0.60522  0.32629  0.45672  1.0000
  S   S273      1.0  0.56140  0.33390  0.46625  1.0000
  Fe  Fe139     1.0  0.67667  0.33460  0.45565  1.0000
  S   S274      1.0  0.59811  0.29927  0.43613  1.0000
  S   S275      1.0  0.66992  0.30606  0.43572  1.0000
  C   C944      1.0  0.49137  0.10046  0.36856  1.0000
  H   H1137     1.0  0.63116  0.09787  0.46089  1.0000
  Fe  Fe140     1.0  0.82099  0.48904  0.38941  1.0000
  Fe  Fe141     1.0  0.62947  0.13077  0.37377  1.0000
  S   S276      1.0  0.61461  0.12044  0.39925  1.0000
  S   S277      1.0  0.61190  0.09002  0.35805  1.0000
  Fe  Fe142     1.0  0.66910  0.20373  0.37739  1.0000
  S   S278      1.0  0.65388  0.19427  0.40290  1.0000
  S   S279      1.0  0.70287  0.25601  0.36863  1.0000
  Fe  Fe143     1.0  0.66452  0.15279  0.40236  1.0000
  S   S280      1.0  0.70020  0.14083  0.41459  1.0000
  Fe  Fe144     1.0  0.60542  0.16304  0.39722  1.0000
  S   S281      1.0  0.56117  0.17088  0.40350  1.0000
  S   S282      1.0  0.68010  0.16201  0.37678  1.0000
  S   S283      1.0  0.62002  0.17346  0.37155  1.0000
  Fe  Fe145     1.0  0.50710  0.02698  0.43287  1.0000
  S   S284      1.0  0.52624  0.06793  0.44847  1.0000
  S   S285      1.0  0.52105  0.03553  0.40736  1.0000
  Fe  Fe146     1.0  0.92838  0.48299  0.43058  1.0000
  H   H1138     1.0  0.91343  0.47198  0.36399  1.0000
  S   S286      1.0  0.87735  0.44944  0.44213  1.0000
  C   C945      1.0  0.58804  0.04858  0.35848  1.0000
  C   C946      1.0  0.59148  0.03326  0.34574  1.0000
  H   H1139     1.0  0.60808  0.04634  0.33593  1.0000
  C   C947      1.0  0.58099  0.17595  0.44857  1.0000
  C   C948      1.0  0.58912  0.16043  0.43710  1.0000
  C   C949      1.0  0.57310  0.12792  0.43688  1.0000
  C   C950      1.0  0.54864  0.10962  0.44833  1.0000
  C   C951      1.0  0.54166  0.12499  0.46025  1.0000
  C   C952      1.0  0.55725  0.15746  0.46030  1.0000
  H   H1140     1.0  0.60696  0.17384  0.42789  1.0000
  H   H1141     1.0  0.57885  0.11719  0.42748  1.0000
  H   H1142     1.0  0.52316  0.11191  0.46930  1.0000
  H   H1143     1.0  0.55038  0.16820  0.46940  1.0000
  C   C953      1.0  0.53323  0.35046  0.46503  1.0000
  H   H1144     1.0  0.77136  0.18103  0.27918  1.0000
  C   C954      1.0  0.66670  0.10913  0.31027  1.0000
  H   H1145     1.0  0.65470  0.08212  0.42057  1.0000
  C   C955      1.0  0.51186  0.38497  0.45337  1.0000
  C   C956      1.0  0.53542  0.37355  0.45354  1.0000
  H   H1146     1.0  0.88885  0.26070  0.48071  1.0000
  H   H1147     1.0  0.76002  0.33637  0.42496  1.0000
  H   H1148     1.0  0.55530  0.38272  0.44479  1.0000
  C   C957      1.0  0.76947  0.38492  0.45532  1.0000
  H   H1149     1.0  0.73188  0.30798  0.44993  1.0000
  C   C958      1.0  0.82397  0.40987  0.46170  1.0000
  C   C959      1.0  0.83543  0.42483  0.44670  1.0000
  C   C960      1.0  0.81321  0.41957  0.43597  1.0000
  C   C961      1.0  0.78073  0.39970  0.44018  1.0000
  S   S287      1.0  0.72866  0.35892  0.46190  1.0000
  H   H1150     1.0  0.82094  0.43094  0.42435  1.0000
  H   H1151     1.0  0.76435  0.39614  0.43172  1.0000
  C   C962      1.0  0.76731  0.36345  0.35991  1.0000
  C   C963      1.0  0.75583  0.34880  0.37508  1.0000
  C   C964      1.0  0.73667  0.31635  0.37797  1.0000
  C   C965      1.0  0.72837  0.29746  0.36578  1.0000
  C   C966      1.0  0.74045  0.31216  0.35076  1.0000
  C   C967      1.0  0.75944  0.34430  0.34791  1.0000
  H   H1152     1.0  0.76128  0.36253  0.38465  1.0000
  H   H1153     1.0  0.72782  0.30613  0.38969  1.0000
  H   H1154     1.0  0.73473  0.29862  0.34111  1.0000
  H   H1155     1.0  0.76778  0.35451  0.33613  1.0000
  C   C968      1.0  0.75755  0.44236  0.41097  1.0000
  C   C969      1.0  0.73039  0.43771  0.42034  1.0000
  C   C970      1.0  0.70159  0.41418  0.41801  1.0000
  C   C971      1.0  0.69983  0.39467  0.40657  1.0000
  C   C972      1.0  0.72697  0.39944  0.39716  1.0000
  C   C973      1.0  0.75583  0.42293  0.39949  1.0000
  H   H1156     1.0  0.73145  0.45271  0.42917  1.0000
  H   H1157     1.0  0.68061  0.41178  0.42482  1.0000
  H   H1158     1.0  0.72567  0.38486  0.38812  1.0000
  H   H1159     1.0  0.77675  0.42595  0.39234  1.0000
  C   C974      1.0  0.74593  0.15411  0.46033  1.0000
  C   C975      1.0  0.75343  0.13827  0.44901  1.0000
  C   C976      1.0  0.73912  0.13442  0.43518  1.0000
  C   C977      1.0  0.71694  0.14609  0.43245  1.0000
  C   C978      1.0  0.70934  0.16184  0.44377  1.0000
  C   C979      1.0  0.72396  0.16606  0.45751  1.0000
  H   H1160     1.0  0.77018  0.12888  0.45094  1.0000
  H   H1161     1.0  0.74521  0.12213  0.42657  1.0000
  H   H1162     1.0  0.69205  0.17061  0.44200  1.0000
  H   H1163     1.0  0.71773  0.17816  0.46619  1.0000
  H   H1164     1.0  0.56368  0.27958  0.47791  1.0000
  C   C980      1.0  0.64687  0.08683  0.46075  1.0000
  H   H1165     1.0  0.83373  0.38514  0.36979  1.0000
  H   H1166     1.0  0.61985  0.05343  0.41492  1.0000
  C   C981      1.0  0.51367  0.12008  0.42068  1.0000
  C   C982      1.0  0.52909  0.15205  0.41823  1.0000
  C   C983      1.0  0.51716  0.16936  0.42682  1.0000
  C   C984      1.0  0.48731  0.11600  0.38125  1.0000
  C   C985      1.0  0.94443  0.29632  0.25778  1.0000
  H   H1167     1.0  0.52250  0.10631  0.41435  1.0000
  H   H1168     1.0  0.52867  0.19414  0.42496  1.0000
  H   H1169     1.0  0.80244  0.24754  0.41790  1.0000
  H   H1170     1.0  0.73758  0.18573  0.27366  1.0000
  C   C986      1.0  0.73419  0.22497  0.40194  1.0000
  C   C987      1.0  0.56611  0.03037  0.37097  1.0000
  C   C988      1.0  0.64660  0.02605  0.36733  1.0000
  C   C989      1.0  0.62653  0.02559  0.38032  1.0000
  H   H1171     1.0  0.66225  0.04766  0.36100  1.0000
  H   H1172     1.0  0.62769  0.04699  0.38402  1.0000
  C   C990      1.0  0.70018  0.04746  0.25116  1.0000
  H   H1173     1.0  0.58265  0.01211  0.43603  1.0000
  S   S288      1.0  0.76271  0.15940  0.47820  1.0000
  C   C991      1.0  0.89926  0.19648  0.30956  1.0000
  C   C992      1.0  0.89023  0.16559  0.30683  1.0000
  C   C993      1.0  0.85839  0.14463  0.30798  1.0000
  C   C994      1.0  0.83496  0.15428  0.31188  1.0000
  C   C995      1.0  0.84393  0.18513  0.31468  1.0000
  C   C996      1.0  0.87580  0.20609  0.31352  1.0000
  H   H1174     1.0  0.90809  0.15778  0.30380  1.0000
  H   H1175     1.0  0.85207  0.12104  0.30585  1.0000
  H   H1176     1.0  0.82613  0.19296  0.31775  1.0000
  H   H1177     1.0  0.88224  0.22969  0.31569  1.0000
  H   H1178     1.0  0.51887  0.26430  0.46121  1.0000
  H   H1179     1.0  0.76902  0.12988  0.28471  1.0000
  H   H1180     1.0  0.76501  0.12548  0.26466  1.0000
  C   C997      1.0  0.73961  0.24971  0.43299  1.0000
  H   H1181     1.0  0.52412  0.10567  0.34074  1.0000
  C   C998      1.0  0.89771  0.42240  0.38860  1.0000
  H   H1182     1.0  0.84016  0.41332  0.47026  1.0000
  C   C999      1.0  0.75169  0.12220  0.27619  1.0000
  C   C1000     1.0  0.80942  0.32709  0.45878  1.0000
  C   C1001     1.0  0.64547  0.06467  0.45048  1.0000
  H   H1183     1.0  0.65398  0.03519  0.24435  1.0000
  H   H1184     1.0  0.89617  0.42095  0.41340  1.0000
  C   C1002     1.0  0.88066  0.41392  0.37565  1.0000
  H   H1185     1.0  0.64197  0.09411  0.31265  1.0000
  H   H1186     1.0  0.69376  0.13891  0.26392  1.0000
  C   C1003     1.0  0.93510  0.25531  0.23555  1.0000
  C   C1004     1.0  0.75598  0.26511  0.41847  1.0000
  C   C1005     1.0  0.78258  0.26755  0.39251  1.0000
  H   H1187     1.0  0.49190  0.31184  0.44399  1.0000
  C   C1006     1.0  0.97093  0.40355  0.38236  1.0000
  H   H1188     1.0  0.94861  0.31235  0.26643  1.0000
  H   H1189     1.0  0.71940  0.20797  0.41174  1.0000
  N   N65       1.0  0.74649  0.08881  0.36599  1.0000
  C   C1007     1.0  0.73765  0.09647  0.35084  1.0000
  C   C1008     1.0  0.73652  0.05510  0.36797  1.0000
  C   C1009     1.0  0.72872  0.09707  0.37818  1.0000
  C   C1010     1.0  0.78043  0.10483  0.36729  1.0000
  C   C1011     1.0  0.79295  0.09853  0.38067  1.0000
  C   C1012     1.0  0.80198  0.12673  0.35549  1.0000
  C   C1013     1.0  0.82507  0.11246  0.38190  1.0000
  C   C1014     1.0  0.83405  0.14039  0.35679  1.0000
  C   C1015     1.0  0.84559  0.13318  0.36993  1.0000
  H   H1190     1.0  0.75015  0.09066  0.34116  1.0000
  H   H1191     1.0  0.71223  0.08346  0.34996  1.0000
  H   H1192     1.0  0.74281  0.12122  0.34888  1.0000
  H   H1193     1.0  0.73868  0.04655  0.37973  1.0000
  H   H1194     1.0  0.75057  0.04815  0.35956  1.0000
  H   H1195     1.0  0.71157  0.04223  0.36614  1.0000
  H   H1196     1.0  0.70306  0.08588  0.37737  1.0000
  H   H1197     1.0  0.73217  0.08993  0.38999  1.0000
  H   H1198     1.0  0.73599  0.12233  0.37731  1.0000
  H   H1199     1.0  0.77799  0.08261  0.39025  1.0000
  H   H1200     1.0  0.79481  0.13362  0.34504  1.0000
  H   H1201     1.0  0.83416  0.10702  0.39215  1.0000
  Fe  Fe147     1.0  0.97108  0.27250  0.31036  1.0000
  H   H1202     1.0  0.87979  0.27113  0.46238  1.0000
  C   C1016     1.0  0.73122  0.26510  0.44419  1.0000
  C   C1017     1.0  0.60130  0.02085  0.44380  1.0000
  H   H1203     1.0  0.67115  0.11913  0.33382  1.0000
  H   H1204     1.0  0.96178  0.40073  0.39434  1.0000
  C   C1018     1.0  0.48744  0.10567  0.43178  1.0000
  C   C1019     1.0  0.73172  0.05688  0.24583  1.0000
  H   H1205     1.0  0.87052  0.14373  0.37082  1.0000
  C   C1020     1.0  0.84005  0.33192  0.45424  1.0000
  H   H1206     1.0  0.54467  0.13734  0.35144  1.0000
  H   H1207     1.0  0.69055  0.47583  0.41431  1.0000
  H   H1208     1.0  0.85406  0.35031  0.44531  1.0000
  H   H1209     1.0  0.85007  0.15652  0.34744  1.0000
  C   C1021     1.0  0.73063  0.14658  0.30457  1.0000
  C   C1022     1.0  0.78128  0.23143  0.41312  1.0000
  H   H1210     1.0  0.75563  0.16020  0.30316  1.0000
  H   H1211     1.0  0.69451  0.45894  0.39720  1.0000
  H   H1212     1.0  0.66750  0.47583  0.39859  1.0000
  C   C1023     1.0  0.79178  0.39053  0.46592  1.0000
  H   H1213     1.0  0.78409  0.37966  0.47763  1.0000
  H   H1214     1.0  0.78847  0.25399  0.38402  1.0000
  Fe  Fe148     1.0  0.75709  0.01259  0.30406  1.0000
  C   C1024     1.0  0.71444  0.13335  0.29196  1.0000
  H   H1215     1.0  0.73859  0.21157  0.39290  1.0000
  N   N66       1.0  0.62832  0.27378  0.38786  1.0000
  C   C1025     1.0  0.60036  0.27852  0.39310  1.0000
  C   C1026     1.0  0.61846  0.24097  0.38552  1.0000
  C   C1027     1.0  0.64885  0.28009  0.40045  1.0000
  C   C1028     1.0  0.64381  0.29381  0.37332  1.0000
  C   C1029     1.0  0.67035  0.32231  0.37295  1.0000
  C   C1030     1.0  0.63154  0.28591  0.35907  1.0000
  C   C1031     1.0  0.68431  0.34104  0.35915  1.0000
  C   C1032     1.0  0.64601  0.30457  0.34526  1.0000
  C   C1033     1.0  0.67246  0.33201  0.34530  1.0000
  H   H1216     1.0  0.58361  0.27330  0.38428  1.0000
  H   H1217     1.0  0.58766  0.26347  0.40392  1.0000
  H   H1218     1.0  0.60698  0.30281  0.39543  1.0000
  H   H1219     1.0  0.59770  0.23165  0.37908  1.0000
  H   H1220     1.0  0.61145  0.22613  0.39668  1.0000
  H   H1221     1.0  0.63789  0.23751  0.37931  1.0000
  H   H1222     1.0  0.65426  0.30301  0.40432  1.0000
  H   H1223     1.0  0.63751  0.26357  0.41099  1.0000
  H   H1224     1.0  0.67111  0.27859  0.39675  1.0000
  H   H1225     1.0  0.68111  0.33061  0.38316  1.0000
  H   H1226     1.0  0.61075  0.26522  0.35848  1.0000
  H   H1227     1.0  0.70478  0.36253  0.35922  1.0000
  H   H1228     1.0  0.63668  0.29773  0.33448  1.0000
  H   H1229     1.0  0.68383  0.34640  0.33462  1.0000
  C   C1034     1.0  0.88290  0.41321  0.40370  1.0000
  N   N67       1.0  0.76360  0.24785  0.40666  1.0000
  H   H1230     1.0  0.64844  0.04258  0.42184  1.0000
  H   H1231     1.0  0.51402  0.40269  0.44450  1.0000
  H   H1232     1.0  0.53028  0.05618  0.36111  1.0000
  H   H1233     1.0  0.70880  0.09094  0.47950  1.0000
  C   C1035     1.0  0.66932  0.09580  0.47117  1.0000
  H   H1234     1.0  0.54985  0.23783  0.46157  1.0000
  H   H1235     1.0  0.66815  0.03534  0.44389  1.0000
  C   C1036     1.0  0.50972  0.06122  0.36381  1.0000
  H   H1236     1.0  0.55936  0.10898  0.34833  1.0000
  H   H1237     1.0  0.95637  0.35491  0.38104  1.0000
  H   H1238     1.0  0.69689  0.10270  0.26547  1.0000
  C   C1037     1.0  0.94453  0.30612  0.24233  1.0000
  H   H1239     1.0  0.51195  0.47723  0.42760  1.0000
  C   C1038     1.0  0.71510  0.14179  0.31941  1.0000
  H   H1240     1.0  0.71787  0.48957  0.37305  1.0000
  C   C1039     1.0  0.80416  0.28587  0.47778  1.0000
  H   H1241     1.0  0.58978  0.01650  0.45583  1.0000
  N   N68       1.0  0.51930  0.09431  0.36540  1.0000
  C   C1040     1.0  0.60116  0.07040  0.43945  1.0000
  S   S289      1.0  0.97204  0.47362  0.42993  1.0000
  H   H1242     1.0  0.58367  0.06211  0.43101  1.0000
  H   H1243     1.0  0.76227  0.17704  0.25995  1.0000
  H   H1244     1.0  0.70754  0.05226  0.46201  1.0000
  H   H1245     1.0  0.77516  0.31058  0.40509  1.0000
  H   H1246     1.0  0.56330  0.04111  0.38104  1.0000
  C   C1041     1.0  0.57501  0.00088  0.34578  1.0000
  C   C1042     1.0  0.83381  0.38469  0.39398  1.0000
  H   H1247     1.0  0.73750  0.09713  0.27911  1.0000
  H   H1248     1.0  0.92257  0.43648  0.38728  1.0000
  C   C1043     1.0  0.93983  0.26630  0.26212  1.0000
  C   C1044     1.0  0.75475  0.31217  0.42716  1.0000
  H   H1249     1.0  0.83959  0.38793  0.41809  1.0000
  H   H1250     1.0  0.56033  0.09602  0.37549  1.0000
  C   C1045     1.0  0.73880  0.29625  0.44128  1.0000
  H   H1251     1.0  0.94015  0.25895  0.27411  1.0000
  C   C1046     1.0  0.83523  0.28990  0.47335  1.0000
  C   C1047     1.0  0.71043  0.12808  0.26405  1.0000
  C   C1048     1.0  0.50694  0.33915  0.47614  1.0000
  C   C1049     1.0  0.64604  0.99856  0.36261  1.0000
  H   H1252     1.0  0.72370  0.13343  0.25236  1.0000
  H   H1253     1.0  0.78889  0.21966  0.40424  1.0000
  H   H1254     1.0  0.72805  0.15236  0.32877  1.0000
  C   C1050     1.0  0.84838  0.39374  0.37883  1.0000
  C   C1051     1.0  0.85099  0.39458  0.40637  1.0000
  N   N69       1.0  0.89634  0.42438  0.35966  1.0000
  C   C1052     1.0  0.87441  0.42452  0.34834  1.0000
  C   C1053     1.0  0.92166  0.45611  0.35846  1.0000
  C   C1054     1.0  0.91018  0.40330  0.35512  1.0000
  H   H1255     1.0  0.86102  0.43763  0.35204  1.0000
  C   C1055     1.0  0.49094  0.15485  0.43811  1.0000
  H   H1256     1.0  0.85739  0.40104  0.34658  1.0000
  H   H1257     1.0  0.55094  0.12754  0.37876  1.0000
  C   C1056     1.0  0.69033  0.06163  0.46171  1.0000
  H   H1258     1.0  0.92353  0.41076  0.34343  1.0000
  H   H1259     1.0  0.92662  0.40216  0.36329  1.0000
  H   H1260     1.0  0.89197  0.37947  0.35513  1.0000
  C   C1057     1.0  0.69100  0.08328  0.47164  1.0000
  H   H1261     1.0  0.72010  0.23646  0.39722  1.0000
  S   S290      1.0  0.62948  0.29935  0.46841  1.0000
  Fe  Fe149     1.0  0.97844  0.48844  0.40433  1.0000
  C   C1058     1.0  0.69094  0.47866  0.40153  1.0000
  H   H1262     1.0  0.94252  0.45719  0.36388  1.0000
  H   H1263     1.0  0.48917  0.01194  0.47455  1.0000
  H   H1264     1.0  0.88680  0.43511  0.33667  1.0000
  C   C1059     1.0  0.63690  0.05818  0.42360  1.0000
  H   H1265     1.0  0.76703  0.21300  0.42249  1.0000
  H   H1266     1.0  0.87695  0.31906  0.45741  1.0000
  C   C1060     1.0  0.76329  0.29697  0.41584  1.0000
  C   C1061     1.0  0.79154  0.30421  0.47055  1.0000
  C   C1062     1.0  0.67843  0.04247  0.24036  1.0000
  H   H1267     1.0  0.73264  0.22544  0.43572  1.0000
  H   H1268     1.0  0.50447  0.12439  0.38928  1.0000
  H   H1269     1.0  0.55196  0.21612  0.47818  1.0000
  S   S291      1.0  0.97470  0.34637  0.35017  1.0000
  H   H1270     1.0  0.93082  0.46602  0.34631  1.0000
  H   H1271     1.0  0.79965  0.34143  0.45330  1.0000
  H   H1272     1.0  0.80504  0.28560  0.39523  1.0000
  N   N70       1.0  0.62158  0.05392  0.43956  1.0000
  C   C1063     1.0  0.88005  0.27607  0.47464  1.0000
  H   H1273     1.0  0.80894  0.37040  0.39610  1.0000
  C   C1064     1.0  0.54047  0.10245  0.37773  1.0000
  C   C1065     1.0  0.48553  0.37328  0.46460  1.0000
  N   N71       1.0  0.73146  0.13877  0.27632  1.0000
  C   C1066     1.0  0.53758  0.11235  0.35082  1.0000
  C   C1067     1.0  0.75143  0.17205  0.27214  1.0000
  C   C1068     1.0  0.96794  0.37753  0.37476  1.0000
  H   H1274     1.0  0.67046  0.11315  0.47871  1.0000
  H   H1275     1.0  0.61506  0.09546  0.43615  1.0000
  S   S292      1.0  0.93484  0.49660  0.40495  1.0000
  H   H1276     1.0  0.94905  0.32993  0.23983  1.0000
  H   H1277     1.0  0.74872  0.48837  0.39491  1.0000
  H   H1278     1.0  0.49495  0.05300  0.35434  1.0000
  C   C1069     1.0  0.68195  0.11397  0.29532  1.0000
  C   C1070     1.0  0.68317  0.12313  0.32226  1.0000
  H   H1279     1.0  0.82317  0.23130  0.47003  1.0000
  H   H1280     1.0  0.52790  0.09027  0.38910  1.0000
  H   H1281     1.0  0.93172  0.22250  0.25450  1.0000
  H   H1282     1.0  0.76790  0.30104  0.47424  1.0000
  H   H1283     1.0  0.89781  0.29981  0.47543  1.0000
  H   H1284     1.0  0.51179  0.04769  0.48094  1.0000
  C   C1071     1.0  0.50381  0.25057  0.47187  1.0000
  C   C1072     1.0  0.48991  0.47872  0.43008  1.0000
  C   C1073     1.0  0.93512  0.24581  0.25103  1.0000
  H   H1285     1.0  0.49608  0.26662  0.47750  1.0000
  H   H1286     1.0  0.51751  0.20189  0.46795  1.0000
  C   C1074     1.0  0.97981  0.38039  0.35914  1.0000
  C   C1075     1.0  0.53549  0.22270  0.47207  1.0000
  H   H1287     1.0  0.49645  0.04683  0.37464  1.0000
  H   H1288     1.0  0.74523  0.99875  0.26404  1.0000
  C   C1076     1.0  0.54906  0.99788  0.37087  1.0000
  N   N72       1.0  0.84849  0.27107  0.48164  1.0000
  C   C1077     1.0  0.82781  0.23785  0.48188  1.0000
  N   N73       1.0  0.52098  0.23839  0.48191  1.0000
  H   H1289     1.0  0.52875  0.39578  0.68923  1.0000
  S   S293      1.0  0.80670  0.16832  0.51301  1.0000
  S   S294      1.0  0.74501  0.04772  0.68043  1.0000
  C   C1078     1.0  0.72751  0.99955  0.70316  1.0000
  S   S295      1.0  0.78344  0.09770  0.50493  1.0000
  H   H1290     1.0  0.65954  0.08166  0.62169  1.0000
  Fe  Fe150     1.0  0.79914  0.12337  0.52572  1.0000
  S   S296      1.0  0.77083  0.09815  0.54881  1.0000
  S   S297      1.0  0.84956  0.13221  0.52060  1.0000
  C   C1079     1.0  0.66911  0.09450  0.59139  1.0000
  Fe  Fe151     1.0  0.85661  0.17584  0.50630  1.0000
  Fe  Fe152     1.0  0.73943  0.14942  0.67075  1.0000
  S   S298      1.0  0.70283  0.10363  0.68123  1.0000
  S   S299      1.0  0.75576  0.19283  0.68294  1.0000
  Fe  Fe153     1.0  0.74467  0.12653  0.63888  1.0000
  S   S300      1.0  0.70891  0.07862  0.64713  1.0000
  S   S301      1.0  0.76921  0.14826  0.61473  1.0000
  Fe  Fe154     1.0  0.68175  0.10165  0.65884  1.0000
  S   S302      1.0  0.62909  0.08052  0.65927  1.0000
  Fe  Fe155     1.0  0.73268  0.08425  0.66888  1.0000
  H   H1291     1.0  0.52749  0.49304  0.67645  1.0000
  S   S303      1.0  0.71571  0.14907  0.64928  1.0000
  S   S304      1.0  0.77107  0.13057  0.65972  1.0000
  S   S305      1.0  0.54118  0.13973  0.63499  1.0000
  H   H1292     1.0  0.49349  0.01428  0.49481  1.0000
  H   H1293     1.0  0.80485  0.23077  0.48882  1.0000
  H   H1294     1.0  0.53243  0.25211  0.67070  1.0000
  N   N74       1.0  0.81355  0.03402  0.54469  1.0000
  H   H1295     1.0  0.66736  0.19393  0.66467  1.0000
  Fe  Fe156     1.0  0.79482  0.14372  0.49164  1.0000
  H   H1296     1.0  0.51822  0.19827  0.69479  1.0000
  C   C1080     1.0  0.84062  0.03234  0.49426  1.0000
  H   H1297     1.0  0.93434  0.36389  0.71885  1.0000
  H   H1298     1.0  0.97652  0.48340  0.69100  1.0000
  C   C1081     1.0  0.49869  0.18892  0.50011  1.0000
  C   C1082     1.0  0.77397  0.19652  0.70019  1.0000
  C   C1083     1.0  0.77426  0.17114  0.70880  1.0000
  C   C1084     1.0  0.78876  0.17493  0.72251  1.0000
  H   H1299     1.0  0.82473  0.04718  0.56740  1.0000
  C   C1085     1.0  0.80304  0.22946  0.71907  1.0000
  C   C1086     1.0  0.78838  0.22565  0.70541  1.0000
  H   H1300     1.0  0.76321  0.14859  0.70494  1.0000
  N   N75       1.0  0.65988  0.17742  0.68878  1.0000
  H   H1301     1.0  0.56006  0.06886  0.61722  1.0000
  H   H1302     1.0  0.78825  0.24540  0.69883  1.0000
  H   H1303     1.0  0.81607  0.07378  0.55566  1.0000
  H   H1304     1.0  0.94807  0.29021  0.70070  1.0000
  H   H1305     1.0  0.55935  0.25642  0.49561  1.0000
  C   C1087     1.0  0.60537  0.09782  0.65247  1.0000
  C   C1088     1.0  0.57279  0.08081  0.65461  1.0000
  C   C1089     1.0  0.55284  0.09357  0.64952  1.0000
  C   C1090     1.0  0.56540  0.12349  0.64221  1.0000
  C   C1091     1.0  0.59801  0.14060  0.64011  1.0000
  C   C1092     1.0  0.61797  0.12784  0.64522  1.0000
  H   H1306     1.0  0.56287  0.05759  0.66024  1.0000
  H   H1307     1.0  0.52778  0.08016  0.65113  1.0000
  H   H1308     1.0  0.60780  0.16370  0.63436  1.0000
  H   H1309     1.0  0.64297  0.14119  0.64346  1.0000
  H   H1310     1.0  0.87127  0.23969  0.72027  1.0000
  H   H1311     1.0  0.68347  0.03776  0.69449  1.0000
  N   N76       1.0  0.89863  0.26571  0.69912  1.0000
  C   C1093     1.0  0.76192  0.07074  0.72155  1.0000
  C   C1094     1.0  0.77137  0.11241  0.56711  1.0000
  C   C1095     1.0  0.75390  0.09195  0.58013  1.0000
  C   C1096     1.0  0.75335  0.10230  0.59485  1.0000
  C   C1097     1.0  0.77013  0.13336  0.59669  1.0000
  C   C1098     1.0  0.78756  0.15376  0.58368  1.0000
  C   C1099     1.0  0.78830  0.14338  0.56899  1.0000
  H   H1312     1.0  0.74071  0.06793  0.57881  1.0000
  H   H1313     1.0  0.73992  0.08631  0.60474  1.0000
  H   H1314     1.0  0.80060  0.17783  0.58495  1.0000
  H   H1315     1.0  0.80181  0.15940  0.55912  1.0000
  C   C1100     1.0  0.85835  0.24450  0.66273  1.0000
  C   C1101     1.0  0.95450  0.23802  0.50214  1.0000
  H   H1316     1.0  0.86625  0.30369  0.49813  1.0000
  H   H1317     1.0  0.76769  0.02475  0.53825  1.0000
  H   H1318     1.0  0.82198  0.17540  0.68408  1.0000
  H   H1319     1.0  0.95279  0.40587  0.69732  1.0000
  H   H1320     1.0  0.82803  0.27364  0.50416  1.0000
  H   H1321     1.0  0.66194  0.15485  0.66843  1.0000
  H   H1322     1.0  0.69234  0.15460  0.58497  1.0000
  H   H1323     1.0  0.48733  0.39801  0.49635  1.0000
  H   H1324     1.0  0.85832  0.25560  0.65154  1.0000
  C   C1102     1.0  0.49837  0.37206  0.71002  1.0000
  H   H1325     1.0  0.86149  0.26561  0.50441  1.0000
  C   C1103     1.0  0.98418  0.31068  0.59110  1.0000
  H   H1326     1.0  0.70456  0.21136  0.69368  1.0000
  Fe  Fe157     1.0  0.83426  0.10813  0.49930  1.0000
  H   H1327     1.0  0.50444  0.32150  0.48512  1.0000
  C   C1104     1.0  0.80960  0.04885  0.55857  1.0000
  C   C1105     1.0  0.83833  0.21366  0.66664  1.0000
  H   H1328     1.0  0.88685  0.03403  0.49429  1.0000
  C   C1106     1.0  0.54647  0.26449  0.48758  1.0000
  S   S306      1.0  0.49750  0.42463  0.67200  1.0000
  H   H1329     1.0  0.93765  0.25829  0.68938  1.0000
  H   H1330     1.0  0.91129  0.26255  0.72222  1.0000
  H   H1331     1.0  0.79619  0.02956  0.52237  1.0000
  C   C1107     1.0  0.87802  0.26114  0.67324  1.0000
  H   H1332     1.0  0.67891  0.22689  0.68695  1.0000
  H   H1333     1.0  0.82260  0.20092  0.65861  1.0000
  H   H1334     1.0  0.53768  0.27931  0.49375  1.0000
  H   H1335     1.0  0.85323  0.07610  0.53557  1.0000
  C   C1108     1.0  0.57529  0.11365  0.60509  1.0000
  C   C1109     1.0  0.63083  0.14089  0.59706  1.0000
  H   H1336     1.0  0.94675  0.21359  0.50172  1.0000
  H   H1337     1.0  0.78955  0.26882  0.48706  1.0000
  C   C1110     1.0  0.67228  0.17789  0.67263  1.0000
  H   H1338     1.0  0.92640  0.29150  0.50703  1.0000
  C   C1111     1.0  0.87792  0.24736  0.68813  1.0000
  H   H1339     1.0  0.65178  0.07056  0.59521  1.0000
  C   C1112     1.0  0.58257  0.18534  0.69396  1.0000
  H   H1340     1.0  0.49118  0.07759  0.49261  1.0000
  C   C1113     1.0  0.83804  0.19930  0.68103  1.0000
  C   C1114     1.0  0.97548  0.30161  0.50317  1.0000
  C   C1115     1.0  0.60069  0.13966  0.59798  1.0000
  H   H1341     1.0  0.56042  0.46753  0.67716  1.0000
  C   C1116     1.0  0.94316  0.28189  0.50512  1.0000
  H   H1342     1.0  0.93715  0.29373  0.68189  1.0000
  H   H1343     1.0  0.85493  0.20337  0.70284  1.0000
  S   S307      1.0  0.85451  0.07306  0.49451  1.0000
  C   C1117     1.0  0.50650  0.39042  0.69579  1.0000
  H   H1344     1.0  0.86634  0.28428  0.70647  1.0000
  H   H1345     1.0  0.71693  0.14663  0.59714  1.0000
  H   H1346     1.0  0.67018  0.11983  0.62672  1.0000
  S   S308      1.0  0.96014  0.32096  0.72877  1.0000
  H   H1347     1.0  0.90565  0.30570  0.71084  1.0000
  H   H1348     1.0  0.89653  0.30858  0.69165  1.0000
  C   C1118     1.0  0.95558  0.36884  0.71144  1.0000
  H   H1349     1.0  0.90125  0.22827  0.71305  1.0000
  C   C1119     1.0  0.93237  0.24994  0.50463  1.0000
  H   H1350     1.0  0.50137  0.31232  0.70054  1.0000
  C   C1120     1.0  0.69029  0.02134  0.70024  1.0000
  C   C1121     1.0  0.48605  0.40181  0.68998  1.0000
  H   H1351     1.0  0.69804  0.18529  0.67142  1.0000
  H   H1352     1.0  0.51438  0.36358  0.71441  1.0000
  C   C1122     1.0  0.89144  0.29217  0.70209  1.0000
  H   H1353     1.0  0.64758  1.00000  0.71562  1.0000
  H   H1354     1.0  0.68892  0.15787  0.69863  1.0000
  C   C1123     1.0  0.61417  0.19170  0.69434  1.0000
  C   C1124     1.0  0.67429  0.10624  0.61773  1.0000
  C   C1125     1.0  0.85114  0.27887  0.49776  1.0000
  C   C1126     1.0  0.62632  0.17089  0.68934  1.0000
  H   H1355     1.0  0.79194  0.02227  0.49396  1.0000
  H   H1356     1.0  0.62857  0.21317  0.69848  1.0000
  C   C1127     1.0  0.85727  0.21578  0.69173  1.0000
  H   H1357     1.0  0.58920  0.49645  0.68671  1.0000
  C   C1128     1.0  0.63636  0.11591  0.60346  1.0000
  H   H1358     1.0  0.89307  0.28502  0.66969  1.0000
  C   C1129     1.0  0.89536  0.24814  0.71427  1.0000
  C   C1130     1.0  0.60479  0.14332  0.68429  1.0000
  C   C1131     1.0  0.49423  0.19525  0.69523  1.0000
  C   C1132     1.0  0.66376  0.15309  0.69850  1.0000
  S   S309      1.0  0.89113  0.22634  0.50744  1.0000
  H   H1359     1.0  0.61224  0.12635  0.68036  1.0000
  H   H1360     1.0  0.67201  0.20829  0.70649  1.0000
  H   H1361     1.0  0.54458  0.48346  0.65204  1.0000
  H   H1362     1.0  0.65366  0.15118  0.71064  1.0000
  C   C1133     1.0  0.51586  0.47450  0.51013  1.0000
  C   C1134     1.0  0.56228  0.15835  0.68859  1.0000
  C   C1135     1.0  0.49988  0.21823  0.49536  1.0000
  H   H1363     1.0  0.71349  0.06115  0.72637  1.0000
  S   S310      1.0  0.50867  0.23221  0.71857  1.0000
  H   H1364     1.0  0.51234  0.17924  0.49387  1.0000
  H   H1365     1.0  0.80913  0.07548  0.71927  1.0000
  H   H1366     1.0  0.69892  0.10913  0.61760  1.0000
  H   H1367     1.0  0.53794  0.15376  0.68804  1.0000
  C   C1136     1.0  0.97250  0.35144  0.71391  1.0000
  H   H1368     1.0  0.98320  0.32605  0.50351  1.0000
  C   C1137     1.0  0.67949  0.20734  0.69423  1.0000
  H   H1369     1.0  0.65232  0.13014  0.69428  1.0000
  C   C1138     1.0  0.84648  0.05101  0.53770  1.0000
  C   C1139     1.0  0.80614  0.00102  0.54800  1.0000
  C   C1140     1.0  0.93174  0.27745  0.69244  1.0000
  C   C1141     1.0  0.57334  0.13732  0.68385  1.0000
  H   H1370     1.0  0.52294  0.49743  0.50360  1.0000
  H   H1371     1.0  0.55756  0.11640  0.67959  1.0000
  H   H1372     1.0  0.96345  0.29014  0.54657  1.0000
  H   H1373     1.0  0.86289  0.04756  0.54526  1.0000
  H   H1374     1.0  0.59692  0.15915  0.59338  1.0000
  C   C1142     1.0  0.80321  0.20407  0.72773  1.0000
  H   H1375     1.0  0.55210  0.11317  0.60614  1.0000
  C   C1143     1.0  0.96613  0.39266  0.69929  1.0000
  H   H1376     1.0  0.60012  0.48481  0.66895  1.0000
  H   H1377     1.0  0.66415  0.10095  0.57976  1.0000
  S   S311      1.0  0.84503  0.15285  0.48445  1.0000
  C   C1144     1.0  0.57984  0.08870  0.61132  1.0000
  C   C1145     1.0  0.69348  0.14681  0.59708  1.0000
  C   C1146     1.0  0.79274  0.03766  0.53364  1.0000
  C   C1147     1.0  0.71918  0.02132  0.69566  1.0000
  C   C1148     1.0  0.60982  0.08962  0.61047  1.0000
  N   N77       1.0  0.66783  0.11612  0.60242  1.0000
  C   C1149     1.0  0.48805  0.45067  0.48919  1.0000
  H   H1378     1.0  0.79718  0.06216  0.53111  1.0000
  H   H1379     1.0  0.69321  0.16429  0.60475  1.0000
  H   H1380     1.0  0.69257  0.09425  0.59003  1.0000
  H   H1381     1.0  0.64935  0.16176  0.59139  1.0000
  C   C1150     1.0  0.80894  0.01273  0.49427  1.0000
  H   H1382     1.0  0.48821  0.33322  0.67745  1.0000
  H   H1383     1.0  0.51504  0.27916  0.68873  1.0000
  H   H1384     1.0  0.61197  0.06963  0.61552  1.0000
  C   C1151     1.0  0.50053  0.27004  0.67967  1.0000
  H   H1385     1.0  0.96482  0.29594  0.59952  1.0000
  H   H1386     1.0  0.81377  0.25194  0.72304  1.0000
  H   H1387     1.0  0.96613  0.28302  0.57322  1.0000
  C   C1152     1.0  0.78631  0.06405  0.72588  1.0000
  H   H1388     1.0  0.85076  0.04387  0.52624  1.0000
  C   C1153     1.0  0.58175  0.48974  0.67522  1.0000
  C   C1154     1.0  0.73251  0.05618  0.72992  1.0000
  H   H1389     1.0  0.53462  0.46674  0.50743  1.0000
  H   H1390     1.0  0.98351  0.26669  0.55206  1.0000
  Fe  Fe158     1.0  0.48841  0.11500  0.63998  1.0000
  C   C1155     1.0  0.86227  0.01924  0.49438  1.0000
  H   H1391     1.0  0.78479  0.03883  0.56378  1.0000
  H   H1392     1.0  0.78873  0.15516  0.72914  1.0000
  H   H1393     1.0  0.50760  0.44505  0.48499  1.0000
  H   H1394     1.0  0.57377  0.20156  0.69774  1.0000
  C   C1156     1.0  0.51098  0.25452  0.66930  1.0000
  H   H1395     1.0  0.76567  0.08691  0.71153  1.0000
  H   H1396     1.0  0.50099  0.22809  0.64987  1.0000
  C   C1157     1.0  0.49017  0.02612  0.48420  1.0000
  H   H1397     1.0  0.51494  0.47756  0.52264  1.0000
  C   C1158     1.0  0.49331  0.24098  0.65756  1.0000
  H   H1398     1.0  0.83836  0.22319  0.48715  1.0000
  H   H1399     1.0  0.49248  0.47294  0.48267  1.0000
  N   N78       1.0  0.48549  0.45200  0.50617  1.0000
  C   C1159     1.0  0.66993  0.99981  0.71220  1.0000
  H   H1400     1.0  0.74975  0.99931  0.69959  1.0000
  Fe  Fe159     1.0  0.91750  0.17979  0.90614  1.0000
  S   S312      1.0  0.87876  0.19446  0.90951  1.0000
  S   S313      1.0  0.90987  0.13006  0.90897  1.0000
  S   S314      1.0  0.93116  0.26550  0.90194  1.0000
  Fe  Fe160     1.0  0.91080  0.23063  0.92297  1.0000
  S   S315      1.0  0.88411  0.23544  0.94472  1.0000
  Fe  Fe161     1.0  0.90213  0.22771  0.88836  1.0000
  S   S316      1.0  0.87060  0.23055  0.87052  1.0000
  S   S317      1.0  0.94856  0.21368  0.92098  1.0000
  S   S318      1.0  0.93858  0.21010  0.88402  1.0000
  C   C1160     1.0  0.71620  0.39894  0.76539  1.0000
  S   S319      1.0  0.71259  0.42083  0.96637  1.0000
  Fe  Fe162     1.0  0.75085  0.40542  0.96217  1.0000
  S   S320      1.0  0.76916  0.39777  0.93874  1.0000
  H   H1401     1.0  0.84346  0.17402  0.85802  1.0000
  Fe  Fe163     1.0  0.69479  0.40800  0.82447  1.0000
  S   S321      1.0  0.73356  0.40694  0.80848  1.0000
  S   S322      1.0  0.64685  0.40131  0.81808  1.0000
  Fe  Fe164     1.0  0.73484  0.42504  0.85147  1.0000
  S   S323      1.0  0.77698  0.42540  0.83755  1.0000
  S   S324      1.0  0.73113  0.43967  0.87558  1.0000
  Fe  Fe165     1.0  0.76460  0.44994  0.81816  1.0000
  H   H1402     1.0  0.66713  0.44861  0.76414  1.0000
  Fe  Fe166     1.0  0.74296  0.38263  0.82883  1.0000
  S   S325      1.0  0.75216  0.34079  0.82592  1.0000
  S   S326      1.0  0.72521  0.45316  0.83259  1.0000
  S   S327      1.0  0.70143  0.38005  0.84429  1.0000
  Fe  Fe167     1.0  0.53774  0.30602  0.75806  1.0000
  S   S328      1.0  0.58832  0.32410  0.76322  1.0000
  Fe  Fe168     1.0  0.85200  0.25267  0.75397  1.0000
  C   C1161     1.0  0.89171  0.15269  0.94772  1.0000
  Fe  Fe169     1.0  0.89513  0.27719  0.77949  1.0000
  S   S329      1.0  0.91437  0.32547  0.76815  1.0000
  S   S330      1.0  0.92099  0.27152  0.79952  1.0000
  Fe  Fe170     1.0  0.86447  0.31472  0.76474  1.0000
  S   S331      1.0  0.84970  0.35278  0.76910  1.0000
  Fe  Fe171     1.0  0.91641  0.30617  0.74569  1.0000
  S   S332      1.0  0.84478  0.26736  0.77754  1.0000
  S   S333      1.0  0.90070  0.25843  0.75722  1.0000
  C   C1162     1.0  0.77890  0.34415  0.80995  1.0000
  C   C1163     1.0  0.79666  0.37250  0.80133  1.0000
  C   C1164     1.0  0.81847  0.37483  0.78893  1.0000
  C   C1165     1.0  0.82240  0.34884  0.78492  1.0000
  C   C1166     1.0  0.80456  0.32047  0.79350  1.0000
  C   C1167     1.0  0.78304  0.31819  0.80605  1.0000
  H   H1403     1.0  0.79390  0.39272  0.80434  1.0000
  H   H1404     1.0  0.83234  0.39688  0.78241  1.0000
  H   H1405     1.0  0.80714  0.30024  0.79040  1.0000
  H   H1406     1.0  0.76931  0.29621  0.81266  1.0000
  H   H1407     1.0  0.69249  0.46719  0.78746  1.0000
  H   H1408     1.0  0.93519  0.36358  0.82465  1.0000
  H   H1409     1.0  0.84959  0.42977  0.83200  1.0000
  C   C1168     1.0  0.63174  0.38099  0.80233  1.0000
  C   C1169     1.0  0.64502  0.36297  0.79570  1.0000
  C   C1170     1.0  0.63146  0.34580  0.78366  1.0000
  C   C1171     1.0  0.60441  0.34624  0.77828  1.0000
  C   C1172     1.0  0.59147  0.36472  0.78470  1.0000
  C   C1173     1.0  0.60534  0.38230  0.79660  1.0000
  H   H1410     1.0  0.66545  0.36188  0.79998  1.0000
  H   H1411     1.0  0.64171  0.33169  0.77864  1.0000
  H   H1412     1.0  0.57088  0.36553  0.78048  1.0000
  H   H1413     1.0  0.59516  0.39647  0.80159  1.0000
  C   C1174     1.0  0.74179  0.42726  0.89293  1.0000
  C   C1175     1.0  0.73479  0.43752  0.90679  1.0000
  C   C1176     1.0  0.74270  0.42838  0.92088  1.0000
  C   C1177     1.0  0.75802  0.40906  0.92125  1.0000
  C   C1178     1.0  0.76484  0.39859  0.90742  1.0000
  C   C1179     1.0  0.75665  0.40751  0.89332  1.0000
  H   H1414     1.0  0.72339  0.45286  0.90660  1.0000
  H   H1415     1.0  0.73760  0.43690  0.93138  1.0000
  H   H1416     1.0  0.77664  0.38360  0.90758  1.0000
  H   H1417     1.0  0.76210  0.39937  0.88275  1.0000
  C   C1180     1.0  0.88478  0.24194  0.85082  1.0000
  C   C1181     1.0  0.91674  0.25451  0.84587  1.0000
  C   C1182     1.0  0.92730  0.26311  0.83007  1.0000
  C   C1183     1.0  0.90608  0.25937  0.81911  1.0000
  C   C1184     1.0  0.87404  0.24649  0.82404  1.0000
  C   C1185     1.0  0.86346  0.23786  0.83986  1.0000
  H   H1418     1.0  0.93336  0.25769  0.85420  1.0000
  H   H1419     1.0  0.95212  0.27295  0.82635  1.0000
  H   H1420     1.0  0.85748  0.24327  0.81568  1.0000
  H   H1421     1.0  0.83866  0.22807  0.84363  1.0000
  C   C1186     1.0  0.89438  0.23701  0.96380  1.0000
  C   C1187     1.0  0.72822  0.47915  0.76042  1.0000
  C   C1188     1.0  0.92483  0.24359  0.96709  1.0000
  C   C1189     1.0  0.85573  0.33693  0.97818  1.0000
  H   H1422     1.0  0.94291  0.24749  0.95780  1.0000
  C   C1190     1.0  0.81608  0.05533  0.89948  1.0000
  C   C1191     1.0  0.83950  0.04750  0.90443  1.0000
  C   C1192     1.0  0.86823  0.07062  0.90728  1.0000
  C   C1193     1.0  0.87370  0.10163  0.90518  1.0000
  C   C1194     1.0  0.85015  0.10940  0.90040  1.0000
  C   C1195     1.0  0.82144  0.08632  0.89757  1.0000
  H   H1423     1.0  0.88634  0.06445  0.91100  1.0000
  H   H1424     1.0  0.85403  0.13315  0.89887  1.0000
  H   H1425     1.0  0.80338  0.09248  0.89376  1.0000
  C   C1196     1.0  0.67992  0.43377  0.76380  1.0000
  C   C1197     1.0  0.89789  0.39613  0.82184  1.0000
  H   H1426     1.0  0.90809  0.14285  0.95117  1.0000
  H   H1427     1.0  0.87494  0.30190  0.80805  1.0000
  H   H1428     1.0  0.79212  0.01606  0.76593  1.0000
  H   H1429     1.0  0.84740  0.22629  0.97360  1.0000
  H   H1430     1.0  0.81454  0.13514  0.95592  1.0000
  H   H1431     1.0  0.88991  0.30262  0.83618  1.0000
  N   N79       1.0  0.55655  0.30225  0.83281  1.0000
  H   H1432     1.0  0.83562  0.02368  0.90590  1.0000
  N   N80       1.0  0.85923  0.13320  0.95471  1.0000
  H   H1433     1.0  0.83365  0.07827  0.97488  1.0000
  H   H1434     1.0  0.84209  0.30836  0.81502  1.0000
  C   C1198     1.0  0.83895  0.35599  0.95536  1.0000
  S   S334      1.0  0.78026  0.02718  0.89514  1.0000
  C   C1199     1.0  0.73631  0.01407  0.77463  1.0000
  C   C1200     1.0  0.85406  0.33941  0.96198  1.0000
  H   H1435     1.0  0.51862  0.29354  0.85055  1.0000
  H   H1436     1.0  0.73536  0.47669  0.74835  1.0000
  C   C1201     1.0  0.77874  0.42566  0.77111  1.0000
  Fe  Fe172     1.0  0.96665  0.24571  0.89897  1.0000
  H   H1437     1.0  0.49723  0.20797  0.79974  1.0000
  H   H1438     1.0  0.60281  0.32894  0.83917  1.0000
  H   H1439     1.0  0.86979  0.33438  0.79982  1.0000
  H   H1440     1.0  0.91323  0.16583  0.83988  1.0000
  C   C1202     1.0  0.50972  0.22623  0.80662  1.0000
  H   H1441     1.0  0.67318  0.38680  0.88511  1.0000
  H   H1442     1.0  0.83926  0.15285  0.93813  1.0000
  H   H1443     1.0  0.85503  0.30713  0.84113  1.0000
  H   H1444     1.0  0.74961  0.49402  0.76548  1.0000
  Fe  Fe173     1.0  0.49895  0.25980  0.73676  1.0000
  H   H1445     1.0  0.50374  0.24633  0.84255  1.0000
  S   S335      1.0  0.86806  0.29945  0.74104  1.0000
  H   H1446     1.0  0.83788  0.35764  0.94299  1.0000
  S   S336      1.0  0.78118  0.43562  0.97858  1.0000
  C   C1203     1.0  0.54368  0.29748  0.84929  1.0000
  N   N81       1.0  0.65771  0.34707  0.93720  1.0000
  C   C1204     1.0  0.65438  0.37516  0.94118  1.0000
  C   C1205     1.0  0.62782  0.32028  0.94262  1.0000
  C   C1206     1.0  0.68259  0.34486  0.94589  1.0000
  C   C1207     1.0  0.66553  0.34712  0.92046  1.0000
  C   C1208     1.0  0.66521  0.36963  0.90919  1.0000
  C   C1209     1.0  0.67319  0.32373  0.91495  1.0000
  C   C1210     1.0  0.67278  0.36895  0.89349  1.0000
  C   C1211     1.0  0.68137  0.32370  0.89925  1.0000
  C   C1212     1.0  0.59037  0.30960  0.83232  1.0000
  H   H1447     1.0  0.63441  0.37727  0.93612  1.0000
  H   H1448     1.0  0.64969  0.37500  0.95389  1.0000
  H   H1449     1.0  0.67618  0.39619  0.93723  1.0000
  H   H1450     1.0  0.60851  0.32098  0.93630  1.0000
  H   H1451     1.0  0.62103  0.31968  0.95519  1.0000
  H   H1452     1.0  0.62919  0.29821  0.94091  1.0000
  H   H1453     1.0  0.68434  0.32270  0.94534  1.0000
  H   H1454     1.0  0.70572  0.36343  0.94136  1.0000
  H   H1455     1.0  0.67854  0.34696  0.95836  1.0000
  H   H1456     1.0  0.65997  0.38849  0.91214  1.0000
  H   H1457     1.0  0.67329  0.30546  0.92274  1.0000
  H   H1458     1.0  0.81787  0.03887  0.86286  1.0000
  H   H1459     1.0  0.90056  0.17662  0.95084  1.0000
  C   C1213     1.0  0.72720  0.03451  0.74250  1.0000
  H   H1460     1.0  0.70379  0.02354  0.74843  1.0000
  C   C1214     1.0  0.78132  0.04244  0.73848  1.0000
  H   H1461     1.0  0.60272  0.31714  0.82044  1.0000
  H   H1462     1.0  0.86248  0.09128  0.94970  1.0000
  H   H1463     1.0  0.81329  0.38318  0.95935  1.0000
  H   H1464     1.0  0.92568  0.33037  0.81455  1.0000
  C   C1215     1.0  0.49889  0.22464  0.82206  1.0000
  H   H1465     1.0  0.81186  0.37545  0.83730  1.0000
  C   C1216     1.0  0.91958  0.35003  0.81636  1.0000
  C   C1217     1.0  0.88932  0.30921  0.97449  1.0000
  C   C1218     1.0  0.75136  0.02668  0.74709  1.0000
  H   H1466     1.0  0.90452  0.44321  0.82216  1.0000
  H   H1467     1.0  0.89161  0.33418  0.84636  1.0000
  H   H1468     1.0  0.86407  0.32862  0.95416  1.0000
  C   C1219     1.0  0.84403  0.09917  0.98030  1.0000
  H   H1469     1.0  0.57139  0.29553  0.80262  1.0000
  C   C1220     1.0  0.68134  0.34639  0.88856  1.0000
  H   H1470     1.0  0.56132  0.33361  0.81304  1.0000
  H   H1471     1.0  0.72331  0.35794  0.76304  1.0000
  H   H1472     1.0  0.92209  0.40356  0.81748  1.0000
  C   C1221     1.0  0.76514  0.39521  0.76795  1.0000
  H   H1473     1.0  0.71479  0.01787  0.77403  1.0000
  H   H1474     1.0  0.84716  0.17178  0.95520  1.0000
  H   H1475     1.0  0.89634  0.19247  0.84233  1.0000
  N   N82       1.0  0.86553  0.14534  0.85057  1.0000
  C   C1222     1.0  0.89711  0.17130  0.84775  1.0000
  C   C1223     1.0  0.85143  0.14271  0.83578  1.0000
  C   C1224     1.0  0.84643  0.15319  0.86220  1.0000
  C   C1225     1.0  0.86616  0.11597  0.85622  1.0000
  C   C1226     1.0  0.89273  0.11445  0.86215  1.0000
  C   C1227     1.0  0.83908  0.08787  0.85674  1.0000
  C   C1228     1.0  0.89245  0.08634  0.86754  1.0000
  C   C1229     1.0  0.83913  0.05992  0.86209  1.0000
  C   C1230     1.0  0.86582  0.05913  0.86738  1.0000
  H   H1476     1.0  0.86328  0.13393  0.82715  1.0000
  H   H1477     1.0  0.90764  0.17781  0.85865  1.0000
  H   H1478     1.0  0.82604  0.12742  0.83721  1.0000
  H   H1479     1.0  0.85331  0.16531  0.83063  1.0000
  H   H1480     1.0  0.85756  0.15799  0.87310  1.0000
  H   H1481     1.0  0.82312  0.08914  0.95100  1.0000
  H   H1482     1.0  0.82265  0.13434  0.86524  1.0000
  H   H1483     1.0  0.91375  0.13468  0.86315  1.0000
  H   H1484     1.0  0.81727  0.08729  0.85355  1.0000
  H   H1485     1.0  0.91264  0.08577  0.87241  1.0000
  H   H1486     1.0  0.88143  0.17738  0.97456  1.0000
  H   H1487     1.0  0.72843  0.46481  0.79085  1.0000
  S   S337      1.0  0.72876  0.36444  0.98006  1.0000
  C   C1231     1.0  0.55146  0.27600  0.80854  1.0000
  C   C1232     1.0  0.53619  0.25172  0.79994  1.0000
  H   H1488     1.0  0.92526  0.36394  0.80494  1.0000
  H   H1489     1.0  0.80272  0.43572  0.77384  1.0000
  C   C1233     1.0  0.84821  0.10417  0.94729  1.0000
  S   S338      1.0  0.49615  0.31175  0.76907  1.0000
  H   H1490     1.0  0.56696  0.35056  0.83077  1.0000
  N   N83       1.0  0.71107  0.44863  0.76950  1.0000
  C   C1234     1.0  0.73395  0.38187  0.76514  1.0000
  H   H1491     1.0  0.75535  0.03614  0.77690  1.0000
  H   H1492     1.0  0.69291  0.43089  0.79300  1.0000
  H   H1493     1.0  0.77267  0.46606  0.77451  1.0000
  H   H1494     1.0  0.82776  0.33448  0.83262  1.0000
  H   H1495     1.0  0.90725  0.32897  0.96681  1.0000
  C   C1235     1.0  0.83599  0.38119  0.83309  1.0000
  N   N84       1.0  0.88609  0.33935  0.82224  1.0000
  H   H1496     1.0  0.77862  0.38171  0.76796  1.0000
  H   H1497     1.0  0.68835  0.34676  0.87643  1.0000
  S   S339      1.0  0.51313  0.25457  0.76031  1.0000
  C   C1236     1.0  0.70602  0.45324  0.78587  1.0000
  C   C1237     1.0  0.87113  0.23184  0.97602  1.0000
  H   H1498     1.0  0.80124  0.03835  0.74113  1.0000
  H   H1499     1.0  0.90200  0.29746  0.98043  1.0000
  H   H1500     1.0  0.69201  0.38688  0.76346  1.0000
  S   S340      1.0  0.82125  0.20760  0.74504  1.0000
  H   H1501     1.0  0.68205  0.42839  0.75170  1.0000
  C   C1238     1.0  0.55318  0.32919  0.82552  1.0000
  H   H1502     1.0  0.85016  0.10859  0.93450  1.0000
  C   C1239     1.0  0.84538  0.35787  0.83036  1.0000
  S   S341      1.0  0.80384  0.48800  0.80256  1.0000
  C   C1240     1.0  0.54075  0.27547  0.82422  1.0000
  C   C1241     1.0  0.88812  0.41929  0.82451  1.0000
  H   H1503     1.0  0.86535  0.03751  0.87205  1.0000
  C   C1242     1.0  0.83916  0.14886  0.95083  1.0000
  H   H1504     1.0  0.59401  0.28936  0.83687  1.0000
  H   H1505     1.0  0.54470  0.25302  0.78793  1.0000
  N   N85       1.0  0.74493  0.00321  0.76030  1.0000
  C   C1243     1.0  0.86740  0.32017  0.81084  1.0000
  H   H1506     1.0  0.52837  0.32562  0.82654  1.0000
  C   C1244     1.0  0.76127  0.44296  0.77136  1.0000
  H   H1507     1.0  0.66437  0.41221  0.77113  1.0000
  H   H1508     1.0  0.68814  0.30623  0.89533  1.0000
  H   H1509     1.0  0.55630  0.31792  0.85541  1.0000
  C   C1245     1.0  0.85723  0.41182  0.83009  1.0000
  C   C1246     1.0  0.72949  0.43024  0.76839  1.0000
  C   C1247     1.0  0.87666  0.36458  0.82468  1.0000
  C   C1248     1.0  0.85821  0.12863  0.97170  1.0000
  C   C1249     1.0  0.51407  0.24878  0.83081  1.0000
  C   C1250     1.0  0.88035  0.32003  0.83709  1.0000
  H   H1510     1.0  0.87390  0.29228  0.96723  1.0000
  C   C1251     1.0  0.82502  0.37039  0.96455  1.0000
  H   H1511     1.0  0.89344  0.15484  0.93491  1.0000
  H   H1512     1.0  0.54563  0.27759  0.85554  1.0000
  H   H1513     1.0  0.71382  0.49243  0.76000  1.0000
  C   C1252     1.0  0.87073  0.15430  0.98024  1.0000
  C   C1253     1.0  0.82592  0.36811  0.98045  1.0000
  S   S342      1.0  0.52637  0.31111  0.73374  1.0000
  Fe  Fe174     1.0  0.68867  0.66422  0.13235  1.0000
  S   S343      1.0  0.65282  0.67031  0.11859  1.0000
  S   S344      1.0  0.73020  0.65506  0.12388  1.0000
  Fe  Fe175     1.0  0.66227  0.67771  0.16265  1.0000
  S   S345      1.0  0.62479  0.68489  0.15112  1.0000
  S   S346      1.0  0.65985  0.67980  0.18864  1.0000
  Fe  Fe176     1.0  0.61840  0.64305  0.13922  1.0000
  S   S347      1.0  0.56726  0.61153  0.13794  1.0000
  Fe  Fe177     1.0  0.66189  0.71132  0.13168  1.0000
  S   S348      1.0  0.66958  0.75983  0.12383  1.0000
  S   S349      1.0  0.65353  0.63383  0.15209  1.0000
  S   S350      1.0  0.70006  0.70725  0.14409  1.0000
  Fe  Fe178     1.0  0.67853  0.90403  0.02535  1.0000
  S   S351      1.0  0.64398  0.85514  0.02552  1.0000
  S   S352      1.0  0.71344  0.93230  0.00479  1.0000
  Fe  Fe179     1.0  0.65136  0.91002  0.05762  1.0000
  S   S353      1.0  0.61464  0.86126  0.06006  1.0000
  S   S354      1.0  0.64873  0.94556  0.07302  1.0000
  Fe  Fe180     1.0  0.65331  0.84988  0.05019  1.0000
  S   S355      1.0  0.65556  0.80450  0.05622  1.0000
  Fe  Fe181     1.0  0.60834  0.87022  0.03531  1.0000
  S   S356      1.0  0.56022  0.85759  0.02784  1.0000
  S   S357      1.0  0.69101  0.89810  0.04942  1.0000
  S   S358      1.0  0.64200  0.91968  0.03342  1.0000
  H   H1514     1.0  0.68367  0.89020  0.14537  1.0000
  C   C1254     1.0  0.66280  0.83339  0.17495  1.0000
  H   H1515     1.0  0.61517  0.76204  0.17206  1.0000
  H   H1516     1.0  0.49776  0.82714  0.02012  1.0000
  Fe  Fe182     1.0  0.90232  0.67569  0.05150  1.0000
  S   S359      1.0  0.88393  0.70941  0.04286  1.0000
  S   S360      1.0  0.94670  0.69046  0.06352  1.0000
  Fe  Fe183     1.0  0.85923  0.62576  0.03327  1.0000
  S   S361      1.0  0.83844  0.65586  0.02293  1.0000
  S   S362      1.0  0.84761  0.57625  0.02943  1.0000
  Fe  Fe184     1.0  0.88735  0.69308  0.01956  1.0000
  S   S363      1.0  0.91179  0.73007  0.99943  1.0000
  Fe  Fe185     1.0  0.83638  0.66969  0.04703  1.0000
  S   S364      1.0  0.79072  0.67271  0.05449  1.0000
  S   S365      1.0  0.90851  0.66176  0.02788  1.0000
  S   S366      1.0  0.85435  0.63712  0.05763  1.0000
  H   H1517     1.0  0.66614  0.73814  0.17341  1.0000
  H   H1518     1.0  0.98374  0.59001  0.19684  1.0000
  C   C1255     1.0  0.94992  0.67797  0.08259  1.0000
  C   C1256     1.0  0.92414  0.66525  0.09384  1.0000
  C   C1257     1.0  0.92829  0.65846  0.10922  1.0000
  C   C1258     1.0  0.95807  0.66382  0.11346  1.0000
  H   H1519     1.0  0.91807  0.74236  0.22556  1.0000
  H   H1520     1.0  0.60369  0.57891  0.20871  1.0000
  H   H1521     1.0  0.90118  0.66145  0.09080  1.0000
  H   H1522     1.0  0.90832  0.64926  0.11793  1.0000
  N   N86       1.0  0.55029  0.76397  0.05169  1.0000
  H   H1523     1.0  0.55114  0.80288  0.06316  1.0000
  H   H1524     1.0  0.56195  0.87703  0.99244  1.0000
  C   C1259     1.0  0.68372  0.70729  0.21426  1.0000
  H   H1525     1.0  0.93245  0.60266  0.98924  1.0000
  C   C1260     1.0  0.65525  0.94957  0.09263  1.0000
  C   C1261     1.0  0.67452  0.93848  0.09982  1.0000
  C   C1262     1.0  0.68219  0.94577  0.11479  1.0000
  C   C1263     1.0  0.67091  0.96435  0.12263  1.0000
  H   H1526     1.0  0.63041  0.95034  0.99942  1.0000
  C   C1264     1.0  0.51573  0.98108  0.19588  1.0000
  H   H1527     1.0  0.68417  0.92506  0.09368  1.0000
  H   H1528     1.0  0.69755  0.93759  0.12017  1.0000
  C   C1265     1.0  0.81454  0.52414  0.01612  1.0000
  H   H1529     1.0  0.86079  0.63358  0.98390  1.0000
  C   C1266     1.0  0.74603  0.65873  0.10448  1.0000
  C   C1267     1.0  0.77600  0.65968  0.10143  1.0000
  C   C1268     1.0  0.78986  0.66350  0.08616  1.0000
  C   C1269     1.0  0.77382  0.66649  0.07383  1.0000
  C   C1270     1.0  0.74362  0.66500  0.07686  1.0000
  C   C1271     1.0  0.72967  0.66090  0.09212  1.0000
  H   H1530     1.0  0.78870  0.65774  0.11093  1.0000
  H   H1531     1.0  0.81311  0.66459  0.08397  1.0000
  H   H1532     1.0  0.73094  0.66695  0.06735  1.0000
  H   H1533     1.0  0.70620  0.65920  0.09433  1.0000
  C   C1272     1.0  0.66325  0.77097  0.10526  1.0000
  C   C1273     1.0  0.66575  0.80086  0.10191  1.0000
  C   C1274     1.0  0.66250  0.81118  0.08701  1.0000
  C   C1275     1.0  0.65727  0.79176  0.07532  1.0000
  C   C1276     1.0  0.65425  0.76171  0.07872  1.0000
  C   C1277     1.0  0.65687  0.75119  0.09369  1.0000
  H   H1534     1.0  0.67044  0.81619  0.11084  1.0000
  H   H1535     1.0  0.66479  0.83435  0.08448  1.0000
  H   H1536     1.0  0.65001  0.74657  0.06971  1.0000
  H   H1537     1.0  0.65433  0.72796  0.09619  1.0000
  C   C1278     1.0  0.54974  0.57102  0.14181  1.0000
  C   C1279     1.0  0.56753  0.55434  0.14387  1.0000
  C   C1280     1.0  0.98363  0.67534  0.10207  1.0000
  C   C1281     1.0  0.62846  0.89484  0.99410  1.0000
  H   H1538     1.0  0.93352  0.63593  0.99771  1.0000
  C   C1282     1.0  0.51700  0.55522  0.14287  1.0000
  H   H1539     1.0  0.59274  0.56619  0.14296  1.0000
  C   C1283     1.0  0.55466  0.74704  0.06540  1.0000
  H   H1540     1.0  0.50308  0.56796  0.14127  1.0000
  C   C1284     1.0  0.51557  0.78087  0.99724  1.0000
  N   N87       1.0  0.66348  0.78129  0.17616  1.0000
  H   H1541     1.0  0.51329  0.77134  0.06397  1.0000
  C   C1285     1.0  0.54378  0.82858  0.01568  1.0000
  C   C1286     1.0  0.56186  0.81645  0.00760  1.0000
  C   C1287     1.0  0.54771  0.79244  0.99853  1.0000
  H   H1542     1.0  0.80663  0.59085  0.01000  1.0000
  C   C1288     1.0  0.68180  0.78618  0.18959  1.0000
  H   H1543     1.0  0.58667  0.82529  0.00842  1.0000
  H   H1544     1.0  0.56165  0.78266  0.99254  1.0000
  H   H1545     1.0  0.79334  0.58444  0.07331  1.0000
  S   S367      1.0  0.68286  0.97480  0.14096  1.0000
  H   H1546     1.0  0.73983  0.91450  0.20855  1.0000
  C   C1289     1.0  0.78461  0.56395  0.06677  1.0000
  C   C1290     1.0  0.96495  0.74409  0.09786  1.0000
  H   H1547     1.0  0.68227  0.87182  0.99402  1.0000
  C   C1291     1.0  0.66987  0.81125  0.16759  1.0000
  H   H1548     1.0  0.75741  0.77228  0.19163  1.0000
  C   C1292     1.0  0.71532  0.73148  0.19004  1.0000
  C   C1293     1.0  0.68853  0.70799  0.19815  1.0000
  C   C1294     1.0  0.77580  0.51879  0.99842  1.0000
  H   H1549     1.0  0.71951  0.73218  0.17766  1.0000
  C   C1295     1.0  0.66783  0.86151  0.16700  1.0000
  C   C1296     1.0  0.77665  0.59304  0.04566  1.0000
  H   H1550     1.0  0.68897  0.80416  0.14522  1.0000
  H   H1551     1.0  0.65773  0.75501  0.15664  1.0000
  C   C1297     1.0  0.58121  0.78285  0.04293  1.0000
  H   H1552     1.0  0.51626  0.56093  0.18219  1.0000
  S   S368      1.0  0.49841  0.74968  0.98648  1.0000
  C   C1298     1.0  0.72625  0.53529  0.03733  1.0000
  H   H1553     1.0  0.67745  0.76404  0.19631  1.0000
  H   H1554     1.0  0.66203  0.87801  0.17279  1.0000
  S   S369      1.0  0.75932  0.78286  0.22363  1.0000
  C   C1299     1.0  0.78101  0.54940  0.99970  1.0000
  C   C1300     1.0  0.50212  0.52302  0.14598  1.0000
  H   H1555     1.0  0.58464  0.53183  0.19952  1.0000
  H   H1556     1.0  0.64833  0.90685  0.00079  1.0000
  H   H1557     1.0  0.61896  0.58134  0.18873  1.0000
  H   H1558     1.0  0.63363  0.87780  0.98787  1.0000
  H   H1559     1.0  0.71794  0.55290  0.03567  1.0000
  H   H1560     1.0  0.69682  0.77054  0.16246  1.0000
  H   H1561     1.0  0.62219  0.77744  0.19031  1.0000
  C   C1301     1.0  0.75872  0.51370  0.04877  1.0000
  H   H1562     1.0  0.70737  0.79813  0.18585  1.0000
  C   C1302     1.0  0.62973  0.76503  0.18181  1.0000
  C   C1303     1.0  0.81191  0.74693  0.98977  1.0000
  H   H1563     1.0  0.97912  0.73393  0.11917  1.0000
  H   H1564     1.0  0.52707  0.75754  0.03092  1.0000
  H   H1565     1.0  0.66314  0.68924  0.22067  1.0000
  H   H1566     1.0  0.59377  0.76862  0.03976  1.0000
  H   H1567     1.0  0.72248  0.54567  0.07436  1.0000
  H   H1568     1.0  0.65311  0.82901  0.18691  1.0000
  C   C1304     1.0  0.73681  0.75417  0.19799  1.0000
  H   H1569     1.0  0.53887  0.67454  0.08180  1.0000
  C   C1305     1.0  0.69565  0.88814  0.98424  1.0000
  C   C1306     1.0  0.80288  0.56734  0.00916  1.0000
  H   H1570     1.0  0.62738  0.97497  0.09550  1.0000
  C   C1307     1.0  0.48535  0.97477  0.19256  1.0000
  H   H1571     1.0  0.53096  0.79661  0.04653  1.0000
  C   C1308     1.0  0.56624  0.71612  0.09131  1.0000
  C   C1309     1.0  0.53015  0.74388  0.04095  1.0000
  C   C1310     1.0  0.53582  0.78448  0.05660  1.0000
  C   C1311     1.0  0.79264  0.50620  0.00668  1.0000
  C   C1312     1.0  0.57290  0.76331  0.07679  1.0000
  H   H1572     1.0  0.74424  0.58672  0.07335  1.0000
  H   H1573     1.0  0.86378  0.61620  0.00195  1.0000
  C   C1313     1.0  0.73203  0.75340  0.21413  1.0000
  H   H1574     1.0  0.78707  0.61374  0.05187  1.0000
  C   C1314     1.0  0.68755  0.84744  0.14399  1.0000
  H   H1575     1.0  0.57114  0.70440  0.10108  1.0000
  C   C1315     1.0  0.51181  0.81755  0.01406  1.0000
  H   H1576     1.0  0.72852  0.95361  0.22016  1.0000
  H   H1577     1.0  0.62384  0.74175  0.18771  1.0000
  H   H1578     1.0  0.67593  0.80001  0.19786  1.0000
  H   H1579     1.0  0.94056  0.72901  0.10139  1.0000
  H   H1580     1.0  0.90440  0.59919  0.00539  1.0000
  H   H1581     1.0  0.58380  0.78813  0.07571  1.0000
  C   C1316     1.0  0.54814  0.69938  0.08040  1.0000
  H   H1582     1.0  0.82747  0.51421  0.02247  1.0000
  H   H1583     1.0  0.59663  0.80075  0.04963  1.0000
  H   H1584     1.0  0.95276  0.54469  0.18498  1.0000
  H   H1585     1.0  0.57919  0.79515  0.03223  1.0000
  H   H1586     1.0  0.59306  0.76104  0.09789  1.0000
  C   C1317     1.0  0.67148  0.76052  0.16670  1.0000
  C   C1318     1.0  0.55266  0.52216  0.14696  1.0000
  C   C1319     1.0  0.65090  0.97460  0.11562  1.0000
  C   C1320     1.0  0.68270  0.81929  0.15184  1.0000
  N   N88       1.0  0.76121  0.56475  0.05652  1.0000
  C   C1321     1.0  0.74872  0.53775  0.04770  1.0000
  C   C1322     1.0  0.98200  0.52159  0.18936  1.0000
  C   C1323     1.0  0.81974  0.55473  0.01742  1.0000
  H   H1587     1.0  0.84940  0.73287  0.99028  1.0000
  C   C1324     1.0  0.91755  0.61319  0.99438  1.0000
  C   C1325     1.0  0.52415  0.54380  0.18593  1.0000
  H   H1588     1.0  0.80559  0.56402  0.06001  1.0000
  H   H1589     1.0  0.77451  0.54347  0.07548  1.0000
  H   H1590     1.0  0.79572  0.59196  0.03788  1.0000
  H   H1591     1.0  0.86623  0.68356  0.98353  1.0000
  C   C1326     1.0  0.70538  0.72976  0.22222  1.0000
  H   H1592     1.0  0.69695  0.85286  0.13192  1.0000
  C   C1327     1.0  0.73538  0.56693  0.06631  1.0000
  H   H1593     1.0  0.52998  0.97273  0.18899  1.0000
  C   C1328     1.0  0.57846  0.74800  0.08954  1.0000
  N   N89       1.0  0.57500  0.58494  0.19184  1.0000
  C   C1329     1.0  0.58082  0.60236  0.17643  1.0000
  C   C1330     1.0  0.55994  0.59809  0.20290  1.0000
  C   C1331     1.0  0.60596  0.58998  0.19683  1.0000
  C   C1332     1.0  0.55411  0.55220  0.19107  1.0000
  C   C1333     1.0  0.97962  0.68282  0.08676  1.0000
  H   H1594     1.0  0.59056  0.59213  0.16762  1.0000
  H   H1595     1.0  0.55931  0.60275  0.17234  1.0000
  H   H1596     1.0  0.59768  0.62681  0.17638  1.0000
  H   H1597     1.0  0.53782  0.59770  0.19919  1.0000
  H   H1598     1.0  0.57543  0.62252  0.20409  1.0000
  H   H1599     1.0  0.55427  0.58502  0.21454  1.0000
  S   S370      1.0  0.96209  0.65670  0.13319  1.0000
  H   H1600     1.0  0.62123  0.61485  0.19708  1.0000
  C   C1334     1.0  0.64297  0.96701  0.10078  1.0000
  C   C1335     1.0  0.49770  0.79377  0.00483  1.0000
  N   N90       1.0  0.75087  0.75355  0.09662  1.0000
  C   C1336     1.0  0.72158  0.72534  0.10033  1.0000
  C   C1337     1.0  0.77597  0.74502  0.09050  1.0000
  C   C1338     1.0  0.75977  0.76700  0.11132  1.0000
  C   C1339     1.0  0.74573  0.77427  0.08500  1.0000
  C   C1340     1.0  0.74416  0.80205  0.08851  1.0000
  C   C1341     1.0  0.74007  0.76590  0.06985  1.0000
  C   C1342     1.0  0.73798  0.82042  0.07741  1.0000
  C   C1343     1.0  0.73376  0.78439  0.05888  1.0000
  C   C1344     1.0  0.73280  0.81163  0.06264  1.0000
  H   H1601     1.0  0.71378  0.71315  0.09001  1.0000
  H   H1602     1.0  0.72426  0.70889  0.10901  1.0000
  H   H1603     1.0  0.70237  0.73085  0.10516  1.0000
  H   H1604     1.0  0.76953  0.73100  0.08065  1.0000
  H   H1605     1.0  0.78123  0.73057  0.09934  1.0000
  H   H1606     1.0  0.79797  0.76577  0.08658  1.0000
  H   H1607     1.0  0.78125  0.78894  0.10930  1.0000
  H   H1608     1.0  0.74053  0.77109  0.11743  1.0000
  H   H1609     1.0  0.76451  0.75121  0.11957  1.0000
  H   H1610     1.0  0.74675  0.80972  0.09986  1.0000
  H   H1611     1.0  0.73963  0.74456  0.06649  1.0000
  H   H1612     1.0  0.73608  0.84111  0.08039  1.0000
  H   H1613     1.0  0.72882  0.77727  0.04750  1.0000
  H   H1614     1.0  0.72697  0.82546  0.05425  1.0000
  H   H1615     1.0  0.60788  0.88184  0.00270  1.0000
  C   C1345     1.0  0.71380  0.91872  0.98646  1.0000
  C   C1346     1.0  0.54230  0.71445  0.06760  1.0000
  H   H1616     1.0  0.80253  0.73780  0.00164  1.0000
  H   H1617     1.0  0.52839  0.70012  0.05952  1.0000
  H   H1618     1.0  0.88752  0.55577  0.99332  1.0000
  C   C1347     1.0  0.74106  0.89111  0.23010  1.0000
  C   C1348     1.0  0.68007  0.86847  0.15153  1.0000
  H   H1619     1.0  0.76032  0.59716  0.03832  1.0000
  H   H1620     1.0  0.77645  0.51392  0.05591  1.0000
  H   H1621     1.0  0.64156  0.98841  0.12160  1.0000
  C   C1349     1.0  0.98386  0.77694  0.22747  1.0000
  C   C1350     1.0  0.51995  0.50637  0.14802  1.0000
  H   H1622     1.0  0.97058  0.76144  0.21912  1.0000
  C   C1351     1.0  0.61221  0.93599  0.99233  1.0000
  H   H1623     1.0  0.71825  0.57061  0.05938  1.0000
  H   H1624     1.0  0.54058  0.72913  0.03598  1.0000
  H   H1625     1.0  0.89291  0.65356  0.99456  1.0000
  C   C1352     1.0  0.71475  0.51051  0.02853  1.0000
  H   H1626     1.0  0.59130  0.92216  0.00070  1.0000
  H   H1627     1.0  0.69852  0.50961  0.02024  1.0000
  H   H1628     1.0  0.76803  0.55922  0.99333  1.0000
  C   C1353     1.0  0.50385  0.51307  0.18526  1.0000
  C   C1354     1.0  0.56241  0.52786  0.19550  1.0000
  H   H1629     1.0  0.50627  0.72917  0.04675  1.0000
  C   C1355     1.0  0.97342  0.54587  0.19004  1.0000
  H   H1630     1.0  0.87024  0.74979  0.22432  1.0000
  H   H1631     1.0  0.56660  0.50943  0.14855  1.0000
  C   C1356     1.0  0.87324  0.55773  0.98462  1.0000
  C   C1357     1.0  0.87763  0.63055  0.99125  1.0000
  H   H1632     1.0  0.95663  0.75530  0.07493  1.0000
  C   C1358     1.0  0.73732  0.91397  0.22102  1.0000
  C   C1359     1.0  0.73066  0.93633  0.22789  1.0000
  H   H1633     1.0  0.98262  0.51320  0.14827  1.0000
  C   C1360     1.0  0.97401  0.75887  0.08293  1.0000
  H   H1634     1.0  0.85109  0.50844  0.98485  1.0000
  H   H1635     1.0  0.60616  0.95157  0.98465  1.0000
  H   H1636     1.0  0.74629  0.87383  0.22476  1.0000
  H   H1637     1.0  0.52418  0.98343  0.14226  1.0000
  H   H1638     1.0  0.77714  0.76359  0.98596  1.0000
  N   N91       1.0  0.62310  0.91662  0.98325  1.0000
  N   N92       1.0  0.89608  0.61612  0.98346  1.0000
  C   C1361     1.0  0.83825  0.74410  0.98335  1.0000
  C   C1362     1.0  0.88735  0.76279  0.23173  1.0000
  H   H1639     1.0  0.96817  0.50167  0.18375  1.0000
  H   H1640     1.0  0.97700  0.68198  0.23231  1.0000
  H   H1641     1.0  0.83648  0.74295  0.31542  1.0000
  H   H1642     1.0  0.60273  0.86492  0.32472  1.0000
  S   S371      1.0  0.93509  0.73086  0.29218  1.0000
  Fe  Fe186     1.0  0.75800  0.78021  0.24988  1.0000
  S   S372      1.0  0.78829  0.82074  0.26190  1.0000
  C   C1363     1.0  0.81844  0.54659  0.42604  1.0000
  Fe  Fe187     1.0  0.72878  0.74005  0.28007  1.0000
  S   S373      1.0  0.75621  0.77676  0.29453  1.0000
  S   S374      1.0  0.69605  0.69057  0.28815  1.0000
  Fe  Fe188     1.0  0.74543  0.80892  0.27855  1.0000
  S   S375      1.0  0.72483  0.84036  0.28839  1.0000
  Fe  Fe189     1.0  0.79745  0.78611  0.27706  1.0000
  S   S376      1.0  0.84495  0.79891  0.28628  1.0000
  S   S377      1.0  0.71452  0.77095  0.26542  1.0000
  S   S378      1.0  0.77080  0.74692  0.26371  1.0000
  H   H1643     1.0  0.88711  0.50509  0.42468  1.0000
  C   C1364     1.0  0.84379  0.51072  0.44275  1.0000
  S   S379      1.0  0.78242  0.98330  0.29707  1.0000
  H   H1644     1.0  0.56255  0.55385  0.38468  1.0000
  S   S380      1.0  0.80995  0.81280  0.45540  1.0000
  C   C1365     1.0  0.62797  0.97250  0.29706  1.0000
  S   S381      1.0  0.93503  0.53980  0.35998  1.0000
  S   S382      1.0  0.79634  0.55947  0.35454  1.0000
  S   S383      1.0  0.95613  0.58634  0.40043  1.0000
  C   C1366     1.0  0.72724  0.93617  0.24422  1.0000
  Fe  Fe190     1.0  0.96545  0.54501  0.40964  1.0000
  Fe  Fe191     1.0  0.69813  0.70740  0.39935  1.0000
  S   S384      1.0  0.73842  0.74228  0.38365  1.0000
  S   S385      1.0  0.69605  0.71421  0.42505  1.0000
  Fe  Fe192     1.0  0.66824  0.67694  0.37105  1.0000
  S   S386      1.0  0.70799  0.71132  0.35495  1.0000
  S   S387      1.0  0.63351  0.64480  0.35700  1.0000
  Fe  Fe193     1.0  0.73790  0.70114  0.37150  1.0000
  S   S388      1.0  0.77713  0.68391  0.36613  1.0000
  Fe  Fe194     1.0  0.70080  0.74570  0.36952  1.0000
  S   S389      1.0  0.68850  0.78751  0.36369  1.0000
  S   S390      1.0  0.69788  0.66681  0.38758  1.0000
  S   S391      1.0  0.66124  0.71083  0.38538  1.0000
  Fe  Fe195     1.0  0.52382  0.82748  0.36089  1.0000
  S   S392      1.0  0.52945  0.85967  0.37927  1.0000
  S   S393      1.0  0.55832  0.80336  0.35803  1.0000
  S   S394      1.0  0.53633  0.94044  0.35894  1.0000
  H   H1645     1.0  0.75567  0.56937  0.38713  1.0000
  H   H1646     1.0  0.94180  0.73075  0.25972  1.0000
  S   S395      1.0  0.70520  0.99562  0.30508  1.0000
  S   S396      1.0  0.95733  0.53228  0.43552  1.0000
  C   C1367     1.0  0.55391  0.98242  0.35846  1.0000
  C   C1368     1.0  0.93079  0.79585  0.25118  1.0000
  C   C1369     1.0  0.79786  0.66553  0.32518  1.0000
  H   H1647     1.0  0.77553  0.64588  0.32642  1.0000
  H   H1648     1.0  0.52886  0.55462  0.39484  1.0000
  C   C1370     1.0  0.62474  0.97081  0.37093  1.0000
  H   H1649     1.0  0.70302  0.93455  0.27472  1.0000
  C   C1371     1.0  0.65174  0.79112  0.36240  1.0000
  C   C1372     1.0  0.65122  0.82026  0.36267  1.0000
  C   C1373     1.0  0.62321  0.82435  0.36167  1.0000
  C   C1374     1.0  0.59482  0.79950  0.35989  1.0000
  C   C1375     1.0  0.59542  0.77043  0.35948  1.0000
  C   C1376     1.0  0.62326  0.76619  0.36091  1.0000
  H   H1650     1.0  0.67274  0.84000  0.36366  1.0000
  H   H1651     1.0  0.62375  0.84694  0.36202  1.0000
  H   H1652     1.0  0.57406  0.75084  0.35806  1.0000
  H   H1653     1.0  0.62270  0.74359  0.36050  1.0000
  C   C1377     1.0  0.79078  0.59356  0.35896  1.0000
  C   C1378     1.0  0.76305  0.59607  0.35565  1.0000
  C   C1379     1.0  0.75772  0.62239  0.35856  1.0000
  C   C1380     1.0  0.78063  0.64783  0.36424  1.0000
  C   C1381     1.0  0.80835  0.64529  0.36756  1.0000
  C   C1382     1.0  0.81314  0.61844  0.36525  1.0000
  H   H1654     1.0  0.74535  0.57742  0.35076  1.0000
  H   H1655     1.0  0.73623  0.62339  0.35584  1.0000
  H   H1656     1.0  0.82658  0.66455  0.37181  1.0000
  H   H1657     1.0  0.83476  0.61755  0.36783  1.0000
  C   C1383     1.0  0.56178  0.58358  0.35824  1.0000
  H   H1658     1.0  0.51139  0.79300  0.40706  1.0000
  C   C1384     1.0  0.90336  0.79989  0.25019  1.0000
  C   C1385     1.0  0.88162  0.78331  0.24057  1.0000
  C   C1386     1.0  0.80562  0.56450  0.41856  1.0000
  H   H1659     1.0  0.89847  0.81543  0.25726  1.0000
  C   C1387     1.0  0.83186  0.71958  0.31930  1.0000
  C   C1388     1.0  0.77787  0.78425  0.44773  1.0000
  C   C1389     1.0  0.74793  0.76924  0.45582  1.0000
  C   C1390     1.0  0.72331  0.74733  0.44890  1.0000
  C   C1391     1.0  0.72818  0.74039  0.43378  1.0000
  C   C1392     1.0  0.75815  0.75528  0.42579  1.0000
  C   C1393     1.0  0.78272  0.77697  0.43273  1.0000
  H   H1660     1.0  0.74363  0.77483  0.46727  1.0000
  H   H1661     1.0  0.70023  0.73605  0.45519  1.0000
  H   H1662     1.0  0.76254  0.75007  0.41427  1.0000
  H   H1663     1.0  0.80575  0.78833  0.42636  1.0000
  H   H1664     1.0  0.73516  0.53033  0.37143  1.0000
  Fe  Fe196     1.0  0.87970  0.51386  0.36558  1.0000
  H   H1665     1.0  0.86012  0.78615  0.24011  1.0000
  H   H1666     1.0  0.54667  0.56468  0.35184  1.0000
  Fe  Fe197     1.0  0.98431  0.74349  0.29932  1.0000
  H   H1667     1.0  0.79500  0.75176  0.31934  1.0000
  H   H1668     1.0  0.73767  0.65667  0.31796  1.0000
  C   C1394     1.0  0.73853  0.89073  0.24609  1.0000
  H   H1669     1.0  0.94482  0.72150  0.24028  1.0000
  H   H1670     1.0  0.93453  0.62506  0.38240  1.0000
  H   H1671     1.0  0.59263  0.88370  0.30215  1.0000
  C   C1395     1.0  0.60370  0.97032  0.38336  1.0000
  C   C1396     1.0  0.73532  0.56569  0.39488  1.0000
  H   H1672     1.0  0.58731  0.94862  0.38945  1.0000
  H   H1673     1.0  0.62433  0.94937  0.36776  1.0000
  C   C1397     1.0  0.69545  0.94493  0.26503  1.0000
  H   H1674     1.0  0.77255  0.68786  0.29541  1.0000
  C   C1398     1.0  0.74136  0.88021  0.29048  1.0000
  C   C1399     1.0  0.77240  0.89965  0.28505  1.0000
  C   C1400     1.0  0.78459  0.93105  0.28729  1.0000
  C   C1401     1.0  0.76584  0.94351  0.29474  1.0000
  C   C1402     1.0  0.73468  0.92415  0.29998  1.0000
  C   C1403     1.0  0.72259  0.89266  0.29792  1.0000
  H   H1675     1.0  0.78707  0.89050  0.27920  1.0000
  H   H1676     1.0  0.80871  0.94586  0.28315  1.0000
  H   H1677     1.0  0.72000  0.93336  0.30577  1.0000
  H   H1678     1.0  0.69853  0.87781  0.30215  1.0000
  C   C1404     1.0  0.64648  0.65752  0.33723  1.0000
  C   C1405     1.0  0.64820  0.63672  0.32719  1.0000
  C   C1406     1.0  0.66234  0.64715  0.31197  1.0000
  C   C1407     1.0  0.67514  0.67848  0.30669  1.0000
  C   C1408     1.0  0.67222  0.69921  0.31647  1.0000
  C   C1409     1.0  0.65734  0.68860  0.33163  1.0000
  H   H1679     1.0  0.63969  0.61269  0.33131  1.0000
  H   H1680     1.0  0.66431  0.63099  0.30441  1.0000
  H   H1681     1.0  0.68151  0.72335  0.31240  1.0000
  H   H1682     1.0  0.65492  0.70467  0.33912  1.0000
  Fe  Fe198     1.0  0.82059  0.52645  0.36026  1.0000
  C   C1410     1.0  0.60260  0.90844  0.30131  1.0000
  C   C1411     1.0  0.50183  0.72213  0.39866  1.0000
  C   C1412     1.0  0.74623  0.50909  0.39830  1.0000
  C   C1413     1.0  0.51693  0.61247  0.36136  1.0000
  C   C1414     1.0  0.91140  0.75110  0.28981  1.0000
  C   C1415     1.0  0.88331  0.73699  0.28314  1.0000
  C   C1416     1.0  0.86289  0.75137  0.28173  1.0000
  C   C1417     1.0  0.87019  0.78000  0.28712  1.0000
  C   C1418     1.0  0.89846  0.79425  0.29361  1.0000
  C   C1419     1.0  0.91902  0.78001  0.29489  1.0000
  H   H1683     1.0  0.87715  0.71465  0.27914  1.0000
  H   H1684     1.0  0.84154  0.74026  0.27648  1.0000
  H   H1685     1.0  0.90446  0.81646  0.29776  1.0000
  H   H1686     1.0  0.94044  0.79114  0.30010  1.0000
  C   C1420     1.0  0.95817  0.63059  0.37758  1.0000
  H   H1687     1.0  0.95909  0.66485  0.35984  1.0000
  H   H1688     1.0  0.97642  0.78383  0.26573  1.0000
  S   S397      1.0  0.58057  0.99688  0.40533  1.0000
  H   H1689     1.0  0.77964  0.72842  0.33772  1.0000
  H   H1690     1.0  0.63590  0.90658  0.34754  1.0000
  C   C1421     1.0  0.85518  0.59451  0.40346  1.0000
  H   H1691     1.0  0.96605  0.62521  0.33497  1.0000
  H   H1692     1.0  0.65202  0.94178  0.33527  1.0000
  H   H1693     1.0  0.68970  0.96311  0.23561  1.0000
  C   C1422     1.0  0.80105  0.69583  0.32117  1.0000
  C   C1423     1.0  0.82370  0.65983  0.32806  1.0000
  H   H1694     1.0  0.57305  0.63254  0.37374  1.0000
  C   C1424     1.0  0.85345  0.68381  0.32667  1.0000
  H   H1695     1.0  0.82054  0.63666  0.33159  1.0000
  C   C1425     1.0  0.97796  0.55630  0.35917  1.0000
  H   H1696     1.0  0.90216  0.54289  0.44494  1.0000
  H   H1697     1.0  0.70227  0.99332  0.24773  1.0000
  H   H1698     1.0  0.68833  0.96189  0.27023  1.0000
  H   H1699     1.0  0.56660  0.91797  0.33667  1.0000
  C   C1426     1.0  0.71553  0.50967  0.37762  1.0000
  H   H1700     1.0  0.58354  0.58056  0.35975  1.0000
  H   H1701     1.0  0.87342  0.67929  0.32893  1.0000
  H   H1702     1.0  0.56947  0.60547  0.35068  1.0000
  H   H1703     1.0  0.66806  0.51118  0.41494  1.0000
  C   C1427     1.0  0.71252  0.53558  0.40008  1.0000
  C   C1428     1.0  0.51377  0.75401  0.39748  1.0000
  H   H1704     1.0  0.59992  0.91085  0.27676  1.0000
  C   C1429     1.0  0.58966  0.87559  0.33138  1.0000
  C   C1430     1.0  0.95730  0.73753  0.24862  1.0000
  C   C1431     1.0  0.61092  0.92488  0.31443  1.0000
  N   N93       1.0  0.60685  0.90954  0.33021  1.0000
  C   C1432     1.0  0.97440  0.61470  0.38407  1.0000
  Fe  Fe199     1.0  0.82313  0.83714  0.47727  1.0000
  H   H1705     1.0  0.98071  0.52877  0.37881  1.0000
  C   C1433     1.0  0.61942  0.95578  0.28446  1.0000
  C   C1434     1.0  0.74918  0.98084  0.25796  1.0000
  C   C1435     1.0  0.82391  0.58833  0.40726  1.0000
  H   H1706     1.0  0.56611  0.86848  0.32740  1.0000
  H   H1707     1.0  0.74179  0.87312  0.25318  1.0000
  C   C1436     1.0  0.54018  0.55550  0.38307  1.0000
  H   H1708     1.0  0.58758  0.60861  0.38349  1.0000
  C   C1437     1.0  0.77437  0.70821  0.30131  1.0000
  C   C1438     1.0  0.97207  0.65321  0.36471  1.0000
  H   H1709     1.0  0.75444  0.71335  0.29850  1.0000
  H   H1710     1.0  0.66345  0.55684  0.42242  1.0000
  N   N94       1.0  0.69288  0.80353  0.41143  1.0000
  C   C1439     1.0  0.67217  0.81116  0.40165  1.0000
  C   C1440     1.0  0.70999  0.79027  0.40164  1.0000
  C   C1441     1.0  0.67262  0.77969  0.42395  1.0000
  C   C1442     1.0  0.71551  0.83019  0.41818  1.0000
  C   C1443     1.0  0.71673  0.86018  0.41586  1.0000
  C   C1444     1.0  0.73736  0.82652  0.42744  1.0000
  C   C1445     1.0  0.73859  0.88474  0.42246  1.0000
  C   C1446     1.0  0.75914  0.85116  0.43392  1.0000
  C   C1447     1.0  0.75974  0.88023  0.43146  1.0000
  H   H1711     1.0  0.65579  0.79060  0.39662  1.0000
  H   H1712     1.0  0.65745  0.82009  0.40836  1.0000
  H   H1713     1.0  0.68590  0.82819  0.39164  1.0000
  H   H1714     1.0  0.72626  0.80763  0.39232  1.0000
  H   H1715     1.0  0.69368  0.77072  0.39605  1.0000
  H   H1716     1.0  0.72377  0.78098  0.40831  1.0000
  H   H1717     1.0  0.65974  0.78882  0.43180  1.0000
  H   H1718     1.0  0.65524  0.75923  0.41928  1.0000
  H   H1719     1.0  0.68615  0.77087  0.43111  1.0000
  H   H1720     1.0  0.70110  0.86531  0.40902  1.0000
  H   H1721     1.0  0.73784  0.80448  0.42972  1.0000
  H   H1722     1.0  0.73918  0.90745  0.42061  1.0000
  H   H1723     1.0  0.77569  0.84765  0.44091  1.0000
  H   H1724     1.0  0.77665  0.89925  0.43658  1.0000
  N   N95       1.0  0.77049  0.84498  0.33120  1.0000
  C   C1448     1.0  0.78499  0.87174  0.31925  1.0000
  C   C1449     1.0  0.74015  0.82392  0.32648  1.0000
  C   C1450     1.0  0.76453  0.85679  0.34581  1.0000
  C   C1451     1.0  0.79012  0.82810  0.33339  1.0000
  C   C1452     1.0  0.81681  0.83318  0.32299  1.0000
  C   C1453     1.0  0.78236  0.80517  0.34603  1.0000
  C   C1454     1.0  0.83546  0.81762  0.32568  1.0000
  C   C1455     1.0  0.80139  0.78998  0.34870  1.0000
  C   C1456     1.0  0.82809  0.79646  0.33864  1.0000
  H   H1725     1.0  0.77068  0.88509  0.31845  1.0000
  H   H1726     1.0  0.80860  0.88788  0.32178  1.0000
  H   H1727     1.0  0.78690  0.86443  0.30754  1.0000
  H   H1728     1.0  0.72438  0.83551  0.32484  1.0000
  H   H1729     1.0  0.72740  0.80359  0.33508  1.0000
  H   H1730     1.0  0.74343  0.81521  0.31534  1.0000
  H   H1731     1.0  0.78683  0.87060  0.35049  1.0000
  H   H1732     1.0  0.75183  0.87152  0.34415  1.0000
  H   H1733     1.0  0.74943  0.83813  0.35485  1.0000
  H   H1734     1.0  0.82378  0.84894  0.31260  1.0000
  H   H1735     1.0  0.76143  0.79874  0.35392  1.0000
  H   H1736     1.0  0.85566  0.82186  0.31754  1.0000
  H   H1737     1.0  0.79535  0.77290  0.35857  1.0000
  H   H1738     1.0  0.84271  0.78455  0.34068  1.0000
  N   N96       1.0  0.91780  0.60645  0.33021  1.0000
  C   C1457     1.0  0.91901  0.57818  0.32512  1.0000
  C   C1458     1.0  0.95020  0.63105  0.32793  1.0000
  C   C1459     1.0  0.90732  0.60114  0.34701  1.0000
  C   C1460     1.0  0.89559  0.61372  0.32153  1.0000
  C   C1461     1.0  0.90503  0.64053  0.31096  1.0000
  C   C1462     1.0  0.86347  0.59295  0.32303  1.0000
  C   C1463     1.0  0.88364  0.64575  0.30233  1.0000
  C   C1464     1.0  0.84228  0.59847  0.31441  1.0000
  C   C1465     1.0  0.85239  0.62472  0.30399  1.0000
  H   H1739     1.0  0.92633  0.58101  0.31251  1.0000
  H   H1740     1.0  0.93576  0.57202  0.33120  1.0000
  H   H1741     1.0  0.89608  0.55798  0.32756  1.0000
  H   H1742     1.0  0.96069  0.63490  0.31574  1.0000
  S   S398      1.0  0.51515  0.98367  0.43589  1.0000
  H   H1743     1.0  0.95114  0.65313  0.33154  1.0000
  H   H1744     1.0  0.88442  0.58116  0.35004  1.0000
  H   H1745     1.0  0.92400  0.59610  0.35382  1.0000
  H   H1746     1.0  0.90528  0.62158  0.35123  1.0000
  H   H1747     1.0  0.92881  0.65788  0.30907  1.0000
  H   H1748     1.0  0.85441  0.57208  0.33084  1.0000
  H   H1749     1.0  0.89137  0.66643  0.29438  1.0000
  H   H1750     1.0  0.81782  0.58231  0.31594  1.0000
  H   H1751     1.0  0.83592  0.62904  0.29735  1.0000
  C   C1466     1.0  0.73205  0.59165  0.39931  1.0000
  H   H1752     1.0  0.76856  0.99272  0.24853  1.0000
  H   H1753     1.0  0.94600  0.80876  0.25927  1.0000
  C   C1467     1.0  0.85756  0.71359  0.32218  1.0000
  H   H1754     1.0  0.88506  0.56990  0.44541  1.0000
  H   H1755     1.0  0.65171  0.90798  0.32794  1.0000
  H   H1756     1.0  0.83468  0.52075  0.45192  1.0000
  N   N97       1.0  0.54518  0.58386  0.37328  1.0000
  H   H1757     1.0  0.97817  0.73337  0.25069  1.0000
  H   H1758     1.0  0.53362  0.98444  0.38090  1.0000
  N   N98       1.0  0.96611  0.77008  0.24303  1.0000
  C   C1468     1.0  0.51590  0.58675  0.37072  1.0000
  H   H1759     1.0  0.51083  0.71131  0.39031  1.0000
  S   S399      1.0  0.85311  0.53663  0.37867  1.0000
  N   N99       1.0  0.71599  0.50860  0.39459  1.0000
  H   H1760     1.0  0.70359  0.60865  0.41247  1.0000
  H   H1761     1.0  0.49110  0.63561  0.35150  1.0000
  S   S400      1.0  0.84690  0.50337  0.34667  1.0000
  C   C1469     1.0  0.68356  0.55921  0.41472  1.0000
  H   H1762     1.0  0.67433  0.92666  0.26126  1.0000
  H   H1763     1.0  0.74301  0.67046  0.33688  1.0000
  C   C1470     1.0  0.73208  0.91307  0.25304  1.0000
  C   C1471     1.0  0.60399  0.99766  0.38807  1.0000
  H   H1764     1.0  0.75433  0.73396  0.32464  1.0000
  C   C1472     1.0  0.93747  0.77521  0.24225  1.0000
  H   H1765     1.0  0.78129  0.55974  0.42149  1.0000
  S   S401      1.0  0.85820  0.88675  0.47522  1.0000
  N   N100      1.0  0.77405  0.70257  0.31817  1.0000
  H   H1766     1.0  0.79611  0.72809  0.29609  1.0000
  C   C1473     1.0  0.50250  0.76816  0.40817  1.0000
  H   H1767     1.0  0.58591  0.86506  0.34353  1.0000
  C   C1474     1.0  0.58913  0.92079  0.34093  1.0000
  H   H1768     1.0  0.81384  0.60198  0.40139  1.0000
  N   N101      1.0  0.72047  0.95958  0.25192  1.0000
  C   C1475     1.0  0.74347  0.67716  0.32439  1.0000
  S   S402      1.0  0.50411  0.85317  0.34483  1.0000
  C   C1476     1.0  0.68652  0.53306  0.41028  1.0000
  C   C1477     1.0  0.63794  0.91673  0.33547  1.0000
  H   H1769     1.0  0.88086  0.73211  0.32079  1.0000
  H   H1770     1.0  0.57951  0.98998  0.33606  1.0000
  H   H1771     1.0  0.70137  0.72885  0.23463  1.0000
  H   H1772     1.0  0.89260  0.58245  0.40748  1.0000
  C   C1478     1.0  0.62403  0.95741  0.31180  1.0000
  C   C1479     1.0  0.70996  0.97800  0.24140  1.0000
  H   H1773     1.0  0.63157  0.97153  0.32115  1.0000
  C   C1480     1.0  0.56558  0.61033  0.38100  1.0000
  H   H1774     1.0  0.72379  0.68379  0.32333  1.0000
  N   N102      1.0  0.86511  0.53468  0.43046  1.0000
  C   C1481     1.0  0.89212  0.55574  0.43779  1.0000
  C   C1482     1.0  0.87647  0.51915  0.41906  1.0000
  C   C1483     1.0  0.85037  0.55249  0.42253  1.0000
  H   H1775     1.0  0.58358  0.90840  0.35274  1.0000
  C   C1484     1.0  0.86830  0.57697  0.41096  1.0000
  H   H1776     1.0  0.86937  0.61289  0.39458  1.0000
  C   C1485     1.0  0.77600  0.73037  0.32532  1.0000
  H   H1777     1.0  0.80278  0.52790  0.43434  1.0000
  H   H1778     1.0  0.91153  0.57156  0.42912  1.0000
  Fe  Fe200     1.0  0.51069  0.88597  0.36345  1.0000
  C   C1486     1.0  0.60678  0.92383  0.28657  1.0000
  H   H1779     1.0  0.60209  0.94545  0.34253  1.0000
  H   H1780     1.0  0.89443  0.53552  0.40998  1.0000
  Fe  Fe201     1.0  0.53011  0.99297  0.41013  1.0000
  H   H1781     1.0  0.76679  0.52891  0.39208  1.0000
  H   H1782     1.0  0.53164  0.76782  0.38818  1.0000
  C   C1487     1.0  0.70617  0.58842  0.40918  1.0000
  H   H1783     1.0  0.74949  0.61445  0.39490  1.0000
  H   H1784     1.0  0.85705  0.50333  0.41314  1.0000
  H   H1785     1.0  0.69344  0.50996  0.37424  1.0000
  H   H1786     1.0  0.55349  0.61187  0.39211  1.0000
  H   H1787     1.0  0.73127  0.91225  0.26541  1.0000
  C   C1488     1.0  0.48591  0.56475  0.37737  1.0000
  H   H1788     1.0  0.53893  0.63019  0.35596  1.0000
  H   H1789     1.0  0.62262  0.96775  0.27307  1.0000
  H   H1790     1.0  0.75776  0.96861  0.26636  1.0000
  H   H1791     1.0  0.74822  0.50935  0.41090  1.0000
  H   H1792     1.0  0.52541  0.53449  0.37784  1.0000
  C   C1489     1.0  0.48967  0.61582  0.35875  1.0000
  H   H1793     1.0  0.72903  0.99340  0.23244  1.0000
  H   H1794     1.0  0.63795  0.99738  0.29539  1.0000
  S   S403      1.0  0.67204  0.99700  0.34700  1.0000
  H   H1795     1.0  0.85573  0.49790  0.44847  1.0000
  C   C1490     1.0  0.91483  0.75876  0.23251  1.0000
  C   C1491     1.0  0.77220  0.75817  0.49490  1.0000
  S   S404      1.0  0.79192  0.84242  0.49627  1.0000
  H   H1796     1.0  0.76312  0.72271  0.53098  1.0000
  C   C1492     1.0  0.66000  0.57260  0.65549  1.0000
  S   S405      1.0  0.84915  0.82173  0.49373  1.0000
  C   C1493     1.0  0.77345  0.79562  0.52182  1.0000
  Fe  Fe202     1.0  0.81791  0.82708  0.51460  1.0000
  S   S406      1.0  0.78530  0.77551  0.54801  1.0000
  S   S407      1.0  0.85386  0.87889  0.51305  1.0000
  Fe  Fe203     1.0  0.70253  0.73743  0.63638  1.0000
  S   S408      1.0  0.66583  0.74127  0.65306  1.0000
  S   S409      1.0  0.70624  0.76276  0.61269  1.0000
  Fe  Fe204     1.0  0.71785  0.69948  0.66113  1.0000
  S   S410      1.0  0.68216  0.70042  0.67911  1.0000
  S   S411      1.0  0.74380  0.67182  0.66894  1.0000
  Fe  Fe205     1.0  0.65096  0.69098  0.66011  1.0000
  S   S412      1.0  0.59978  0.65760  0.66554  1.0000
  Fe  Fe206     1.0  0.70018  0.75028  0.67049  1.0000
  S   S413      1.0  0.71623  0.78968  0.68554  1.0000
  S   S414      1.0  0.68530  0.68634  0.64254  1.0000
  S   S415      1.0  0.73815  0.75003  0.65344  1.0000
  S   S416      1.0  0.83631  0.72836  0.71910  1.0000
  S   S417      1.0  0.52730  0.54484  0.62810  1.0000
  H   H1797     1.0  0.84290  0.78166  0.52227  1.0000
  C   C1494     1.0  0.80659  0.73981  0.50638  1.0000
  H   H1798     1.0  0.74639  0.70590  0.51414  1.0000
  C   C1495     1.0  0.96312  0.69156  0.71410  1.0000
  H   H1799     1.0  0.85310  0.67111  0.66864  1.0000
  C   C1496     1.0  0.78794  0.95345  0.56555  1.0000
  H   H1800     1.0  0.89615  0.68832  0.70346  1.0000
  H   H1801     1.0  0.58469  0.57154  0.67657  1.0000
  C   C1497     1.0  0.76916  0.68731  0.68305  1.0000
  C   C1498     1.0  0.77520  0.66780  0.69365  1.0000
  C   C1499     1.0  0.79548  0.67992  0.70494  1.0000
  C   C1500     1.0  0.81051  0.71170  0.70535  1.0000
  C   C1501     1.0  0.80483  0.73114  0.69459  1.0000
  C   C1502     1.0  0.78396  0.71902  0.68361  1.0000
  H   H1802     1.0  0.76380  0.64322  0.69327  1.0000
  H   H1803     1.0  0.70094  0.84137  0.72977  1.0000
  H   H1804     1.0  0.81664  0.75575  0.69473  1.0000
  H   H1805     1.0  0.77973  0.73427  0.67539  1.0000
  C   C1503     1.0  0.69311  0.79460  0.70100  1.0000
  C   C1504     1.0  0.66150  0.77485  0.70464  1.0000
  H   H1806     1.0  0.67168  0.85400  0.69097  1.0000
  C   C1505     1.0  0.60427  0.54333  0.66483  1.0000
  H   H1807     1.0  0.79151  0.77639  0.48705  1.0000
  C   C1506     1.0  0.70707  0.81888  0.70999  1.0000
  H   H1808     1.0  0.65051  0.75611  0.69779  1.0000
  H   H1809     1.0  0.63280  0.61783  0.67392  1.0000
  C   C1507     1.0  0.79451  0.98464  0.56293  1.0000
  H   H1810     1.0  0.73157  0.83418  0.70726  1.0000
  C   C1508     1.0  0.54762  0.57477  0.63926  1.0000
  C   C1509     1.0  0.53242  0.58109  0.65197  1.0000
  C   C1510     1.0  0.54878  0.60646  0.65993  1.0000
  C   C1511     1.0  0.58051  0.62549  0.65539  1.0000
  C   C1512     1.0  0.59594  0.61859  0.64296  1.0000
  C   C1513     1.0  0.57949  0.59348  0.63486  1.0000
  H   H1811     1.0  0.50782  0.56698  0.65538  1.0000
  H   H1812     1.0  0.53667  0.61158  0.66955  1.0000
  H   H1813     1.0  0.62055  0.63251  0.63961  1.0000
  H   H1814     1.0  0.59145  0.58854  0.62512  1.0000
  H   H1815     1.0  0.67710  0.90746  0.72003  1.0000
  H   H1816     1.0  0.54130  0.53227  0.66875  1.0000
  C   C1514     1.0  0.94567  0.83488  0.49143  1.0000
  C   C1515     1.0  0.70705  0.97790  0.71513  1.0000
  C   C1516     1.0  0.96042  0.71805  0.70841  1.0000
  H   H1817     1.0  0.73668  0.73456  0.52210  1.0000
  H   H1818     1.0  0.71358  0.96105  0.72060  1.0000
  H   H1819     1.0  0.77459  0.96576  0.49486  1.0000
  C   C1517     1.0  0.95165  0.67663  0.66826  1.0000
  H   H1820     1.0  0.91634  0.82229  0.54618  1.0000
  C   C1518     1.0  0.76488  0.77400  0.56623  1.0000
  C   C1519     1.0  0.76377  0.75268  0.57835  1.0000
  C   C1520     1.0  0.74669  0.74943  0.59281  1.0000
  C   C1521     1.0  0.73004  0.76717  0.59521  1.0000
  C   C1522     1.0  0.73105  0.78838  0.58311  1.0000
  C   C1523     1.0  0.74852  0.79199  0.56876  1.0000
  H   H1821     1.0  0.77623  0.73857  0.57655  1.0000
  H   H1822     1.0  0.74609  0.73297  0.60199  1.0000
  H   H1823     1.0  0.71814  0.80212  0.58483  1.0000
  H   H1824     1.0  0.74861  0.80820  0.55965  1.0000
  N   N103      1.0  0.78296  0.75198  0.50974  1.0000
  H   H1825     1.0  0.69940  0.69954  0.71724  1.0000
  H   H1826     1.0  0.81402  0.73274  0.51719  1.0000
  C   C1524     1.0  0.71786  0.72243  0.71249  1.0000
  N   N104      1.0  0.65327  0.88332  0.70179  1.0000
  C   C1525     1.0  0.67294  0.88614  0.71450  1.0000
  C   C1526     1.0  0.62196  0.87913  0.70875  1.0000
  C   C1527     1.0  0.64914  0.85511  0.69446  1.0000
  C   C1528     1.0  0.66895  0.91088  0.69046  1.0000
  C   C1529     1.0  0.69788  0.91666  0.68189  1.0000
  C   C1530     1.0  0.65727  0.93353  0.68825  1.0000
  C   C1531     1.0  0.71402  0.94335  0.67175  1.0000
  C   C1532     1.0  0.67351  0.96001  0.67799  1.0000
  C   C1533     1.0  0.70189  0.96503  0.66985  1.0000
  H   H1827     1.0  0.86952  0.97759  0.49502  1.0000
  H   H1828     1.0  0.69611  0.88690  0.71048  1.0000
  H   H1829     1.0  0.73400  0.71809  0.70407  1.0000
  H   H1830     1.0  0.62356  0.89816  0.71575  1.0000
  H   H1831     1.0  0.63556  0.83394  0.70252  1.0000
  H   H1832     1.0  0.94327  0.72440  0.71408  1.0000
  C   C1534     1.0  0.54826  0.51567  0.67507  1.0000
  C   C1535     1.0  0.67816  0.97804  0.71971  1.0000
  H   H1833     1.0  0.79029  0.99536  0.57276  1.0000
  H   H1834     1.0  0.70866  0.90094  0.68326  1.0000
  H   H1835     1.0  0.63614  0.93190  0.69465  1.0000
  H   H1836     1.0  0.92092  0.82256  0.49062  1.0000
  H   H1837     1.0  0.74902  0.78442  0.71193  1.0000
  C   C1536     1.0  0.95244  0.71483  0.64880  1.0000
  C   C1537     1.0  0.87721  0.68308  0.69580  1.0000
  H   H1838     1.0  0.84107  0.69670  0.67840  1.0000
  H   H1839     1.0  0.71491  0.98623  0.66239  1.0000
  H   H1840     1.0  0.95507  0.79485  0.49011  1.0000
  Fe  Fe207     1.0  0.82812  0.89147  0.49521  1.0000
  H   H1841     1.0  0.92518  0.79898  0.57038  1.0000
  H   H1842     1.0  0.60609  0.87762  0.69975  1.0000
  C   C1538     1.0  0.92756  0.71714  0.65740  1.0000
  H   H1843     1.0  0.91920  0.73328  0.65275  1.0000
  C   C1539     1.0  0.89873  0.73519  0.68443  1.0000
  C   C1540     1.0  0.86123  0.69499  0.67182  1.0000
  H   H1844     1.0  0.86670  0.71055  0.66100  1.0000
  C   C1541     1.0  0.60511  0.57037  0.67085  1.0000
  C   C1542     1.0  0.94271  0.80606  0.56046  1.0000
  C   C1543     1.0  0.92691  0.67890  0.67703  1.0000
  H   H1845     1.0  0.61043  0.85771  0.71686  1.0000
  C   C1544     1.0  0.95828  0.86644  0.49276  1.0000
  C   C1545     1.0  0.56714  0.50438  0.65119  1.0000
  H   H1846     1.0  0.97542  0.51557  0.68074  1.0000
  C   C1546     1.0  0.75608  0.72768  0.51959  1.0000
  H   H1847     1.0  0.75307  0.76568  0.49647  1.0000
  C   C1547     1.0  0.63275  0.59740  0.66934  1.0000
  C   C1548     1.0  0.97029  0.80222  0.56138  1.0000
  H   H1848     1.0  0.82159  0.85205  0.54490  1.0000
  C   C1549     1.0  0.91416  0.69943  0.67187  1.0000
  H   H1849     1.0  0.85927  0.82710  0.53818  1.0000
  C   C1550     1.0  0.75931  0.76961  0.71723  1.0000
  C   C1551     1.0  0.82080  0.96749  0.49502  1.0000
  H   H1850     1.0  0.77546  0.78293  0.72535  1.0000
  C   C1552     1.0  0.79490  0.78001  0.51777  1.0000
  N   N105      1.0  0.88832  0.70293  0.68090  1.0000
  C   C1553     1.0  0.83695  0.81910  0.53358  1.0000
  H   H1851     1.0  0.75012  0.78719  0.51842  1.0000
  C   C1554     1.0  0.78367  0.82252  0.53136  1.0000
  S   S418      1.0  0.93474  0.88733  0.49370  1.0000
  C   C1555     1.0  0.82698  0.79221  0.52405  1.0000
  H   H1852     1.0  0.76813  0.83318  0.53416  1.0000
  N   N106      1.0  0.61195  0.69071  0.61036  1.0000
  C   C1556     1.0  0.62495  0.70173  0.62484  1.0000
  C   C1557     1.0  0.62957  0.67416  0.60373  1.0000
  C   C1558     1.0  0.61796  0.71771  0.59927  1.0000
  C   C1559     1.0  0.57788  0.67158  0.61369  1.0000
  C   C1560     1.0  0.55827  0.68368  0.62094  1.0000
  C   C1561     1.0  0.56333  0.64057  0.61034  1.0000
  C   C1562     1.0  0.52634  0.66561  0.62504  1.0000
  C   C1563     1.0  0.53135  0.62275  0.61445  1.0000
  C   C1564     1.0  0.51296  0.63513  0.62189  1.0000
  H   H1853     1.0  0.61848  0.68239  0.63399  1.0000
  H   H1854     1.0  0.65081  0.71374  0.62315  1.0000
  H   H1855     1.0  0.61675  0.71833  0.62948  1.0000
  H   H1856     1.0  0.62679  0.65403  0.61174  1.0000
  H   H1857     1.0  0.65517  0.68918  0.60162  1.0000
  H   H1858     1.0  0.62197  0.66628  0.59243  1.0000
  H   H1859     1.0  0.60756  0.73273  0.60389  1.0000
  H   H1860     1.0  0.64355  0.73249  0.59656  1.0000
  H   H1861     1.0  0.60817  0.71050  0.58826  1.0000
  H   H1862     1.0  0.56766  0.70704  0.62384  1.0000
  H   H1863     1.0  0.57617  0.62911  0.60499  1.0000
  H   H1864     1.0  0.51201  0.67511  0.63095  1.0000
  H   H1865     1.0  0.52092  0.59881  0.61225  1.0000
  C   C1565     1.0  0.64413  0.77922  0.71727  1.0000
  C   C1566     1.0  0.81030  0.98414  0.53601  1.0000
  C   C1567     1.0  0.63256  0.54539  0.65700  1.0000
  S   S419      1.0  0.93851  0.66748  0.73029  1.0000
  H   H1866     1.0  0.86772  0.65829  0.69410  1.0000
  S   S420      1.0  0.80660  0.92653  0.49650  1.0000
  H   H1867     1.0  0.58480  0.49880  0.64469  1.0000
  H   H1868     1.0  0.63661  0.85342  0.68403  1.0000
  H   H1869     1.0  0.79723  0.71917  0.50000  1.0000
  Fe  Fe208     1.0  0.88183  0.87093  0.49323  1.0000
  C   C1568     1.0  0.68974  0.82315  0.72268  1.0000
  H   H1870     1.0  0.91969  0.74231  0.69082  1.0000
  H   H1871     1.0  0.90474  0.75158  0.67390  1.0000
  C   C1569     1.0  0.79917  0.98061  0.49471  1.0000
  H   H1872     1.0  0.98432  0.69351  0.64775  1.0000
  H   H1873     1.0  0.85816  0.68660  0.70238  1.0000
  C   C1570     1.0  0.96451  0.69468  0.65425  1.0000
  H   H1874     1.0  0.88022  0.73842  0.69172  1.0000
  H   H1875     1.0  0.91885  0.66489  0.68800  1.0000
  H   H1876     1.0  0.56443  0.52280  0.64398  1.0000
  C   C1571     1.0  0.93763  0.81918  0.54686  1.0000
  H   H1877     1.0  0.78737  0.91357  0.55552  1.0000
  H   H1878     1.0  0.68136  0.57368  0.64948  1.0000
  H   H1879     1.0  0.82761  0.75700  0.49906  1.0000
  C   C1572     1.0  0.81496  0.83371  0.53750  1.0000
  H   H1880     1.0  0.79948  0.66470  0.71327  1.0000
  H   H1881     1.0  0.77924  0.94137  0.57701  1.0000
  H   H1882     1.0  0.55276  0.52220  0.68691  1.0000
  C   C1573     1.0  0.96515  0.81923  0.49113  1.0000
  C   C1574     1.0  0.85250  0.98713  0.49478  1.0000
  H   H1883     1.0  0.96166  0.66155  0.67262  1.0000
  H   H1884     1.0  0.66466  0.97742  0.67678  1.0000
  H   H1885     1.0  0.70715  0.73516  0.70570  1.0000
  C   C1575     1.0  0.80356  0.95302  0.53872  1.0000
  H   H1886     1.0  0.97280  0.79214  0.57230  1.0000
  C   C1576     1.0  0.65819  0.80322  0.72640  1.0000
  N   N107      1.0  0.57578  0.51397  0.66660  1.0000
  H   H1887     1.0  0.76320  0.73748  0.48854  1.0000
  H   H1888     1.0  0.68146  0.61960  0.66058  1.0000
  C   C1577     1.0  0.96008  0.82851  0.53411  1.0000
  H   H1889     1.0  0.66157  0.86640  0.72360  1.0000
  C   C1578     1.0  0.66013  0.59852  0.66172  1.0000
  N   N108      1.0  0.73444  0.74028  0.72484  1.0000
  C   C1579     1.0  0.79248  0.93771  0.55347  1.0000
  H   H1890     1.0  0.77405  0.76577  0.70784  1.0000
  H   H1891     1.0  0.81883  0.99493  0.52438  1.0000
  H   H1892     1.0  0.96292  0.72916  0.63800  1.0000
  H   H1893     1.0  0.61973  0.76365  0.72012  1.0000
  H   H1894     1.0  0.66944  0.72377  0.72624  1.0000
  H   H1895     1.0  0.73636  0.94760  0.66555  1.0000
  H   H1896     1.0  0.63362  0.52590  0.65198  1.0000
  H   H1897     1.0  0.80698  0.94078  0.52926  1.0000
  H   H1898     1.0  0.98379  0.51728  0.70059  1.0000
  H   H1899     1.0  0.76374  0.71589  0.72451  1.0000
  H   H1900     1.0  0.48836  0.62090  0.62537  1.0000
  H   H1901     1.0  0.95621  0.83894  0.52356  1.0000
  H   H1902     1.0  0.97826  0.75719  0.69114  1.0000
  C   C1580     1.0  0.98034  0.73666  0.69547  1.0000
  Fe  Fe209     1.0  0.79921  0.93056  0.89445  1.0000
  S   S421      1.0  0.75192  0.89098  0.89803  1.0000
  S   S422      1.0  0.84486  0.92666  0.88902  1.0000
  Fe  Fe210     1.0  0.77260  0.97749  0.89687  1.0000
  S   S423      1.0  0.72295  0.94143  0.90047  1.0000
  H   H1903     1.0  0.71429  0.95559  0.76704  1.0000
  Fe  Fe211     1.0  0.74090  0.91616  0.91669  1.0000
  S   S424      1.0  0.70951  0.88661  0.93794  1.0000
  Fe  Fe212     1.0  0.73761  0.91917  0.88156  1.0000
  S   S425      1.0  0.70347  0.89181  0.86530  1.0000
  S   S426      1.0  0.78970  0.95379  0.91450  1.0000
  S   S427      1.0  0.78581  0.95734  0.87656  1.0000
  Fe  Fe213     1.0  0.91754  0.74949  0.90763  1.0000
  S   S428      1.0  0.92666  0.79932  0.90674  1.0000
  S   S429      1.0  0.90031  0.71326  0.92833  1.0000
  Fe  Fe214     1.0  0.91919  0.74979  0.87218  1.0000
  S   S430      1.0  0.92707  0.79908  0.86874  1.0000
  S   S431      1.0  0.91782  0.71850  0.85364  1.0000
  Fe  Fe215     1.0  0.96166  0.80606  0.88619  1.0000
  Fe  Fe216     1.0  0.89173  0.78820  0.88942  1.0000
  S   S432      1.0  0.84779  0.79606  0.89202  1.0000
  S   S433      1.0  0.95554  0.75715  0.88852  1.0000
  S   S434      1.0  0.88083  0.73809  0.89133  1.0000
  C   C1581     1.0  0.67568  0.76137  0.75789  1.0000
  Fe  Fe217     1.0  0.68042  0.89428  0.77807  1.0000
  S   S435      1.0  0.64165  0.84644  0.78176  1.0000
  S   S436      1.0  0.72180  0.91628  0.79183  1.0000
  Fe  Fe218     1.0  0.65299  0.91421  0.75111  1.0000
  Fe  Fe219     1.0  0.60976  0.86978  0.77859  1.0000
  S   S437      1.0  0.56589  0.86235  0.79379  1.0000
  Fe  Fe220     1.0  0.64653  0.84851  0.75570  1.0000
  S   S438      1.0  0.64808  0.91736  0.77658  1.0000
  S   S439      1.0  0.68830  0.89441  0.75217  1.0000
  Fe  Fe221     1.0  0.88123  0.70931  0.76691  1.0000
  S   S440      1.0  0.88349  0.66361  0.76745  1.0000
  S   S441      1.0  0.89598  0.74434  0.78430  1.0000
  Fe  Fe222     1.0  0.85105  0.70133  0.73649  1.0000
  C   C1582     1.0  0.71375  0.74677  0.73619  1.0000
  H   H1904     1.0  0.92843  0.62637  0.96302  1.0000
  Fe  Fe223     1.0  0.83497  0.64609  0.76019  1.0000
  S   S442      1.0  0.79217  0.60487  0.77154  1.0000
  Fe  Fe224     1.0  0.89920  0.67654  0.74189  1.0000
  H   H1905     1.0  0.51097  0.89915  0.78062  1.0000
  S   S443      1.0  0.83159  0.69107  0.76141  1.0000
  S   S444      1.0  0.90080  0.72359  0.74195  1.0000
  C   C1583     1.0  0.82525  0.54230  0.78410  1.0000
  C   C1584     1.0  0.82309  0.56830  0.77702  1.0000
  C   C1585     1.0  0.79542  0.57197  0.77954  1.0000
  C   C1586     1.0  0.77000  0.54957  0.78917  1.0000
  H   H1906     1.0  0.66120  0.76769  0.76585  1.0000
  H   H1907     1.0  0.84280  0.58544  0.76962  1.0000
  C   C1587     1.0  0.61990  0.83087  0.93601  1.0000
  H   H1908     1.0  0.93304  0.65916  0.97313  1.0000
  C   C1588     1.0  0.51739  0.76956  0.79794  1.0000
  C   C1589     1.0  0.54096  0.79936  0.79373  1.0000
  C   C1590     1.0  0.53815  0.82446  0.79966  1.0000
  C   C1591     1.0  0.51212  0.81952  0.81010  1.0000
  C   C1592     1.0  0.65370  0.93711  0.97447  1.0000
  H   H1909     1.0  0.51942  0.75022  0.79320  1.0000
  H   H1910     1.0  0.56101  0.80294  0.78573  1.0000
  H   H1911     1.0  0.74602  0.96309  0.97528  1.0000
  H   H1912     1.0  0.96816  0.76534  0.79296  1.0000
  C   C1593     1.0  0.91101  0.72563  0.83450  1.0000
  C   C1594     1.0  0.91231  0.70592  0.82359  1.0000
  C   C1595     1.0  0.90708  0.71097  0.80822  1.0000
  C   C1596     1.0  0.90070  0.73591  0.80365  1.0000
  C   C1597     1.0  0.89963  0.75573  0.81455  1.0000
  C   C1598     1.0  0.90447  0.75048  0.82995  1.0000
  H   H1913     1.0  0.91750  0.68672  0.82704  1.0000
  H   H1914     1.0  0.90875  0.69605  0.79983  1.0000
  H   H1915     1.0  0.89493  0.77522  0.81104  1.0000
  H   H1916     1.0  0.90328  0.76573  0.83826  1.0000
  C   C1599     1.0  0.90336  0.71926  0.94796  1.0000
  C   C1600     1.0  0.92682  0.74535  0.95263  1.0000
  H   H1917     1.0  0.60835  0.83744  0.88958  1.0000
  C   C1601     1.0  0.88181  0.69672  0.95919  1.0000
  H   H1918     1.0  0.94357  0.76279  0.94407  1.0000
  H   H1919     1.0  0.64321  0.84594  0.93833  1.0000
  H   H1920     1.0  0.86323  0.67678  0.95563  1.0000
  C   C1602     1.0  0.70856  0.90028  0.84494  1.0000
  C   C1603     1.0  0.68519  0.88184  0.83633  1.0000
  C   C1604     1.0  0.68873  0.88691  0.82010  1.0000
  C   C1605     1.0  0.71597  0.91020  0.81228  1.0000
  C   C1606     1.0  0.73944  0.92865  0.82088  1.0000
  C   C1607     1.0  0.73563  0.92397  0.83715  1.0000
  H   H1921     1.0  0.66414  0.86350  0.84221  1.0000
  H   H1922     1.0  0.67046  0.87255  0.81364  1.0000
  H   H1923     1.0  0.76052  0.94682  0.81494  1.0000
  H   H1924     1.0  0.75362  0.93864  0.84362  1.0000
  C   C1608     1.0  0.71242  0.89941  0.95653  1.0000
  C   C1609     1.0  0.69472  0.87862  0.96933  1.0000
  H   H1925     1.0  0.52939  0.82743  0.75536  1.0000
  C   C1610     1.0  0.73112  0.92984  0.95876  1.0000
  H   H1926     1.0  0.68039  0.85498  0.96772  1.0000
  H   H1927     1.0  0.82358  0.74211  0.93344  1.0000
  H   H1928     1.0  0.74490  0.94606  0.94899  1.0000
  C   C1611     1.0  0.55294  0.86159  0.95551  1.0000
  C   C1612     1.0  0.84575  0.89036  0.89027  1.0000
  C   C1613     1.0  0.81862  0.86355  0.89478  1.0000
  C   C1614     1.0  0.81971  0.83485  0.89525  1.0000
  C   C1615     1.0  0.84799  0.83272  0.89143  1.0000
  C   C1616     1.0  0.87531  0.85950  0.88719  1.0000
  C   C1617     1.0  0.87411  0.88825  0.88651  1.0000
  H   H1929     1.0  0.79682  0.86491  0.89795  1.0000
  H   H1930     1.0  0.79855  0.81418  0.89864  1.0000
  H   H1931     1.0  0.89722  0.85807  0.88424  1.0000
  H   H1932     1.0  0.89519  0.90895  0.88304  1.0000
  H   H1933     1.0  0.74856  0.55238  0.79121  1.0000
  H   H1934     1.0  0.66805  0.88416  0.89657  1.0000
  H   H1935     1.0  0.49450  0.77244  0.76236  1.0000
  C   C1618     1.0  0.60559  0.89953  0.95720  1.0000
  N   N109      1.0  0.78815  0.87384  0.84833  1.0000
  C   C1619     1.0  0.79128  0.90225  0.85505  1.0000
  C   C1620     1.0  0.77138  0.87114  0.83439  1.0000
  C   C1621     1.0  0.76822  0.84747  0.85982  1.0000
  C   C1622     1.0  0.81975  0.87548  0.84419  1.0000
  C   C1623     1.0  0.84070  0.89809  0.83252  1.0000
  C   C1624     1.0  0.83118  0.85600  0.85192  1.0000
  C   C1625     1.0  0.87099  0.90074  0.82869  1.0000
  C   C1626     1.0  0.86153  0.85889  0.84802  1.0000
  C   C1627     1.0  0.88138  0.88117  0.83643  1.0000
  H   H1936     1.0  0.80344  0.92308  0.84669  1.0000
  H   H1937     1.0  0.76809  0.90145  0.85905  1.0000
  H   H1938     1.0  0.80491  0.90570  0.86517  1.0000
  H   H1939     1.0  0.78199  0.89217  0.82607  1.0000
  H   H1940     1.0  0.74669  0.86752  0.83735  1.0000
  H   H1941     1.0  0.77095  0.85150  0.82823  1.0000
  H   H1942     1.0  0.74439  0.84655  0.86238  1.0000
  H   H1943     1.0  0.76531  0.82526  0.85559  1.0000
  H   H1944     1.0  0.77811  0.84932  0.87107  1.0000
  H   H1945     1.0  0.83396  0.91425  0.82646  1.0000
  H   H1946     1.0  0.81742  0.83862  0.86122  1.0000
  H   H1947     1.0  0.88663  0.91831  0.81981  1.0000
  H   H1948     1.0  0.86982  0.84397  0.85422  1.0000
  H   H1949     1.0  0.90497  0.88346  0.83358  1.0000
  S   S445      1.0  0.61171  0.86849  0.75301  1.0000
  H   H1950     1.0  0.89896  0.79243  0.94571  1.0000
  H   H1951     1.0  0.53538  0.84703  0.94875  1.0000
  C   C1628     1.0  0.80001  0.52013  0.79391  1.0000
  C   C1629     1.0  0.80991  0.77351  0.96563  1.0000
  H   H1952     1.0  0.98151  0.75630  0.73601  1.0000
  C   C1630     1.0  0.71852  0.97420  0.75773  1.0000
  H   H1953     1.0  0.66229  0.88188  0.91705  1.0000
  C   C1631     1.0  0.56658  0.79787  0.94649  1.0000
  H   H1954     1.0  0.82409  0.65592  0.87687  1.0000
  H   H1955     1.0  0.67533  0.83815  0.92009  1.0000
  H   H1956     1.0  0.65150  0.95439  0.96615  1.0000
  C   C1632     1.0  0.50065  0.84331  0.76920  1.0000
  H   H1957     1.0  0.73154  0.99699  0.78486  1.0000
  H   H1958     1.0  0.60294  0.82246  0.96024  1.0000
  N   N110      1.0  0.81356  0.61822  0.81982  1.0000
  C   C1633     1.0  0.83416  0.64196  0.80728  1.0000
  C   C1634     1.0  0.82165  0.59157  0.81933  1.0000
  C   C1635     1.0  0.78082  0.60866  0.81644  1.0000
  C   C1636     1.0  0.81660  0.62906  0.83534  1.0000
  C   C1637     1.0  0.83334  0.66043  0.83768  1.0000
  C   C1638     1.0  0.80158  0.60808  0.84872  1.0000
  C   C1639     1.0  0.83580  0.66979  0.85252  1.0000
  C   C1640     1.0  0.80433  0.61770  0.86351  1.0000
  C   C1641     1.0  0.82161  0.64848  0.86540  1.0000
  H   H1959     1.0  0.85913  0.65045  0.80935  1.0000
  H   H1960     1.0  0.83217  0.63276  0.79584  1.0000
  H   H1961     1.0  0.82791  0.66177  0.80592  1.0000
  H   H1962     1.0  0.84481  0.59687  0.82352  1.0000
  H   H1963     1.0  0.82292  0.58496  0.80744  1.0000
  H   H1964     1.0  0.80409  0.57051  0.82629  1.0000
  H   H1965     1.0  0.77367  0.62785  0.81718  1.0000
  H   H1966     1.0  0.77767  0.60154  0.80460  1.0000
  H   H1967     1.0  0.76414  0.58892  0.82456  1.0000
  H   H1968     1.0  0.84499  0.67825  0.82826  1.0000
  H   H1969     1.0  0.78761  0.58403  0.84785  1.0000
  H   H1970     1.0  0.84921  0.69376  0.85406  1.0000
  H   H1971     1.0  0.79311  0.60117  0.87356  1.0000
  C   C1642     1.0  0.91557  0.63713  0.96978  1.0000
  H   H1972     1.0  0.65506  0.80434  0.91086  1.0000
  H   H1973     1.0  0.53506  0.77621  0.93002  1.0000
  H   H1974     1.0  0.57391  0.79871  0.90774  1.0000
  H   H1975     1.0  0.54891  0.78742  0.95635  1.0000
  N   N111      1.0  0.85107  0.78412  0.94276  1.0000
  C   C1643     1.0  0.84840  0.75873  0.93340  1.0000
  C   C1644     1.0  0.83601  0.80199  0.93505  1.0000
  C   C1645     1.0  0.88467  0.80497  0.94270  1.0000
  C   C1646     1.0  0.83700  0.77127  0.95879  1.0000
  C   C1647     1.0  0.72627  0.76408  0.74856  1.0000
  H   H1976     1.0  0.66432  0.92384  0.96814  1.0000
  C   C1648     1.0  0.85352  0.58565  0.96766  1.0000
  H   H1977     1.0  0.81128  0.78726  0.93349  1.0000
  H   H1978     1.0  0.81489  0.50877  0.96599  1.0000
  C   C1649     1.0  0.59910  0.89893  0.97341  1.0000
  H   H1979     1.0  0.85801  0.76732  0.92113  1.0000
  H   H1980     1.0  0.86128  0.74561  0.93769  1.0000
  S   S446      1.0  0.85064  0.65493  0.73470  1.0000
  H   H1981     1.0  0.84784  0.81216  0.92323  1.0000
  C   C1650     1.0  0.50792  0.82082  0.76292  1.0000
  H   H1982     1.0  0.90153  0.64373  0.96187  1.0000
  H   H1983     1.0  0.89519  0.81772  0.93113  1.0000
  H   H1984     1.0  0.88789  0.82228  0.95103  1.0000
  H   H1985     1.0  0.48955  0.90074  0.79773  1.0000
  H   H1986     1.0  0.84666  0.53945  0.78203  1.0000
  C   C1651     1.0  0.68113  0.73663  0.73533  1.0000
  C   C1652     1.0  0.73176  0.93943  0.97367  1.0000
  H   H1987     1.0  0.71760  0.78514  0.76834  1.0000
  H   H1988     1.0  0.83710  0.82148  0.94152  1.0000
  H   H1989     1.0  0.73120  0.70091  0.73928  1.0000
  H   H1990     1.0  0.75082  0.77246  0.74997  1.0000
  H   H1991     1.0  0.58811  0.88181  0.93612  1.0000
  H   H1992     1.0  0.81598  0.55776  0.95511  1.0000
  H   H1993     1.0  0.63784  0.73659  0.74504  1.0000
  H   H1994     1.0  0.63148  0.88069  0.90588  1.0000
  H   H1995     1.0  0.61804  0.80479  0.89183  1.0000
  H   H1996     1.0  0.68238  0.83943  0.89976  1.0000
  C   C1653     1.0  0.59703  0.81753  0.94866  1.0000
  H   H1997     1.0  0.62827  0.91373  0.95103  1.0000
  C   C1654     1.0  0.55885  0.79160  0.93163  1.0000
  C   C1655     1.0  0.77246  0.52400  0.79656  1.0000
  N   N112      1.0  0.63777  0.83890  0.90754  1.0000
  C   C1656     1.0  0.65034  0.87281  0.90679  1.0000
  C   C1657     1.0  0.66365  0.82974  0.90966  1.0000
  C   C1658     1.0  0.62689  0.83000  0.89233  1.0000
  C   C1659     1.0  0.61297  0.82475  0.92071  1.0000
  C   C1660     1.0  0.58157  0.80474  0.91888  1.0000
  H   H1998     1.0  0.64620  0.84107  0.88272  1.0000
  C   C1661     1.0  0.92921  0.74833  0.96847  1.0000
  H   H1999     1.0  0.51035  0.83861  0.81520  1.0000
  H   H2000     1.0  0.75319  0.50748  0.80440  1.0000
  C   C1662     1.0  0.49073  0.76486  0.80786  1.0000
  S   S447      1.0  0.63568  0.80659  0.74264  1.0000
  C   C1663     1.0  0.88378  0.70012  0.97498  1.0000
  C   C1664     1.0  0.83244  0.55793  0.96314  1.0000
  C   C1665     1.0  0.66252  0.74377  0.74612  1.0000
  H   H2001     1.0  0.87077  0.75286  0.96358  1.0000
  C   C1666     1.0  0.70746  0.77136  0.75917  1.0000
  H   H2002     1.0  0.51684  0.86688  0.76581  1.0000
  C   C1667     1.0  0.87457  0.58644  0.97858  1.0000
  C   C1668     1.0  0.85232  0.53017  0.97985  1.0000
  C   C1669     1.0  0.85049  0.75584  0.96808  1.0000
  H   H2003     1.0  0.77922  0.98714  0.75253  1.0000
  H   H2004     1.0  0.76507  0.73559  0.74108  1.0000
  C   C1670     1.0  0.83187  0.53026  0.96921  1.0000
  H   H2005     1.0  0.85277  0.60646  0.96272  1.0000
  H   H2006     1.0  0.79777  0.78451  0.95945  1.0000
  H   H2007     1.0  0.94776  0.76828  0.97204  1.0000
  C   C1671     1.0  0.58266  0.88118  0.94844  1.0000
  C   C1672     1.0  0.77184  0.99582  0.76288  1.0000
  H   H2008     1.0  0.69611  0.97643  0.75752  1.0000
  S   S448      1.0  0.65102  0.95148  0.73452  1.0000
  H   H2009     1.0  0.76578  0.97741  0.77263  1.0000
  C   C1673     1.0  0.79770  0.76150  0.98092  1.0000
  C   C1674     1.0  0.49502  0.88467  0.79081  1.0000
  H   H2010     1.0  0.50864  0.87545  0.79771  1.0000
  H   H2011     1.0  0.52288  0.84487  0.97691  1.0000
  H   H2012     1.0  0.72318  0.96619  0.74660  1.0000
  H   H2013     1.0  0.96436  0.78011  0.84430  1.0000
  C   C1675     1.0  0.54590  0.86044  0.97135  1.0000
  C   C1676     1.0  0.90797  0.72551  0.97969  1.0000
  H   H2014     1.0  0.96970  0.78378  0.81805  1.0000
  C   C1677     1.0  0.48827  0.78989  0.81402  1.0000
  C   C1678     1.0  0.56849  0.87894  0.98017  1.0000
  H   H2015     1.0  0.98465  0.74143  0.85074  1.0000
  C   C1679     1.0  0.48830  0.78986  0.76681  1.0000
  C   C1680     1.0  0.74917  0.72245  0.73281  1.0000
  H   H2016     1.0  0.67116  0.95010  0.98225  1.0000
