data_image0
_chemical_formula_structural       FeSHFeS2FeHFeS3FeS2FeHFeCH2S2HCH2C2H3C2HC7H5SH2FeCHC4SC2NC10H2CHC2H6C2H3CH8CHNHNHCHC3H5C2H4CH5SHCNHCHSCHC3HCHC2HSHFeS2HC2H2SHFeSCHCHC2HCHCH4CH2C2NHCHC5H2SHC2HSFeSCH5FeHCSHFeSCH4SCHCHC2HCHCHFeC2H2CHNC3H2C3H2CH3CH3FeC5H2C2NCNC2H4SH4C2H2C2HCHCH3FeH3SC6H2S2C3HCH2CHSH2S2HCNC2SH2C2H2C3HCH4C2NCH2CHCH3CH2CH3SCH2C3HCHC2H2CHSCH2CHC4SHCHC2H4CH2SCHCH3C2H3FeSCFeCSCFeSCSFeSFe2C2HC3H3CNH8C2H2CHSH3NFeC4H6S2CHCHCFeHCSC2SH4C2H2FeSCFeC2FeSCHSFeS2FeS2FeHFeS3H2SFeH2C2H3C6H6NC2SCH3CSCH2CHCH2SH2CH2CSHCH2CHC3NC2HCH2CHCH3C2H4C2H2C2NC6H2SHCH2C2HC2H2CHCSHFeSHFeS2FeSFeS3FeS2FeHFeH2CS2CHNH2CHCHCH3C6H8CH2NC2H4CH2CHC3HNHC4H4FeC2HCHCHC3H4C2H4C4HSC2H4CHC3HC2HCH6CHCNC2H2CSHC2FeSFeHCSH2SCFeHS2HS2CH3CHCHCHCHCHNHC2H3CHCHSCHSC2H3FeC3H3C2H3CH2CFeCHCSHCSH3C2SC3SH2NHC2HC4HNC5H2SC2HC2HCFeH5C6HCFeHSHFeH3CH6CH10C3H2C3SH3SH2CSHCS2HCSHCH2SHC3H2FeHC3HC2SC2SH3CHSH2CH2CHNCH2C3HCHC4H2C2HNFeH2SCHCH2CHCH6C2H4C2HCH2C2H2FeSNC2FeSHFeS2H2SCHFeSHSH4C3FeC3H3CHC3NCHCFeNH3CSCHCH2CHC3H2C2SCHCH3CH2CH3CHCH3C4H3C3NC3H2SH2C2H2CH2FeS2FeSHFeSFeCSFeS2FeCSFeCFeS3C4H3C3HC6H4C2H3CNCH2CHCHSH3C2H2C2NH3NHCNH2CH3C2H2CSHCH2C2HCHCHCH2CHCH7CH2C4H4CH2C2HCHCH4C2SHSC2
_chemical_formula_sum              "Fe64 S128 H576 C480 N32"
_cell_length_a       39.8579
_cell_length_b       34.4667
_cell_length_c       39.7874
_cell_angle_alpha    89.8249
_cell_angle_beta     90.1454
_cell_angle_gamma    90.2269

_space_group_name_H-M_alt    "P 1"
_space_group_IT_number       1

loop_
  _space_group_symop_operation_xyz
  'x, y, z'

loop_
  _atom_site_type_symbol
  _atom_site_label
  _atom_site_symmetry_multiplicity
  _atom_site_fract_x
  _atom_site_fract_y
  _atom_site_fract_z
  _atom_site_occupancy
  Fe  Fe1       1.0  0.45600  0.08669  0.18216  1.0000
  S   S1        1.0  0.43099  0.03294  0.16212  1.0000
  H   H1        1.0  0.48894  0.26754  0.24755  1.0000
  Fe  Fe2       1.0  0.41362  0.14105  0.13784  1.0000
  S   S2        1.0  0.38647  0.09070  0.11407  1.0000
  S   S3        1.0  0.40665  0.20476  0.12174  1.0000
  Fe  Fe3       1.0  0.38274  0.06646  0.16669  1.0000
  H   H2        1.0  0.41418  0.25384  0.20617  1.0000
  Fe  Fe4       1.0  0.43648  0.06050  0.11064  1.0000
  S   S4        1.0  0.44725  0.01765  0.06735  1.0000
  S   S5        1.0  0.40717  0.11860  0.19050  1.0000
  S   S6        1.0  0.46437  0.11265  0.13068  1.0000
  Fe  Fe5       1.0  0.30257  0.40424  0.16489  1.0000
  S   S7        1.0  0.33826  0.44407  0.13756  1.0000
  S   S8        1.0  0.30887  0.33876  0.17500  1.0000
  Fe  Fe6       1.0  0.25108  0.47005  0.17626  1.0000
  H   H3        1.0  0.36665  0.17585  0.27473  1.0000
  Fe  Fe7       1.0  0.29218  0.46769  0.11101  1.0000
  C   C1        1.0  0.08730  0.00811  0.26164  1.0000
  H   H4        1.0  0.07777  0.00341  0.20830  1.0000
  H   H5        1.0  0.04153  0.48311  0.20425  1.0000
  S   S9        1.0  0.25733  0.42507  0.13581  1.0000
  S   S10       1.0  0.29328  0.44608  0.20788  1.0000
  H   H6        1.0  0.31257  0.30496  0.03653  1.0000
  C   C2        1.0  0.01890  0.46882  0.21275  1.0000
  H   H7        1.0  0.09427  0.45149  0.27960  1.0000
  H   H8        1.0  0.15255  0.08469  0.31945  1.0000
  C   C3        1.0  0.38787  0.21728  0.24022  1.0000
  C   C4        1.0  0.25152  0.37253  0.04936  1.0000
  H   H9        1.0  0.08351  0.45950  0.23687  1.0000
  H   H10       1.0  0.04198  0.06400  0.31489  1.0000
  H   H11       1.0  0.30458  0.39864  0.08328  1.0000
  C   C5        1.0  0.41941  0.16633  0.26715  1.0000
  C   C6        1.0  0.22228  0.41751  0.01129  1.0000
  H   H12       1.0  0.24093  0.12561  0.18126  1.0000
  C   C7        1.0  0.32012  0.01488  0.27836  1.0000
  C   C8        1.0  0.37929  0.24157  0.13712  1.0000
  C   C9        1.0  0.35379  0.23370  0.16029  1.0000
  C   C10       1.0  0.33273  0.26383  0.17163  1.0000
  C   C11       1.0  0.33685  0.30227  0.16016  1.0000
  C   C12       1.0  0.36246  0.31020  0.13709  1.0000
  C   C13       1.0  0.38342  0.28002  0.12562  1.0000
  H   H13       1.0  0.35014  0.20434  0.16930  1.0000
  H   H14       1.0  0.31294  0.25725  0.18935  1.0000
  H   H15       1.0  0.36610  0.33955  0.12808  1.0000
  H   H16       1.0  0.40302  0.28652  0.10767  1.0000
  H   H17       1.0  0.49499  0.00679  0.21681  1.0000
  S   S11       1.0  0.33105  0.04081  0.17867  1.0000
  H   H18       1.0  0.03018  0.41873  0.30618  1.0000
  H   H19       1.0  0.46432  0.19378  0.16514  1.0000
  Fe  Fe8       1.0  0.32670  0.48693  0.17870  1.0000
  C   C14       1.0  0.27853  0.32627  0.08896  1.0000
  H   H20       1.0  0.01199  0.18448  0.00611  1.0000
  C   C15       1.0  0.14855  0.08553  0.25408  1.0000
  C   C16       1.0  0.04205  0.04172  0.23147  1.0000
  C   C17       1.0  0.03222  0.05879  0.26169  1.0000
  C   C18       1.0  0.04971  0.05044  0.29169  1.0000
  S   S12       1.0  0.02132  0.05151  0.19274  1.0000
  C   C19       1.0  0.43178  0.48320  0.26570  1.0000
  C   C20       1.0  0.01500  0.45728  0.24683  1.0000
  N   N1        1.0  0.17974  0.07630  0.27304  1.0000
  C   C21       1.0  0.31498  0.02531  0.21809  1.0000
  C   C22       1.0  0.18168  0.03360  0.27680  1.0000
  C   C23       1.0  0.38919  0.18568  0.26206  1.0000
  C   C24       1.0  0.21071  0.09034  0.25636  1.0000
  C   C25       1.0  0.21104  0.10444  0.22269  1.0000
  C   C26       1.0  0.24216  0.08789  0.27308  1.0000
  C   C27       1.0  0.24105  0.11561  0.20713  1.0000
  C   C28       1.0  0.27188  0.09964  0.25742  1.0000
  C   C29       1.0  0.27138  0.11316  0.22443  1.0000
  C   C30       1.0  0.19466  0.39586  0.06180  1.0000
  H   H21       1.0  0.17331  0.39701  0.07860  1.0000
  H   H22       1.0  0.14645  0.11719  0.24901  1.0000
  C   C31       1.0  0.48550  0.26526  0.21984  1.0000
  H   H23       1.0  0.30169  0.30945  0.09461  1.0000
  C   C32       1.0  0.31055  0.37728  0.06332  1.0000
  C   C33       1.0  0.41673  0.22958  0.22329  1.0000
  H   H24       1.0  0.45236  0.24379  0.16492  1.0000
  H   H25       1.0  0.05524  0.45671  0.32390  1.0000
  H   H26       1.0  0.17336  0.43643  0.02649  1.0000
  H   H27       1.0  0.36426  0.23209  0.23596  1.0000
  H   H28       1.0  0.18402  0.01916  0.25194  1.0000
  H   H29       1.0  0.29564  0.09663  0.27048  1.0000
  C   C34       1.0  0.44846  0.17842  0.25039  1.0000
  C   C35       1.0  0.25048  0.39545  0.01965  1.0000
  H   H30       1.0  0.31662  0.39455  0.04046  1.0000
  H   H31       1.0  0.36655  0.00675  0.12377  1.0000
  H   H32       1.0  0.49509  0.23116  0.15848  1.0000
  C   C36       1.0  0.47345  0.01576  0.03079  1.0000
  H   H33       1.0  0.17648  0.12613  0.30537  1.0000
  H   H34       1.0  0.19665  0.08499  0.32442  1.0000
  H   H35       1.0  0.33384  0.36191  0.07109  1.0000
  H   H36       1.0  0.26728  0.00835  0.19693  1.0000
  H   H37       1.0  0.25765  0.30492  0.08676  1.0000
  H   H38       1.0  0.20371  0.02458  0.29216  1.0000
  H   H39       1.0  0.15894  0.02165  0.28934  1.0000
  H   H40       1.0  0.22107  0.35738  0.09359  1.0000
  C   C37       1.0  0.40502  0.48727  0.24274  1.0000
  H   H41       1.0  0.43721  0.45492  0.27617  1.0000
  N   N2        1.0  0.04195  0.46523  0.27163  1.0000
  H   H42       1.0  0.29469  0.12071  0.21193  1.0000
  N   N3        1.0  0.28207  0.35016  0.05799  1.0000
  H   H43       1.0  0.12566  0.07711  0.26841  1.0000
  C   C38       1.0  0.07382  0.44701  0.26076  1.0000
  H   H44       1.0  0.42025  0.14122  0.28363  1.0000
  C   C39       1.0  0.33398  0.02745  0.24760  1.0000
  C   C40       1.0  0.07729  0.02506  0.29190  1.0000
  C   C41       1.0  0.29060  0.32350  0.03011  1.0000
  H   H45       1.0  0.24433  0.07541  0.29797  1.0000
  H   H46       1.0  0.26908  0.30400  0.02414  1.0000
  H   H47       1.0  0.07056  0.41522  0.25709  1.0000
  H   H48       1.0  0.18857  0.10649  0.20762  1.0000
  H   H49       1.0  0.27418  0.34464  0.11148  1.0000
  C   C42       1.0  0.44799  0.21060  0.22789  1.0000
  C   C43       1.0  0.22252  0.37316  0.07016  1.0000
  H   H50       1.0  0.47074  0.16144  0.25498  1.0000
  H   H51       1.0  0.27198  0.39782  0.00328  1.0000
  H   H52       1.0  0.21914  0.47448  0.25750  1.0000
  H   H53       1.0  0.46489  0.28531  0.21259  1.0000
  C   C44       1.0  0.17635  0.09389  0.30692  1.0000
  H   H54       1.0  0.39006  0.46233  0.23565  1.0000
  H   H55       1.0  0.99763  0.13778  0.06983  1.0000
  H   H56       1.0  0.02603  0.12382  0.03767  1.0000
  H   H57       1.0  0.01165  0.07912  0.26182  1.0000
  H   H58       1.0  0.35932  0.03877  0.24674  1.0000
  S   S13       1.0  0.29308  0.47699  0.05383  1.0000
  H   H59       1.0  0.14697  0.06941  0.22992  1.0000
  C   C45       1.0  0.47230  0.22337  0.17315  1.0000
  N   N4        1.0  0.47825  0.22462  0.20993  1.0000
  H   H60       1.0  0.29744  0.33934  0.00672  1.0000
  C   C46       1.0  0.19458  0.41803  0.03248  1.0000
  H   H61       1.0  0.01752  0.07737  0.99842  1.0000
  S   S14       1.0  0.19781  0.48996  0.18830  1.0000
  C   C47       1.0  0.03430  0.45067  0.30599  1.0000
  H   H62       1.0  0.01174  0.46523  0.31666  1.0000
  C   C48       1.0  0.28217  0.01014  0.21964  1.0000
  C   C49       1.0  0.19591  0.49059  0.25808  1.0000
  C   C50       1.0  0.06986  0.01662  0.23160  1.0000
  H   H63       1.0  0.19306  0.49137  0.31223  1.0000
  C   C51       1.0  0.99924  0.12236  0.04535  1.0000
  H   H64       1.0  0.33498  0.01680  0.30110  1.0000
  C   C52       1.0  0.28715  0.00020  0.28004  1.0000
  C   C53       1.0  0.49446  0.04645  0.02111  1.0000
  H   H65       1.0  0.49525  0.07260  0.03606  1.0000
  S   S15       1.0  0.09904  0.01713  0.33034  1.0000
  H   H66       1.0  0.32247  0.17889  0.51824  1.0000
  Fe  Fe9       1.0  0.29553  0.05506  0.62799  1.0000
  S   S16       1.0  0.25907  0.10017  0.64458  1.0000
  S   S17       1.0  0.30170  0.04327  0.57157  1.0000
  H   H67       1.0  0.34101  0.11399  0.59108  1.0000
  C   C54       1.0  0.22068  0.00408  0.49474  1.0000
  C   C55       1.0  0.23623  0.02414  0.55203  1.0000
  H   H68       1.0  0.26167  0.00160  0.45976  1.0000
  H   H69       1.0  0.41413  0.26614  0.57428  1.0000
  S   S18       1.0  0.38307  0.42007  0.62435  1.0000
  H   H70       1.0  0.31525  0.30159  0.60158  1.0000
  Fe  Fe10      1.0  0.43105  0.44974  0.60773  1.0000
  S   S19       1.0  0.44835  0.45064  0.55240  1.0000
  C   C56       1.0  0.37457  0.47381  0.36505  1.0000
  H   H71       1.0  0.22889  0.03029  0.57762  1.0000
  C   C57       1.0  0.33198  0.27926  0.59248  1.0000
  H   H72       1.0  0.27780  0.18235  0.56209  1.0000
  C   C58       1.0  0.29415  0.16466  0.57880  1.0000
  C   C59       1.0  0.46785  0.48582  0.52571  1.0000
  H   H73       1.0  0.29377  0.23663  0.59241  1.0000
  C   C60       1.0  0.34174  0.21144  0.57637  1.0000
  H   H74       1.0  0.36290  0.15955  0.52905  1.0000
  C   C61       1.0  0.34961  0.14467  0.59359  1.0000
  H   H75       1.0  0.34679  0.15346  0.62037  1.0000
  H   H76       1.0  0.28839  0.17167  0.60549  1.0000
  H   H77       1.0  0.39402  0.20032  0.56319  1.0000
  H   H78       1.0  0.28654  0.13374  0.57505  1.0000
  C   C62       1.0  0.26990  0.02806  0.54262  1.0000
  H   H79       1.0  0.37525  0.31685  0.59346  1.0000
  H   H80       1.0  0.43112  0.44187  0.39389  1.0000
  C   C63       1.0  0.38771  0.25926  0.57716  1.0000
  C   C64       1.0  0.35073  0.47242  0.33918  1.0000
  N   N5        1.0  0.33029  0.17090  0.57128  1.0000
  H   H81       1.0  0.32672  0.12901  0.53119  1.0000
  C   C65       1.0  0.36580  0.28799  0.58784  1.0000
  H   H82       1.0  0.37684  0.14456  0.58788  1.0000
  C   C66       1.0  0.37593  0.22162  0.57119  1.0000
  C   C67       1.0  0.31998  0.24157  0.58709  1.0000
  C   C68       1.0  0.27874  0.01983  0.50911  1.0000
  C   C69       1.0  0.33590  0.15919  0.53590  1.0000
  C   C70       1.0  0.21188  0.01226  0.52826  1.0000
  H   H83       1.0  0.30466  0.02264  0.50147  1.0000
  H   H84       1.0  0.33297  0.44856  0.33780  1.0000
  S   S20       1.0  0.46294  0.41581  0.64406  1.0000
  H   H85       1.0  0.37441  0.45043  0.38319  1.0000
  C   C71       1.0  0.25437  0.00785  0.48534  1.0000
  C   C72       1.0  0.48171  0.47373  0.49493  1.0000
  H   H86       1.0  0.46621  0.46869  0.40942  1.0000
  S   S21       1.0  0.18914  0.01250  0.36662  1.0000
  Fe  Fe11      1.0  0.41450  0.38881  0.66276  1.0000
  S   S22       1.0  0.33871  0.08069  0.65818  1.0000
  C   C73       1.0  0.44562  0.46918  0.39048  1.0000
  H   H87       1.0  0.18597  0.00933  0.53593  1.0000
  H   H88       1.0  0.21527  0.47584  0.64528  1.0000
  H   H89       1.0  0.26818  0.44466  0.66316  1.0000
  H   H90       1.0  0.48049  0.44337  0.48819  1.0000
  H   H91       1.0  0.45738  0.46817  0.36509  1.0000
  Fe  Fe12      1.0  0.37909  0.46684  0.66395  1.0000
  H   H92       1.0  0.39364  0.47643  0.43207  1.0000
  C   C74       1.0  0.19726  0.46413  0.72921  1.0000
  S   S23       1.0  0.28566  0.08747  0.72142  1.0000
  H   H93       1.0  0.23889  0.20884  0.76750  1.0000
  Fe  Fe13      1.0  0.24713  0.06014  0.68766  1.0000
  S   S24       1.0  0.19186  0.04972  0.69897  1.0000
  C   C75       1.0  0.15844  0.13350  0.76222  1.0000
  H   H94       1.0  0.17890  0.22543  0.75368  1.0000
  H   H95       1.0  0.25761  0.16658  0.74802  1.0000
  H   H96       1.0  0.11845  0.45976  0.76258  1.0000
  H   H97       1.0  0.29086  0.49421  0.98303  1.0000
  S   S25       1.0  0.40806  0.43422  0.70350  1.0000
  C   C76       1.0  0.39147  0.24683  0.67026  1.0000
  H   H98       1.0  0.46904  0.03132  0.72504  1.0000
  C   C77       1.0  0.23881  0.19014  0.74477  1.0000
  H   H99       1.0  0.22200  0.12373  0.71163  1.0000
  C   C78       1.0  0.20859  0.14315  0.79574  1.0000
  C   C79       1.0  0.19424  0.12110  0.82161  1.0000
  H   H100      1.0  0.33969  0.46994  0.74074  1.0000
  C   C80       1.0  0.16211  0.10562  0.81799  1.0000
  H   H101      1.0  0.01970  0.04883  0.94323  1.0000
  C   C81       1.0  0.15083  0.00912  0.80112  1.0000
  H   H102      1.0  0.29787  0.27394  0.67869  1.0000
  Fe  Fe14      1.0  0.45382  0.46359  0.68136  1.0000
  C   C82       1.0  0.39142  0.99987  0.74868  1.0000
  C   C83       1.0  0.17817  0.46004  0.78850  1.0000
  H   H103      1.0  0.12831  0.46791  0.71968  1.0000
  H   H104      1.0  0.20828  0.11530  0.84444  1.0000
  C   C84       1.0  0.42993  0.07901  0.83110  1.0000
  H   H105      1.0  0.04217  0.45920  0.80188  1.0000
  N   N6        1.0  0.45315  0.03591  0.87664  1.0000
  C   C85       1.0  0.17690  0.03348  0.73845  1.0000
  C   C86       1.0  0.48359  0.02667  0.85698  1.0000
  C   C87       1.0  0.32401  0.26615  0.67634  1.0000
  H   H106      1.0  0.15711  0.19817  0.72196  1.0000
  H   H107      1.0  0.23382  0.43826  0.76415  1.0000
  C   C88       1.0  0.44528  0.00133  0.89765  1.0000
  C   C89       1.0  0.13840  0.45535  0.74338  1.0000
  C   C90       1.0  0.20732  0.15044  0.70667  1.0000
  H   H108      1.0  0.30984  0.48349  0.79425  1.0000
  H   H109      1.0  0.10333  0.00491  0.77556  1.0000
  C   C91       1.0  0.18509  0.01802  0.79751  1.0000
  H   H110      1.0  0.43849  0.07705  0.91436  1.0000
  H   H111      1.0  0.48107  0.06045  0.91809  1.0000
  H   H112      1.0  0.24829  0.20852  0.72372  1.0000
  C   C92       1.0  0.41602  0.02046  0.73100  1.0000
  H   H113      1.0  0.20106  0.47452  0.79881  1.0000
  H   H114      1.0  0.27627  0.42528  0.72230  1.0000
  H   H115      1.0  0.40871  0.04001  0.71099  1.0000
  Fe  Fe15      1.0  0.32081  0.04229  0.70067  1.0000
  C   C93       1.0  0.40503  0.08922  0.80793  1.0000
  C   C94       1.0  0.45023  0.01551  0.73910  1.0000
  C   C95       1.0  0.12975  0.01154  0.77305  1.0000
  C   C96       1.0  0.19087  0.15038  0.76527  1.0000
  C   C97       1.0  0.04479  0.48099  0.78241  1.0000
  H   H116      1.0  0.20154  0.01620  0.81912  1.0000
  H   H117      1.0  0.37442  0.18707  0.67161  1.0000
  C   C98       1.0  0.02487  0.47850  0.75317  1.0000
  C   C99       1.0  0.25274  0.43834  0.71463  1.0000
  N   N7        1.0  0.17065  0.47348  0.75377  1.0000
  C   C100      1.0  0.24820  0.44918  0.68120  1.0000
  N   N8        1.0  0.20483  0.17424  0.73753  1.0000
  C   C101      1.0  0.14275  0.02389  0.74189  1.0000
  C   C102      1.0  0.42571  0.04712  0.85343  1.0000
  H   H118      1.0  0.42344  0.00658  0.91437  1.0000
  H   H119      1.0  0.21995  0.16638  0.68579  1.0000
  H   H120      1.0  0.15741  0.46714  0.80620  1.0000
  H   H121      1.0  0.18157  0.42806  0.78960  1.0000
  S   S26       1.0  0.30066  0.19067  0.67766  1.0000
  H   H122      1.0  0.14397  0.13638  0.73936  1.0000
  H   H123      1.0  0.40922  0.11287  0.79040  1.0000
  H   H124      1.0  0.22444  0.03736  0.76399  1.0000
  H   H125      1.0  0.19267  0.22679  0.71058  1.0000
  C   C103      1.0  0.22792  0.44596  0.73850  1.0000
  C   C104      1.0  0.19326  0.47423  0.69479  1.0000
  H   H126      1.0  0.00715  0.45490  0.75020  1.0000
  H   H127      1.0  0.15140  0.08768  0.83775  1.0000
  C   C105      1.0  0.46101  0.06846  0.89971  1.0000
  C   C106      1.0  0.19811  0.03020  0.76633  1.0000
  H   H128      1.0  0.11987  0.09821  0.78515  1.0000
  C   C107      1.0  0.14432  0.11167  0.78830  1.0000
  H   H129      1.0  0.45288  0.09578  0.83088  1.0000
  C   C108      1.0  0.18237  0.20757  0.73068  1.0000
  H   H130      1.0  0.47038  0.09453  0.88614  1.0000
  H   H131      1.0  0.14128  0.42355  0.73973  1.0000
  H   H132      1.0  0.34120  0.32596  0.67510  1.0000
  Fe  Fe16      1.0  0.30081  0.12406  0.67673  1.0000
  H   H133      1.0  0.23374  0.15372  0.80010  1.0000
  H   H134      1.0  0.18248  0.14066  0.69708  1.0000
  H   H135      1.0  0.12623  0.02625  0.72037  1.0000
  S   S27       1.0  0.04140  0.00715  0.87622  1.0000
  C   C109      1.0  0.31962  0.49095  0.74125  1.0000
  C   C110      1.0  0.21848  0.46699  0.67127  1.0000
  C   C111      1.0  0.38252  0.28634  0.67122  1.0000
  C   C112      1.0  0.33298  0.22665  0.67527  1.0000
  C   C113      1.0  0.36694  0.21718  0.67221  1.0000
  C   C114      1.0  0.34854  0.29580  0.67428  1.0000
  H   H136      1.0  0.17083  0.48855  0.68593  1.0000
  H   H137      1.0  0.22247  0.43573  0.98900  1.0000
  S   S28       1.0  0.41479  0.32236  0.66852  1.0000
  S   S29       1.0  0.28094  0.01302  0.66894  1.0000
  C   C115      1.0  0.39467  0.02668  0.85161  1.0000
  C   C116      1.0  0.00121  0.08975  0.97953  1.0000
  C   C117      1.0  0.00265  0.07276  0.94769  1.0000
  H   H138      1.0  0.41765  0.23913  0.66801  1.0000
  C   C118      1.0  0.37510  0.06834  0.80655  1.0000
  H   H139      1.0  0.34687  0.02052  0.82639  1.0000
  H   H140      1.0  0.38920  0.00177  0.86717  1.0000
  C   C119      1.0  0.36985  0.03734  0.82845  1.0000
  H   H141      1.0  0.35628  0.07538  0.78778  1.0000
  S   S30       1.0  0.34788  0.00514  0.73992  1.0000
  H   H142      1.0  0.47856  0.00272  0.83897  1.0000
  H   H143      1.0  0.49320  0.05171  0.84221  1.0000
  S   S31       1.0  0.17506  0.93720  0.31599  1.0000
  S   S32       1.0  0.48405  0.50856  0.30495  1.0000
  H   H144      1.0  0.42312  0.93791  0.14660  1.0000
  C   C120      1.0  0.00757  0.99665  0.02959  1.0000
  N   N9        1.0  0.16421  0.64987  0.30100  1.0000
  C   C121      1.0  0.41744  0.93521  0.19966  1.0000
  C   C122      1.0  0.32075  0.94912  0.12261  1.0000
  S   S33       1.0  0.05103  0.59779  0.30935  1.0000
  H   H145      1.0  0.35772  0.91181  0.07937  1.0000
  H   H146      1.0  0.32160  0.94450  0.18630  1.0000
  C   C123      1.0  0.17012  0.69215  0.29691  1.0000
  C   C124      1.0  0.13559  0.53247  0.26008  1.0000
  H   H147      1.0  0.35835  0.88351  0.11756  1.0000
  H   H148      1.0  0.11279  0.54925  0.26055  1.0000
  C   C125      1.0  0.37275  0.53201  0.31621  1.0000
  C   C126      1.0  0.41699  0.55595  0.23898  1.0000
  C   C127      1.0  0.44371  0.55191  0.26200  1.0000
  H   H149      1.0  0.41124  0.58428  0.22872  1.0000
  C   C128      1.0  0.36774  0.91065  0.10552  1.0000
  H   H150      1.0  0.16156  0.70312  0.27205  1.0000
  H   H151      1.0  0.30763  0.92325  0.13309  1.0000
  H   H152      1.0  0.37230  0.55415  0.29675  1.0000
  H   H153      1.0  0.11883  0.64843  0.00225  1.0000
  C   C129      1.0  0.19665  0.61416  0.21662  1.0000
  C   C130      1.0  0.18105  0.50021  0.28903  1.0000
  N   N10       1.0  0.35779  0.94524  0.12518  1.0000
  C   C131      1.0  0.34843  0.94124  0.18855  1.0000
  H   H154      1.0  0.40059  0.97858  0.10793  1.0000
  H   H155      1.0  0.16003  0.65498  0.23216  1.0000
  C   C132      1.0  0.20882  0.60043  0.28480  1.0000
  H   H156      1.0  0.19159  0.61866  0.19011  1.0000
  C   C133      1.0  0.17862  0.63456  0.24092  1.0000
  H   H157      1.0  0.23415  0.57071  0.20739  1.0000
  H   H158      1.0  0.18363  0.53966  0.03106  1.0000
  H   H159      1.0  0.39545  0.90818  0.10311  1.0000
  C   C134      1.0  0.22698  0.58058  0.26025  1.0000
  H   H160      1.0  0.13829  0.53122  0.20588  1.0000
  H   H161      1.0  0.10837  0.98845  0.26134  1.0000
  C   C135      1.0  0.39740  0.52376  0.22935  1.0000
  H   H162      1.0  0.31233  0.95236  0.09605  1.0000
  H   H163      1.0  0.21415  0.59271  0.31057  1.0000
  H   H164      1.0  0.34405  0.93952  0.24252  1.0000
  S   S34       1.0  0.13357  0.53250  0.32994  1.0000
  C   C136      1.0  0.15087  0.52116  0.29020  1.0000
  H   H165      1.0  0.03907  0.94362  0.26235  1.0000
  H   H166      1.0  0.06335  0.78658  0.31996  1.0000
  C   C137      1.0  0.26830  0.99759  0.25043  1.0000
  C   C138      1.0  0.22080  0.58725  0.22628  1.0000
  C   C139      1.0  0.39550  0.93572  0.22684  1.0000
  H   H167      1.0  0.19724  0.69937  0.29953  1.0000
  C   C140      1.0  0.40504  0.93776  0.16681  1.0000
  H   H168      1.0  0.15617  0.70930  0.31598  1.0000
  C   C141      1.0  0.47293  0.98207  0.01074  1.0000
  C   C142      1.0  0.15020  0.52238  0.22912  1.0000
  H   H169      1.0  0.44426  0.93355  0.20405  1.0000
  H   H170      1.0  0.24522  0.55883  0.26751  1.0000
  C   C143      1.0  0.17696  0.69229  0.99896  1.0000
  H   H171      1.0  0.45837  0.57699  0.26931  1.0000
  S   S35       1.0  0.28377  0.51367  0.14973  1.0000
  C   C144      1.0  0.23145  0.51294  0.04168  1.0000
  H   H172      1.0  0.16178  0.70006  0.02137  1.0000
  H   H173      1.0  0.36391  0.98465  0.08309  1.0000
  C   C145      1.0  0.37014  0.94139  0.16021  1.0000
  H   H174      1.0  0.11850  0.65232  0.27135  1.0000
  C   C146      1.0  0.18404  0.62824  0.27582  1.0000
  C   C147      1.0  0.18051  0.50162  0.22795  1.0000
  C   C148      1.0  0.37284  0.98019  0.10935  1.0000
  C   C149      1.0  0.36109  0.93846  0.22128  1.0000
  S   S36       1.0  0.36325  0.53105  0.20140  1.0000
  H   H175      1.0  0.40515  0.93445  0.25231  1.0000
  C   C150      1.0  0.45111  0.51548  0.27555  1.0000
  H   H176      1.0  0.24312  0.98590  0.25123  1.0000
  C   C151      1.0  0.20705  0.52987  0.02042  1.0000
  C   C152      1.0  0.02306  0.94539  0.31378  1.0000
  H   H177      1.0  0.31184  0.97551  0.13603  1.0000
  H   H178      1.0  0.03244  0.99100  0.03936  1.0000
  H   H179      1.0  0.05563  0.52075  0.25001  1.0000
  H   H180      1.0  0.45690  0.95804  0.01786  1.0000
  C   C153      1.0  0.12800  0.64176  0.29597  1.0000
  H   H181      1.0  0.12300  0.61001  0.29739  1.0000
  H   H182      1.0  0.22661  0.50972  0.06830  1.0000
  S   S37       1.0  0.27103  0.98592  0.31982  1.0000
  C   C154      1.0  0.01902  0.95137  0.27940  1.0000
  H   H183      1.0  0.19541  0.66994  0.00728  1.0000
  C   C155      1.0  0.04725  0.50765  0.27411  1.0000
  H   H184      1.0  0.11231  0.65619  0.31540  1.0000
  H   H185      1.0  0.06678  0.51484  0.29320  1.0000
  H   H186      1.0  0.02359  0.52245  0.28145  1.0000
  C   C156      1.0  0.26188  0.49994  0.02842  1.0000
  C   C157      1.0  0.34995  0.50139  0.31471  1.0000
  H   H187      1.0  0.33197  0.49992  0.29421  1.0000
  H   H188      1.0  0.04621  0.93313  0.32340  1.0000
  H   H189      1.0  0.41442  0.55748  0.34054  1.0000
  Fe  Fe17      1.0  0.18736  0.97116  0.41030  1.0000
  S   S38       1.0  0.22017  0.92736  0.38507  1.0000
  C   C158      1.0  0.08467  0.77951  0.33570  1.0000
  Fe  Fe18      1.0  0.17290  0.90061  0.36350  1.0000
  C   C159      1.0  0.20577  0.84111  0.53466  1.0000
  S   S39       1.0  0.13995  0.94230  0.39142  1.0000
  C   C160      1.0  0.39856  0.50432  0.36706  1.0000
  Fe  Fe19      1.0  0.05129  0.64161  0.35167  1.0000
  S   S40       1.0  0.08726  0.60825  0.38400  1.0000
  C   C161      1.0  0.17927  0.81437  0.47181  1.0000
  S   S41       1.0  0.04275  0.53060  0.36804  1.0000
  Fe  Fe20      1.0  0.04163  0.57834  0.40607  1.0000
  S   S42       1.0  0.03843  0.56763  0.46287  1.0000
  Fe  Fe21      1.0  0.21968  0.96720  0.33996  1.0000
  Fe  Fe22      1.0  0.08492  0.56318  0.34323  1.0000
  C   C162      1.0  0.48583  0.55179  0.51233  1.0000
  C   C163      1.0  0.46973  0.52515  0.53409  1.0000
  H   H190      1.0  0.46596  0.53793  0.41359  1.0000
  C   C164      1.0  0.22668  0.90032  0.50913  1.0000
  C   C165      1.0  0.20969  0.86431  0.50527  1.0000
  C   C166      1.0  0.13689  0.79969  0.36267  1.0000
  H   H191      1.0  0.15335  0.88814  0.47713  1.0000
  H   H192      1.0  0.19317  0.81335  0.53429  1.0000
  H   H193      1.0  0.16726  0.60814  0.34147  1.0000
  C   C167      1.0  0.11540  0.73305  0.36911  1.0000
  N   N11       1.0  0.42439  0.50419  0.39396  1.0000
  H   H194      1.0  0.48741  0.58206  0.51931  1.0000
  H   H195      1.0  0.46141  0.53958  0.36910  1.0000
  H   H196      1.0  0.21770  0.83945  0.42287  1.0000
  H   H197      1.0  0.11788  0.70430  0.37974  1.0000
  H   H198      1.0  0.16130  0.87239  0.43483  1.0000
  H   H199      1.0  0.18619  0.90964  0.45282  1.0000
  H   H200      1.0  0.17018  0.80660  0.44610  1.0000
  H   H201      1.0  0.15666  0.81518  0.48817  1.0000
  C   C168      1.0  0.23464  0.88913  0.56864  1.0000
  C   C169      1.0  0.22593  0.84902  0.44831  1.0000
  H   H202      1.0  0.03750  0.54186  0.53154  1.0000
  H   H203      1.0  0.23040  0.91968  0.48799  1.0000
  C   C170      1.0  0.08773  0.74161  0.34869  1.0000
  H   H204      1.0  0.16139  0.75462  0.39123  1.0000
  S   S43       1.0  0.16924  0.83436  0.37121  1.0000
  H   H205      1.0  0.23911  0.87717  0.44460  1.0000
  H   H206      1.0  0.24472  0.82780  0.45772  1.0000
  H   H207      1.0  0.21481  0.83558  0.58798  1.0000
  N   N12       1.0  0.19720  0.85226  0.47178  1.0000
  Fe  Fe23      1.0  0.14442  0.98047  0.34550  1.0000
  C   C171      1.0  0.21811  0.85356  0.56582  1.0000
  C   C172      1.0  0.17352  0.88178  0.45866  1.0000
  C   C173      1.0  0.13994  0.76179  0.37575  1.0000
  C   C174      1.0  0.23895  0.91240  0.54033  1.0000
  H   H208      1.0  0.25170  0.94019  0.54256  1.0000
  H   H209      1.0  0.24408  0.89883  0.59280  1.0000
  H   H210      1.0  0.19593  0.79031  0.48004  1.0000
  H   H211      1.0  0.43285  0.56610  0.39585  1.0000
  H   H212      1.0  0.48515  0.88988  0.38667  1.0000
  H   H213      1.0  0.45841  0.53506  0.55714  1.0000
  S   S44       1.0  0.00544  0.61519  0.37654  1.0000
  S   S45       1.0  0.05680  0.70609  0.33788  1.0000
  C   C175      1.0  0.01654  0.52803  0.51900  1.0000
  H   H214      1.0  0.42691  0.50542  0.44827  1.0000
  C   C176      1.0  0.44699  0.53853  0.39297  1.0000
  H   H215      1.0  0.15694  0.65598  0.35457  1.0000
  C   C177      1.0  0.40813  0.50352  0.42749  1.0000
  Fe  Fe24      1.0  0.00858  0.56847  0.33703  1.0000
  H   H216      1.0  0.39063  0.52840  0.43034  1.0000
  C   C178      1.0  0.39689  0.53356  0.34177  1.0000
  S   S46       1.0  0.18870  0.98823  0.46625  1.0000
  C   C179      1.0  0.10892  0.80842  0.34276  1.0000
  C   C180      1.0  0.01161  0.53441  0.48437  1.0000
  S   S47       1.0  0.42420  0.49885  0.64388  1.0000
  H   H217      1.0  0.10616  0.83730  0.33241  1.0000
  H   H218      1.0  0.49313  0.55727  0.60100  1.0000
  H   H219      1.0  0.99829  0.50024  0.56438  1.0000
  H   H220      1.0  0.19914  0.64588  0.34244  1.0000
  C   C181      1.0  0.17245  0.63944  0.33634  1.0000
  C   C182      1.0  0.99770  0.95618  0.33583  1.0000
  H   H221      1.0  0.00123  0.95186  0.36261  1.0000
  H   H222      1.0  0.48928  0.87915  0.34287  1.0000
  Fe  Fe25      1.0  0.08312  0.97332  0.85244  1.0000
  S   S48       1.0  0.04924  0.94209  0.81607  1.0000
  C   C183      1.0  0.26648  0.54429  0.74299  1.0000
  Fe  Fe26      1.0  0.03611  0.95797  0.91296  1.0000
  C   C184      1.0  0.21828  0.94204  0.73601  1.0000
  C   C185      1.0  0.24306  0.52108  0.97236  1.0000
  Fe  Fe27      1.0  0.04564  0.89644  0.85703  1.0000
  S   S49       1.0  0.04866  0.83177  0.84284  1.0000
  C   C186      1.0  0.08135  0.72113  0.92376  1.0000
  H   H223      1.0  0.14664  0.52420  0.77365  1.0000
  S   S50       1.0  0.08123  0.92656  0.89204  1.0000
  Fe  Fe28      1.0  0.16495  0.63430  0.85371  1.0000
  S   S51       1.0  0.13101  0.59482  0.88348  1.0000
  S   S52       1.0  0.16227  0.70092  0.85877  1.0000
  Fe  Fe29      1.0  0.21033  0.56551  0.83253  1.0000
  S   S53       1.0  0.17885  0.52317  0.86196  1.0000
  S   S54       1.0  0.25681  0.53460  0.81207  1.0000
  Fe  Fe30      1.0  0.13472  0.55421  0.83936  1.0000
  H   H224      1.0  0.19055  0.69379  0.93253  1.0000
  Fe  Fe31      1.0  0.17836  0.56701  0.90333  1.0000
  S   S55       1.0  0.18080  0.55586  0.96021  1.0000
  S   S56       1.0  0.16607  0.59514  0.80783  1.0000
  S   S57       1.0  0.21231  0.60802  0.87563  1.0000
  H   H225      1.0  0.38920  0.53741  0.82025  1.0000
  H   H226      1.0  0.09625  0.90556  0.76183  1.0000
  S   S58       1.0  0.03303  0.96951  0.96972  1.0000
  Fe  Fe32      1.0  0.00685  0.97241  0.84281  1.0000
  H   H227      1.0  0.15415  0.89188  0.83414  1.0000
  H   H228      1.0  0.12671  0.62490  0.96271  1.0000
  C   C187      1.0  0.05159  0.53670  0.73204  1.0000
  C   C188      1.0  0.07155  0.53915  0.76125  1.0000
  H   H229      1.0  0.13674  0.92012  0.72334  1.0000
  H   H230      1.0  0.05423  0.55852  0.71260  1.0000
  H   H231      1.0  0.08935  0.56268  0.76418  1.0000
  C   C189      1.0  0.08016  0.79550  0.84891  1.0000
  C   C190      1.0  0.11056  0.80306  0.86544  1.0000
  C   C191      1.0  0.13523  0.77381  0.86815  1.0000
  C   C192      1.0  0.12973  0.73631  0.85511  1.0000
  C   C193      1.0  0.09912  0.72857  0.83910  1.0000
  C   C194      1.0  0.07466  0.75801  0.83591  1.0000
  H   H232      1.0  0.11513  0.83137  0.87618  1.0000
  H   H233      1.0  0.15867  0.78014  0.88080  1.0000
  H   H234      1.0  0.09443  0.70004  0.82881  1.0000
  H   H235      1.0  0.05130  0.75167  0.82311  1.0000
  H   H236      1.0  0.10289  0.79994  0.96985  1.0000
  H   H237      1.0  0.38261  0.95847  0.78845  1.0000
  N   N13       1.0  0.15535  0.67767  0.97123  1.0000
  C   C195      1.0  0.49400  0.56928  0.80169  1.0000
  C   C196      1.0  0.28361  0.53669  0.71270  1.0000
  S   S59       1.0  0.49209  0.50473  0.70575  1.0000
  C   C197      1.0  0.10583  0.69517  0.93497  1.0000
  H   H238      1.0  0.24856  0.92431  0.77791  1.0000
  H   H239      1.0  0.44289  0.95021  0.80290  1.0000
  H   H240      1.0  0.19698  0.64592  0.95025  1.0000
  C   C198      1.0  0.31041  0.51022  0.71169  1.0000
  S   S60       1.0  0.33124  0.50173  0.67297  1.0000
  C   C199      1.0  0.12810  0.74459  0.97209  1.0000
  H   H241      1.0  0.08696  0.85861  0.77824  1.0000
  H   H242      1.0  0.06370  0.71244  0.90438  1.0000
  C   C200      1.0  0.26747  0.50416  0.99363  1.0000
  H   H243      1.0  0.14546  0.75572  0.99056  1.0000
  C   C201      1.0  0.18672  0.94040  0.72099  1.0000
  H   H244      1.0  0.12530  0.92440  0.81451  1.0000
  H   H245      1.0  0.36797  0.59406  0.78773  1.0000
  S   S61       1.0  0.99988  0.92416  0.88076  1.0000
  H   H246      1.0  0.46645  0.66204  0.80629  1.0000
  H   H247      1.0  0.19205  0.71789  0.99087  1.0000
  C   C202      1.0  0.46512  0.55147  0.78891  1.0000
  H   H248      1.0  0.18218  0.95680  0.69809  1.0000
  H   H249      1.0  0.24626  0.56510  0.74344  1.0000
  C   C203      1.0  0.08030  0.75872  0.93638  1.0000
  S   S62       1.0  0.09303  0.51232  0.82362  1.0000
  H   H250      1.0  0.10953  0.86241  0.73950  1.0000
  C   C204      1.0  0.40145  0.97459  0.77468  1.0000
  H   H251      1.0  0.16356  0.65469  0.92157  1.0000
  H   H252      1.0  0.20387  0.88669  0.80480  1.0000
  C   C205      1.0  0.06816  0.51132  0.78664  1.0000
  H   H253      1.0  0.17066  0.83234  0.80626  1.0000
  C   C206      1.0  0.16069  0.91924  0.73600  1.0000
  C   C207      1.0  0.10363  0.77044  0.96045  1.0000
  C   C208      1.0  0.43562  0.96999  0.78305  1.0000
  N   N14       1.0  0.40478  0.55294  0.77022  1.0000
  C   C209      1.0  0.27605  0.52541  0.77265  1.0000
  C   C210      1.0  0.41201  0.53297  0.73806  1.0000
  H   H254      1.0  0.38894  0.52044  0.72640  1.0000
  C   C211      1.0  0.39408  0.52365  0.79545  1.0000
  H   H255      1.0  0.37071  0.50849  0.78761  1.0000
  H   H256      1.0  0.38205  0.60162  0.74476  1.0000
  C   C212      1.0  0.13856  0.64175  0.98342  1.0000
  H   H257      1.0  0.10625  0.66675  0.92358  1.0000
  C   C213      1.0  0.17763  0.66763  0.94282  1.0000
  H   H258      1.0  0.35347  0.56343  0.75480  1.0000
  H   H259      1.0  0.15769  0.82246  0.76381  1.0000
  H   H260      1.0  0.27612  0.55152  0.68989  1.0000
  C   C214      1.0  0.46591  0.63107  0.80147  1.0000
  C   C215      1.0  0.22406  0.92240  0.76609  1.0000
  H   H261      1.0  0.42338  0.55326  0.71942  1.0000
  H   H262      1.0  0.46633  0.52064  0.78404  1.0000
  H   H263      1.0  0.11105  0.87835  0.83001  1.0000
  H   H264      1.0  0.23805  0.95937  0.72467  1.0000
  C   C216      1.0  0.43668  0.61347  0.78911  1.0000
  C   C217      1.0  0.43542  0.57292  0.78249  1.0000
  H   H265      1.0  0.12892  0.81676  0.79809  1.0000
  H   H266      1.0  0.41546  0.63227  0.78499  1.0000
  C   C218      1.0  0.37599  0.57940  0.76420  1.0000
  C   C219      1.0  0.12984  0.70595  0.95969  1.0000
  N   N15       1.0  0.13887  0.87621  0.78356  1.0000
  C   C220      1.0  0.13216  0.89331  0.81700  1.0000
  C   C221      1.0  0.10661  0.87576  0.76474  1.0000
  C   C222      1.0  0.14959  0.83530  0.78809  1.0000
  C   C223      1.0  0.16578  0.89871  0.76667  1.0000
  C   C224      1.0  0.19829  0.90100  0.78125  1.0000
  C   C225      1.0  0.21263  0.53409  0.98564  1.0000
  H   H267      1.0  0.06179  0.77905  0.92692  1.0000
  H   H268      1.0  0.24784  0.52411  0.94573  1.0000
  S   S63       1.0  0.00292  0.50609  0.69107  1.0000
  H   H269      1.0  0.19011  0.53076  0.76244  1.0000
  C   C226      1.0  0.02812  0.50648  0.72786  1.0000
  H   H270      1.0  0.42975  0.50848  0.74135  1.0000
  H   H271      1.0  0.15809  0.52854  0.73062  1.0000
  C   C227      1.0  0.46022  0.99028  0.76513  1.0000
  C   C228      1.0  0.49314  0.97892  0.98166  1.0000
  H   H272      1.0  0.44034  0.97527  0.88188  1.0000
  C   C229      1.0  0.16621  0.51609  0.75508  1.0000
  C   C230      1.0  0.49447  0.60901  0.80781  1.0000
  H   H273      1.0  0.15664  0.62134  0.99542  1.0000
  H   H274      1.0  0.49253  0.95266  0.96684  1.0000
  C   C231      1.0  0.00043  0.98838  0.99566  1.0000
  H   H275      1.0  0.46672  0.99356  0.91441  1.0000
  C   C232      1.0  0.30253  0.49857  0.77150  1.0000
  S   S64       1.0  0.13515  0.99784  0.84158  1.0000
  H   H276      1.0  0.41320  0.50067  0.79938  1.0000
  Fe  Fe33      1.0  0.96968  0.07594  0.17869  1.0000
  S   S65       1.0  0.92974  0.03157  0.16680  1.0000
  H   H277      1.0  0.97823  0.43044  0.28102  1.0000
  Fe  Fe34      1.0  0.92479  0.14424  0.15285  1.0000
  S   S66       1.0  0.88294  0.10346  0.13906  1.0000
  S   S67       1.0  0.92375  0.20941  0.14003  1.0000
  Fe  Fe35      1.0  0.89345  0.07451  0.18894  1.0000
  S   S68       1.0  0.85604  0.06593  0.23196  1.0000
  Fe  Fe36      1.0  0.92342  0.06435  0.11802  1.0000
  S   S69       1.0  0.91817  0.03846  0.06516  1.0000
  S   S70       1.0  0.93409  0.11737  0.20371  1.0000
  S   S71       1.0  0.96457  0.10682  0.12887  1.0000
  Fe  Fe37      1.0  0.80829  0.40228  0.16441  1.0000
  S   S72       1.0  0.84104  0.43370  0.12755  1.0000
  S   S73       1.0  0.81078  0.33640  0.17263  1.0000
  Fe  Fe38      1.0  0.76749  0.47632  0.17997  1.0000
  H   H278      1.0  0.74584  0.33762  0.07504  1.0000
  Fe  Fe39      1.0  0.79333  0.46122  0.10804  1.0000
  H   H279      1.0  0.56226  0.48618  0.17045  1.0000
  H   H280      1.0  0.93277  0.10670  0.03228  1.0000
  C   C233      1.0  0.83114  0.27580  0.07709  1.0000
  S   S74       1.0  0.76022  0.42731  0.14321  1.0000
  S   S75       1.0  0.81237  0.44843  0.20483  1.0000
  C   C234      1.0  0.94327  0.01097  0.00509  1.0000
  H   H281      1.0  0.92387  0.15470  0.01776  1.0000
  N   N16       1.0  0.93366  0.00027  0.27498  1.0000
  H   H282      1.0  0.96202  0.03566  0.24008  1.0000
  H   H283      1.0  0.69591  0.02050  0.18267  1.0000
  C   C235      1.0  0.77052  0.35027  0.08202  1.0000
  H   H284      1.0  0.78879  0.37824  0.02111  1.0000
  C   C236      1.0  0.80514  0.03659  0.27080  1.0000
  H   H285      1.0  0.76769  0.38237  0.08016  1.0000
  C   C237      1.0  0.98612  0.18133  0.01629  1.0000
  H   H286      1.0  0.76569  0.33431  0.01667  1.0000
  H   H287      1.0  0.85293  0.29222  0.08478  1.0000
  H   H288      1.0  0.80990  0.33489  0.00770  1.0000
  C   C238      1.0  0.89275  0.24453  0.15106  1.0000
  C   C239      1.0  0.86198  0.23403  0.16542  1.0000
  C   C240      1.0  0.83745  0.26254  0.17199  1.0000
  C   C241      1.0  0.84330  0.30200  0.16467  1.0000
  C   C242      1.0  0.87426  0.31262  0.15075  1.0000
  C   C243      1.0  0.89866  0.28404  0.14380  1.0000
  H   H289      1.0  0.85689  0.20387  0.17114  1.0000
  H   H290      1.0  0.81370  0.25386  0.18283  1.0000
  H   H291      1.0  0.87941  0.34280  0.14522  1.0000
  H   H292      1.0  0.92234  0.29260  0.13277  1.0000
  H   H293      1.0  0.52291  0.46003  0.20691  1.0000
  H   H294      1.0  0.85083  0.34946  0.05444  1.0000
  H   H295      1.0  0.57870  0.44540  0.28131  1.0000
  H   H296      1.0  0.94323  0.44177  0.18040  1.0000
  C   C244      1.0  0.58178  0.03750  0.17614  1.0000
  H   H297      1.0  0.95685  0.05621  0.28112  1.0000
  H   H298      1.0  0.80996  0.06146  0.28665  1.0000
  N   N17       1.0  0.97672  0.13982  0.01966  1.0000
  C   C245      1.0  0.52131  0.05380  0.24074  1.0000
  C   C246      1.0  0.61197  0.46926  0.15819  1.0000
  H   H299      1.0  0.58658  0.04226  0.29629  1.0000
  H   H300      1.0  0.87770  0.48097  0.24254  1.0000
  H   H301      1.0  0.55656  0.02631  0.12928  1.0000
  H   H302      1.0  0.50536  0.17075  0.20859  1.0000
  C   C247      1.0  0.75709  0.48983  0.02560  1.0000
  H   H303      1.0  0.91566  0.02733  0.32040  1.0000
  H   H304      1.0  0.76546  0.01422  0.30259  1.0000
  C   C248      1.0  0.82891  0.35812  0.06990  1.0000
  H   H305      1.0  0.59312  0.49522  0.28273  1.0000
  C   C249      1.0  0.83317  0.23555  0.08113  1.0000
  C   C250      1.0  0.77986  0.00987  0.27990  1.0000
  C   C251      1.0  0.54741  0.06345  0.26318  1.0000
  H   H306      1.0  0.62839  0.45405  0.25327  1.0000
  N   N18       1.0  0.79817  0.33623  0.06041  1.0000
  H   H307      1.0  0.85578  0.22266  0.09152  1.0000
  C   C252      1.0  0.77681  0.22839  0.05992  1.0000
  C   C253      1.0  0.79029  0.34615  0.02493  1.0000
  C   C254      1.0  0.80158  0.29365  0.06433  1.0000
  C   C255      1.0  0.99334  0.46304  0.18911  1.0000
  H   H308      1.0  0.75116  0.28009  0.04618  1.0000
  H   H309      1.0  0.53108  0.21259  0.20323  1.0000
  H   H310      1.0  0.67246  0.44143  0.21310  1.0000
  H   H311      1.0  0.66652  0.04127  0.23585  1.0000
  Fe  Fe40      1.0  0.84262  0.48113  0.16631  1.0000
  C   C256      1.0  0.64803  0.45083  0.20417  1.0000
  C   C257      1.0  0.98283  0.01198  0.05113  1.0000
  H   H312      1.0  0.88454  0.02128  0.28881  1.0000
  C   C258      1.0  0.62228  0.45830  0.22706  1.0000
  H   H313      1.0  0.82569  0.38995  0.06603  1.0000
  C   C259      1.0  0.57188  0.47594  0.27542  1.0000
  H   H314      1.0  0.98525  0.19650  0.04101  1.0000
  C   C260      1.0  0.57741  0.01861  0.14556  1.0000
  C   C261      1.0  0.51482  0.01466  0.23413  1.0000
  C   C262      1.0  0.80606  0.21191  0.07270  1.0000
  H   H315      1.0  0.56413  0.05980  0.18355  1.0000
  H   H316      1.0  0.92248  0.05539  0.25208  1.0000
  H   H317      1.0  0.93514  0.42016  0.23901  1.0000
  H   H318      1.0  0.55071  0.48334  0.29240  1.0000
  C   C263      1.0  0.96336  0.44533  0.19857  1.0000
  C   C264      1.0  0.82412  0.03153  0.24137  1.0000
  H   H319      1.0  0.80769  0.18079  0.07643  1.0000
  H   H320      1.0  0.98877  0.01781  0.07719  1.0000
  H   H321      1.0  0.93999  0.14758  0.05915  1.0000
  H   H322      1.0  0.55267  0.09364  0.26845  1.0000
  C   C265      1.0  0.50877  0.20130  0.21695  1.0000
  C   C266      1.0  0.77450  0.26863  0.05576  1.0000
  C   C267      1.0  0.95882  0.43325  0.23167  1.0000
  C   C268      1.0  0.71070  0.48969  0.26732  1.0000
  H   H323      1.0  0.54050  0.42427  0.23474  1.0000
  S   S76       1.0  0.78389  0.46013  0.05100  1.0000
  C   C269      1.0  0.90701  0.00722  0.30031  1.0000
  C   C270      1.0  0.56677  0.03437  0.27894  1.0000
  H   H324      1.0  0.99235  0.09155  0.05044  1.0000
  H   H325      1.0  0.75567  0.20988  0.05357  1.0000
  H   H326      1.0  0.77526  0.34290  0.10893  1.0000
  H   H327      1.0  0.73198  0.47041  0.26552  1.0000
  C   C271      1.0  0.94190  0.13723  0.03268  1.0000
  H   H328      1.0  0.60990  0.04304  0.22093  1.0000
  C   C272      1.0  0.94424  0.03846  0.26145  1.0000
  C   C273      1.0  0.53347  0.45538  0.23249  1.0000
  C   C274      1.0  0.95044  0.01921  0.03904  1.0000
  H   H329      1.0  0.83512  0.35391  0.09700  1.0000
  C   C275      1.0  0.69218  0.49187  0.29743  1.0000
  C   C276      1.0  0.63172  0.99820  0.18847  1.0000
  H   H330      1.0  0.90604  0.49003  0.29764  1.0000
  C   C277      1.0  0.98402  0.43932  0.25565  1.0000
  H   H331      1.0  0.50864  0.27652  0.20751  1.0000
  H   H332      1.0  0.69951  0.47424  0.31876  1.0000
  H   H333      1.0  0.66354  0.45197  0.15250  1.0000
  H   H334      1.0  0.68504  0.00094  0.25697  1.0000
  H   H335      1.0  0.51249  0.46085  0.25036  1.0000
  H   H336      1.0  0.64050  0.00625  0.25802  1.0000
  C   C278      1.0  0.66293  0.00992  0.24161  1.0000
  H   H337      1.0  0.96892  0.19735  0.99923  1.0000
  C   C279      1.0  0.58589  0.47645  0.18078  1.0000
  N   N19       1.0  0.56268  0.48097  0.23943  1.0000
  C   C280      1.0  0.64306  0.45675  0.16991  1.0000
  C   C281      1.0  0.59036  0.47174  0.21600  1.0000
  H   H338      1.0  0.51531  0.20131  0.24416  1.0000
  H   H339      1.0  0.60823  0.47379  0.13145  1.0000
  C   C282      1.0  0.60840  0.02755  0.19745  1.0000
  S   S77       1.0  0.49814  0.09171  0.22120  1.0000
  H   H340      1.0  0.99650  0.47292  0.16341  1.0000
  C   C283      1.0  0.81766  0.99926  0.22110  1.0000
  C   C284      1.0  0.79960  0.07563  0.48623  1.0000
  Fe  Fe41      1.0  0.78420  0.04949  0.61135  1.0000
  S   S78       1.0  0.75995  0.10402  0.63031  1.0000
  Fe  Fe42      1.0  0.88363  0.47565  0.66181  1.0000
  H   H341      1.0  0.72354  0.06795  0.53624  1.0000
  C   C285      1.0  0.94825  0.23783  0.65034  1.0000
  S   S79       1.0  0.83605  0.07484  0.61646  1.0000
  H   H342      1.0  0.84882  0.14216  0.55338  1.0000
  H   H343      1.0  0.94394  0.25679  0.62894  1.0000
  S   S80       1.0  0.88187  0.42767  0.62358  1.0000
  C   C286      1.0  0.78213  0.12575  0.54661  1.0000
  Fe  Fe43      1.0  0.92967  0.45357  0.60220  1.0000
  H   H344      1.0  0.92369  0.19062  0.62720  1.0000
  S   S81       1.0  0.96361  0.41801  0.63551  1.0000
  S   S82       1.0  0.93474  0.46237  0.54524  1.0000
  H   H345      1.0  0.92825  0.12396  0.62553  1.0000
  S   S83       1.0  0.77230  0.01207  0.56478  1.0000
  S   S84       1.0  0.83031  0.18564  0.61572  1.0000
  C   C287      1.0  0.70990  0.01235  0.46590  1.0000
  H   H346      1.0  0.81430  0.19411  0.54074  1.0000
  H   H347      1.0  0.85230  0.25822  0.58718  1.0000
  H   H348      1.0  0.78006  0.19103  0.51227  1.0000
  C   C288      1.0  0.80581  0.17988  0.51699  1.0000
  H   H349      1.0  0.82283  0.19013  0.49665  1.0000
  C   C289      1.0  0.84917  0.22754  0.63442  1.0000
  H   H350      1.0  0.76101  0.13097  0.41067  1.0000
  C   C290      1.0  0.78938  0.05561  0.45746  1.0000
  H   H351      1.0  0.53907  0.46281  0.61085  1.0000
  C   C291      1.0  0.72574  0.04372  0.51925  1.0000
  H   H352      1.0  0.77921  0.16717  0.45967  1.0000
  C   C292      1.0  0.78284  0.13618  0.46022  1.0000
  H   H353      1.0  0.88073  0.31644  0.61081  1.0000
  N   N20       1.0  0.80619  0.13687  0.51996  1.0000
  H   H354      1.0  0.50941  0.48120  0.63989  1.0000
  C   C293      1.0  0.91090  0.12228  0.64733  1.0000
  C   C294      1.0  0.79681  0.11660  0.48850  1.0000
  H   H355      1.0  0.85903  0.13071  0.51043  1.0000
  H   H356      1.0  0.79101  0.02422  0.45669  1.0000
  H   H357      1.0  0.78313  0.09418  0.55242  1.0000
  C   C295      1.0  0.74675  0.01264  0.52762  1.0000
  H   H358      1.0  0.75587  0.13240  0.53903  1.0000
  C   C296      1.0  0.84048  0.12552  0.53083  1.0000
  H   H359      1.0  0.84202  0.09450  0.53833  1.0000
  S   S85       1.0  0.68754  0.01481  0.42681  1.0000
  C   C297      1.0  0.77227  0.11572  0.43171  1.0000
  H   H360      1.0  0.78738  0.14147  0.57046  1.0000
  S   S86       1.0  0.78689  0.02141  0.66278  1.0000
  C   C298      1.0  0.77537  0.07552  0.43042  1.0000
  C   C299      1.0  0.96652  0.48727  0.52206  1.0000
  H   H361      1.0  0.80838  0.05839  0.50722  1.0000
  H   H362      1.0  0.69196  0.06810  0.48223  1.0000
  H   H363      1.0  0.66638  0.03153  0.63461  1.0000
  Fe  Fe44      1.0  0.81227  0.12794  0.63872  1.0000
  C   C300      1.0  0.70768  0.04363  0.48856  1.0000
  C   C301      1.0  0.87390  0.29255  0.62714  1.0000
  C   C302      1.0  0.85785  0.25931  0.61378  1.0000
  H   H364      1.0  0.54240  0.47907  0.55545  1.0000
  H   H365      1.0  0.94103  0.47916  0.47470  1.0000
  H   H366      1.0  0.88837  0.14039  0.64203  1.0000
  C   C303      1.0  0.66113  0.01109  0.65472  1.0000
  C   C304      1.0  0.93666  0.19950  0.64978  1.0000
  H   H367      1.0  0.90199  0.09164  0.64865  1.0000
  H   H368      1.0  0.50045  0.48466  0.59606  1.0000
  H   H369      1.0  0.76616  0.05958  0.40877  1.0000
  C   C305      1.0  0.96227  0.49250  0.48718  1.0000
  H   H370      1.0  0.50907  0.49041  0.45006  1.0000
  H   H371      1.0  0.61173  0.03162  0.66121  1.0000
  C   C306      1.0  0.52102  0.48684  0.61497  1.0000
  Fe  Fe45      1.0  0.91559  0.39541  0.65935  1.0000
  C   C307      1.0  0.88195  0.29429  0.66138  1.0000
  H   H372      1.0  0.56791  0.49669  0.50248  1.0000
  C   C308      1.0  0.71632  0.43496  0.80722  1.0000
  S   S87       1.0  0.81618  0.10574  0.69187  1.0000
  H   H373      1.0  0.84953  0.20590  0.68513  1.0000
  C   C309      1.0  0.94065  0.17463  0.67813  1.0000
  S   S88       1.0  0.72175  0.08368  0.71811  1.0000
  H   H374      1.0  0.88253  0.15208  0.70390  1.0000
  H   H375      1.0  0.85114  0.47576  0.73837  1.0000
  H   H376      1.0  0.67544  0.49017  0.78564  1.0000
  C   C310      1.0  0.51459  0.04334  0.99198  1.0000
  C   C311      1.0  0.94105  0.01080  0.78543  1.0000
  S   S89       1.0  0.91494  0.44276  0.69893  1.0000
  C   C312      1.0  0.90620  0.01712  0.72343  1.0000
  C   C313      1.0  0.74483  0.44983  0.72368  1.0000
  C   C314      1.0  0.96361  0.25273  0.67901  1.0000
  S   S90       1.0  0.53999  0.00793  0.93518  1.0000
  H   H377      1.0  0.57137  0.00006  0.76423  1.0000
  H   H378      1.0  0.97112  0.28302  0.67967  1.0000
  N   N21       1.0  0.70398  0.43939  0.77221  1.0000
  H   H379      1.0  0.97979  0.24103  0.72945  1.0000
  C   C315      1.0  0.55671  0.46327  0.77735  1.0000
  C   C316      1.0  0.53079  0.46519  0.75316  1.0000
  H   H380      1.0  0.56066  0.43658  0.79117  1.0000
  C   C317      1.0  0.69492  0.48081  0.76738  1.0000
  C   C318      1.0  0.95709  0.19053  0.70669  1.0000
  C   C319      1.0  0.75704  0.48477  0.99046  1.0000
  C   C320      1.0  0.90289  0.13027  0.70653  1.0000
  H   H381      1.0  0.90261  0.04876  0.80438  1.0000
  N   N22       1.0  0.92772  0.13429  0.67902  1.0000
  C   C321      1.0  0.91193  0.03357  0.78258  1.0000
  C   C322      1.0  0.57723  0.49568  0.78413  1.0000
  C   C323      1.0  0.70575  0.04792  0.74607  1.0000
  C   C324      1.0  0.67783  0.05691  0.76608  1.0000
  C   C325      1.0  0.72990  0.42552  0.74849  1.0000
  H   H382      1.0  0.77468  0.34308  0.73021  1.0000
  H   H383      1.0  0.66683  0.08550  0.76439  1.0000
  S   S91       1.0  0.90538  0.33362  0.67907  1.0000
  C   C326      1.0  0.89447  0.03658  0.75184  1.0000
  C   C327      1.0  0.56411  0.00954  0.69937  1.0000
  H   H384      1.0  0.91289  0.48867  0.76445  1.0000
  C   C328      1.0  0.95565  0.10683  0.68530  1.0000
  C   C329      1.0  0.67277  0.41619  0.76820  1.0000
  H   H385      1.0  0.64273  0.03668  0.80377  1.0000
  C   C330      1.0  0.98160  0.08541  0.92198  1.0000
  Fe  Fe46      1.0  0.95985  0.46784  0.67211  1.0000
  H   H386      1.0  0.60667  0.02792  0.75008  1.0000
  H   H387      1.0  0.82360  0.48304  0.79391  1.0000
  H   H388      1.0  0.50455  0.01753  0.87364  1.0000
  H   H389      1.0  0.80012  0.38709  0.68814  1.0000
  H   H390      1.0  0.94278  0.12520  0.90779  1.0000
  C   C331      1.0  0.95785  0.13314  0.95950  1.0000
  C   C332      1.0  0.78046  0.39755  0.70460  1.0000
  C   C333      1.0  0.76964  0.43581  0.70209  1.0000
  C   C334      1.0  0.96819  0.22908  0.70707  1.0000
  C   C335      1.0  0.85648  0.22966  0.66879  1.0000
  C   C336      1.0  0.74117  0.38649  0.74997  1.0000
  H   H391      1.0  0.98245  0.07145  0.89756  1.0000
  C   C337      1.0  0.76615  0.37287  0.72839  1.0000
  Fe  Fe47      1.0  0.76570  0.07747  0.68204  1.0000
  H   H392      1.0  0.87175  0.05357  0.75027  1.0000
  S   S92       1.0  0.88559  0.02013  0.68387  1.0000
  H   H393      1.0  0.96080  0.17346  0.72920  1.0000
  Fe  Fe48      1.0  0.83703  0.05115  0.66925  1.0000
  H   H394      1.0  0.66346  0.41748  0.74182  1.0000
  H   H395      1.0  0.91833  0.01636  0.99542  1.0000
  H   H396      1.0  0.57139  0.04073  0.70028  1.0000
  C   C338      1.0  0.66405  0.02926  0.78834  1.0000
  H   H397      1.0  0.53963  0.00742  0.71280  1.0000
  H   H398      1.0  0.94007  0.15636  0.96287  1.0000
  H   H399      1.0  0.73970  0.45223  0.81132  1.0000
  H   H400      1.0  0.87916  0.26351  0.70854  1.0000
  H   H401      1.0  0.89092  0.10107  0.70650  1.0000
  H   H402      1.0  0.67633  0.38520  0.77495  1.0000
  C   C339      1.0  0.87300  0.26263  0.68207  1.0000
  H   H403      1.0  0.77345  0.46341  0.97942  1.0000
  H   H404      1.0  0.74133  0.00375  0.73342  1.0000
  H   H405      1.0  0.95372  0.49510  0.74607  1.0000
  H   H406      1.0  0.91430  0.13391  0.73182  1.0000
  H   H407      1.0  0.72195  0.40439  0.81388  1.0000
  H   H408      1.0  0.73819  0.47995  0.72066  1.0000
  H   H409      1.0  0.94677  0.07607  0.68493  1.0000
  H   H410      1.0  0.96756  0.11114  0.71029  1.0000
  H   H411      1.0  0.51503  0.44013  0.74852  1.0000
  H   H412      1.0  0.69739  0.44502  0.82575  1.0000
  C   C340      1.0  0.62972  0.01081  0.67038  1.0000
  C   C341      1.0  0.95925  0.11559  0.92785  1.0000
  C   C342      1.0  0.51422  0.00957  0.97204  1.0000
  H   H413      1.0  0.73096  0.36625  0.76807  1.0000
  H   H414      1.0  0.65224  0.42714  0.78468  1.0000
  C   C343      1.0  0.97874  0.12069  0.98641  1.0000
  C   C344      1.0  0.72006  0.01107  0.74885  1.0000
  C   C345      1.0  0.83030  0.49545  0.74115  1.0000
  S   S93       1.0  0.96114  0.00707  0.82521  1.0000
  H   H415      1.0  0.53073  0.06731  0.98491  1.0000
  H   H416      1.0  0.78103  0.45494  0.68360  1.0000
  H   H417      1.0  0.68437  0.48628  0.74191  1.0000
  S   S94       1.0  0.60906  0.49175  0.81530  1.0000
  H   H418      1.0  0.97551  0.10994  0.66584  1.0000
  H   H419      1.0  0.55933  0.00095  0.67286  1.0000
  C   C346      1.0  0.59525  0.99841  0.75002  1.0000
  S   S95       1.0  0.66193  0.90526  0.30684  1.0000
  H   H420      1.0  0.66656  0.55498  0.22112  1.0000
  C   C347      1.0  0.89914  0.50015  0.24452  1.0000
  S   S96       1.0  0.74182  0.94310  0.26996  1.0000
  S   S97       1.0  0.79821  0.51160  0.14329  1.0000
  H   H421      1.0  0.67016  0.69085  0.27034  1.0000
  C   C348      1.0  0.67385  0.53736  0.24247  1.0000
  S   S98       1.0  0.56561  0.57978  0.30675  1.0000
  H   H422      1.0  0.78301  0.62123  0.22136  1.0000
  C   C349      1.0  0.91832  0.97722  0.24740  1.0000
  H   H423      1.0  0.68052  0.76057  0.26576  1.0000
  H   H424      1.0  0.82940  0.52869  0.23122  1.0000
  S   S99       1.0  0.96205  0.53558  0.31898  1.0000
  H   H425      1.0  0.79247  0.55138  0.21311  1.0000
  C   C350      1.0  0.94343  0.52983  0.27879  1.0000
  C   C351      1.0  0.93911  0.54413  0.21905  1.0000
  C   C352      1.0  0.95537  0.54917  0.25026  1.0000
  H   H426      1.0  0.94840  0.55933  0.19710  1.0000
  H   H427      1.0  0.97690  0.56823  0.25227  1.0000
  Fe  Fe49      1.0  0.70640  0.94451  0.31499  1.0000
  H   H428      1.0  0.63145  0.94130  0.23467  1.0000
  C   C353      1.0  0.65499  0.53900  0.27232  1.0000
  C   C354      1.0  0.73572  0.51775  0.03933  1.0000
  C   C355      1.0  0.80676  0.58411  0.27582  1.0000
  H   H429      1.0  0.59617  0.97501  0.11219  1.0000
  C   C356      1.0  0.98996  0.96890  0.26696  1.0000
  C   C357      1.0  0.91086  0.51977  0.21605  1.0000
  S   S100      1.0  0.89049  0.51567  0.17655  1.0000
  C   C358      1.0  0.77342  0.97758  0.25970  1.0000
  C   C359      1.0  0.79242  0.97244  0.23027  1.0000
  S   S101      1.0  0.58300  0.95711  0.29197  1.0000
  H   H430      1.0  0.78764  0.94751  0.21448  1.0000
  H   H431      1.0  0.58188  0.76648  0.29858  1.0000
  H   H432      1.0  0.89817  0.97956  0.31184  1.0000
  C   C360      1.0  0.62647  0.97952  0.15710  1.0000
  H   H433      1.0  0.83208  0.99497  0.19842  1.0000
  S   S102      1.0  0.67473  0.99547  0.32986  1.0000
  H   H434      1.0  0.87479  0.59393  0.22436  1.0000
  H   H435      1.0  0.82655  0.63745  0.29786  1.0000
  C   C361      1.0  0.71462  0.54007  0.01820  1.0000
  H   H436      1.0  0.86702  0.62242  0.26069  1.0000
  H   H437      1.0  0.54137  0.52737  0.20930  1.0000
  C   C362      1.0  0.69227  0.99035  0.19214  1.0000
  H   H438      1.0  0.81479  0.65105  0.24062  1.0000
  N   N23       1.0  0.82388  0.58928  0.24309  1.0000
  C   C363      1.0  0.53408  0.98559  0.24999  1.0000
  H   H439      1.0  0.93520  0.97422  0.22541  1.0000
  H   H440      1.0  0.71416  0.98335  0.20861  1.0000
  C   C364      1.0  0.68692  0.74540  0.28879  1.0000
  C   C365      1.0  0.78557  0.55183  0.28309  1.0000
  C   C366      1.0  0.81931  0.55589  0.22003  1.0000
  H   H441      1.0  0.69357  0.62861  0.27322  1.0000
  C   C367      1.0  0.86055  0.59446  0.24847  1.0000
  H   H442      1.0  0.63355  0.55799  0.27381  1.0000
  C   C368      1.0  0.55222  0.52190  0.23461  1.0000
  C   C369      1.0  0.70042  0.76607  0.31565  1.0000
  C   C370      1.0  0.91533  0.50526  0.27571  1.0000
  C   C371      1.0  0.77079  0.54733  0.31473  1.0000
  H   H443      1.0  0.69817  0.56138  0.02921  1.0000
  H   H444      1.0  0.82271  0.62869  0.20095  1.0000
  C   C372      1.0  0.70184  0.51281  0.23979  1.0000
  C   C373      1.0  0.81107  0.61200  0.30170  1.0000
  H   H445      1.0  0.52878  0.95542  0.24471  1.0000
  N   N24       1.0  0.68104  0.64304  0.32461  1.0000
  Fe  Fe50      1.0  0.63052  0.95511  0.32442  1.0000
  H   H446      1.0  0.63865  0.60415  0.32093  1.0000
  H   H447      1.0  0.63723  0.64364  0.29195  1.0000
  S   S103      1.0  0.72461  0.51259  0.20153  1.0000
  C   C374      1.0  0.68089  0.70554  0.29180  1.0000
  H   H448      1.0  0.73534  0.52206  0.06624  1.0000
  C   C375      1.0  0.68789  0.68522  0.32211  1.0000
  H   H449      1.0  0.61881  0.81959  0.31953  1.0000
  H   H450      1.0  0.75543  0.52199  0.31999  1.0000
  C   C376      1.0  0.66440  0.51668  0.30019  1.0000
  H   H451      1.0  0.65525  0.92529  0.19905  1.0000
  C   C377      1.0  0.81051  0.62416  0.22586  1.0000
  H   H452      1.0  0.98895  0.97479  0.24025  1.0000
  H   H453      1.0  0.53233  0.53035  0.25278  1.0000
  H   H454      1.0  0.87084  0.57084  0.26459  1.0000
  H   H455      1.0  0.69957  0.59010  0.30255  1.0000
  H   H456      1.0  0.69402  0.97035  0.17041  1.0000
  H   H457      1.0  0.78031  0.52931  0.26493  1.0000
  C   C378      1.0  0.59974  0.98970  0.13602  1.0000
  C   C379      1.0  0.96823  0.97320  0.32364  1.0000
  H   H458      1.0  0.54372  0.88182  0.31481  1.0000
  H   H459      1.0  0.89510  0.99119  0.23747  1.0000
  H   H460      1.0  0.72854  0.63002  0.30178  1.0000
  H   H461      1.0  0.57389  0.54204  0.23792  1.0000
  C   C380      1.0  0.59543  0.76277  0.32196  1.0000
  C   C381      1.0  0.70154  0.62214  0.29944  1.0000
  H   H462      1.0  0.83295  0.56035  0.19590  1.0000
  C   C382      1.0  0.65549  0.94540  0.22078  1.0000
  H   H463      1.0  0.64289  0.95665  0.14874  1.0000
  H   H464      1.0  0.67622  0.93560  0.23758  1.0000
  C   C383      1.0  0.56014  0.99524  0.27244  1.0000
  C   C384      1.0  0.64503  0.63539  0.31781  1.0000
  H   H465      1.0  0.70417  0.79721  0.31372  1.0000
  H   H466      1.0  0.91147  0.94756  0.25619  1.0000
  Fe  Fe51      1.0  0.51956  0.55228  0.32939  1.0000
  S   S104      1.0  0.56574  0.69040  0.32351  1.0000
  N   N25       1.0  0.66000  0.98647  0.21048  1.0000
  C   C385      1.0  0.96351  0.98015  0.28867  1.0000
  C   C386      1.0  0.50174  0.87598  0.36782  1.0000
  Fe  Fe52      1.0  0.67998  0.97176  0.38310  1.0000
  S   S105      1.0  0.71436  0.92292  0.36811  1.0000
  H   H467      1.0  0.97546  0.58163  0.55505  1.0000
  Fe  Fe53      1.0  0.66670  0.88793  0.36066  1.0000
  S   S106      1.0  0.66119  0.82544  0.37981  1.0000
  S   S107      1.0  0.63270  0.93552  0.37859  1.0000
  H   H468      1.0  0.59336  0.87541  0.48999  1.0000
  H   H469      1.0  0.84096  0.51879  0.59860  1.0000
  S   S108      1.0  0.58865  0.60156  0.38476  1.0000
  C   C387      1.0  0.58295  0.58054  0.54427  1.0000
  H   H470      1.0  0.50275  0.84441  0.37393  1.0000
  Fe  Fe54      1.0  0.54007  0.57300  0.40147  1.0000
  S   S109      1.0  0.64330  0.52021  0.33932  1.0000
  H   H471      1.0  0.59273  0.56156  0.49375  1.0000
  S   S110      1.0  0.50881  0.60376  0.36235  1.0000
  H   H472      1.0  0.87993  0.65254  0.57371  1.0000
  H   H473      1.0  0.56957  0.59275  0.59480  1.0000
  H   H474      1.0  0.90030  0.58687  0.49890  1.0000
  H   H475      1.0  0.61637  0.84042  0.44097  1.0000
  C   C388      1.0  0.77625  0.57473  0.33981  1.0000
  C   C389      1.0  0.63408  0.78854  0.36393  1.0000
  C   C390      1.0  0.92099  0.57509  0.51466  1.0000
  Fe  Fe55      1.0  0.59395  0.55160  0.34864  1.0000
  C   C391      1.0  0.55394  0.50743  0.55393  1.0000
  C   C392      1.0  0.60997  0.72325  0.37004  1.0000
  C   C393      1.0  0.63076  0.75352  0.38193  1.0000
  H   H476      1.0  0.60753  0.69667  0.38434  1.0000
  H   H477      1.0  0.64437  0.74979  0.40527  1.0000
  H   H478      1.0  0.94698  0.54641  0.57154  1.0000
  C   C394      1.0  0.59435  0.85862  0.43804  1.0000
  H   H479      1.0  0.95241  0.59151  0.59294  1.0000
  C   C395      1.0  0.70796  0.74699  0.34559  1.0000
  C   C396      1.0  0.84321  0.61719  0.59703  1.0000
  C   C397      1.0  0.55150  0.88737  0.40119  1.0000
  N   N26       1.0  0.92316  0.59538  0.54745  1.0000
  C   C398      1.0  0.89121  0.59080  0.56599  1.0000
  H   H480      1.0  0.67336  0.64012  0.37821  1.0000
  C   C399      1.0  0.53837  0.90614  0.43002  1.0000
  Fe  Fe56      1.0  0.55796  0.62873  0.34363  1.0000
  N   N27       1.0  0.53585  0.89323  0.36774  1.0000
  H   H481      1.0  0.93671  0.65298  0.56395  1.0000
  H   H482      1.0  0.52272  0.58428  0.62578  1.0000
  H   H483      1.0  0.62892  0.65205  0.33536  1.0000
  C   C400      1.0  0.49994  0.53966  0.48169  1.0000
  S   S111      1.0  0.54870  0.52063  0.36948  1.0000
  C   C401      1.0  0.99434  0.50438  0.53770  1.0000
  H   H484      1.0  0.80061  0.62839  0.35286  1.0000
  C   C402      1.0  0.98463  0.51591  0.46842  1.0000
  H   H485      1.0  0.70737  0.69470  0.37327  1.0000
  H   H486      1.0  0.57548  0.55512  0.64344  1.0000
  C   C403      1.0  0.53319  0.93536  0.36018  1.0000
  H   H487      1.0  0.76464  0.95686  0.51126  1.0000
  C   C404      1.0  0.87870  0.55317  0.57362  1.0000
  C   C405      1.0  0.93247  0.63638  0.54036  1.0000
  C   C406      1.0  0.56878  0.57098  0.57534  1.0000
  H   H488      1.0  0.59096  0.84672  0.38624  1.0000
  H   H489      1.0  0.71060  0.98649  0.65331  1.0000
  C   C407      1.0  0.51185  0.55499  0.62167  1.0000
  C   C408      1.0  0.57951  0.86268  0.40637  1.0000
  S   S112      1.0  0.52115  0.57441  0.45592  1.0000
  C   C409      1.0  0.87242  0.62286  0.57812  1.0000
  H   H490      1.0  0.71579  0.62939  0.36462  1.0000
  C   C410      1.0  0.58145  0.87832  0.46559  1.0000
  H   H491      1.0  0.89182  0.52730  0.56579  1.0000
  H   H492      1.0  0.94479  0.57773  0.50012  1.0000
  H   H493      1.0  0.68280  0.59460  0.35931  1.0000
  C   C411      1.0  0.84951  0.54790  0.59242  1.0000
  H   H494      1.0  0.80978  0.57534  0.61969  1.0000
  H   H495      1.0  0.73235  0.95657  0.45764  1.0000
  C   C412      1.0  0.74862  0.98116  0.50515  1.0000
  H   H496      1.0  0.59370  0.60910  0.54015  1.0000
  H   H497      1.0  0.91635  0.54347  0.51754  1.0000
  H   H498      1.0  0.91292  0.65114  0.52500  1.0000
  C   C413      1.0  0.56863  0.51714  0.52313  1.0000
  H   H499      1.0  0.51653  0.92450  0.42831  1.0000
  C   C414      1.0  0.55333  0.90179  0.46166  1.0000
  H   H500      1.0  0.76527  0.57054  0.36446  1.0000
  H   H501      1.0  0.82943  0.64191  0.60649  1.0000
  H   H502      1.0  0.98055  0.52033  0.44179  1.0000
  C   C415      1.0  0.70177  0.70720  0.34903  1.0000
  C   C416      1.0  0.95067  0.57808  0.56759  1.0000
  C   C417      1.0  0.73030  0.98089  0.47462  1.0000
  C   C418      1.0  0.59218  0.72768  0.33990  1.0000
  H   H503      1.0  0.54326  0.91695  0.48322  1.0000
  H   H504      1.0  0.95633  0.63836  0.52580  1.0000
  H   H505      1.0  0.58393  0.50487  0.63523  1.0000
  C   C419      1.0  0.68874  0.62628  0.35822  1.0000
  C   C420      1.0  0.56366  0.52607  0.64060  1.0000
  C   C421      1.0  0.83192  0.57980  0.60432  1.0000
  N   N28       1.0  0.53768  0.52544  0.61384  1.0000
  C   C422      1.0  0.58271  0.55372  0.51817  1.0000
  C   C423      1.0  0.55337  0.53432  0.58099  1.0000
  C   C424      1.0  0.55497  0.87517  0.33983  1.0000
  H   H506      1.0  0.55816  0.94985  0.36222  1.0000
  H   H507      1.0  0.71737  0.76369  0.36674  1.0000
  S   S113      1.0  0.92807  0.50405  0.63734  1.0000
  H   H508      1.0  0.51569  0.95072  0.37713  1.0000
  H   H509      1.0  0.55562  0.84297  0.34205  1.0000
  C   C425      1.0  0.61625  0.79302  0.33384  1.0000
  C   C426      1.0  0.79615  0.60719  0.33323  1.0000
  H   H510      1.0  0.94984  0.98123  0.34217  1.0000
  H   H511      1.0  0.49785  0.54769  0.64505  1.0000
  C   C427      1.0  0.49772  0.50039  0.47310  1.0000
  H   H512      1.0  0.58122  0.88636  0.33889  1.0000
  H   H513      1.0  0.52386  0.94080  0.33416  1.0000
  Fe  Fe57      1.0  0.60682  0.95135  0.83691  1.0000
  S   S114      1.0  0.57269  0.91188  0.80754  1.0000
  S   S115      1.0  0.66063  0.95578  0.81725  1.0000
  Fe  Fe58      1.0  0.55193  0.96633  0.89126  1.0000
  S   S116      1.0  0.51486  0.92707  0.86501  1.0000
  H   H514      1.0  0.96210  0.98958  0.95754  1.0000
  Fe  Fe59      1.0  0.55909  0.88620  0.85769  1.0000
  S   S117      1.0  0.55523  0.82056  0.86740  1.0000
  Fe  Fe60      1.0  0.53208  0.95587  0.81706  1.0000
  C   C428      1.0  0.85290  0.58268  0.83065  1.0000
  S   S118      1.0  0.59494  0.92377  0.88714  1.0000
  Fe  Fe61      1.0  0.66845  0.62270  0.84318  1.0000
  S   S119      1.0  0.63455  0.58461  0.87438  1.0000
  S   S120      1.0  0.66325  0.68829  0.83378  1.0000
  Fe  Fe62      1.0  0.71951  0.55655  0.83242  1.0000
  C   C429      1.0  0.81478  0.97572  0.75568  1.0000
  S   S121      1.0  0.76951  0.53004  0.81709  1.0000
  Fe  Fe63      1.0  0.64443  0.53904  0.83494  1.0000
  C   C430      1.0  0.52514  0.49966  0.73548  1.0000
  Fe  Fe64      1.0  0.68225  0.56409  0.89999  1.0000
  S   S122      1.0  0.68722  0.56393  0.95759  1.0000
  S   S123      1.0  0.67569  0.57806  0.80189  1.0000
  S   S124      1.0  0.71552  0.60431  0.87056  1.0000
  C   C431      1.0  0.65438  0.72923  0.93753  1.0000
  C   C432      1.0  0.79163  0.54209  0.71753  1.0000
  C   C433      1.0  0.77561  0.54581  0.74887  1.0000
  C   C434      1.0  0.78710  0.52459  0.77658  1.0000
  H   H515      1.0  0.78280  0.55887  0.69627  1.0000
  H   H516      1.0  0.75482  0.56561  0.75176  1.0000
  H   H517      1.0  0.59196  0.92448  0.73183  1.0000
  C   C435      1.0  0.57187  0.52998  0.76607  1.0000
  C   C436      1.0  0.84694  0.58752  0.79642  1.0000
  C   C437      1.0  0.82343  0.96759  0.81550  1.0000
  H   H518      1.0  0.58742  0.55514  0.77099  1.0000
  C   C438      1.0  0.58488  0.78392  0.85644  1.0000
  C   C439      1.0  0.61508  0.79264  0.84013  1.0000
  C   C440      1.0  0.63841  0.76295  0.83317  1.0000
  C   C441      1.0  0.63196  0.72407  0.84221  1.0000
  C   C442      1.0  0.60144  0.71521  0.85792  1.0000
  C   C443      1.0  0.57820  0.74496  0.86509  1.0000
  H   H519      1.0  0.62068  0.82236  0.83325  1.0000
  H   H520      1.0  0.66178  0.77026  0.82088  1.0000
  H   H521      1.0  0.59562  0.68550  0.86448  1.0000
  H   H522      1.0  0.55489  0.73779  0.87754  1.0000
  C   C444      1.0  0.90726  0.91726  0.82944  1.0000
  C   C445      1.0  0.93541  0.99452  0.72624  1.0000
  H   H523      1.0  0.54165  0.55884  0.72857  1.0000
  H   H524      1.0  0.90319  0.89084  0.81393  1.0000
  H   H525      1.0  0.89478  0.99292  0.84675  1.0000
  C   C446      1.0  0.63096  0.80539  0.92370  1.0000
  N   N29       1.0  0.92847  0.54818  0.75919  1.0000
  C   C447      1.0  0.88358  0.56815  0.84166  1.0000
  H   H526      1.0  0.67591  0.81258  0.89486  1.0000
  H   H527      1.0  0.71736  0.95486  0.77293  1.0000
  C   C448      1.0  0.80389  0.98084  0.78859  1.0000
  H   H528      1.0  0.84820  0.88140  0.84267  1.0000
  C   C449      1.0  0.90820  0.55776  0.81840  1.0000
  H   H529      1.0  0.57376  0.93192  0.69093  1.0000
  S   S125      1.0  0.68876  0.51531  0.86362  1.0000
  H   H530      1.0  0.93155  0.54645  0.82813  1.0000
  H   H531      1.0  0.83233  0.91861  0.86962  1.0000
  H   H532      1.0  0.91304  0.58286  0.71656  1.0000
  C   C450      1.0  0.84506  0.95712  0.74953  1.0000
  C   C451      1.0  0.90255  0.56115  0.78324  1.0000
  H   H533      1.0  0.64604  0.94093  0.72934  1.0000
  H   H534      1.0  0.95453  0.60290  0.76124  1.0000
  C   C452      1.0  0.81908  0.51701  0.71355  1.0000
  C   C453      1.0  0.91817  0.55215  0.72341  1.0000
  N   N30       1.0  0.66548  0.68900  0.94455  1.0000
  H   H535      1.0  0.62137  0.83392  0.91729  1.0000
  H   H536      1.0  0.79991  0.98646  0.73484  1.0000
  H   H537      1.0  0.89551  0.53430  0.71774  1.0000
  N   N31       1.0  0.87499  0.93551  0.83922  1.0000
  H   H538      1.0  0.86036  0.98103  0.87371  1.0000
  C   C454      1.0  0.85468  0.94890  0.81019  1.0000
  N   N32       1.0  0.58999  0.98447  0.71525  1.0000
  H   H539      1.0  0.97121  0.56653  0.78905  1.0000
  H   H540      1.0  0.71880  0.69905  0.94041  1.0000
  C   C455      1.0  0.86495  0.94401  0.77623  1.0000
  H   H541      1.0  0.83340  0.58970  0.84860  1.0000
  H   H542      1.0  0.97911  0.56351  0.74514  1.0000
  H   H543      1.0  0.51706  0.62273  0.81745  1.0000
  C   C456      1.0  0.87118  0.57679  0.77289  1.0000
  C   C457      1.0  0.54593  0.53192  0.74194  1.0000
  H   H544      1.0  0.94849  0.50157  0.78996  1.0000
  H   H545      1.0  0.69662  0.74780  0.90573  1.0000
  C   C458      1.0  0.62258  0.98491  0.69739  1.0000
  S   S126      1.0  0.83840  0.51349  0.67365  1.0000
  H   H546      1.0  0.94465  0.97927  0.70442  1.0000
  C   C459      1.0  0.95959  0.57131  0.76395  1.0000
  H   H547      1.0  0.67698  0.65255  0.98726  1.0000
  H   H548      1.0  0.92229  0.90821  0.85176  1.0000
  C   C460      1.0  0.66745  0.68225  0.98136  1.0000
  C   C461      1.0  0.68002  0.96011  0.69167  1.0000
  H   H549      1.0  0.88853  0.93089  0.76948  1.0000
  C   C462      1.0  0.71458  0.53499  0.98305  1.0000
  H   H550      1.0  0.82279  0.59836  0.78806  1.0000
  C   C463      1.0  0.88296  0.96894  0.86134  1.0000
  H   H551      1.0  0.55090  0.94357  0.72855  1.0000
  C   C464      1.0  0.69887  0.67971  0.93021  1.0000
  H   H552      1.0  0.68460  0.70362  0.99349  1.0000
  H   H553      1.0  0.63936  0.66498  0.90229  1.0000
  C   C465      1.0  0.67330  0.75569  0.91755  1.0000
  H   H554      1.0  0.93818  0.54207  0.70603  1.0000
  C   C466      1.0  0.95268  0.99118  0.75709  1.0000
  H   H555      1.0  0.51623  0.55212  0.80674  1.0000
  H   H556      1.0  0.86425  0.58009  0.74678  1.0000
  H   H557      1.0  0.88808  0.56443  0.86836  1.0000
  H   H558      1.0  0.61196  0.97890  0.76467  1.0000
  H   H559      1.0  0.97499  0.97350  0.75891  1.0000
  H   H560      1.0  0.69868  0.68208  0.90224  1.0000
  H   H561      1.0  0.70648  0.64931  0.93617  1.0000
  C   C467      1.0  0.93616  0.50665  0.76528  1.0000
  H   H562      1.0  0.78022  0.99535  0.79324  1.0000
  H   H563      1.0  0.90085  0.96098  0.88178  1.0000
  C   C468      1.0  0.85568  0.90636  0.85879  1.0000
  C   C469      1.0  0.66170  0.79325  0.91105  1.0000
  C   C470      1.0  0.73605  0.50718  0.96932  1.0000
  C   C471      1.0  0.57618  0.94440  0.71658  1.0000
  H   H564      1.0  0.85361  0.95379  0.72381  1.0000
  H   H565      1.0  0.81389  0.97234  0.84054  1.0000
  H   H566      1.0  0.64834  0.63065  0.93518  1.0000
  H   H567      1.0  0.69986  0.94117  0.70045  1.0000
  C   C472      1.0  0.70633  0.98342  0.77119  1.0000
  H   H568      1.0  0.87057  0.89480  0.88032  1.0000
  H   H569      1.0  0.92341  0.93785  0.81516  1.0000
  C   C473      1.0  0.64100  0.66125  0.93002  1.0000
  C   C474      1.0  0.67791  0.99214  0.79062  1.0000
  H   H570      1.0  0.71686  0.50027  0.77153  1.0000
  C   C475      1.0  0.64892  0.95997  0.70785  1.0000
  H   H571      1.0  0.73645  0.50287  0.94241  1.0000
  C   C476      1.0  0.61172  0.78016  0.94314  1.0000
  H   H572      1.0  0.58727  0.78942  0.95182  1.0000
  H   H573      1.0  0.60708  0.72404  0.96485  1.0000
  H   H574      1.0  0.55287  0.51845  0.66561  1.0000
  H   H575      1.0  0.61534  0.66484  0.94027  1.0000
  C   C477      1.0  0.62323  0.74271  0.95017  1.0000
  C   C478      1.0  0.81445  0.49940  0.77254  1.0000
  S   S127      1.0  0.50378  0.98454  0.77343  1.0000
  H   H576      1.0  0.64258  0.68440  0.99371  1.0000
  S   S128      1.0  0.56748  0.99696  0.84324  1.0000
  C   C479      1.0  0.96804  0.99569  0.98352  1.0000
  C   C480      1.0  0.68617  0.98574  0.66525  1.0000
